data_PCOD8158973
_publ_section_title
;
Structure prediction by ZEFSAII (Michael W. Deem and Ramdas Pophale) SiO2 
 PCOD8158973
Probable space group: C 2 2 21
;
_chemical_formula_sum "Si O2"
_cell_formula_units_Z 52
_cell_length_a 8.593052
_cell_length_b 11.439221
_cell_length_c 23.548074
_cell_angle_alpha 90.000000
_cell_angle_beta 90.000000
_cell_angle_gamma 90.000000
_cell_volume 2314.724360
_symmetry_space_group_name_H-M "C 2 2 21"
_symmetry_group_IT_number 20
_symmetry_cell_setting 'orthorhombic'
loop_
_space_group_symop_operation_xyz
x,y,z
-x,-y,1/2+z
x,-y,-z
-x,y,1/2-z
1/2+x,1/2+y,z
1/2-x,1/2-y,1/2+z
1/2+x,1/2-y,-z
1/2-x,1/2+y,1/2-z
loop_
_atom_site_type_symbol
_atom_site_label
_atom_site_fract_x
_atom_site_fract_y
_atom_site_fract_z
Si Si1 0.540769 0.258975 0.072833
Si Si2 0.000000 0.805418 0.250000
Si Si3 0.466065 0.111866 0.809866
Si Si4 0.373678 0.554962 0.655266
Si Si5 0.464910 0.333401 0.877473
Si Si6 0.863359 0.624887 0.323799
Si Si7 0.193253 0.862499 0.508155
O O1 0.631729 0.373618 0.096117
O O2 0.519946 0.171310 0.126279
O O3 0.644352 0.198361 0.024005
O O4 0.373669 0.299718 0.048459
O O5 0.013743 0.891537 0.304770
O O6 0.864091 0.712672 0.268854
O O7 0.500000 0.176350 0.750000
O O8 0.289370 0.066905 0.812467
O O9 0.507154 0.200765 0.860669
O O10 0.585984 0.004896 0.809529
O O11 0.397940 0.419227 0.641915
O O12 0.310288 0.376197 0.846186
O O13 0.439170 0.342273 0.944532
O O14 0.223168 0.000000 0.500000
#
# Coordination Sequence:
#
# PCOD8158973 Si02
#       7
#     8   4   8   8   8   8   8
#     4  10  23  46  68  97 135 170 222 277 331 394
#     4  10  20  40  70  90 138 172 214 274 330 380
#     4  12  26  43  67 100 137 177 223 269 333 401
#     4  11  24  44  66  97 137 173 220 278 323 400
#     4  11  25  45  67  99 137 172 225 274 333 398
#     4  10  23  44  66  99 137 171 223 278 325 400
#     4  11  22  44  71  98 133 175 219 278 337 392
#
# _framework density 22.464877000000001
#
# number of rings (size 3 to 8) (size 9 to 14) (size 15 to 20)
#    0.000    1.231    6.923    0.000    3.231    4.923 
#    2.769    0.000    0.000    0.000    0.000    0.000 
#    0.000    0.000    0.000    0.000    0.000    0.000 
#
# Total GULP energy -322187.027796 kJ/mol
# GULP energy per Si atom -12391.808761 kJ/mol
# Density = 2.241375 g / cm^3
# Si number density = 22.464877 Si / 1000 Ang^3
#
#
#
# Elastic Constant Matrix: (Units=GPa)
#
#
# Indices 1 2 3 4 5 6 
#
# 1 38.6051 11.3800 11.1718 0.0000 0.0000 0.0000
# 2 11.3800 113.6018 7.0065 0.0000 0.0000 0.0000
# 3 11.1718 7.0065 47.7305 0.0000 0.0000 0.0000
# 4 0.0000 0.0000 0.0000 29.4966 0.0000 0.0000
# 5 0.0000 0.0000 0.0000 0.0000 41.1406 0.0000
# 6 0.0000 0.0000 0.0000 0.0000 0.0000 21.0346
#
#
#
# Elastic Compliance Matrix: (Units=1/GPa)
#
#
# Indices 1 2 3 4 5 6 
#
# 1 0.028452 -0.002462 -0.006298 0.000000 0.000000 0.000000
# 2 -0.002462 0.009096 -0.000759 0.000000 0.000000 0.000000
# 3 -0.006298 -0.000759 0.022537 0.000000 0.000000 0.000000
# 4 0.000000 0.000000 0.000000 0.033902 0.000000 0.000000
# 5 0.000000 0.000000 0.000000 0.000000 0.024307 0.000000
# 6 0.000000 0.000000 0.000000 0.000000 0.000000 0.047541
#
#
# Mechanical properties :
#
#
# Convention : Reuss Voigt Hill
#
# Bulk Modulus (GPa) = 24.36256 28.78379 26.57317
# Shear Modulus (GPa) = 25.18210 29.69297 27.43753
#
# Velocity S-wave (km/s) = 3.35170 3.63953 3.49858
# Velocity P-wave (km/s) = 5.08397 5.52288 5.30797
#
# Compressibility (1/GPa) = 0.04104659
#
# Stress axis : x y z
#
# Youngs Moduli (GPa) = 35.14745 109.93732 44.37245
#
# Poissons Ratio (x) = 0.27063 0.27946
# Poissons Ratio (y) = 0.08652 0.03368
# Poissons Ratio (z) = 0.22136 0.08345
#
# Static dielectric constant tensor:
#      x y z
#    x 3.629950 0.000000 0.000000 
#    y 0.000000 4.174190 0.000000 
#    z 0.000000 0.000000 4.303740 
# 
# 
# High freq. dielectric constant tensor:
#      x y z
#    x 1.853940 0.000000 0.000000 
#    y 0.000000 1.897880 0.000000 
#    z 0.000000 0.000000 1.889430 
# 
# From -- ./inp_files/30106.got.cif
#   From: 2010.03.12/outbox.cif.g09.slc.cpg/sg20_16_cif.got.tgz:30106.got - 2010.04.14 01:38:04.
