data_PCOD8158901
_publ_section_title
;
Structure prediction by ZEFSAII (Michael W. Deem and Ramdas Pophale) SiO2 
 PCOD8158901
Probable space group: C 2 2 21
;
_chemical_formula_sum "Si O2"
_cell_formula_units_Z 32
_cell_length_a 4.983404
_cell_length_b 35.824236
_cell_length_c 7.965933
_cell_angle_alpha 90.000000
_cell_angle_beta 90.000000
_cell_angle_gamma 90.000000
_cell_volume 1422.131261
_symmetry_space_group_name_H-M "C 2 2 21"
_symmetry_group_IT_number 20
_symmetry_cell_setting 'orthorhombic'
loop_
_space_group_symop_operation_xyz
x,y,z
-x,-y,1/2+z
x,-y,-z
-x,y,1/2-z
1/2+x,1/2+y,z
1/2-x,1/2-y,1/2+z
1/2+x,1/2-y,-z
1/2-x,1/2+y,1/2-z
loop_
_atom_site_type_symbol
_atom_site_label
_atom_site_fract_x
_atom_site_fract_y
_atom_site_fract_z
Si Si1 0.498924 0.146324 0.448247
Si Si2 0.478666 0.228454 0.054119
Si Si3 0.493904 0.400194 0.551400
Si Si4 0.261603 0.529051 0.640017
O O1 0.500000 0.149514 0.250000
O O2 0.455573 0.187688 0.526472
O O3 0.281169 0.115718 0.508916
O O4 0.790515 0.132348 0.500620
O O5 0.500000 0.225120 0.250000
O O6 0.175147 0.240126 0.015679
O O7 0.500000 0.409624 0.750000
O O8 0.407230 0.436100 0.447324
O O9 0.160537 0.500000 0.500000
O O10 0.500000 0.510303 0.750000
O O11 0.000000 0.540070 0.750000
#
# Coordination Sequence:
#
# PCOD8158901 Si02
#       4
#     8   8   8   8
#     4   9  19  36  61  88 119 162 208 250 305 374
#     4  11  22  39  61  89 124 165 211 258 309 369
#     4  10  20  39  65  90 118 160 209 255 303 363
#     4  12  26  44  66  95 129 165 203 251 305 366
#
# _framework density 22.501441
#
# number of rings (size 3 to 8) (size 9 to 14) (size 15 to 20)
#    0.000    1.500    0.000    5.250    0.000    7.000 
#    0.000   12.500    0.000    0.000    0.000    0.000 
#    0.000    0.000    0.000    0.000    0.000    0.000 
#
# Total GULP energy -198348.395482 kJ/mol
# GULP energy per Si atom -12396.774718 kJ/mol
# Density = 2.245023 g / cm^3
# Si number density = 22.501441 Si / 1000 Ang^3
#
#
#
# Elastic Constant Matrix: (Units=GPa)
#
#
# Indices 1 2 3 4 5 6 
#
# 1 128.8791 31.0824 34.1193 0.0000 0.0000 0.0000
# 2 31.0824 131.6812 40.9328 0.0000 0.0000 0.0000
# 3 34.1193 40.9328 68.8258 0.0000 0.0000 0.0000
# 4 0.0000 0.0000 0.0000 16.5706 0.0000 0.0000
# 5 0.0000 0.0000 0.0000 0.0000 35.3643 0.0000
# 6 0.0000 0.0000 0.0000 0.0000 0.0000 13.3275
#
#
#
# Elastic Compliance Matrix: (Units=1/GPa)
#
#
# Indices 1 2 3 4 5 6 
#
# 1 0.009019 -0.000907 -0.003932 0.000000 0.000000 0.000000
# 2 -0.000907 0.009408 -0.005146 0.000000 0.000000 0.000000
# 3 -0.003932 -0.005146 0.019539 0.000000 0.000000 0.000000
# 4 0.000000 0.000000 0.000000 0.060348 0.000000 0.000000
# 5 0.000000 0.000000 0.000000 0.000000 0.028277 0.000000
# 6 0.000000 0.000000 0.000000 0.000000 0.000000 0.075033
#
#
# Mechanical properties :
#
#
# Convention : Reuss Voigt Hill
#
# Bulk Modulus (GPa) = 55.56383 60.18389 57.87386
# Shear Modulus (GPa) = 21.96937 27.93593 24.95265
#
# Velocity S-wave (km/s) = 3.12806 3.52734 3.33368
# Velocity P-wave (km/s) = 6.14763 6.58743 6.37133
#
# Compressibility (1/GPa) = 0.01799732
#
# Stress axis : x y z
#
# Youngs Moduli (GPa) = 110.88025 106.29735 51.18052
#
# Poissons Ratio (x) = 0.09637 0.20123
# Poissons Ratio (y) = 0.10053 0.26335
# Poissons Ratio (z) = 0.43595 0.54695
#
# Static dielectric constant tensor:
#      x y z
#    x 4.567140 0.000000 0.000000 
#    y 0.000000 4.304230 0.000000 
#    z 0.000000 0.000000 4.140370 
# 
# 
# High freq. dielectric constant tensor:
#      x y z
#    x 1.900780 0.000000 0.000000 
#    y 0.000000 1.893350 0.000000 
#    z 0.000000 0.000000 1.871260 
# 
# From -- ./inp_files/5229.got.cif
#   From: 2010.03.12/outbox.cif.g09.slc.cpg/sg20_3_cif.got.tgz:5229.got - 2010.04.14 01:38:04.
