data_PCOD8158095
_publ_section_title
;
Structure prediction by ZEFSAII (Michael W. Deem and Ramdas Pophale) SiO2 
 PCOD8158095
Probable space group: C 2 2 21
;
_chemical_formula_sum "Si O2"
_cell_formula_units_Z 64
_cell_length_a 19.741852
_cell_length_b 10.023483
_cell_length_c 17.474685
_cell_angle_alpha 90.000000
_cell_angle_beta 90.000000
_cell_angle_gamma 90.000000
_cell_volume 3457.927678
_symmetry_space_group_name_H-M "C 2 2 21"
_symmetry_group_IT_number 20
_symmetry_cell_setting 'orthorhombic'
loop_
_space_group_symop_operation_xyz
x,y,z
-x,-y,1/2+z
x,-y,-z
-x,y,1/2-z
1/2+x,1/2+y,z
1/2-x,1/2-y,1/2+z
1/2+x,1/2-y,-z
1/2-x,1/2+y,1/2-z
loop_
_atom_site_type_symbol
_atom_site_label
_atom_site_fract_x
_atom_site_fract_y
_atom_site_fract_z
Si Si1 0.948729 0.827024 0.311446
Si Si2 0.184691 0.687812 0.136546
Si Si3 0.827222 0.268053 0.177554
Si Si4 0.748441 0.849916 0.015079
Si Si5 0.863392 0.966086 0.194294
Si Si6 0.448662 0.622564 0.942223
Si Si7 0.128438 0.655580 0.522406
Si Si8 0.782670 0.599798 0.681705
O O1 0.888181 0.732611 0.335670
O O2 0.917100 0.951400 0.263499
O O3 0.000000 0.755916 0.250000
O O4 0.984222 0.872086 0.389695
O O5 0.247765 0.783511 0.156628
O O6 0.195213 0.551684 0.181301
O O7 0.186615 0.669163 0.044660
O O8 0.872808 0.345742 0.115143
O O9 0.835694 0.326070 0.262788
O O10 0.852877 0.118780 0.175844
O O11 0.715098 0.833474 0.098168
O O12 0.804920 0.736379 0.004187
O O13 0.779486 0.000000 0.000000
O O14 0.885782 0.899463 0.114444
O O15 0.793640 0.891916 0.215574
O O16 0.457960 0.500000 0.000000
O O17 0.435824 0.762909 0.987319
O O18 0.128040 0.500000 0.500000
#
# Coordination Sequence:
#
# PCOD8158095 Si02
#       8
#     8   8   8   8   8   8   8   8
#     4  10  22  38  60  85 116 161 210 254 279 368
#     4   9  19  36  55  88 123 150 204 244 311 356
#     4  10  20  33  58  90 125 149 186 267 309 362
#     4   9  18  36  60  86 119 163 196 246 306 380
#     4  10  19  36  60  87 116 147 215 243 294 362
#     4  11  21  41  66  77 111 170 210 240 291 364
#     4  11  22  35  58  94 123 150 203 256 306 359
#     4  10  18  32  62  87 119 164 182 250 319 368
#
# _framework density 18.508196000000002
#
# number of rings (size 3 to 8) (size 9 to 14) (size 15 to 20)
#    0.000    2.000    3.750    1.125    0.000    4.000 
#    2.250    2.500    0.000    0.750    0.000    0.000 
#    0.000    0.000    0.000    0.000    0.000    0.000 
#
# Total GULP energy -396499.195817 kJ/mol
# GULP energy per Si atom -12390.599869 kJ/mol
# Density = 1.846607 g / cm^3
# Si number density = 18.508196 Si / 1000 Ang^3
#
#
#
# Elastic Constant Matrix: (Units=GPa)
#
#
# Indices 1 2 3 4 5 6 
#
# 1 87.6613 34.1494 42.9618 0.0000 0.0000 0.0000
# 2 34.1494 81.7576 45.5684 0.0000 0.0000 0.0000
# 3 42.9618 45.5684 136.9657 0.0000 0.0000 0.0000
# 4 0.0000 0.0000 0.0000 27.5280 0.0000 0.0000
# 5 0.0000 0.0000 0.0000 0.0000 33.0696 0.0000
# 6 0.0000 0.0000 0.0000 0.0000 0.0000 18.1405
#
#
#
# Elastic Compliance Matrix: (Units=1/GPa)
#
#
# Indices 1 2 3 4 5 6 
#
# 1 0.014649 -0.004368 -0.003142 0.000000 0.000000 0.000000
# 2 -0.004368 0.016318 -0.004059 0.000000 0.000000 0.000000
# 3 -0.003142 -0.004059 0.009637 0.000000 0.000000 0.000000
# 4 0.000000 0.000000 0.000000 0.036327 0.000000 0.000000
# 5 0.000000 0.000000 0.000000 0.000000 0.030239 0.000000
# 6 0.000000 0.000000 0.000000 0.000000 0.000000 0.055125
#
#
# Mechanical properties :
#
#
# Convention : Reuss Voigt Hill
#
# Bulk Modulus (GPa) = 57.25082 61.30488 59.27785
# Shear Modulus (GPa) = 26.14328 27.99462 27.06895
#
# Velocity S-wave (km/s) = 3.76243 3.89337 3.82846
# Velocity P-wave (km/s) = 7.06218 7.30795 7.18612
#
# Compressibility (1/GPa) = 0.01746700
#
# Stress axis : x y z
#
# Youngs Moduli (GPa) = 68.26543 61.28250 103.76680
#
# Poissons Ratio (x) = 0.26765 0.32601
# Poissons Ratio (y) = 0.29815 0.42119
# Poissons Ratio (z) = 0.21447 0.24875
#
# Static dielectric constant tensor:
#      x y z
#    x 3.321180 0.000000 0.000000 
#    y 0.000000 3.203050 0.000000 
#    z 0.000000 0.000000 3.771750 
# 
# 
# High freq. dielectric constant tensor:
#      x y z
#    x 1.691630 0.000000 0.000000 
#    y 0.000000 1.698310 0.000000 
#    z 0.000000 0.000000 1.740350 
# 
# From -- ./inp_files/25500.got.cif
#   From: 2010.03.12/outbox.cif.g09.slc.cpg/sg20_13_cif.got.tgz:25500.got - 2010.04.14 01:38:04.
