data_PCOD8158277
_publ_section_title
;
Structure prediction by ZEFSAII (Michael W. Deem and Ramdas Pophale) SiO2 
 PCOD8158277
Probable space group: C 2 2 21
;
_chemical_formula_sum "Si O2"
_cell_formula_units_Z 64
_cell_length_a 18.628430
_cell_length_b 9.108236
_cell_length_c 20.915387
_cell_angle_alpha 90.000000
_cell_angle_beta 90.000000
_cell_angle_gamma 90.000000
_cell_volume 3548.758403
_symmetry_space_group_name_H-M "C 2 2 21"
_symmetry_group_IT_number 20
_symmetry_cell_setting 'orthorhombic'
loop_
_space_group_symop_operation_xyz
x,y,z
-x,-y,1/2+z
x,-y,-z
-x,y,1/2-z
1/2+x,1/2+y,z
1/2-x,1/2-y,1/2+z
1/2+x,1/2-y,-z
1/2-x,1/2+y,1/2-z
loop_
_atom_site_type_symbol
_atom_site_label
_atom_site_fract_x
_atom_site_fract_y
_atom_site_fract_z
Si Si1 0.333941 0.173007 0.877769
Si Si2 0.578155 0.324691 1.000000
Si Si3 0.825497 0.828625 0.755756
Si Si4 0.426895 0.828403 0.000000
Si Si5 0.674503 0.671375 0.744244
Si Si6 0.666059 0.173007 0.377769
Si Si7 0.671802 0.670235 0.884330
Si Si8 0.828198 0.829765 0.615670
O O1 0.367675 0.253025 0.814803
O O2 0.252915 0.233782 0.889132
O O3 0.333832 0.000000 0.864725
O O4 0.381475 0.216807 0.938081
O O5 0.498936 0.262670 1.000000
O O6 0.619743 0.260805 0.062230
O O7 0.573063 0.500000 0.000000
O O8 0.619743 0.260805 0.937770
O O9 0.750000 0.750000 0.750000
O O10 0.863152 0.804651 0.686338
O O11 0.815204 0.000000 0.769981
O O12 0.381475 0.783193 0.938081
O O13 0.444732 0.000000 0.000000
O O14 0.632325 0.746975 0.685197
O O15 0.636848 0.695349 0.813662
O O16 0.747085 0.233782 0.389132
O O17 0.678862 0.500000 0.900273
#
# Coordination Sequence:
#
# PCOD8158277 Si02
#       8
#     8   8   8   8   8   8   8   8
#     4   9  17  32  53  73  95 126 163 200 240 288
#     4  10  19  33  51  69  93 126 164 200 234 282
#     4   9  16  28  48  75 102 124 155 200 245 287
#     4  10  21  35  49  69  99 130 160 200 248 290
#     4   9  16  28  48  75 102 124 155 200 245 287
#     4   9  17  32  53  73  95 126 163 200 240 288
#     4   8  15  29  51  74  92 119 159 198 234 276
#     4   8  15  29  51  74  92 119 159 198 234 276
#
# _framework density 18.034478
#
# number of rings (size 3 to 8) (size 9 to 14) (size 15 to 20)
#    0.000    3.000    0.000    3.000    0.000    4.000 
#    0.000    7.500    0.000    9.000    0.000    0.000 
#    0.000    0.000    0.000    0.000    0.000    0.000 
#
# Total GULP energy -396507.481801 kJ/mol
# GULP energy per Si atom -12390.858806 kJ/mol
# Density = 1.799343 g / cm^3
# Si number density = 18.034478 Si / 1000 Ang^3
#
#
#
# Elastic Constant Matrix: (Units=GPa)
#
#
# Indices 1 2 3 4 5 6 
#
# 1 86.7659 29.3397 73.9910 0.0000 0.0000 0.0000
# 2 29.3397 49.4342 59.0664 0.0000 0.0000 0.0000
# 3 73.9910 59.0664 197.7061 0.0000 0.0000 0.0000
# 4 0.0000 0.0000 0.0000 30.5927 0.0000 0.0000
# 5 0.0000 0.0000 0.0000 0.0000 5.3436 0.0000
# 6 0.0000 0.0000 0.0000 0.0000 0.0000 23.0074
#
#
#
# Elastic Compliance Matrix: (Units=1/GPa)
#
#
# Indices 1 2 3 4 5 6 
#
# 1 0.017413 -0.003963 -0.005333 0.000000 0.000000 0.000000
# 2 -0.003963 0.032361 -0.008185 0.000000 0.000000 0.000000
# 3 -0.005333 -0.008185 0.009499 0.000000 0.000000 0.000000
# 4 0.000000 0.000000 0.000000 0.032687 0.000000 0.000000
# 5 0.000000 0.000000 0.000000 0.000000 0.187139 0.000000
# 6 0.000000 0.000000 0.000000 0.000000 0.000000 0.043464
#
#
# Mechanical properties :
#
#
# Convention : Reuss Voigt Hill
#
# Bulk Modulus (GPa) = 41.13275 73.18893 57.16084
# Shear Modulus (GPa) = 13.67509 23.22269 18.44889
#
# Velocity S-wave (km/s) = 2.75667 3.59232 3.20187
# Velocity P-wave (km/s) = 5.74366 7.60771 6.74043
#
# Compressibility (1/GPa) = 0.02431153
#
# Stress axis : x y z
#
# Youngs Moduli (GPa) = 57.42858 30.90173 105.27283
#
# Poissons Ratio (x) = 0.12246 0.56140
# Poissons Ratio (y) = 0.22758 0.86165
# Poissons Ratio (z) = 0.30626 0.25293
#
# Static dielectric constant tensor:
#      x y z
#    x 3.091570 0.000000 0.000000 
#    y 0.000000 3.197130 0.000000 
#    z 0.000000 0.000000 5.223130 
# 
# 
# High freq. dielectric constant tensor:
#      x y z
#    x 1.656860 0.000000 0.000000 
#    y 0.000000 1.673040 0.000000 
#    z 0.000000 0.000000 1.726380 
# 
# From -- ./inp_files/27950.got.cif
#   From: 2010.03.12/outbox.cif.g09.slc.cpg/sg20_14_cif.got.tgz:27950.got - 2010.04.14 01:38:04.
