data_PCOD8158039
_publ_section_title
;
Structure prediction by ZEFSAII (Michael W. Deem and Ramdas Pophale) SiO2 
 PCOD8158039
Probable space group: C 2 2 21
;
_chemical_formula_sum "Si O2"
_cell_formula_units_Z 64
_cell_length_a 8.324468
_cell_length_b 22.233886
_cell_length_c 18.967288
_cell_angle_alpha 90.000000
_cell_angle_beta 90.000000
_cell_angle_gamma 90.000000
_cell_volume 3510.565668
_symmetry_space_group_name_H-M "C 2 2 21"
_symmetry_group_IT_number 20
_symmetry_cell_setting 'orthorhombic'
loop_
_space_group_symop_operation_xyz
x,y,z
-x,-y,1/2+z
x,-y,-z
-x,y,1/2-z
1/2+x,1/2+y,z
1/2-x,1/2-y,1/2+z
1/2+x,1/2-y,-z
1/2-x,1/2+y,1/2-z
loop_
_atom_site_type_symbol
_atom_site_label
_atom_site_fract_x
_atom_site_fract_y
_atom_site_fract_z
Si Si1 0.930415 0.147221 0.326730
Si Si2 0.670398 0.935144 0.273349
Si Si3 0.285292 0.702050 0.929266
Si Si4 0.424705 0.514587 0.326909
Si Si5 0.909139 0.100330 0.852236
Si Si6 0.067459 0.754483 0.573133
Si Si7 0.269957 0.677603 0.670889
Si Si8 0.658586 0.232660 0.290252
O O1 0.754381 0.173914 0.314587
O O2 0.000000 0.140919 0.250000
O O3 0.040858 0.188903 0.375478
O O4 0.921050 0.080697 0.362450
O O5 0.500000 0.960684 0.250000
O O6 0.744087 0.990089 0.317732
O O7 0.791726 0.910466 0.213507
O O8 0.640333 0.876215 0.321424
O O9 0.309416 0.630064 0.916862
O O10 0.376059 0.732670 0.862951
O O11 0.097057 0.716936 0.933191
O O12 0.380682 0.721898 0.997710
O O13 0.500000 0.518785 0.250000
O O14 0.521970 0.465489 0.374215
O O15 0.054451 0.146489 0.832416
O O16 0.214559 0.713722 0.601301
O O17 0.248819 0.722362 0.737600
O O18 0.500000 0.210239 0.250000
#
# Coordination Sequence:
#
# PCOD8158039 Si02
#       8
#     8   8   8   8   8   8   8   8
#     4  10  20  36  54  79 111 150 192 221 280 346
#     4  10  18  28  53  83 111 143 184 243 279 320
#     4  11  22  35  51  82 114 144 185 231 289 338
#     4   8  18  33  51  76 107 144 187 236 273 326
#     4  10  18  34  55  80 108 142 187 236 281 324
#     4  11  24  35  55  83 119 148 182 235 287 352
#     4  11  18  32  53  82 114 142 185 231 285 340
#     4  11  20  32  57  81 113 148 185 230 281 344
#
# _framework density 18.230678999999999
#
# number of rings (size 3 to 8) (size 9 to 14) (size 15 to 20)
#    0.000    1.750    3.750    2.625    1.750    0.500 
#    0.000    0.625    0.000    0.000    0.000    7.000 
#    0.000    0.000    0.000    0.000    0.000    0.000 
#
# Total GULP energy -396431.807569 kJ/mol
# GULP energy per Si atom -12388.493987 kJ/mol
# Density = 1.818919 g / cm^3
# Si number density = 18.230679 Si / 1000 Ang^3
#
#
#
# Elastic Constant Matrix: (Units=GPa)
#
#
# Indices 1 2 3 4 5 6 
#
# 1 87.9713 42.2990 19.7651 0.0000 0.0000 0.0000
# 2 42.2990 122.8073 18.7026 0.0000 0.0000 0.0000
# 3 19.7651 18.7026 67.6550 0.0000 0.0000 0.0000
# 4 0.0000 0.0000 0.0000 18.0291 0.0000 0.0000
# 5 0.0000 0.0000 0.0000 0.0000 27.4634 0.0000
# 6 0.0000 0.0000 0.0000 0.0000 0.0000 23.6767
#
#
#
# Elastic Compliance Matrix: (Units=1/GPa)
#
#
# Indices 1 2 3 4 5 6 
#
# 1 0.014152 -0.004431 -0.002909 0.000000 0.000000 0.000000
# 2 -0.004431 0.009888 -0.001439 0.000000 0.000000 0.000000
# 3 -0.002909 -0.001439 0.016029 0.000000 0.000000 0.000000
# 4 0.000000 0.000000 0.000000 0.055466 0.000000 0.000000
# 5 0.000000 0.000000 0.000000 0.000000 0.036412 0.000000
# 6 0.000000 0.000000 0.000000 0.000000 0.000000 0.042236
#
#
# Mechanical properties :
#
#
# Convention : Reuss Voigt Hill
#
# Bulk Modulus (GPa) = 44.42584 48.88521 46.65552
# Shear Modulus (GPa) = 25.09480 27.01164 26.05322
#
# Velocity S-wave (km/s) = 3.71417 3.85341 3.78443
# Velocity P-wave (km/s) = 6.54332 6.83164 6.68903
#
# Compressibility (1/GPa) = 0.02250942
#
# Stress axis : x y z
#
# Youngs Moduli (GPa) = 70.66309 101.13013 62.38845
#
# Poissons Ratio (x) = 0.44813 0.18151
# Poissons Ratio (y) = 0.31312 0.08977
# Poissons Ratio (z) = 0.20558 0.14552
#
# Static dielectric constant tensor:
#      x y z
#    x 3.344930 0.000000 0.000000 
#    y 0.000000 3.863040 0.000000 
#    z 0.000000 0.000000 3.105460 
# 
# 
# High freq. dielectric constant tensor:
#      x y z
#    x 1.707970 0.000000 0.000000 
#    y 0.000000 1.709310 0.000000 
#    z 0.000000 0.000000 1.672130 
# 
# From -- ./inp_files/26950.got.cif
#   From: 2010.03.12/outbox.cif.g09.slc.cpg/sg20_14_cif.got.tgz:26950.got - 2010.04.14 01:38:04.
