data_PCOD8158464
_publ_section_title
;
Structure prediction by ZEFSAII (Michael W. Deem and Ramdas Pophale) SiO2 
 PCOD8158464
Probable space group: C 2 2 21
;
_chemical_formula_sum "Si O2"
_cell_formula_units_Z 48
_cell_length_a 11.241531
_cell_length_b 20.815410
_cell_length_c 10.887865
_cell_angle_alpha 90.000000
_cell_angle_beta 90.000000
_cell_angle_gamma 90.000000
_cell_volume 2547.728583
_symmetry_space_group_name_H-M "C 2 2 21"
_symmetry_group_IT_number 20
_symmetry_cell_setting 'orthorhombic'
loop_
_space_group_symop_operation_xyz
x,y,z
-x,-y,1/2+z
x,-y,-z
-x,y,1/2-z
1/2+x,1/2+y,z
1/2-x,1/2-y,1/2+z
1/2+x,1/2-y,-z
1/2-x,1/2+y,1/2-z
loop_
_atom_site_type_symbol
_atom_site_label
_atom_site_fract_x
_atom_site_fract_y
_atom_site_fract_z
Si Si1 0.659922 0.852985 0.092694
Si Si2 0.809285 0.056556 0.078952
Si Si3 0.420554 0.986863 0.360335
Si Si4 0.095667 0.175518 0.344547
Si Si5 0.309138 0.746693 0.754175
Si Si6 0.995674 0.745165 0.440944
O O1 0.591877 0.910631 0.161905
O O2 0.729575 0.810926 0.193046
O O3 0.754673 0.885327 0.002113
O O4 0.560146 0.812496 0.019823
O O5 0.902965 0.096781 0.159870
O O6 0.705812 0.022223 0.156242
O O7 0.873100 0.000000 0.000000
O O8 0.500000 0.015236 0.250000
O O9 0.469246 0.000000 0.500000
O O10 0.225099 0.199593 0.304188
O O11 0.000000 0.202173 0.250000
O O12 0.053857 0.199873 0.476578
O O13 0.393870 0.779895 0.857073
O O14 0.393791 0.721667 0.643390
#
# Coordination Sequence:
#
# PCOD8158464 Si02
#       6
#     8   8   8   8   8   8
#     4  10  19  38  57  90 123 156 202 253 308 373
#     4   9  20  41  60  76 123 163 208 248 298 370
#     4   9  21  38  63  87 117 167 212 261 312 364
#     4  12  23  37  60  90 128 159 206 250 308 375
#     4  11  22  36  59  90 130 161 195 252 315 370
#     4  11  22  36  58  92 127 163 195 251 314 374
#
# _framework density 18.840309999999999
#
# number of rings (size 3 to 8) (size 9 to 14) (size 15 to 20)
#    0.000    2.000    5.000    0.000    2.333    2.667 
#    0.000    5.000    0.000    0.000    0.000    0.000 
#    0.000    0.000    0.000    0.000    0.000    0.000 
#
# Total GULP energy -297325.683127 kJ/mol
# GULP energy per Si atom -12388.570130 kJ/mol
# Density = 1.879743 g / cm^3
# Si number density = 18.840310 Si / 1000 Ang^3
#
#
#
# Elastic Constant Matrix: (Units=GPa)
#
#
# Indices 1 2 3 4 5 6 
#
# 1 93.6200 46.0790 61.9721 0.0000 0.0000 0.0000
# 2 46.0790 122.8294 41.8991 0.0000 0.0000 0.0000
# 3 61.9721 41.8991 96.6895 0.0000 0.0000 0.0000
# 4 0.0000 0.0000 0.0000 23.9617 0.0000 0.0000
# 5 0.0000 0.0000 0.0000 0.0000 38.6667 0.0000
# 6 0.0000 0.0000 0.0000 0.0000 0.0000 25.5446
#
#
#
# Elastic Compliance Matrix: (Units=1/GPa)
#
#
# Indices 1 2 3 4 5 6 
#
# 1 0.019854 -0.003646 -0.011145 0.000000 0.000000 0.000000
# 2 -0.003646 0.010223 -0.002093 0.000000 0.000000 0.000000
# 3 -0.011145 -0.002093 0.018393 0.000000 0.000000 0.000000
# 4 0.000000 0.000000 0.000000 0.041733 0.000000 0.000000
# 5 0.000000 0.000000 0.000000 0.000000 0.025862 0.000000
# 6 0.000000 0.000000 0.000000 0.000000 0.000000 0.039147
#
#
# Mechanical properties :
#
#
# Convention : Reuss Voigt Hill
#
# Bulk Modulus (GPa) = 68.02281 68.11548 68.06915
# Shear Modulus (GPa) = 25.78908 28.51383 27.15145
#
# Velocity S-wave (km/s) = 3.70378 3.89453 3.80035
# Velocity P-wave (km/s) = 7.38065 7.51370 7.44747
#
# Compressibility (1/GPa) = 0.01470095
#
# Stress axis : x y z
#
# Youngs Moduli (GPa) = 50.36891 97.81628 54.36987
#
# Poissons Ratio (x) = 0.35667 0.60594
# Poissons Ratio (y) = 0.18366 0.11380
# Poissons Ratio (z) = 0.56135 0.20473
#
# Static dielectric constant tensor:
#      x y z
#    x 3.519360 0.000000 0.000000 
#    y 0.000000 3.482400 0.000000 
#    z 0.000000 0.000000 3.536620 
# 
# 
# High freq. dielectric constant tensor:
#      x y z
#    x 1.727650 0.000000 0.000000 
#    y 0.000000 1.724540 0.000000 
#    z 0.000000 0.000000 1.731710 
# 
# From -- ./inp_files/14103.got.cif
#   From: 2010.03.12/outbox.cif.g09.slc.cpg/sg20_8_cif.got.tgz:14103.got - 2010.04.14 01:38:04.
