data_PCOD8158894
_publ_section_title
;
Structure prediction by ZEFSAII (Michael W. Deem and Ramdas Pophale) SiO2 
 PCOD8158894
Probable space group: C 2 2 21
;
_chemical_formula_sum "Si O2"
_cell_formula_units_Z 44
_cell_length_a 20.107789
_cell_length_b 8.276191
_cell_length_c 13.064412
_cell_angle_alpha 90.000000
_cell_angle_beta 90.000000
_cell_angle_gamma 90.000000
_cell_volume 2174.125912
_symmetry_space_group_name_H-M "C 2 2 21"
_symmetry_group_IT_number 20
_symmetry_cell_setting 'orthorhombic'
loop_
_space_group_symop_operation_xyz
x,y,z
-x,-y,1/2+z
x,-y,-z
-x,y,1/2-z
1/2+x,1/2+y,z
1/2-x,1/2-y,1/2+z
1/2+x,1/2-y,-z
1/2-x,1/2+y,1/2-z
loop_
_atom_site_type_symbol
_atom_site_label
_atom_site_fract_x
_atom_site_fract_y
_atom_site_fract_z
Si Si1 0.358148 0.087059 0.204146
Si Si2 0.309675 0.723934 0.612277
Si Si3 0.432926 0.842437 0.305439
Si Si4 0.567439 0.512827 0.883963
Si Si5 0.293673 0.000000 0.000000
Si Si6 0.000000 0.746101 0.250000
Si Si7 0.116199 0.500000 0.000000
O O1 0.304492 0.182651 0.277122
O O2 0.432947 0.150903 0.222543
O O3 0.366965 0.899255 0.241080
O O4 0.337150 0.095193 0.085282
O O5 0.357951 0.573886 0.629072
O O6 0.244535 0.639364 0.564534
O O7 0.337326 0.849009 0.528867
O O8 0.500000 0.896395 0.250000
O O9 0.433495 0.652627 0.321744
O O10 0.432698 0.944317 0.410453
O O11 0.513325 0.639096 0.845849
O O12 0.546329 0.500000 0.000000
#
# Coordination Sequence:
#
# PCOD8158894 Si02
#       7
#     8   8   8   8   4   4   4
#     4  10  25  42  66  95 136 174 216 282 336 403
#     4  10  22  41  65  91 125 173 219 272 332 399
#     4  11  21  36  61  96 125 169 215 267 331 409
#     4  11  20  37  66  89 125 171 212 264 333 403
#     4  12  24  45  70  98 131 178 230 282 326 398
#     4  10  22  44  58  98 140 160 214 276 344 396
#     4  10  20  39  64  90 125 178 218 264 340 398
#
# _framework density 20.238019000000001
#
# number of rings (size 3 to 8) (size 9 to 14) (size 15 to 20)
#    0.000    1.455    4.545    0.000    0.000    6.545 
#    0.000    1.818    0.000    0.000    0.000    0.000 
#    0.000    0.000    0.000    0.000    0.000    0.000 
#
# Total GULP energy -272554.488795 kJ/mol
# GULP energy per Si atom -12388.840400 kJ/mol
# Density = 2.019196 g / cm^3
# Si number density = 20.238019 Si / 1000 Ang^3
#
#
#
# Elastic Constant Matrix: (Units=GPa)
#
#
# Indices 1 2 3 4 5 6 
#
# 1 77.2928 43.1242 57.3569 0.0000 0.0000 0.0000
# 2 43.1242 102.0596 41.3200 0.0000 0.0000 0.0000
# 3 57.3569 41.3200 156.9568 0.0000 0.0000 0.0000
# 4 0.0000 0.0000 0.0000 33.7942 0.0000 0.0000
# 5 0.0000 0.0000 0.0000 0.0000 38.0418 0.0000
# 6 0.0000 0.0000 0.0000 0.0000 0.0000 7.9712
#
#
#
# Elastic Compliance Matrix: (Units=1/GPa)
#
#
# Indices 1 2 3 4 5 6 
#
# 1 0.020956 -0.006441 -0.005962 0.000000 0.000000 0.000000
# 2 -0.006441 0.012947 -0.001055 0.000000 0.000000 0.000000
# 3 -0.005962 -0.001055 0.008828 0.000000 0.000000 0.000000
# 4 0.000000 0.000000 0.000000 0.029591 0.000000 0.000000
# 5 0.000000 0.000000 0.000000 0.000000 0.026287 0.000000
# 6 0.000000 0.000000 0.000000 0.000000 0.000000 0.125451
#
#
# Mechanical properties :
#
#
# Convention : Reuss Voigt Hill
#
# Bulk Modulus (GPa) = 63.23248 68.87904 66.05576
# Shear Modulus (GPa) = 19.51250 28.92865 24.22058
#
# Velocity S-wave (km/s) = 3.10845 3.78487 3.46321
# Velocity P-wave (km/s) = 6.64797 7.29443 6.97869
#
# Compressibility (1/GPa) = 0.01581466
#
# Stress axis : x y z
#
# Youngs Moduli (GPa) = 47.71948 77.24012 113.28048
#
# Poissons Ratio (x) = 0.49748 0.67542
# Poissons Ratio (y) = 0.30735 0.11947
# Poissons Ratio (z) = 0.28452 0.08146
#
# Static dielectric constant tensor:
#      x y z
#    x 3.426980 0.000000 0.000000 
#    y 0.000000 4.038570 0.000000 
#    z 0.000000 0.000000 3.814960 
# 
# 
# High freq. dielectric constant tensor:
#      x y z
#    x 1.763920 0.000000 0.000000 
#    y 0.000000 1.811020 0.000000 
#    z 0.000000 0.000000 1.798850 
# 
# From -- ./inp_files/13051.got.cif
#   From: 2010.03.12/outbox.cif.g09.slc.cpg/sg20_7_cif.got.tgz:13051.got - 2010.04.14 01:38:04.
