data_PCOD8158432
_publ_section_title
;
Structure prediction by ZEFSAII (Michael W. Deem and Ramdas Pophale) SiO2 
 PCOD8158432
Probable space group: C 2 2 21
;
_chemical_formula_sum "Si O2"
_cell_formula_units_Z 60
_cell_length_a 15.674803
_cell_length_b 32.791858
_cell_length_c 5.352290
_cell_angle_alpha 90.000000
_cell_angle_beta 90.000000
_cell_angle_gamma 90.000000
_cell_volume 2751.108714
_symmetry_space_group_name_H-M "C 2 2 21"
_symmetry_group_IT_number 20
_symmetry_cell_setting 'orthorhombic'
loop_
_space_group_symop_operation_xyz
x,y,z
-x,-y,1/2+z
x,-y,-z
-x,y,1/2-z
1/2+x,1/2+y,z
1/2-x,1/2-y,1/2+z
1/2+x,1/2-y,-z
1/2-x,1/2+y,1/2-z
loop_
_atom_site_type_symbol
_atom_site_label
_atom_site_fract_x
_atom_site_fract_y
_atom_site_fract_z
Si Si1 0.865784 0.122090 0.985761
Si Si2 0.718737 0.500000 0.000000
Si Si3 0.554191 0.199710 0.001603
Si Si4 0.202278 0.761011 0.989811
Si Si5 0.300180 0.083674 0.960476
Si Si6 0.916339 0.038952 0.132216
Si Si7 0.667344 0.879605 0.965285
Si Si8 0.149347 0.851817 0.988087
O O1 0.876588 0.073280 0.950849
O O2 0.908758 0.137848 0.245391
O O3 0.766274 0.133752 0.025110
O O4 0.905319 0.146082 0.747003
O O5 0.779322 0.536336 0.904396
O O6 0.660503 0.521533 0.205335
O O7 0.500000 0.208184 0.250000
O O8 0.611432 0.239553 0.954362
O O9 0.500000 0.192473 0.750000
O O10 0.611916 0.160781 0.059811
O O11 0.235567 0.753454 0.269604
O O12 0.195431 0.809193 0.955614
O O13 0.350009 0.091399 0.222688
O O14 0.214623 0.110705 0.968227
O O15 0.357504 0.097349 0.722820
O O16 0.000000 0.060104 0.250000
O O17 0.957477 0.000000 0.000000
#
# Coordination Sequence:
#
# PCOD8158432 Si02
#       8
#     8   4   8   8   8   8   8   8
#     4  10  21  38  59  87 120 169 231 266 310 404
#     4  12  22  38  58  94 132 170 224 298 314 394
#     4  12  26  44  69 107 142 170 223 292 356 413
#     4  12  23  41  72 102 135 185 228 276 340 421
#     4  10  20  34  62  91 123 163 228 271 315 378
#     4  12  24  37  57  86 131 177 221 282 346 393
#     4  10  19  39  61  87 126 164 208 271 328 400
#     4  10  19  37  58  84 121 162 213 269 315 380
#
# _framework density 21.80939
#
# number of rings (size 3 to 8) (size 9 to 14) (size 15 to 20)
#    0.000    1.067    3.333    7.200    0.000    0.000 
#    0.000    2.000    0.000    0.000    0.000    9.333 
#    0.000    0.000    0.000    0.000    0.000    0.000 
#
# Total GULP energy -371736.802412 kJ/mol
# GULP energy per Si atom -12391.226747 kJ/mol
# Density = 2.175975 g / cm^3
# Si number density = 21.809390 Si / 1000 Ang^3
#
#
#
# Elastic Constant Matrix: (Units=GPa)
#
#
# Indices 1 2 3 4 5 6 
#
# 1 57.1633 26.6423 13.6027 0.0000 0.0000 0.0000
# 2 26.6423 133.7561 26.0239 0.0000 0.0000 0.0000
# 3 13.6027 26.0239 175.6046 0.0000 0.0000 0.0000
# 4 0.0000 0.0000 0.0000 34.4655 0.0000 0.0000
# 5 0.0000 0.0000 0.0000 0.0000 17.0514 0.0000
# 6 0.0000 0.0000 0.0000 0.0000 0.0000 21.2553
#
#
#
# Elastic Compliance Matrix: (Units=1/GPa)
#
#
# Indices 1 2 3 4 5 6 
#
# 1 0.019440 -0.003685 -0.000960 0.000000 0.000000 0.000000
# 2 -0.003685 0.008397 -0.000959 0.000000 0.000000 0.000000
# 3 -0.000960 -0.000959 0.005911 0.000000 0.000000 0.000000
# 4 0.000000 0.000000 0.000000 0.029015 0.000000 0.000000
# 5 0.000000 0.000000 0.000000 0.000000 0.058646 0.000000
# 6 0.000000 0.000000 0.000000 0.000000 0.000000 0.047047
#
#
# Mechanical properties :
#
#
# Convention : Reuss Voigt Hill
#
# Bulk Modulus (GPa) = 44.36600 55.45131 49.90865
# Shear Modulus (GPa) = 26.71270 34.57143 30.64207
#
# Velocity S-wave (km/s) = 3.50355 3.98573 3.75239
# Velocity P-wave (km/s) = 6.06244 6.83096 6.45814
#
# Compressibility (1/GPa) = 0.02253978
#
# Stress axis : x y z
#
# Youngs Moduli (GPa) = 51.44086 119.09098 169.17444
#
# Poissons Ratio (x) = 0.43890 0.16235
# Poissons Ratio (y) = 0.18958 0.16222
# Poissons Ratio (z) = 0.04937 0.11420
#
# Static dielectric constant tensor:
#      x y z
#    x 3.479830 0.000000 0.000000 
#    y 0.000000 4.101650 0.000000 
#    z 0.000000 0.000000 6.492860 
# 
# 
# High freq. dielectric constant tensor:
#      x y z
#    x 1.805000 0.000000 0.000000 
#    y 0.000000 1.863640 0.000000 
#    z 0.000000 0.000000 1.890050 
# 
# From -- ./inp_files/2906.got.cif
#   From: 2010.03.12/outbox.cif.g09.slc.cpg/sg20_2_cif.got.tgz:2906.got - 2010.04.14 01:38:04.
