data_PCOD8158020
_publ_section_title
;
Structure prediction by ZEFSAII (Michael W. Deem and Ramdas Pophale) SiO2 
 PCOD8158020
Probable space group: C 2 2 21
;
_chemical_formula_sum "Si O2"
_cell_formula_units_Z 48
_cell_length_a 17.207879
_cell_length_b 9.778482
_cell_length_c 14.951041
_cell_angle_alpha 90.000000
_cell_angle_beta 90.000000
_cell_angle_gamma 90.000000
_cell_volume 2515.765845
_symmetry_space_group_name_H-M "C 2 2 21"
_symmetry_group_IT_number 20
_symmetry_cell_setting 'orthorhombic'
loop_
_space_group_symop_operation_xyz
x,y,z
-x,-y,1/2+z
x,-y,-z
-x,y,1/2-z
1/2+x,1/2+y,z
1/2-x,1/2-y,1/2+z
1/2+x,1/2-y,-z
1/2-x,1/2+y,1/2-z
loop_
_atom_site_type_symbol
_atom_site_label
_atom_site_fract_x
_atom_site_fract_y
_atom_site_fract_z
Si Si1 0.455051 0.668334 0.830191
Si Si2 0.550963 0.571733 0.093927
Si Si3 0.072363 0.249884 0.480017
Si Si4 0.814128 0.000000 0.000000
Si Si5 0.171786 0.500000 0.500000
Si Si6 0.279217 0.601008 0.815083
Si Si7 0.277034 0.604832 0.339615
O O1 0.500000 0.747219 0.750000
O O2 0.500056 0.526792 0.845161
O O3 0.454256 0.766101 0.916544
O O4 0.369382 0.629287 0.800074
O O5 0.632269 0.597658 0.140559
O O6 0.566784 0.500000 0.000000
O O7 0.503336 0.715025 0.080261
O O8 0.116288 0.388390 0.451337
O O9 0.131032 0.123810 0.470929
O O10 0.761697 0.960979 0.085777
O O11 0.225263 0.575153 0.427116
O O12 0.250389 0.498282 0.738385
O O13 0.234474 0.742587 0.804067
#
# Coordination Sequence:
#
# PCOD8158020 Si02
#       7
#     8   8   8   4   4   8   8
#     4  10  17  35  61  86 111 159 209 246 287 370
#     4  10  19  36  64  89 111 157 220 249 286 376
#     4  10  20  38  65  87 117 166 208 245 314 377
#     4  10  18  41  63  80 118 176 210 238 306 385
#     4  12  24  41  63  92 132 166 196 266 332 373
#     4  11  24  39  61  96 127 166 207 260 322 369
#     4  12  25  39  63  98 127 162 211 268 315 374
#
# _framework density 19.079678000000001
#
# number of rings (size 3 to 8) (size 9 to 14) (size 15 to 20)
#    0.000    1.333   10.000    0.000    2.333    0.000 
#    0.000    2.500    0.000    0.000    0.000    0.000 
#    0.000    0.000    0.000    0.000    0.000    0.000 
#
# Total GULP energy -297538.139037 kJ/mol
# GULP energy per Si atom -12397.422460 kJ/mol
# Density = 1.903625 g / cm^3
# Si number density = 19.079678 Si / 1000 Ang^3
#
#
#
# Elastic Constant Matrix: (Units=GPa)
#
#
# Indices 1 2 3 4 5 6 
#
# 1 61.3299 14.6033 -2.0253 0.0000 0.0000 0.0000
# 2 14.6033 80.0101 -2.1528 0.0000 0.0000 0.0000
# 3 -2.0253 -2.1528 56.5673 0.0000 0.0000 0.0000
# 4 0.0000 0.0000 0.0000 24.7475 0.0000 0.0000
# 5 0.0000 0.0000 0.0000 0.0000 12.4214 0.0000
# 6 0.0000 0.0000 0.0000 0.0000 0.0000 -10.3726
#
#
#
# Elastic Compliance Matrix: (Units=1/GPa)
#
#
# Indices 1 2 3 4 5 6 
#
# 1 0.017060 -0.003100 0.000493 0.000000 0.000000 0.000000
# 2 -0.003100 0.013075 0.000387 0.000000 0.000000 0.000000
# 3 0.000493 0.000387 0.017710 0.000000 0.000000 0.000000
# 4 0.000000 0.000000 0.000000 0.040408 0.000000 0.000000
# 5 0.000000 0.000000 0.000000 0.000000 0.080506 0.000000
# 6 0.000000 0.000000 0.000000 0.000000 0.000000 -0.096408
#
#
# Mechanical properties :
#
#
# Convention : Reuss Voigt Hill
#
# Bulk Modulus (GPa) = 23.04001 24.30642 23.67321
# Shear Modulus (GPa) = 54.78803 17.85809 36.32306
#
# Velocity S-wave (km/s) = 5.36449 3.06269 4.36794
# Velocity P-wave (km/s) = 7.10438 5.02731 6.15411
#
# Compressibility (1/GPa) = 0.04340275
#
# Stress axis : x y z
#
# Youngs Moduli (GPa) = 58.61741 76.48355 56.46400
#
# Poissons Ratio (x) = 0.23713 -0.02783
# Poissons Ratio (y) = 0.18174 -0.02183
# Poissons Ratio (z) = -0.02889 -0.02957
#
# Static dielectric constant tensor:
#      x y z
#    x 3.746470 0.000000 0.000000 
#    y 0.000000 4.270410 0.000000 
#    z 0.000000 0.000000 4.276860 
# 
# 
# High freq. dielectric constant tensor:
#      x y z
#    x 1.734680 0.000000 0.000000 
#    y 0.000000 1.721660 0.000000 
#    z 0.000000 0.000000 1.745620 
# 
# From -- ./inp_files/21317.got.cif
#   From: 2010.03.12/outbox.cif.g09.slc.cpg/sg20_11_cif.got.tgz:21317.got - 2010.04.14 01:38:04.
