data_PCOD8158652
_publ_section_title
;
Structure prediction by ZEFSAII (Michael W. Deem and Ramdas Pophale) SiO2 
 PCOD8158652
Probable space group: C 2 2 21
;
_chemical_formula_sum "Si O2"
_cell_formula_units_Z 56
_cell_length_a 7.851678
_cell_length_b 21.126547
_cell_length_c 16.013172
_cell_angle_alpha 90.000000
_cell_angle_beta 90.000000
_cell_angle_gamma 90.000000
_cell_volume 2656.246465
_symmetry_space_group_name_H-M "C 2 2 21"
_symmetry_group_IT_number 20
_symmetry_cell_setting 'orthorhombic'
loop_
_space_group_symop_operation_xyz
x,y,z
-x,-y,1/2+z
x,-y,-z
-x,y,1/2-z
1/2+x,1/2+y,z
1/2-x,1/2-y,1/2+z
1/2+x,1/2-y,-z
1/2-x,1/2+y,1/2-z
loop_
_atom_site_type_symbol
_atom_site_label
_atom_site_fract_x
_atom_site_fract_y
_atom_site_fract_z
Si Si1 0.018001 0.560521 0.051535
Si Si2 0.294021 0.263369 0.161176
Si Si3 0.500000 0.566245 0.750000
Si Si4 0.657210 0.318197 0.164961
Si Si5 0.775563 0.970536 0.814002
Si Si6 0.500000 0.941238 0.250000
Si Si7 0.501409 0.152511 0.595717
Si Si8 0.164869 0.624638 0.304719
O O1 0.199945 0.544733 0.094908
O O2 0.879951 0.574856 0.122497
O O3 0.953035 0.500000 0.000000
O O4 0.040692 0.621249 0.992769
O O5 0.477977 0.290918 0.129318
O O6 0.274369 0.275061 0.259771
O O7 0.141959 0.294501 0.109033
O O8 0.272189 0.188245 0.149661
O O9 0.362801 0.611296 0.704282
O O10 0.435618 0.517894 0.823088
O O11 0.805978 0.318220 0.095000
O O12 0.804506 0.906285 0.758817
O O13 0.657294 0.011549 0.752380
O O14 0.506944 0.899035 0.167810
O O15 0.000000 0.642096 0.250000
#
# Coordination Sequence:
#
# PCOD8158652 Si02
#       8
#     8   8   4   8   8   4   8   8
#     4  11  23  36  63  93 125 169 208 263 332 387
#     4  10  20  39  62  89 118 159 215 261 313 375
#     4  10  20  36  62  98 122 158 224 274 318 382
#     4  10  20  35  66  91 115 159 211 269 310 372
#     4  11  20  38  64  88 126 168 211 265 322 389
#     4  12  16  34  64  86 110 160 216 250 314 380
#     4  12  21  38  63  95 122 164 213 261 321 386
#     4  10  20  41  62  85 124 167 205 262 322 375
#
# _framework density 21.082381000000002
#
# number of rings (size 3 to 8) (size 9 to 14) (size 15 to 20)
#    0.000    1.429    7.857    0.857    0.000    0.000 
#    5.143    1.429    0.000    0.000    0.000    0.000 
#    0.000    0.000    0.000    0.000    0.000    0.000 
#
# Total GULP energy -346947.884765 kJ/mol
# GULP energy per Si atom -12390.995884 kJ/mol
# Density = 2.103440 g / cm^3
# Si number density = 21.082381 Si / 1000 Ang^3
#
#
#
# Elastic Constant Matrix: (Units=GPa)
#
#
# Indices 1 2 3 4 5 6 
#
# 1 81.1623 39.0754 20.9626 0.0000 0.0000 0.0000
# 2 39.0754 108.9409 34.4271 0.0000 0.0000 0.0000
# 3 20.9626 34.4271 85.5286 0.0000 0.0000 0.0000
# 4 0.0000 0.0000 0.0000 24.4746 0.0000 0.0000
# 5 0.0000 0.0000 0.0000 0.0000 20.2445 0.0000
# 6 0.0000 0.0000 0.0000 0.0000 0.0000 13.5722
#
#
#
# Elastic Compliance Matrix: (Units=1/GPa)
#
#
# Indices 1 2 3 4 5 6 
#
# 1 0.015117 -0.004871 -0.001744 0.000000 0.000000 0.000000
# 2 -0.004871 0.012087 -0.003671 0.000000 0.000000 0.000000
# 3 -0.001744 -0.003671 0.013597 0.000000 0.000000 0.000000
# 4 0.000000 0.000000 0.000000 0.040859 0.000000 0.000000
# 5 0.000000 0.000000 0.000000 0.000000 0.049396 0.000000
# 6 0.000000 0.000000 0.000000 0.000000 0.000000 0.073680
#
#
# Mechanical properties :
#
#
# Convention : Reuss Voigt Hill
#
# Bulk Modulus (GPa) = 49.43776 51.61801 50.52788
# Shear Modulus (GPa) = 21.54699 23.73603 22.64151
#
# Velocity S-wave (km/s) = 3.20040 3.35904 3.28068
# Velocity P-wave (km/s) = 6.09569 6.29137 6.19430
#
# Compressibility (1/GPa) = 0.02022745
#
# Stress axis : x y z
#
# Youngs Moduli (GPa) = 66.15251 82.73655 73.54403
#
# Poissons Ratio (x) = 0.40300 0.12829
# Poissons Ratio (y) = 0.32222 0.27000
# Poissons Ratio (z) = 0.11540 0.30375
#
# Static dielectric constant tensor:
#      x y z
#    x 4.899630 0.000000 0.000000 
#    y 0.000000 4.027750 0.000000 
#    z 0.000000 0.000000 3.724640 
# 
# 
# High freq. dielectric constant tensor:
#      x y z
#    x 1.804270 0.000000 0.000000 
#    y 0.000000 1.842210 0.000000 
#    z 0.000000 0.000000 1.794440 
# 
# From -- ./inp_files/19256.got.cif
#   From: 2010.03.12/outbox.cif.g09.slc.cpg/sg20_10_cif.got.tgz:19256.got - 2010.04.14 01:38:04.
