data_PCOD8158699
_publ_section_title
;
Structure prediction by ZEFSAII (Michael W. Deem and Ramdas Pophale) SiO2 
 PCOD8158699
Probable space group: C 2 2 21
;
_chemical_formula_sum "Si O2"
_cell_formula_units_Z 36
_cell_length_a 9.784393
_cell_length_b 8.892664
_cell_length_c 19.414389
_cell_angle_alpha 90.000000
_cell_angle_beta 90.000000
_cell_angle_gamma 90.000000
_cell_volume 1689.232773
_symmetry_space_group_name_H-M "C 2 2 21"
_symmetry_group_IT_number 20
_symmetry_cell_setting 'orthorhombic'
loop_
_space_group_symop_operation_xyz
x,y,z
-x,-y,1/2+z
x,-y,-z
-x,y,1/2-z
1/2+x,1/2+y,z
1/2-x,1/2-y,1/2+z
1/2+x,1/2-y,-z
1/2-x,1/2+y,1/2-z
loop_
_atom_site_type_symbol
_atom_site_label
_atom_site_fract_x
_atom_site_fract_y
_atom_site_fract_z
Si Si1 0.795514 0.225972 0.111327
Si Si2 0.097479 0.960066 0.146363
Si Si3 0.800683 0.038106 0.797745
Si Si4 0.907574 0.297217 0.387081
Si Si5 0.275422 0.000000 0.500000
O O1 0.665403 0.333679 0.097440
O O2 0.930854 0.326152 0.122499
O O3 0.764374 0.132504 0.180866
O O4 0.816505 0.106472 0.048701
O O5 0.185909 0.959468 0.216238
O O6 0.941277 0.916922 0.162812
O O7 0.112706 0.117858 0.106870
O O8 0.678000 0.147196 0.820979
O O9 0.867002 0.387456 0.455132
#
# Coordination Sequence:
#
# PCOD8158699 Si02
#       5
#     8   8   8   8   4
#     4  10  22  39  60  83 114 153 192 234 281 334
#     4  10  20  36  61  86 114 150 184 227 290 345
#     4   9  20  38  57  87 120 143 180 235 287 343
#     4  10  22  38  59  84 114 152 193 236 282 333
#     4  10  24  40  54  82 120 150 194 244 276 324
#
# _framework density 21.311450000000001
#
# number of rings (size 3 to 8) (size 9 to 14) (size 15 to 20)
#    0.000    2.222    0.000    1.333    0.000   14.222 
#    0.000    0.000    0.000    1.333    0.000    0.000 
#    0.000    0.000    0.000    0.000    0.000    0.000 
#
# Total GULP energy -223131.905671 kJ/mol
# GULP energy per Si atom -12396.216982 kJ/mol
# Density = 2.126294 g / cm^3
# Si number density = 21.311450 Si / 1000 Ang^3
#
#
#
# Elastic Constant Matrix: (Units=GPa)
#
#
# Indices 1 2 3 4 5 6 
#
# 1 107.4917 63.1005 11.7361 0.0000 0.0000 0.0000
# 2 63.1005 92.6503 31.4649 0.0000 0.0000 0.0000
# 3 11.7361 31.4649 68.3124 0.0000 0.0000 0.0000
# 4 0.0000 0.0000 0.0000 33.7655 0.0000 0.0000
# 5 0.0000 0.0000 0.0000 0.0000 21.5618 0.0000
# 6 0.0000 0.0000 0.0000 0.0000 0.0000 39.4162
#
#
#
# Elastic Compliance Matrix: (Units=1/GPa)
#
#
# Indices 1 2 3 4 5 6 
#
# 1 0.015902 -0.011738 0.002675 0.000000 0.000000 0.000000
# 2 -0.011738 0.021460 -0.007868 0.000000 0.000000 0.000000
# 3 0.002675 -0.007868 0.017803 0.000000 0.000000 0.000000
# 4 0.000000 0.000000 0.000000 0.029616 0.000000 0.000000
# 5 0.000000 0.000000 0.000000 0.000000 0.046378 0.000000
# 6 0.000000 0.000000 0.000000 0.000000 0.000000 0.025370
#
#
# Mechanical properties :
#
#
# Convention : Reuss Voigt Hill
#
# Bulk Modulus (GPa) = 46.94441 53.45083 50.19762
# Shear Modulus (GPa) = 25.31739 29.75891 27.53815
#
# Velocity S-wave (km/s) = 3.45043 3.74087 3.59859
# Velocity P-wave (km/s) = 6.16033 6.61771 6.39311
#
# Compressibility (1/GPa) = 0.02130179
#
# Stress axis : x y z
#
# Youngs Moduli (GPa) = 62.88599 46.59859 56.17025
#
# Poissons Ratio (x) = 0.54700 -0.15025
# Poissons Ratio (y) = 0.73819 0.44194
# Poissons Ratio (z) = -0.16821 0.36663
#
# Static dielectric constant tensor:
#      x y z
#    x 3.785230 0.000000 0.000000 
#    y 0.000000 3.949530 0.000000 
#    z 0.000000 0.000000 3.733630 
# 
# 
# High freq. dielectric constant tensor:
#      x y z
#    x 1.832910 0.000000 0.000000 
#    y 0.000000 1.839440 0.000000 
#    z 0.000000 0.000000 1.826400 
# 
# From -- ./inp_files/26380.got.cif
#   From: 2010.03.12/outbox.cif.g09.slc.cpg/sg20_14_cif.got.tgz:26380.got - 2010.04.14 01:38:04.
