data_PCOD8158004
_publ_section_title
;
Structure prediction by ZEFSAII (Michael W. Deem and Ramdas Pophale) SiO2 
 PCOD8158004
Probable space group: C 2 2 21
;
_chemical_formula_sum "Si O2"
_cell_formula_units_Z 52
_cell_length_a 29.581150
_cell_length_b 5.121125
_cell_length_c 15.676269
_cell_angle_alpha 90.000000
_cell_angle_beta 90.000000
_cell_angle_gamma 90.000000
_cell_volume 2374.778659
_symmetry_space_group_name_H-M "C 2 2 21"
_symmetry_group_IT_number 20
_symmetry_cell_setting 'orthorhombic'
loop_
_space_group_symop_operation_xyz
x,y,z
-x,-y,1/2+z
x,-y,-z
-x,y,1/2-z
1/2+x,1/2+y,z
1/2-x,1/2-y,1/2+z
1/2+x,1/2-y,-z
1/2-x,1/2+y,1/2-z
loop_
_atom_site_type_symbol
_atom_site_label
_atom_site_fract_x
_atom_site_fract_y
_atom_site_fract_z
Si Si1 0.389756 0.427270 0.822284
Si Si2 0.902933 0.903362 0.622713
Si Si3 0.942965 0.424315 0.836421
Si Si4 0.293283 0.352058 0.174127
Si Si5 0.826035 0.000000 0.500000
Si Si6 0.739043 0.659721 0.860841
Si Si7 0.957215 0.581011 0.363882
O O1 0.387946 0.397114 0.720670
O O2 0.406255 0.149553 0.862453
O O3 0.342255 0.544227 0.855386
O O4 0.425321 0.636779 0.855690
O O5 0.930630 0.166288 0.601460
O O6 0.858224 0.851487 0.566698
O O7 0.935174 0.670395 0.593635
O O8 0.952685 0.448642 0.736964
O O9 0.989856 0.434037 0.888827
O O10 0.291553 0.366762 0.276579
O O11 0.258909 0.553491 0.133501
O O12 0.278566 0.064470 0.139532
O O13 0.792944 0.826119 0.442854
#
# Coordination Sequence:
#
# PCOD8158004 Si02
#       7
#     8   8   8   8   4   8   8
#     4  10  17  32  54  84 107 145 185 239 278 335
#     4  10  21  32  53  76 118 144 188 224 282 343
#     4   9  17  28  54  78 111 139 181 219 276 327
#     4  10  20  39  54  85 110 155 184 254 287 344
#     4  12  24  42  56  92 108 168 184 246 282 390
#     4  10  23  36  59  76 119 147 198 232 304 346
#     4   9  18  33  46  80 112 147 169 227 271 326
#
# _framework density 21.89678
#
# number of rings (size 3 to 8) (size 9 to 14) (size 15 to 20)
#    0.000    2.154    1.538    1.846    0.000    7.385 
#    0.000    0.000    0.000    0.000    0.000   21.538 
#    0.000    0.000    0.000    0.000    0.000    0.000 
#
# Total GULP energy -322140.395665 kJ/mol
# GULP energy per Si atom -12390.015218 kJ/mol
# Density = 2.184694 g / cm^3
# Si number density = 21.896780 Si / 1000 Ang^3
#
#
#
# Elastic Constant Matrix: (Units=GPa)
#
#
# Indices 1 2 3 4 5 6 
#
# 1 88.3934 -1.0839 19.4396 0.0000 0.0000 0.0000
# 2 -1.0839 102.8921 14.2413 0.0000 0.0000 0.0000
# 3 19.4396 14.2413 36.5953 0.0000 0.0000 0.0000
# 4 0.0000 0.0000 0.0000 2.2624 0.0000 0.0000
# 5 0.0000 0.0000 0.0000 0.0000 28.5354 0.0000
# 6 0.0000 0.0000 0.0000 0.0000 0.0000 3.6913
#
#
#
# Elastic Compliance Matrix: (Units=1/GPa)
#
#
# Indices 1 2 3 4 5 6 
#
# 1 0.012937 0.001149 -0.007319 0.000000 0.000000 0.000000
# 2 0.001149 0.010374 -0.004648 0.000000 0.000000 0.000000
# 3 -0.007319 -0.004648 0.033023 0.000000 0.000000 0.000000
# 4 0.000000 0.000000 0.000000 0.442007 0.000000 0.000000
# 5 0.000000 0.000000 0.000000 0.000000 0.035044 0.000000
# 6 0.000000 0.000000 0.000000 0.000000 0.000000 0.270904
#
#
# Mechanical properties :
#
#
# Convention : Reuss Voigt Hill
#
# Bulk Modulus (GPa) = 28.81986 32.56384 30.69185
# Shear Modulus (GPa) = 5.97021 19.91674 12.94347
#
# Velocity S-wave (km/s) = 1.65301 3.01919 2.43392
# Velocity P-wave (km/s) = 4.10287 5.20171 4.68462
#
# Compressibility (1/GPa) = 0.03469830
#
# Stress axis : x y z
#
# Youngs Moduli (GPa) = 77.29853 96.39176 30.28212
#
# Poissons Ratio (x) = -0.11079 0.22165
# Poissons Ratio (y) = -0.08884 0.14074
# Poissons Ratio (z) = 0.56578 0.44801
#
# Static dielectric constant tensor:
#      x y z
#    x 4.151450 0.000000 0.000000 
#    y 0.000000 3.997560 0.000000 
#    z 0.000000 0.000000 3.551700 
# 
# 
# High freq. dielectric constant tensor:
#      x y z
#    x 1.872140 0.000000 0.000000 
#    y 0.000000 1.865730 0.000000 
#    z 0.000000 0.000000 1.816510 
# 
# From -- ./inp_files/25671.got.cif
#   From: 2010.03.12/outbox.cif.g09.slc.cpg/sg20_13_cif.got.tgz:25671.got - 2010.04.14 01:38:04.
