data_PCOD8158187
_publ_section_title
;
Structure prediction by ZEFSAII (Michael W. Deem and Ramdas Pophale) SiO2 
 PCOD8158187
Probable space group: C 2 2 21
;
_chemical_formula_sum "Si O2"
_cell_formula_units_Z 56
_cell_length_a 13.254694
_cell_length_b 8.385097
_cell_length_c 22.311179
_cell_angle_alpha 90.000000
_cell_angle_beta 90.000000
_cell_angle_gamma 90.000000
_cell_volume 2479.706711
_symmetry_space_group_name_H-M "C 2 2 21"
_symmetry_group_IT_number 20
_symmetry_cell_setting 'orthorhombic'
loop_
_space_group_symop_operation_xyz
x,y,z
-x,-y,1/2+z
x,-y,-z
-x,y,1/2-z
1/2+x,1/2+y,z
1/2-x,1/2-y,1/2+z
1/2+x,1/2-y,-z
1/2-x,1/2+y,1/2-z
loop_
_atom_site_type_symbol
_atom_site_label
_atom_site_fract_x
_atom_site_fract_y
_atom_site_fract_z
Si Si1 0.589880 0.515654 0.933964
Si Si2 0.936861 0.500000 0.000000
Si Si3 0.861205 0.739303 0.654742
Si Si4 0.500000 0.905925 0.250000
Si Si5 0.566743 0.744616 0.585627
Si Si6 0.749817 0.971803 0.066168
Si Si7 0.326809 0.062778 0.183526
Si Si8 0.210951 0.676443 0.586862
O O1 0.612123 0.352060 0.900948
O O2 0.509531 0.608845 0.892969
O O3 0.685793 0.627418 0.945086
O O4 0.540404 0.500000 0.000000
O O5 0.992565 0.360723 0.962384
O O6 0.875871 0.593677 0.949932
O O7 0.826755 0.579692 0.619227
O O8 0.771410 0.822129 0.695316
O O9 0.961720 0.704083 0.694261
O O10 0.398305 0.011929 0.239110
O O11 0.667483 0.667783 0.556452
O O12 0.594906 0.842001 0.643517
O O13 0.802113 0.133586 0.089947
O O14 0.699355 0.000000 0.000000
O O15 0.288551 0.898087 0.153803
#
# Coordination Sequence:
#
# PCOD8158187 Si02
#       8
#     8   4   8   4   8   8   8   8
#     4  11  22  39  63 101 138 176 221 286 354 442
#     4  10  18  38  54  90 140 182 204 270 334 428
#     4  10  26  47  69 103 141 182 243 295 360 425
#     4  12  26  50  76  96 138 194 248 302 344 420
#     4  10  22  37  61  97 137 176 227 275 351 425
#     4  11  20  38  68 102 135 182 221 282 362 435
#     4   9  24  47  66  96 132 174 236 296 343 410
#     4  10  20  37  64  90 135 175 212 279 353 400
#
# _framework density 22.583316
#
# number of rings (size 3 to 8) (size 9 to 14) (size 15 to 20)
#    0.000    1.714    2.143    2.143    4.000    2.286 
#    6.429    0.000    0.000    0.000    0.000    0.000 
#    0.000    0.000    0.000    0.000    0.000    0.000 
#
# Total GULP energy -346865.811667 kJ/mol
# GULP energy per Si atom -12388.064702 kJ/mol
# Density = 2.253192 g / cm^3
# Si number density = 22.583316 Si / 1000 Ang^3
#
#
#
# Elastic Constant Matrix: (Units=GPa)
#
#
# Indices 1 2 3 4 5 6 
#
# 1 51.8713 16.8154 21.5814 0.0000 0.0000 0.0000
# 2 16.8154 98.4789 29.6838 0.0000 0.0000 0.0000
# 3 21.5814 29.6838 70.6201 0.0000 0.0000 0.0000
# 4 0.0000 0.0000 0.0000 21.3384 0.0000 0.0000
# 5 0.0000 0.0000 0.0000 0.0000 33.4017 0.0000
# 6 0.0000 0.0000 0.0000 0.0000 0.0000 41.7686
#
#
#
# Elastic Compliance Matrix: (Units=1/GPa)
#
#
# Indices 1 2 3 4 5 6 
#
# 1 0.022432 -0.002020 -0.006006 0.000000 0.000000 0.000000
# 2 -0.002020 0.011810 -0.004347 0.000000 0.000000 0.000000
# 3 -0.006006 -0.004347 0.017823 0.000000 0.000000 0.000000
# 4 0.000000 0.000000 0.000000 0.046864 0.000000 0.000000
# 5 0.000000 0.000000 0.000000 0.000000 0.029939 0.000000
# 6 0.000000 0.000000 0.000000 0.000000 0.000000 0.023941
#
#
# Mechanical properties :
#
#
# Convention : Reuss Voigt Hill
#
# Bulk Modulus (GPa) = 36.60452 39.68126 38.14289
# Shear Modulus (GPa) = 26.78663 29.49439 28.14051
#
# Velocity S-wave (km/s) = 3.44775 3.61782 3.53381
# Velocity P-wave (km/s) = 5.66508 5.92121 5.79456
#
# Compressibility (1/GPa) = 0.02731903
#
# Stress axis : x y z
#
# Youngs Moduli (GPa) = 44.57868 84.67735 56.10793
#
# Poissons Ratio (x) = 0.17104 0.33700
# Poissons Ratio (y) = 0.09005 0.24388
# Poissons Ratio (z) = 0.26775 0.36806
#
# Static dielectric constant tensor:
#      x y z
#    x 3.921830 0.000000 0.000000 
#    y 0.000000 4.426940 0.000000 
#    z 0.000000 0.000000 3.817430 
# 
# 
# High freq. dielectric constant tensor:
#      x y z
#    x 1.879270 0.000000 0.000000 
#    y 0.000000 1.907520 0.000000 
#    z 0.000000 0.000000 1.862010 
# 
# From -- ./inp_files/27616.got.cif
#   From: 2010.03.12/outbox.cif.g09.slc.cpg/sg20_14_cif.got.tgz:27616.got - 2010.04.14 01:38:04.
