data_PCOD8158419
_publ_section_title
;
Structure prediction by ZEFSAII (Michael W. Deem and Ramdas Pophale) SiO2 
 PCOD8158419
Probable space group: C 2 2 21
;
_chemical_formula_sum "Si O2"
_cell_formula_units_Z 52
_cell_length_a 15.253465
_cell_length_b 20.006787
_cell_length_c 8.294514
_cell_angle_alpha 90.000000
_cell_angle_beta 90.000000
_cell_angle_gamma 90.000000
_cell_volume 2531.260272
_symmetry_space_group_name_H-M "C 2 2 21"
_symmetry_group_IT_number 20
_symmetry_cell_setting 'orthorhombic'
loop_
_space_group_symop_operation_xyz
x,y,z
-x,-y,1/2+z
x,-y,-z
-x,y,1/2-z
1/2+x,1/2+y,z
1/2-x,1/2-y,1/2+z
1/2+x,1/2-y,-z
1/2-x,1/2+y,1/2-z
loop_
_atom_site_type_symbol
_atom_site_label
_atom_site_fract_x
_atom_site_fract_y
_atom_site_fract_z
Si Si1 0.000000 0.818630 0.250000
Si Si2 0.463623 0.898064 0.492576
Si Si3 0.479425 0.758518 0.081117
Si Si4 0.308613 0.032612 0.662281
Si Si5 0.132442 0.410714 0.673409
Si Si6 0.707731 0.784665 0.524763
Si Si7 0.693916 0.339771 0.256071
O O1 0.090602 0.860330 0.264426
O O2 0.993823 0.776010 0.413680
O O3 0.463585 0.825930 0.409696
O O4 0.410529 0.946934 0.372305
O O5 0.563663 0.922021 0.526396
O O6 0.414744 0.893407 0.661125
O O7 0.500000 0.718744 0.250000
O O8 0.377054 0.775251 0.086530
O O9 0.250135 0.093778 0.720991
O O10 0.267411 0.000000 0.500000
O O11 0.309675 0.977874 0.805337
O O12 0.193864 0.346575 0.645935
O O13 0.724361 0.714400 0.612409
O O14 0.790360 0.804961 0.416106
#
# Coordination Sequence:
#
# PCOD8158419 Si02
#       7
#     4   8   8   8   8   8   8
#     4  10  24  42  64  86 134 166 220 278 332 360
#     4   9  17  35  56  90 134 173 199 244 319 395
#     4  10  19  36  61  95 127 168 212 258 318 394
#     4  10  22  38  61  92 129 173 209 261 318 396
#     4   9  19  39  55  89 135 174 204 255 321 390
#     4  10  23  37  64  94 126 163 215 264 315 381
#     4  11  24  42  65  94 124 170 212 273 318 374
#
# _framework density 20.543125
#
# number of rings (size 3 to 8) (size 9 to 14) (size 15 to 20)
#    0.000    2.154    0.000    3.692    8.615    0.615 
#   38.769    0.000    3.385    0.000    0.000    0.000 
#    0.000    0.000    0.000    0.000    0.000    0.000 
#
# Total GULP energy -322204.930299 kJ/mol
# GULP energy per Si atom -12392.497319 kJ/mol
# Density = 2.049637 g / cm^3
# Si number density = 20.543125 Si / 1000 Ang^3
#
#
#
# Elastic Constant Matrix: (Units=GPa)
#
#
# Indices 1 2 3 4 5 6 
#
# 1 81.0862 41.7228 17.0671 0.0000 0.0000 0.0000
# 2 41.7228 89.2544 29.4181 0.0000 0.0000 0.0000
# 3 17.0671 29.4181 94.4794 0.0000 0.0000 0.0000
# 4 0.0000 0.0000 0.0000 22.9564 0.0000 0.0000
# 5 0.0000 0.0000 0.0000 0.0000 21.7202 0.0000
# 6 0.0000 0.0000 0.0000 0.0000 0.0000 27.9859
#
#
#
# Elastic Compliance Matrix: (Units=1/GPa)
#
#
# Indices 1 2 3 4 5 6 
#
# 1 0.016273 -0.007397 -0.000636 0.000000 0.000000 0.000000
# 2 -0.007397 0.015848 -0.003598 0.000000 0.000000 0.000000
# 3 -0.000636 -0.003598 0.011820 0.000000 0.000000 0.000000
# 4 0.000000 0.000000 0.000000 0.043561 0.000000 0.000000
# 5 0.000000 0.000000 0.000000 0.000000 0.046040 0.000000
# 6 0.000000 0.000000 0.000000 0.000000 0.000000 0.035732
#
#
# Mechanical properties :
#
#
# Convention : Reuss Voigt Hill
#
# Bulk Modulus (GPa) = 48.36364 49.02625 48.69494
# Shear Modulus (GPa) = 25.07158 26.30661 25.68910
#
# Velocity S-wave (km/s) = 3.49726 3.58237 3.54007
# Velocity P-wave (km/s) = 6.31676 6.40531 6.36119
#
# Compressibility (1/GPa) = 0.02067669
#
# Stress axis : x y z
#
# Youngs Moduli (GPa) = 61.45285 63.10047 84.60476
#
# Poissons Ratio (x) = 0.46676 0.05384
# Poissons Ratio (y) = 0.45457 0.30443
# Poissons Ratio (z) = 0.03910 0.22705
#
# Static dielectric constant tensor:
#      x y z
#    x 3.708190 0.000000 0.000000 
#    y 0.000000 3.585600 0.000000 
#    z 0.000000 0.000000 3.916750 
# 
# 
# High freq. dielectric constant tensor:
#      x y z
#    x 1.780890 0.000000 0.000000 
#    y 0.000000 1.781630 0.000000 
#    z 0.000000 0.000000 1.816800 
# 
# From -- ./inp_files/8670.got.cif
#   From: 2010.03.12/outbox.cif.g09.slc.cpg/sg20_5_cif.got.tgz:8670.got - 2010.04.14 01:38:04.
