data_PCOD8158899
_publ_section_title
;
Structure prediction by ZEFSAII (Michael W. Deem and Ramdas Pophale) SiO2 
 PCOD8158899
Probable space group: C 2 2 21
;
_chemical_formula_sum "Si O2"
_cell_formula_units_Z 40
_cell_length_a 8.317596
_cell_length_b 21.084812
_cell_length_c 10.486695
_cell_angle_alpha 90.000000
_cell_angle_beta 90.000000
_cell_angle_gamma 90.000000
_cell_volume 1839.103590
_symmetry_space_group_name_H-M "C 2 2 21"
_symmetry_group_IT_number 20
_symmetry_cell_setting 'orthorhombic'
loop_
_space_group_symop_operation_xyz
x,y,z
-x,-y,1/2+z
x,-y,-z
-x,y,1/2-z
1/2+x,1/2+y,z
1/2-x,1/2-y,1/2+z
1/2+x,1/2-y,-z
1/2-x,1/2+y,1/2-z
loop_
_atom_site_type_symbol
_atom_site_label
_atom_site_fract_x
_atom_site_fract_y
_atom_site_fract_z
Si Si1 0.624607 0.733655 0.353068
Si Si2 0.675007 0.857773 0.705949
Si Si3 0.623087 0.681949 0.968118
Si Si4 0.440701 0.546649 0.610525
Si Si5 0.101606 0.500242 0.363130
O O1 0.500000 0.761422 0.250000
O O2 0.694158 0.664373 0.311255
O O3 0.523237 0.725755 0.482731
O O4 0.776602 0.781249 0.359810
O O5 0.500000 0.831922 0.750000
O O6 0.739142 0.830636 0.572989
O O7 0.666604 0.933395 0.692234
O O8 0.526854 0.620244 0.917905
O O9 0.512854 0.500000 0.500000
O O10 0.500000 0.525279 0.750000
O O11 0.248923 0.545150 0.607126
O O12 0.005125 0.500000 0.500000
O O13 0.000000 0.467927 0.250000
#
# Coordination Sequence:
#
# PCOD8158899 Si02
#       5
#     8   8   8   8   8
#     4  10  24  39  67  94 127 177 217 276 336 392
#     4  10  20  39  65  89 129 174 217 271 330 398
#     4  11  22  43  62  99 131 169 225 275 329 399
#     4  11  25  42  67  96 136 171 218 276 327 397
#     4  10  21  41  64  98 133 172 217 269 329 398
#
# _framework density 21.749725999999999
#
# number of rings (size 3 to 8) (size 9 to 14) (size 15 to 20)
#    0.000    1.600    4.000    1.200    2.800    5.600 
#    3.600    0.000    0.000    0.000    0.000    0.000 
#    0.000    0.000    0.000    0.000    0.000    0.000 
#
# Total GULP energy -247796.684937 kJ/mol
# GULP energy per Si atom -12389.834247 kJ/mol
# Density = 2.170022 g / cm^3
# Si number density = 21.749726 Si / 1000 Ang^3
#
#
#
# Elastic Constant Matrix: (Units=GPa)
#
#
# Indices 1 2 3 4 5 6 
#
# 1 57.0319 12.6411 32.0985 0.0000 0.0000 0.0000
# 2 12.6411 91.3302 28.0217 0.0000 0.0000 0.0000
# 3 32.0985 28.0217 140.2820 0.0000 0.0000 0.0000
# 4 0.0000 0.0000 0.0000 21.5295 0.0000 0.0000
# 5 0.0000 0.0000 0.0000 0.0000 48.7360 0.0000
# 6 0.0000 0.0000 0.0000 0.0000 0.0000 17.2297
#
#
#
# Elastic Compliance Matrix: (Units=1/GPa)
#
#
# Indices 1 2 3 4 5 6 
#
# 1 0.020311 -0.001476 -0.004353 0.000000 0.000000 0.000000
# 2 -0.001476 0.011771 -0.002014 0.000000 0.000000 0.000000
# 3 -0.004353 -0.002014 0.008527 0.000000 0.000000 0.000000
# 4 0.000000 0.000000 0.000000 0.046448 0.000000 0.000000
# 5 0.000000 0.000000 0.000000 0.000000 0.020519 0.000000
# 6 0.000000 0.000000 0.000000 0.000000 0.000000 0.058039
#
#
# Mechanical properties :
#
#
# Convention : Reuss Voigt Hill
#
# Bulk Modulus (GPa) = 40.12075 48.24073 44.18074
# Shear Modulus (GPa) = 26.37029 31.89122 29.13076
#
# Velocity S-wave (km/s) = 3.48579 3.83336 3.66370
# Velocity P-wave (km/s) = 5.88962 6.46691 6.18500
#
# Compressibility (1/GPa) = 0.02492476
#
# Stress axis : x y z
#
# Youngs Moduli (GPa) = 49.23467 84.95183 117.27889
#
# Poissons Ratio (x) = 0.12537 0.51047
# Poissons Ratio (y) = 0.07266 0.23616
# Poissons Ratio (z) = 0.21430 0.17107
#
# Static dielectric constant tensor:
#      x y z
#    x 3.958760 0.000000 0.000000 
#    y 0.000000 3.630180 0.000000 
#    z 0.000000 0.000000 4.345930 
# 
# 
# High freq. dielectric constant tensor:
#      x y z
#    x 1.846620 0.000000 0.000000 
#    y 0.000000 1.837960 0.000000 
#    z 0.000000 0.000000 1.859880 
# 
# From -- ./inp_files/12898.got.cif
#   From: 2010.03.12/outbox.cif.g09.slc.cpg/sg20_7_cif.got.tgz:12898.got - 2010.04.14 01:38:04.
