data_PCOD8158322
_publ_section_title
;
Structure prediction by ZEFSAII (Michael W. Deem and Ramdas Pophale) SiO2 
 PCOD8158322
Probable space group: C 2 2 21
;
_chemical_formula_sum "Si O2"
_cell_formula_units_Z 52
_cell_length_a 20.117795
_cell_length_b 28.601611
_cell_length_c 5.147744
_cell_angle_alpha 90.000000
_cell_angle_beta 90.000000
_cell_angle_gamma 90.000000
_cell_volume 2962.018830
_symmetry_space_group_name_H-M "C 2 2 21"
_symmetry_group_IT_number 20
_symmetry_cell_setting 'orthorhombic'
loop_
_space_group_symop_operation_xyz
x,y,z
-x,-y,1/2+z
x,-y,-z
-x,y,1/2-z
1/2+x,1/2+y,z
1/2-x,1/2-y,1/2+z
1/2+x,1/2-y,-z
1/2-x,1/2+y,1/2-z
loop_
_atom_site_type_symbol
_atom_site_label
_atom_site_fract_x
_atom_site_fract_y
_atom_site_fract_z
Si Si1 0.838429 0.247956 0.980357
Si Si2 0.801993 0.700175 0.518570
Si Si3 0.624544 0.589988 0.412249
Si Si4 0.762395 0.598498 0.591790
Si Si5 0.455155 0.500000 0.000000
Si Si6 0.458107 0.320845 0.990112
Si Si7 0.265704 0.552573 0.407521
O O1 0.835534 0.285862 0.751601
O O2 0.774790 0.214577 0.971668
O O3 0.842769 0.275439 0.251102
O O4 0.902778 0.216744 0.936970
O O5 0.806321 0.644317 0.542471
O O6 0.683050 0.609542 0.598998
O O7 0.590860 0.545081 0.545486
O O8 0.571572 0.630985 0.374965
O O9 0.660051 0.574622 0.138563
O O10 0.775036 0.559643 0.363904
O O11 0.778450 0.578837 0.876143
O O12 0.500000 0.491017 0.750000
O O13 0.500000 0.299962 0.750000
O O14 0.500000 0.330995 0.250000
O O15 0.274620 0.500000 0.500000
#
# Coordination Sequence:
#
# PCOD8158322 Si02
#       7
#     8   8   8   8   4   8   8
#     4  10  20  35  53  76 100 126 167 213 279 317
#     4  10  19  34  57  76  96 125 166 229 262 319
#     4  10  24  36  53  67 100 129 187 226 267 300
#     4  10  20  32  54  75  97 124 176 217 273 304
#     4  12  26  36  48  64  92 138 188 226 258 288
#     4  12  25  38  53  75 105 140 175 222 273 318
#     4  10  20  32  52  71 101 134 170 218 262 311
#
# _framework density 17.555595
#
# number of rings (size 3 to 8) (size 9 to 14) (size 15 to 20)
#    0.923    0.615    1.538    4.154    5.385    1.231 
#    0.000    0.000    0.000    0.000    0.000    0.000 
#    0.000    0.000    0.000    0.000    0.000  193.846 
#
# Total GULP energy -322240.814762 kJ/mol
# GULP energy per Si atom -12393.877491 kJ/mol
# Density = 1.751564 g / cm^3
# Si number density = 17.555595 Si / 1000 Ang^3
#
#
#
# Elastic Constant Matrix: (Units=GPa)
#
#
# Indices 1 2 3 4 5 6 
#
# 1 28.1344 33.0058 4.9171 0.0000 0.0000 0.0000
# 2 33.0058 96.4828 24.2665 0.0000 0.0000 0.0000
# 3 4.9171 24.2665 102.9735 0.0000 0.0000 0.0000
# 4 0.0000 0.0000 0.0000 24.8734 0.0000 0.0000
# 5 0.0000 0.0000 0.0000 0.0000 14.7648 0.0000
# 6 0.0000 0.0000 0.0000 0.0000 0.0000 17.3148
#
#
#
# Elastic Compliance Matrix: (Units=1/GPa)
#
#
# Indices 1 2 3 4 5 6 
#
# 1 0.059790 -0.020979 0.002089 0.000000 0.000000 0.000000
# 2 -0.020979 0.018379 -0.003329 0.000000 0.000000 0.000000
# 3 0.002089 -0.003329 0.010396 0.000000 0.000000 0.000000
# 4 0.000000 0.000000 0.000000 0.040204 0.000000 0.000000
# 5 0.000000 0.000000 0.000000 0.000000 0.067729 0.000000
# 6 0.000000 0.000000 0.000000 0.000000 0.000000 0.057754
#
#
# Mechanical properties :
#
#
# Convention : Reuss Voigt Hill
#
# Bulk Modulus (GPa) = 22.66246 39.10772 30.88509
# Shear Modulus (GPa) = 15.95413 22.41735 19.18574
#
# Velocity S-wave (km/s) = 3.01786 3.57730 3.30942
# Velocity P-wave (km/s) = 5.00803 6.27596 5.67750
#
# Compressibility (1/GPa) = 0.04412584
#
# Stress axis : x y z
#
# Youngs Moduli (GPa) = 16.72520 54.41114 96.19019
#
# Poissons Ratio (x) = 1.14149 -0.20092
# Poissons Ratio (y) = 0.35088 0.32025
# Poissons Ratio (z) = -0.03494 0.18115
#
# Static dielectric constant tensor:
#      x y z
#    x 2.831960 0.000000 0.000000 
#    y 0.000000 3.142960 0.000000 
#    z 0.000000 0.000000 2.794580 
# 
# 
# High freq. dielectric constant tensor:
#      x y z
#    x 1.619440 0.000000 0.000000 
#    y 0.000000 1.677360 0.000000 
#    z 0.000000 0.000000 1.695500 
# 
# From -- ./inp_files/2889.got.cif
#   From: 2010.03.12/outbox.cif.g09.slc.cpg/sg20_2_cif.got.tgz:2889.got - 2010.04.14 01:38:04.
