data_PCOD8158267
_publ_section_title
;
Structure prediction by ZEFSAII (Michael W. Deem and Ramdas Pophale) SiO2 
 PCOD8158267
Probable space group: C 2 2 21
;
_chemical_formula_sum "Si O2"
_cell_formula_units_Z 48
_cell_length_a 28.994454
_cell_length_b 8.756175
_cell_length_c 10.071963
_cell_angle_alpha 90.000000
_cell_angle_beta 90.000000
_cell_angle_gamma 90.000000
_cell_volume 2557.075136
_symmetry_space_group_name_H-M "C 2 2 21"
_symmetry_group_IT_number 20
_symmetry_cell_setting 'orthorhombic'
loop_
_space_group_symop_operation_xyz
x,y,z
-x,-y,1/2+z
x,-y,-z
-x,y,1/2-z
1/2+x,1/2+y,z
1/2-x,1/2-y,1/2+z
1/2+x,1/2-y,-z
1/2-x,1/2+y,1/2-z
loop_
_atom_site_type_symbol
_atom_site_label
_atom_site_fract_x
_atom_site_fract_y
_atom_site_fract_z
Si Si1 0.276453 0.104668 0.128169
Si Si2 0.432071 0.326527 0.961091
Si Si3 0.210798 0.392919 0.128678
Si Si4 0.984230 0.367435 0.394909
Si Si5 0.390755 0.166019 0.714270
Si Si6 0.378486 0.111695 0.122991
O O1 0.242285 0.245273 0.111096
O O2 0.327298 0.177192 0.147445
O O3 0.267604 0.995070 0.254125
O O4 0.271574 0.000000 0.000000
O O5 0.484356 0.277786 0.931511
O O6 0.398532 0.283651 0.837019
O O7 0.430506 0.500000 0.000000
O O8 0.414087 0.246177 0.095131
O O9 0.160579 0.318165 0.157254
O O10 0.208990 0.500000 0.000000
O O11 0.993297 0.500000 0.500000
O O12 0.930998 0.309366 0.395246
O O13 0.000000 0.427718 0.250000
O O14 0.397008 0.988228 0.754873
O O15 0.375340 0.000000 0.000000
#
# Coordination Sequence:
#
# PCOD8158267 Si02
#       6
#     8   8   8   8   8   8
#     4  10  21  37  57  83 113 148 192 234 278 336
#     4  10  19  32  53  81 109 139 182 234 282 329
#     4  11  22  37  58  85 116 150 188 236 290 340
#     4  10  19  35  57  79 104 141 185 227 272 333
#     4   9  19  36  54  76 109 147 185 227 277 338
#     4   8  16  33  54  74 100 139 185 222 256 318
#
# _framework density 18.771446999999998
#
# number of rings (size 3 to 8) (size 9 to 14) (size 15 to 20)
#    0.000    2.333    0.000    5.000    0.000    2.000 
#    0.000    8.333    0.000    0.000    0.000    0.000 
#    0.000    0.000    0.000    0.000    0.000    0.000 
#
# Total GULP energy -297427.645411 kJ/mol
# GULP energy per Si atom -12392.818559 kJ/mol
# Density = 1.872872 g / cm^3
# Si number density = 18.771447 Si / 1000 Ang^3
#
#
#
# Elastic Constant Matrix: (Units=GPa)
#
#
# Indices 1 2 3 4 5 6 
#
# 1 136.0167 75.1645 36.2271 0.0000 0.0000 0.0000
# 2 75.1645 128.3730 53.7147 0.0000 0.0000 0.0000
# 3 36.2271 53.7147 90.4188 0.0000 0.0000 0.0000
# 4 0.0000 0.0000 0.0000 26.6660 0.0000 0.0000
# 5 0.0000 0.0000 0.0000 0.0000 11.8668 0.0000
# 6 0.0000 0.0000 0.0000 0.0000 0.0000 18.5629
#
#
#
# Elastic Compliance Matrix: (Units=1/GPa)
#
#
# Indices 1 2 3 4 5 6 
#
# 1 0.010909 -0.006066 -0.000767 0.000000 0.000000 0.000000
# 2 -0.006066 0.013740 -0.005732 0.000000 0.000000 0.000000
# 3 -0.000767 -0.005732 0.014772 0.000000 0.000000 0.000000
# 4 0.000000 0.000000 0.000000 0.037501 0.000000 0.000000
# 5 0.000000 0.000000 0.000000 0.000000 0.084269 0.000000
# 6 0.000000 0.000000 0.000000 0.000000 0.000000 0.053871
#
#
# Mechanical properties :
#
#
# Convention : Reuss Voigt Hill
#
# Bulk Modulus (GPa) = 69.97662 76.11345 73.04503
# Shear Modulus (GPa) = 20.41187 24.06593 22.23890
#
# Velocity S-wave (km/s) = 3.30114 3.58446 3.44571
# Velocity P-wave (km/s) = 7.20341 7.60043 7.40458
#
# Compressibility (1/GPa) = 0.01429049
#
# Stress axis : x y z
#
# Youngs Moduli (GPa) = 91.67093 72.77948 67.69515
#
# Poissons Ratio (x) = 0.44150 0.05191
# Poissons Ratio (y) = 0.55610 0.38803
# Poissons Ratio (z) = 0.07030 0.41717
#
# Static dielectric constant tensor:
#      x y z
#    x 3.760880 0.000000 0.000000 
#    y 0.000000 3.882810 0.000000 
#    z 0.000000 0.000000 3.772590 
# 
# 
# High freq. dielectric constant tensor:
#      x y z
#    x 1.743570 0.000000 0.000000 
#    y 0.000000 1.704290 0.000000 
#    z 0.000000 0.000000 1.724260 
# 
# From -- ./inp_files/11466.got.cif
#   From: 2010.03.12/outbox.cif.g09.slc.cpg/sg20_6_cif.got.tgz:11466.got - 2010.04.14 01:38:04.
