data_PCOD8158098
_publ_section_title
;
Structure prediction by ZEFSAII (Michael W. Deem and Ramdas Pophale) SiO2 
 PCOD8158098
Probable space group: C 2 2 21
;
_chemical_formula_sum "Si O2"
_cell_formula_units_Z 60
_cell_length_a 11.372784
_cell_length_b 25.374428
_cell_length_c 10.024003
_cell_angle_alpha 90.000000
_cell_angle_beta 90.000000
_cell_angle_gamma 90.000000
_cell_volume 2892.705623
_symmetry_space_group_name_H-M "C 2 2 21"
_symmetry_group_IT_number 20
_symmetry_cell_setting 'orthorhombic'
loop_
_space_group_symop_operation_xyz
x,y,z
-x,-y,1/2+z
x,-y,-z
-x,y,1/2-z
1/2+x,1/2+y,z
1/2-x,1/2-y,1/2+z
1/2+x,1/2-y,-z
1/2-x,1/2+y,1/2-z
loop_
_atom_site_type_symbol
_atom_site_label
_atom_site_fract_x
_atom_site_fract_y
_atom_site_fract_z
Si Si1 0.617011 0.981104 0.815289
Si Si2 0.461595 0.662463 0.391175
Si Si3 0.238833 0.099530 0.192109
Si Si4 0.595767 0.840291 0.506688
Si Si5 0.285535 0.657686 0.037450
Si Si6 0.199622 0.228207 0.922712
Si Si7 0.390630 0.087243 0.577829
Si Si8 0.000000 0.730053 0.250000
O O1 0.500000 0.957809 0.750000
O O2 0.732877 0.960424 0.735158
O O3 0.614950 0.045223 0.801008
O O4 0.614444 0.954513 0.958601
O O5 0.500000 0.688140 0.250000
O O6 0.394297 0.606875 0.362161
O O7 0.574541 0.651451 0.482549
O O8 0.375338 0.703886 0.457476
O O9 0.329243 0.115310 0.078510
O O10 0.258269 0.138718 0.317390
O O11 0.681710 0.807485 0.405289
O O12 0.500786 0.872590 0.419311
O O13 0.531301 0.803771 0.617893
O O14 0.245214 0.717041 0.020593
O O15 0.226648 0.622666 0.922028
O O16 0.115252 0.234348 0.791298
#
# Coordination Sequence:
#
# PCOD8158098 Si02
#       8
#     8   8   8   8   8   8   8   4
#     4  10  18  33  57  88 111 145 191 253 327 375
#     4   9  20  36  54  85 117 157 214 259 301 371
#     4   9  17  33  59  80 107 148 199 254 302 376
#     4  11  19  35  57  88 118 160 215 258 314 387
#     4  10  18  33  51  84 119 156 201 252 296 370
#     4  11  22  33  59  87 121 171 220 256 310 384
#     4  10  20  32  56  88 117 149 197 259 315 379
#     4  12  20  38  58  84 126 178 218 264 322 380
#
# _framework density 20.741826
#
# number of rings (size 3 to 8) (size 9 to 14) (size 15 to 20)
#    0.000    1.867    4.000    1.600    0.000    0.000 
#    0.000    3.333    0.000    0.000   58.933    0.000 
#    0.000    0.000    0.000    0.000    0.000    0.000 
#
# Total GULP energy -371645.200903 kJ/mol
# GULP energy per Si atom -12388.173363 kJ/mol
# Density = 2.069462 g / cm^3
# Si number density = 20.741826 Si / 1000 Ang^3
#
#
#
# Elastic Constant Matrix: (Units=GPa)
#
#
# Indices 1 2 3 4 5 6 
#
# 1 157.3103 82.7005 26.8892 0.0000 0.0000 0.0000
# 2 82.7005 140.5891 30.5383 0.0000 0.0000 0.0000
# 3 26.8892 30.5383 25.5407 0.0000 0.0000 0.0000
# 4 0.0000 0.0000 0.0000 25.6284 0.0000 0.0000
# 5 0.0000 0.0000 0.0000 0.0000 26.8804 0.0000
# 6 0.0000 0.0000 0.0000 0.0000 0.0000 41.7797
#
#
#
# Elastic Compliance Matrix: (Units=1/GPa)
#
#
# Indices 1 2 3 4 5 6 
#
# 1 0.009574 -0.004650 -0.004520 0.000000 0.000000 0.000000
# 2 -0.004650 0.011867 -0.009293 0.000000 0.000000 0.000000
# 3 -0.004520 -0.009293 0.055023 0.000000 0.000000 0.000000
# 4 0.000000 0.000000 0.000000 0.039019 0.000000 0.000000
# 5 0.000000 0.000000 0.000000 0.000000 0.037202 0.000000
# 6 0.000000 0.000000 0.000000 0.000000 0.000000 0.023935
#
#
# Mechanical properties :
#
#
# Convention : Reuss Voigt Hill
#
# Bulk Modulus (GPa) = 25.29203 67.07734 46.18469
# Shear Modulus (GPa) = 22.05308 31.07851 26.56579
#
# Velocity S-wave (km/s) = 3.26424 3.87505 3.58269
# Velocity P-wave (km/s) = 5.14074 7.24091 6.27925
#
# Compressibility (1/GPa) = 0.03953814
#
# Stress axis : x y z
#
# Youngs Moduli (GPa) = 104.44898 84.26715 18.17418
#
# Poissons Ratio (x) = 0.39186 0.08214
# Poissons Ratio (y) = 0.48570 0.16890
# Poissons Ratio (z) = 0.47206 0.78312
#
# Static dielectric constant tensor:
#      x y z
#    x 4.200120 0.000000 0.000000 
#    y 0.000000 3.849220 0.000000 
#    z 0.000000 0.000000 3.474070 
# 
# 
# High freq. dielectric constant tensor:
#      x y z
#    x 1.822420 0.000000 0.000000 
#    y 0.000000 1.797860 0.000000 
#    z 0.000000 0.000000 1.778850 
# 
# From -- ./inp_files/14497.got.cif
#   From: 2010.03.12/outbox.cif.g09.slc.cpg/sg20_8_cif.got.tgz:14497.got - 2010.04.14 01:38:04.
