data_PCOD8158571
_publ_section_title
;
Structure prediction by ZEFSAII (Michael W. Deem and Ramdas Pophale) SiO2 
 PCOD8158571
Probable space group: C 2 2 21
;
_chemical_formula_sum "Si O2"
_cell_formula_units_Z 48
_cell_length_a 17.218186
_cell_length_b 11.747872
_cell_length_c 12.962688
_cell_angle_alpha 90.000000
_cell_angle_beta 90.000000
_cell_angle_gamma 90.000000
_cell_volume 2622.054226
_symmetry_space_group_name_H-M "C 2 2 21"
_symmetry_group_IT_number 20
_symmetry_cell_setting 'orthorhombic'
loop_
_space_group_symop_operation_xyz
x,y,z
-x,-y,1/2+z
x,-y,-z
-x,y,1/2-z
1/2+x,1/2+y,z
1/2-x,1/2-y,1/2+z
1/2+x,1/2-y,-z
1/2-x,1/2+y,1/2-z
loop_
_atom_site_type_symbol
_atom_site_label
_atom_site_fract_x
_atom_site_fract_y
_atom_site_fract_z
Si Si1 0.682231 0.639250 0.395920
Si Si2 0.452442 0.796003 0.145991
Si Si3 0.360922 0.618587 0.875124
Si Si4 0.431886 0.044000 0.171394
Si Si5 0.341712 0.209271 0.300123
Si Si6 0.494949 0.748999 0.569065
O O1 0.622147 0.718381 0.336787
O O2 0.659109 0.512987 0.359515
O O3 0.678131 0.658822 0.518424
O O4 0.768239 0.677673 0.367583
O O5 0.500000 0.793019 0.250000
O O6 0.417018 0.921453 0.119797
O O7 0.508705 0.745738 0.055469
O O8 0.325006 0.687377 0.778757
O O9 0.454275 0.643529 0.884384
O O10 0.500000 0.022496 0.250000
O O11 0.359777 0.094686 0.235845
O O12 0.456782 0.135899 0.087373
O O13 0.411294 0.247999 0.376924
#
# Coordination Sequence:
#
# PCOD8158571 Si02
#       6
#     8   8   8   8   8   8
#     4  10  22  36  56  86 114 152 185 241 294 334
#     4  10  20  33  53  81 118 146 185 241 296 344
#     4   9  20  40  56  78 115 152 188 233 287 356
#     4   8  16  32  52  80 105 140 182 236 284 342
#     4  10  20  35  61  83 109 150 202 234 288 352
#     4   9  18  36  58  79 104 153 199 230 284 355
#
# _framework density 18.306258
#
# number of rings (size 3 to 8) (size 9 to 14) (size 15 to 20)
#    0.000    2.667    0.000    2.000    2.333    2.667 
#   15.000    0.000    0.000    2.000    0.000    0.000 
#    0.000    0.000    0.000    0.000    0.000    0.000 
#
# Total GULP energy -297404.456269 kJ/mol
# GULP energy per Si atom -12391.852345 kJ/mol
# Density = 1.826459 g / cm^3
# Si number density = 18.306258 Si / 1000 Ang^3
#
#
#
# Elastic Constant Matrix: (Units=GPa)
#
#
# Indices 1 2 3 4 5 6 
#
# 1 125.2881 66.3075 50.7596 0.0000 0.0000 0.0000
# 2 66.3075 100.2866 41.8683 0.0000 0.0000 0.0000
# 3 50.7596 41.8683 85.4872 0.0000 0.0000 0.0000
# 4 0.0000 0.0000 0.0000 26.1383 0.0000 0.0000
# 5 0.0000 0.0000 0.0000 0.0000 26.0327 0.0000
# 6 0.0000 0.0000 0.0000 0.0000 0.0000 22.8972
#
#
#
# Elastic Compliance Matrix: (Units=1/GPa)
#
#
# Indices 1 2 3 4 5 6 
#
# 1 0.013584 -0.007057 -0.004609 0.000000 0.000000 0.000000
# 2 -0.007057 0.016201 -0.003744 0.000000 0.000000 0.000000
# 3 -0.004609 -0.003744 0.016268 0.000000 0.000000 0.000000
# 4 0.000000 0.000000 0.000000 0.038258 0.000000 0.000000
# 5 0.000000 0.000000 0.000000 0.000000 0.038413 0.000000
# 6 0.000000 0.000000 0.000000 0.000000 0.000000 0.043673
#
#
# Mechanical properties :
#
#
# Convention : Reuss Voigt Hill
#
# Bulk Modulus (GPa) = 65.65323 69.88141 67.76732
# Shear Modulus (GPa) = 24.71625 25.15541 24.93583
#
# Velocity S-wave (km/s) = 3.67843 3.71096 3.69473
# Velocity P-wave (km/s) = 7.34730 7.52450 7.43643
#
# Compressibility (1/GPa) = 0.01523154
#
# Stress axis : x y z
#
# Youngs Moduli (GPa) = 73.61615 61.72637 61.46905
#
# Poissons Ratio (x) = 0.43561 0.28334
# Poissons Ratio (y) = 0.51951 0.23015
# Poissons Ratio (z) = 0.33933 0.23111
#
# Static dielectric constant tensor:
#      x y z
#    x 3.170930 0.000000 0.000000 
#    y 0.000000 3.822380 0.000000 
#    z 0.000000 0.000000 3.362940 
# 
# 
# High freq. dielectric constant tensor:
#      x y z
#    x 1.685690 0.000000 0.000000 
#    y 0.000000 1.713580 0.000000 
#    z 0.000000 0.000000 1.716940 
# 
# From -- ./inp_files/14102.got.cif
#   From: 2010.03.12/outbox.cif.g09.slc.cpg/sg20_8_cif.got.tgz:14102.got - 2010.04.14 01:38:04.
