data_PCOD8158369
_publ_section_title
;
Structure prediction by ZEFSAII (Michael W. Deem and Ramdas Pophale) SiO2 
 PCOD8158369
Probable space group: C 2 2 21
;
_chemical_formula_sum "Si O2"
_cell_formula_units_Z 64
_cell_length_a 15.501821
_cell_length_b 12.512624
_cell_length_c 16.775538
_cell_angle_alpha 90.000000
_cell_angle_beta 90.000000
_cell_angle_gamma 90.000000
_cell_volume 3253.925229
_symmetry_space_group_name_H-M "C 2 2 21"
_symmetry_group_IT_number 20
_symmetry_cell_setting 'orthorhombic'
loop_
_space_group_symop_operation_xyz
x,y,z
-x,-y,1/2+z
x,-y,-z
-x,y,1/2-z
1/2+x,1/2+y,z
1/2-x,1/2-y,1/2+z
1/2+x,1/2-y,-z
1/2-x,1/2+y,1/2-z
loop_
_atom_site_type_symbol
_atom_site_label
_atom_site_fract_x
_atom_site_fract_y
_atom_site_fract_z
Si Si1 0.187484 0.608382 0.473042
Si Si2 0.334982 0.863220 0.304669
Si Si3 0.599723 0.579841 0.762010
Si Si4 0.372949 0.534386 0.416506
Si Si5 0.516231 0.282223 0.838474
Si Si6 0.672241 0.230535 0.630155
Si Si7 0.253330 0.570065 0.200854
Si Si8 0.318448 0.772295 0.825591
O O1 0.136134 0.500000 0.500000
O O2 0.275765 0.572199 0.430867
O O3 0.209098 0.672551 0.553069
O O4 0.136891 0.680944 0.407050
O O5 0.430160 0.828569 0.330566
O O6 0.316081 0.840027 0.210383
O O7 0.263243 0.797950 0.353966
O O8 0.322007 0.988005 0.325338
O O9 0.500000 0.552586 0.750000
O O10 0.623742 0.566806 0.855571
O O11 0.657317 0.493066 0.715290
O O12 0.617550 0.699917 0.728519
O O13 0.415654 0.500000 0.500000
O O14 0.429117 0.631191 0.384302
O O15 0.500000 0.327964 0.750000
O O16 0.428434 0.256184 0.884255
O O17 0.726776 0.340246 0.635144
O O18 0.218143 0.625568 0.279767
#
# Coordination Sequence:
#
# PCOD8158369 Si02
#       8
#     8   8   8   8   8   8   8   8
#     4  11  22  37  59  87 119 159 203 250 303 371
#     4   9  18  35  59  85 112 154 201 241 288 364
#     4  11  22  39  60  91 124 157 202 263 305 360
#     4  11  22  34  61  88 117 158 204 246 310 369
#     4  10  19  39  62  88 117 155 205 250 298 367
#     4  10  21  34  61  86 119 150 199 255 296 349
#     4  10  19  35  60  87 112 158 205 238 295 366
#     4  10  20  35  59  85 122 153 204 245 299 366
#
# _framework density 19.668552999999999
#
# number of rings (size 3 to 8) (size 9 to 14) (size 15 to 20)
#    0.000    1.750    2.500    3.375    8.750    1.000 
#    0.000    5.625    2.750    0.000    0.000    0.000 
#    0.000    0.000    0.000    0.000    0.000    0.000 
#
# Total GULP energy -396573.155541 kJ/mol
# GULP energy per Si atom -12392.911111 kJ/mol
# Density = 1.962379 g / cm^3
# Si number density = 19.668553 Si / 1000 Ang^3
#
#
#
# Elastic Constant Matrix: (Units=GPa)
#
#
# Indices 1 2 3 4 5 6 
#
# 1 54.4809 26.9388 26.1440 0.0000 0.0000 0.0000
# 2 26.9388 140.9886 63.0627 0.0000 0.0000 0.0000
# 3 26.1440 63.0627 118.4558 0.0000 0.0000 0.0000
# 4 0.0000 0.0000 0.0000 32.3689 0.0000 0.0000
# 5 0.0000 0.0000 0.0000 0.0000 18.5976 0.0000
# 6 0.0000 0.0000 0.0000 0.0000 0.0000 20.3177
#
#
#
# Elastic Compliance Matrix: (Units=1/GPa)
#
#
# Indices 1 2 3 4 5 6 
#
# 1 0.021217 -0.002572 -0.003314 0.000000 0.000000 0.000000
# 2 -0.002572 0.009621 -0.004555 0.000000 0.000000 0.000000
# 3 -0.003314 -0.004555 0.011598 0.000000 0.000000 0.000000
# 4 0.000000 0.000000 0.000000 0.030894 0.000000 0.000000
# 5 0.000000 0.000000 0.000000 0.000000 0.053770 0.000000
# 6 0.000000 0.000000 0.000000 0.000000 0.000000 0.049218
#
#
# Mechanical properties :
#
#
# Convention : Reuss Voigt Hill
#
# Bulk Modulus (GPa) = 46.38990 60.69070 53.54030
# Shear Modulus (GPa) = 24.46379 27.44217 25.95298
#
# Velocity S-wave (km/s) = 3.53058 3.73933 3.63646
# Velocity P-wave (km/s) = 6.34484 7.04040 6.70165
#
# Compressibility (1/GPa) = 0.02155642
#
# Stress axis : x y z
#
# Youngs Moduli (GPa) = 47.13242 103.93533 86.22171
#
# Poissons Ratio (x) = 0.26730 0.28570
# Poissons Ratio (y) = 0.12122 0.39270
# Poissons Ratio (z) = 0.15618 0.47338
#
# Static dielectric constant tensor:
#      x y z
#    x 3.477820 0.000000 0.000000 
#    y 0.000000 3.856470 0.000000 
#    z 0.000000 0.000000 3.743030 
# 
# 
# High freq. dielectric constant tensor:
#      x y z
#    x 1.743860 0.000000 0.000000 
#    y 0.000000 1.775670 0.000000 
#    z 0.000000 0.000000 1.749320 
# 
# From -- ./inp_files/21519.got.cif
#   From: 2010.03.12/outbox.cif.g09.slc.cpg/sg20_11_cif.got.tgz:21519.got - 2010.04.14 01:38:04.
