data_PCOD8158891
_publ_section_title
;
Structure prediction by ZEFSAII (Michael W. Deem and Ramdas Pophale) SiO2 
 PCOD8158891
Probable space group: C 2 2 21
;
_chemical_formula_sum "Si O2"
_cell_formula_units_Z 36
_cell_length_a 5.047222
_cell_length_b 23.634780
_cell_length_c 14.547242
_cell_angle_alpha 90.000000
_cell_angle_beta 90.000000
_cell_angle_gamma 90.000000
_cell_volume 1735.340230
_symmetry_space_group_name_H-M "C 2 2 21"
_symmetry_group_IT_number 20
_symmetry_cell_setting 'orthorhombic'
loop_
_space_group_symop_operation_xyz
x,y,z
-x,-y,1/2+z
x,-y,-z
-x,y,1/2-z
1/2+x,1/2+y,z
1/2-x,1/2-y,1/2+z
1/2+x,1/2-y,-z
1/2-x,1/2+y,1/2-z
loop_
_atom_site_type_symbol
_atom_site_label
_atom_site_fract_x
_atom_site_fract_y
_atom_site_fract_z
Si Si1 0.671913 0.137171 0.595130
Si Si2 0.273701 0.243935 0.443027
Si Si3 0.170511 0.124235 0.472347
Si Si4 0.258665 0.047856 0.306209
Si Si5 0.000000 0.439240 0.250000
O O1 0.722796 0.202983 0.625550
O O2 0.379589 0.129802 0.554292
O O3 0.688459 0.099012 0.686057
O O4 0.883173 0.117299 0.518548
O O5 0.584172 0.243105 0.468730
O O6 0.187304 0.181347 0.408138
O O7 0.232674 0.070295 0.409637
O O8 0.500000 0.077165 0.250000
O O9 0.000000 0.063216 0.250000
O O10 0.309818 0.979933 0.311835
#
# Coordination Sequence:
#
# PCOD8158891 Si02
#       5
#     8   8   8   8   4
#     4  10  21  37  63  87 118 157 192 247 301 359
#     4   8  16  33  58  86 111 141 190 246 284 354
#     4  10  20  39  64  86 113 158 205 233 303 358
#     4  10  23  41  56  83 124 152 195 259 283 344
#     4  10  26  40  56  88 132 148 202 252 298 342
#
# _framework density 20.745211999999999
#
# number of rings (size 3 to 8) (size 9 to 14) (size 15 to 20)
#    0.667    1.778    0.000    1.333    3.111    0.889 
#    2.000    0.000    0.000    0.000    0.000    0.000 
#    0.000    0.000    0.000    0.000    0.000    0.000 
#
# Total GULP energy -223008.422509 kJ/mol
# GULP energy per Si atom -12389.356806 kJ/mol
# Density = 2.069799 g / cm^3
# Si number density = 20.745212 Si / 1000 Ang^3
#
#
#
# Elastic Constant Matrix: (Units=GPa)
#
#
# Indices 1 2 3 4 5 6 
#
# 1 108.1870 20.0271 16.0338 0.0000 0.0000 0.0000
# 2 20.0271 150.6052 64.0407 0.0000 0.0000 0.0000
# 3 16.0338 64.0407 63.6123 0.0000 0.0000 0.0000
# 4 0.0000 0.0000 0.0000 12.0255 0.0000 0.0000
# 5 0.0000 0.0000 0.0000 0.0000 25.1990 0.0000
# 6 0.0000 0.0000 0.0000 0.0000 0.0000 548.1854
#
#
#
# Elastic Compliance Matrix: (Units=1/GPa)
#
#
# Indices 1 2 3 4 5 6 
#
# 1 0.009618 -0.000434 -0.001988 0.000000 0.000000 0.000000
# 2 -0.000434 0.011629 -0.011598 0.000000 0.000000 0.000000
# 3 -0.001988 -0.011598 0.027898 0.000000 0.000000 0.000000
# 4 0.000000 0.000000 0.000000 0.083157 0.000000 0.000000
# 5 0.000000 0.000000 0.000000 0.000000 0.039684 0.000000
# 6 0.000000 0.000000 0.000000 0.000000 0.000000 0.001824
#
#
# Mechanical properties :
#
#
# Convention : Reuss Voigt Hill
#
# Bulk Modulus (GPa) = 47.38052 58.06753 52.72402
# Shear Modulus (GPa) = 23.93657 131.90217 77.91937
#
# Velocity S-wave (km/s) = 3.40050 7.98248 6.13528
# Velocity P-wave (km/s) = 6.18924 10.63069 8.69823
#
# Compressibility (1/GPa) = 0.02110572
#
# Stress axis : x y z
#
# Youngs Moduli (GPa) = 103.97032 85.98833 35.84517
#
# Poissons Ratio (x) = 0.03731 0.07124
# Poissons Ratio (y) = 0.04511 0.41575
# Poissons Ratio (z) = 0.20664 0.99733
#
# Static dielectric constant tensor:
#      x y z
#    x 3.787970 0.000000 0.000000 
#    y 0.000000 4.080920 0.000000 
#    z 0.000000 0.000000 0.130600 
# 
# 
# High freq. dielectric constant tensor:
#      x y z
#    x 1.829970 0.000000 0.000000 
#    y 0.000000 1.824350 0.000000 
#    z 0.000000 0.000000 1.749030 
# 
# From -- ./inp_files/17594.got.cif
#   From: 2010.03.12/outbox.cif.g09.slc.cpg/sg20_9_cif.got.tgz:17594.got - 2010.04.14 01:38:04.
