data_PCOD8158335
_publ_section_title
;
Structure prediction by ZEFSAII (Michael W. Deem and Ramdas Pophale) SiO2 
 PCOD8158335
Probable space group: C 2 2 21
;
_chemical_formula_sum "Si O2"
_cell_formula_units_Z 52
_cell_length_a 17.804050
_cell_length_b 8.307060
_cell_length_c 17.930704
_cell_angle_alpha 90.000000
_cell_angle_beta 90.000000
_cell_angle_gamma 90.000000
_cell_volume 2651.938778
_symmetry_space_group_name_H-M "C 2 2 21"
_symmetry_group_IT_number 20
_symmetry_cell_setting 'orthorhombic'
loop_
_space_group_symop_operation_xyz
x,y,z
-x,-y,1/2+z
x,-y,-z
-x,y,1/2-z
1/2+x,1/2+y,z
1/2-x,1/2-y,1/2+z
1/2+x,1/2-y,-z
1/2-x,1/2+y,1/2-z
loop_
_atom_site_type_symbol
_atom_site_label
_atom_site_fract_x
_atom_site_fract_y
_atom_site_fract_z
Si Si1 0.921429 0.084444 0.373406
Si Si2 0.582486 0.854181 0.242104
Si Si3 0.761583 0.157410 0.048602
Si Si4 0.086912 0.888488 0.620267
Si Si5 0.194746 0.000000 0.000000
Si Si6 0.711348 0.895685 0.785230
Si Si7 0.855376 0.074147 0.757945
O O1 0.911346 0.256491 0.334888
O O2 0.916065 0.947982 0.308463
O O3 0.003421 0.087869 0.413204
O O4 0.856970 0.047389 0.431391
O O5 0.500000 0.936810 0.250000
O O6 0.591952 0.742657 0.314195
O O7 0.647786 0.980921 0.238052
O O8 0.852507 0.154957 0.056854
O O9 0.742407 0.336048 0.016066
O O10 0.718001 0.133931 0.126355
O O11 0.737511 0.000000 0.000000
O O12 0.107175 0.057928 0.660452
O O13 0.791028 0.937736 0.749099
O O14 0.687297 0.739187 0.741767
#
# Coordination Sequence:
#
# PCOD8158335 Si02
#       7
#     8   8   8   8   4   8   8
#     4  10  20  38  62  86 119 163 197 251 312 369
#     4   9  19  36  61  87 123 154 194 268 321 358
#     4  11  24  41  61  89 126 169 210 254 301 375
#     4   9  21  40  60  89 120 154 204 254 320 363
#     4  12  24  40  68  86 126 172 212 244 300 386
#     4  11  20  36  57  93 120 155 209 254 310 369
#     4  10  19  34  61  87 117 149 201 254 306 366
#
# _framework density 19.608295999999999
#
# number of rings (size 3 to 8) (size 9 to 14) (size 15 to 20)
#    0.000    1.846    1.538    5.077    1.077    2.462 
#    0.000    0.000    8.462    0.000    0.000    0.000 
#    0.000    0.000    0.000    0.000    0.000    0.000 
#
# Total GULP energy -322119.926815 kJ/mol
# GULP energy per Si atom -12389.227954 kJ/mol
# Density = 1.956367 g / cm^3
# Si number density = 19.608296 Si / 1000 Ang^3
#
#
#
# Elastic Constant Matrix: (Units=GPa)
#
#
# Indices 1 2 3 4 5 6 
#
# 1 111.4815 35.8687 27.9704 0.0000 0.0000 0.0000
# 2 35.8687 96.2045 30.3416 0.0000 0.0000 0.0000
# 3 27.9704 30.3416 61.4956 0.0000 0.0000 0.0000
# 4 0.0000 0.0000 0.0000 10.9228 0.0000 0.0000
# 5 0.0000 0.0000 0.0000 0.0000 26.6709 0.0000
# 6 0.0000 0.0000 0.0000 0.0000 0.0000 26.7307
#
#
#
# Elastic Compliance Matrix: (Units=1/GPa)
#
#
# Indices 1 2 3 4 5 6 
#
# 1 0.010780 -0.002929 -0.003458 0.000000 0.000000 0.000000
# 2 -0.002929 0.013106 -0.005134 0.000000 0.000000 0.000000
# 3 -0.003458 -0.005134 0.020367 0.000000 0.000000 0.000000
# 4 0.000000 0.000000 0.000000 0.091551 0.000000 0.000000
# 5 0.000000 0.000000 0.000000 0.000000 0.037494 0.000000
# 6 0.000000 0.000000 0.000000 0.000000 0.000000 0.037410
#
#
# Mechanical properties :
#
#
# Convention : Reuss Voigt Hill
#
# Bulk Modulus (GPa) = 47.14507 50.83811 48.99159
# Shear Modulus (GPa) = 20.76230 24.53161 22.64696
#
# Velocity S-wave (km/s) = 3.25753 3.54090 3.40217
# Velocity P-wave (km/s) = 6.18420 6.53456 6.36179
#
# Compressibility (1/GPa) = 0.02121112
#
# Stress axis : x y z
#
# Youngs Moduli (GPa) = 92.76449 76.30294 49.09792
#
# Poissons Ratio (x) = 0.22345 0.16979
# Poissons Ratio (y) = 0.27166 0.25208
# Poissons Ratio (z) = 0.32080 0.39176
#
# Static dielectric constant tensor:
#      x y z
#    x 3.930850 0.000000 0.000000 
#    y 0.000000 3.648260 0.000000 
#    z 0.000000 0.000000 3.583450 
# 
# 
# High freq. dielectric constant tensor:
#      x y z
#    x 1.780850 0.000000 0.000000 
#    y 0.000000 1.753810 0.000000 
#    z 0.000000 0.000000 1.749440 
# 
# From -- ./inp_files/25220.got.cif
#   From: 2010.03.12/outbox.cif.g09.slc.cpg/sg20_13_cif.got.tgz:25220.got - 2010.04.14 01:38:04.
