data_PCOD8158837
_publ_section_title
;
Structure prediction by ZEFSAII (Michael W. Deem and Ramdas Pophale) SiO2 
 PCOD8158837
Probable space group: C 2 2 21
;
_chemical_formula_sum "Si O2"
_cell_formula_units_Z 64
_cell_length_a 9.188079
_cell_length_b 22.706962
_cell_length_c 15.016434
_cell_angle_alpha 90.000000
_cell_angle_beta 90.000000
_cell_angle_gamma 90.000000
_cell_volume 3132.929091
_symmetry_space_group_name_H-M "C 2 2 21"
_symmetry_group_IT_number 20
_symmetry_cell_setting 'orthorhombic'
loop_
_space_group_symop_operation_xyz
x,y,z
-x,-y,1/2+z
x,-y,-z
-x,y,1/2-z
1/2+x,1/2+y,z
1/2-x,1/2-y,1/2+z
1/2+x,1/2-y,-z
1/2-x,1/2+y,1/2-z
loop_
_atom_site_type_symbol
_atom_site_label
_atom_site_fract_x
_atom_site_fract_y
_atom_site_fract_z
Si Si1 0.582433 0.646179 0.660370
Si Si2 0.333633 0.215475 0.737493
Si Si3 0.473431 0.153531 0.349746
Si Si4 0.284645 0.317488 0.599241
Si Si5 0.350906 0.965620 0.715580
Si Si6 0.348495 0.267316 0.409182
Si Si7 0.120005 0.021284 0.594802
Si Si8 0.596972 0.571198 0.166810
O O1 0.500000 0.626786 0.750000
O O2 0.746969 0.666058 0.681574
O O3 0.500660 0.700368 0.613029
O O4 0.582796 0.590230 0.594857
O O5 0.500000 0.196780 0.750000
O O6 0.315909 0.277372 0.685926
O O7 0.273357 0.216108 0.837826
O O8 0.500000 0.178420 0.250000
O O9 0.626265 0.152971 0.400385
O O10 0.396782 0.089838 0.346108
O O11 0.368789 0.197204 0.403669
O O12 0.299635 0.281369 0.508674
O O13 0.397248 0.372489 0.601225
O O14 0.500000 0.996434 0.750000
O O15 0.252857 0.011590 0.662626
O O16 0.260526 0.943465 0.801127
O O17 0.974759 0.984872 0.618889
O O18 0.176931 0.000000 0.500000
O O19 0.500000 0.590466 0.250000
#
# Coordination Sequence:
#
# PCOD8158837 Si02
#       8
#     8   8   8   8   8   8   8   8
#     4  10  21  44  63  81 128 174 205 245 316 384
#     4  11  24  39  60  95 127 165 213 255 309 387
#     4  11  19  41  64  90 129 167 204 267 325 375
#     4  12  22  37  65  95 129 163 211 268 317 372
#     4  10  20  39  68  86 120 165 210 261 320 370
#     4  11  23  39  63  91 125 178 204 247 326 386
#     4  11  24  41  63  95 124 160 212 267 312 375
#     4  10  20  38  63  94 119 162 214 259 310 372
#
# _framework density 20.428167999999999
#
# number of rings (size 3 to 8) (size 9 to 14) (size 15 to 20)
#    0.000    1.250    5.000    2.625    1.750    2.500 
#    0.000    0.625    0.000    0.000    0.000    0.000 
#    0.000    0.000    0.000    0.000    0.000    0.000 
#
# Total GULP energy -396789.683897 kJ/mol
# GULP energy per Si atom -12399.677622 kJ/mol
# Density = 2.038167 g / cm^3
# Si number density = 20.428168 Si / 1000 Ang^3
#
#
#
# Elastic Constant Matrix: (Units=GPa)
#
#
# Indices 1 2 3 4 5 6 
#
# 1 119.2667 18.6253 12.3918 0.0000 0.0000 0.0000
# 2 18.6253 69.8554 -3.1408 0.0000 0.0000 0.0000
# 3 12.3918 -3.1408 66.7094 0.0000 0.0000 0.0000
# 4 0.0000 0.0000 0.0000 26.1878 0.0000 0.0000
# 5 0.0000 0.0000 0.0000 0.0000 22.6989 0.0000
# 6 0.0000 0.0000 0.0000 0.0000 0.0000 18.4640
#
#
#
# Elastic Compliance Matrix: (Units=1/GPa)
#
#
# Indices 1 2 3 4 5 6 
#
# 1 0.008955 -0.002468 -0.001780 0.000000 0.000000 0.000000
# 2 -0.002468 0.015026 0.001166 0.000000 0.000000 0.000000
# 3 -0.001780 0.001166 0.015376 0.000000 0.000000 0.000000
# 4 0.000000 0.000000 0.000000 0.038186 0.000000 0.000000
# 5 0.000000 0.000000 0.000000 0.000000 0.044055 0.000000
# 6 0.000000 0.000000 0.000000 0.000000 0.000000 0.054159
#
#
# Mechanical properties :
#
#
# Convention : Reuss Voigt Hill
#
# Bulk Modulus (GPa) = 30.12637 34.62045 32.37341
# Shear Modulus (GPa) = 25.90891 28.66715 27.28803
#
# Velocity S-wave (km/s) = 3.56517 3.75015 3.65883
# Velocity P-wave (km/s) = 5.63265 5.97793 5.80786
#
# Compressibility (1/GPa) = 0.03319351
#
# Stress axis : x y z
#
# Youngs Moduli (GPa) = 111.67164 66.55297 65.03701
#
# Poissons Ratio (x) = 0.16423 0.11574
# Poissons Ratio (y) = 0.27556 -0.07582
# Poissons Ratio (z) = 0.19873 -0.07759
#
# Static dielectric constant tensor:
#      x y z
#    x 3.821510 0.000000 0.000000 
#    y 0.000000 3.583000 0.000000 
#    z 0.000000 0.000000 3.635310 
# 
# 
# High freq. dielectric constant tensor:
#      x y z
#    x 1.805600 0.000000 0.000000 
#    y 0.000000 1.791170 0.000000 
#    z 0.000000 0.000000 1.784540 
# 
# From -- ./inp_files/19375.got.cif
#   From: 2010.03.12/outbox.cif.g09.slc.cpg/sg20_10_cif.got.tgz:19375.got - 2010.04.14 01:38:04.
