data_PCOD8158035
_publ_section_title
;
Structure prediction by ZEFSAII (Michael W. Deem and Ramdas Pophale) SiO2 
 PCOD8158035
Probable space group: C 2 2 21
;
_chemical_formula_sum "Si O2"
_cell_formula_units_Z 36
_cell_length_a 26.775780
_cell_length_b 13.515884
_cell_length_c 4.993808
_cell_angle_alpha 90.000000
_cell_angle_beta 90.000000
_cell_angle_gamma 90.000000
_cell_volume 1807.250808
_symmetry_space_group_name_H-M "C 2 2 21"
_symmetry_group_IT_number 20
_symmetry_cell_setting 'orthorhombic'
loop_
_space_group_symop_operation_xyz
x,y,z
-x,-y,1/2+z
x,-y,-z
-x,y,1/2-z
1/2+x,1/2+y,z
1/2-x,1/2-y,1/2+z
1/2+x,1/2-y,-z
1/2-x,1/2+y,1/2-z
loop_
_atom_site_type_symbol
_atom_site_label
_atom_site_fract_x
_atom_site_fract_y
_atom_site_fract_z
Si Si1 0.634753 0.000000 0.500000
Si Si2 0.800608 0.500000 0.500000
Si Si3 0.944146 0.290812 0.661298
Si Si4 0.111507 0.708380 0.659240
Si Si5 0.225218 0.706306 0.809616
Si Si6 0.031306 0.500000 0.000000
O O1 0.668052 0.957745 0.746784
O O2 0.602860 0.910849 0.369149
O O3 0.767575 0.407829 0.397272
O O4 0.926737 0.246271 0.377897
O O5 0.937337 0.410465 0.635028
O O6 0.000000 0.262039 0.750000
O O7 0.905283 0.246011 0.876367
O O8 0.168322 0.731975 0.730800
O O9 0.240222 0.777778 0.051915
O O10 0.000000 0.453557 0.250000
#
# Coordination Sequence:
#
# PCOD8158035 Si02
#       6
#     4   4   8   8   8   4
#     4  10  18  31  48  69  96 132 178 215 246 293
#     4  10  20  35  54  77 102 136 176 217 260 307
#     4  11  20  30  42  63  93 130 171 213 251 292
#     4  11  20  32  48  67  94 132 172 213 253 299
#     4  11  22  37  55  77 103 136 177 219 261 309
#     4  10  18  28  40  60  90 128 172 216 250 276
#
# _framework density 19.919758000000002
#
# number of rings (size 3 to 8) (size 9 to 14) (size 15 to 20)
#    0.000    1.333    0.000   11.333    0.000    1.778 
#    0.000    0.000    0.000    0.000    0.000    0.000 
#    0.000    0.000    0.000   56.000    0.000    1.333 
#
# Total GULP energy -223072.767905 kJ/mol
# GULP energy per Si atom -12392.931550 kJ/mol
# Density = 1.987442 g / cm^3
# Si number density = 19.919758 Si / 1000 Ang^3
#
#
#
# Elastic Constant Matrix: (Units=GPa)
#
#
# Indices 1 2 3 4 5 6 
#
# 1 107.6515 30.5833 69.6718 0.0000 0.0000 0.0000
# 2 30.5833 21.9575 20.8400 0.0000 0.0000 0.0000
# 3 69.6718 20.8400 180.2611 0.0000 0.0000 0.0000
# 4 0.0000 0.0000 0.0000 22.3856 0.0000 0.0000
# 5 0.0000 0.0000 0.0000 0.0000 45.0258 0.0000
# 6 0.0000 0.0000 0.0000 0.0000 0.0000 15.3200
#
#
#
# Elastic Compliance Matrix: (Units=1/GPa)
#
#
# Indices 1 2 3 4 5 6 
#
# 1 0.018262 -0.021046 -0.004625 0.000000 0.000000 0.000000
# 2 -0.021046 0.075410 -0.000584 0.000000 0.000000 0.000000
# 3 -0.004625 -0.000584 0.007403 0.000000 0.000000 0.000000
# 4 0.000000 0.000000 0.000000 0.044671 0.000000 0.000000
# 5 0.000000 0.000000 0.000000 0.000000 0.022210 0.000000
# 6 0.000000 0.000000 0.000000 0.000000 0.000000 0.065274
#
#
# Mechanical properties :
#
#
# Convention : Reuss Voigt Hill
#
# Bulk Modulus (GPa) = 20.59101 61.34003 40.96552
# Shear Modulus (GPa) = 16.56030 29.13129 22.84579
#
# Velocity S-wave (km/s) = 2.88644 3.82832 3.39025
# Velocity P-wave (km/s) = 4.63337 7.09942 5.99458
#
# Compressibility (1/GPa) = 0.04856489
#
# Stress axis : x y z
#
# Youngs Moduli (GPa) = 54.75983 13.26082 135.08713
#
# Poissons Ratio (x) = 0.27908 0.62479
# Poissons Ratio (y) = 1.15246 0.07887
# Poissons Ratio (z) = 0.25327 0.00774
#
# Static dielectric constant tensor:
#      x y z
#    x 3.556760 0.000000 0.000000 
#    y 0.000000 2.871530 0.000000 
#    z 0.000000 0.000000 4.346920 
# 
# 
# High freq. dielectric constant tensor:
#      x y z
#    x 1.773310 0.000000 0.000000 
#    y 0.000000 1.669930 0.000000 
#    z 0.000000 0.000000 1.829390 
# 
# From -- ./inp_files/4168.got.cif
#   From: 2010.03.12/outbox.cif.g09.slc.cpg/sg20_3_cif.got.tgz:4168.got - 2010.04.14 01:38:04.
