data_PCOD8158374
_publ_section_title
;
Structure prediction by ZEFSAII (Michael W. Deem and Ramdas Pophale) SiO2 
 PCOD8158374
Probable space group: C 2 2 21
;
_chemical_formula_sum "Si O2"
_cell_formula_units_Z 64
_cell_length_a 9.117372
_cell_length_b 32.075932
_cell_length_c 9.908350
_cell_angle_alpha 90.000000
_cell_angle_beta 90.000000
_cell_angle_gamma 90.000000
_cell_volume 2897.679165
_symmetry_space_group_name_H-M "C 2 2 21"
_symmetry_group_IT_number 20
_symmetry_cell_setting 'orthorhombic'
loop_
_space_group_symop_operation_xyz
x,y,z
-x,-y,1/2+z
x,-y,-z
-x,y,1/2-z
1/2+x,1/2+y,z
1/2-x,1/2-y,1/2+z
1/2+x,1/2-y,-z
1/2-x,1/2+y,1/2-z
loop_
_atom_site_type_symbol
_atom_site_label
_atom_site_fract_x
_atom_site_fract_y
_atom_site_fract_z
Si Si1 0.140083 0.641357 0.673685
Si Si2 0.487572 0.836657 0.587349
Si Si3 0.670930 0.424016 0.281520
Si Si4 0.233073 0.704828 0.892061
Si Si5 0.131981 0.012508 0.348323
Si Si6 0.229137 0.201098 0.185303
Si Si7 0.245208 0.901935 0.579788
Si Si8 0.946978 0.171449 0.077439
O O1 0.113112 0.653671 0.520910
O O2 0.255928 0.603428 0.664778
O O3 0.184661 0.683324 0.753685
O O4 0.000000 0.622075 0.750000
O O5 0.380372 0.802766 0.517633
O O6 0.606671 0.820484 0.706918
O O7 0.397826 0.879244 0.620739
O O8 0.500000 0.422297 0.250000
O O9 0.717882 0.472869 0.284670
O O10 0.725818 0.402631 0.418818
O O11 0.255955 0.753517 0.874083
O O12 0.389590 0.683568 0.928899
O O13 0.240830 0.052099 0.355450
O O14 0.000000 0.025155 0.250000
O O15 0.075639 0.000000 0.500000
O O16 0.138558 0.204180 0.323995
O O17 0.122720 0.175406 0.082375
O O18 0.106140 0.874228 0.628504
#
# Coordination Sequence:
#
# PCOD8158374 Si02
#       8
#     8   8   8   8   8   8   8   8
#     4  10  19  35  61  86 125 158 199 255 316 362
#     4  10  22  38  62  87 119 166 204 258 321 378
#     4  10  19  36  62  96 121 157 202 257 301 368
#     4  10  21  38  59  82 120 159 203 260 314 367
#     4   9  20  37  68  97 129 167 207 259 316 379
#     4  11  24  36  59  85 117 164 208 263 305 383
#     4  10  20  41  60  87 125 163 202 247 318 373
#     4  10  23  39  56  84 117 159 210 256 317 366
#
# _framework density 22.086642000000001
#
# number of rings (size 3 to 8) (size 9 to 14) (size 15 to 20)
#    0.000    2.000    3.750    0.750   10.500    2.000 
#    0.000    0.000    2.750    0.000    0.000    0.000 
#    0.000    0.000    0.000    0.000    0.000    0.000 
#
# Total GULP energy -396455.822553 kJ/mol
# GULP energy per Si atom -12389.244455 kJ/mol
# Density = 2.203637 g / cm^3
# Si number density = 22.086642 Si / 1000 Ang^3
#
#
#
# Elastic Constant Matrix: (Units=GPa)
#
#
# Indices 1 2 3 4 5 6 
#
# 1 136.7381 69.8511 18.0746 0.0000 0.0000 0.0000
# 2 69.8511 128.4893 5.0572 0.0000 0.0000 0.0000
# 3 18.0746 5.0572 30.6761 0.0000 0.0000 0.0000
# 4 0.0000 0.0000 0.0000 19.0769 0.0000 0.0000
# 5 0.0000 0.0000 0.0000 0.0000 30.9463 0.0000
# 6 0.0000 0.0000 0.0000 0.0000 0.0000 30.3094
#
#
#
# Elastic Compliance Matrix: (Units=1/GPa)
#
#
# Indices 1 2 3 4 5 6 
#
# 1 0.010982 -0.005753 -0.005522 0.000000 0.000000 0.000000
# 2 -0.005753 0.010847 0.001601 0.000000 0.000000 0.000000
# 3 -0.005522 0.001601 0.035588 0.000000 0.000000 0.000000
# 4 0.000000 0.000000 0.000000 0.052419 0.000000 0.000000
# 5 0.000000 0.000000 0.000000 0.000000 0.032314 0.000000
# 6 0.000000 0.000000 0.000000 0.000000 0.000000 0.032993
#
#
# Mechanical properties :
#
#
# Convention : Reuss Voigt Hill
#
# Bulk Modulus (GPa) = 26.26731 53.54103 39.90417
# Shear Modulus (GPa) = 24.13343 29.59456 26.86400
#
# Velocity S-wave (km/s) = 3.30914 3.66448 3.49133
# Velocity P-wave (km/s) = 5.14968 6.49604 5.86164
#
# Compressibility (1/GPa) = 0.03807014
#
# Stress axis : x y z
#
# Youngs Moduli (GPa) = 91.05832 92.19012 28.09900
#
# Poissons Ratio (x) = 0.53035 0.15517
# Poissons Ratio (y) = 0.52384 -0.04500
# Poissons Ratio (z) = 0.50285 -0.14763
#
# Static dielectric constant tensor:
#      x y z
#    x 4.137250 0.000000 0.000000 
#    y 0.000000 3.970200 0.000000 
#    z 0.000000 0.000000 4.331400 
# 
# 
# High freq. dielectric constant tensor:
#      x y z
#    x 1.865760 0.000000 0.000000 
#    y 0.000000 1.862210 0.000000 
#    z 0.000000 0.000000 1.873060 
# 
# From -- ./inp_files/13401.got.cif
#   From: 2010.03.12/outbox.cif.g09.slc.cpg/sg20_7_cif.got.tgz:13401.got - 2010.04.14 01:38:04.
