data_PCOD8158263
_publ_section_title
;
Structure prediction by ZEFSAII (Michael W. Deem and Ramdas Pophale) SiO2 
 PCOD8158263
Probable space group: C 2 2 21
;
_chemical_formula_sum "Si O2"
_cell_formula_units_Z 48
_cell_length_a 19.038919
_cell_length_b 9.038287
_cell_length_c 14.788054
_cell_angle_alpha 90.000000
_cell_angle_beta 90.000000
_cell_angle_gamma 90.000000
_cell_volume 2544.716710
_symmetry_space_group_name_H-M "C 2 2 21"
_symmetry_group_IT_number 20
_symmetry_cell_setting 'orthorhombic'
loop_
_space_group_symop_operation_xyz
x,y,z
-x,-y,1/2+z
x,-y,-z
-x,y,1/2-z
1/2+x,1/2+y,z
1/2-x,1/2-y,1/2+z
1/2+x,1/2-y,-z
1/2-x,1/2+y,1/2-z
loop_
_atom_site_type_symbol
_atom_site_label
_atom_site_fract_x
_atom_site_fract_y
_atom_site_fract_z
Si Si1 0.578505 0.120726 0.571706
Si Si2 0.074487 0.558627 0.250710
Si Si3 0.714880 0.233185 0.637774
Si Si4 0.801319 0.833203 0.528746
Si Si5 0.076480 0.623476 0.930256
Si Si6 0.776356 0.599035 0.204598
O O1 0.638416 0.244372 0.588847
O O2 0.502075 0.182213 0.542240
O O3 0.608271 0.000000 0.500000
O O4 0.562222 0.045824 0.665421
O O5 0.085080 0.449777 0.166961
O O6 0.144896 0.656201 0.267138
O O7 0.000000 0.652038 0.250000
O O8 0.771624 0.254033 0.558146
O O9 0.724275 0.361498 0.712403
O O10 0.723184 0.077138 0.690085
O O11 0.874227 0.765338 0.561659
O O12 0.746305 0.822418 0.611735
O O13 0.816434 0.000000 0.500000
O O14 0.101579 0.500000 0.000000
#
# Coordination Sequence:
#
# PCOD8158263 Si02
#       6
#     8   8   8   8   8   8
#     4   9  17  31  52  75  96 125 166 206 242 283
#     4   9  17  30  50  75  97 122 162 209 243 278
#     4  10  19  33  52  75 101 131 165 203 248 296
#     4  10  20  32  49  73 103 133 159 198 254 304
#     4  10  19  32  53  76  96 125 170 212 241 284
#     4  10  19  32  51  74 101 132 166 202 246 295
#
# _framework density 18.86261
#
# number of rings (size 3 to 8) (size 9 to 14) (size 15 to 20)
#    0.000    2.333    0.000    5.500    0.000    0.000 
#    0.000    0.000    0.000   19.000    0.000   10.500 
#    0.000    0.000    0.000    0.000    0.000    0.000 
#
# Total GULP energy -297324.753856 kJ/mol
# GULP energy per Si atom -12388.531411 kJ/mol
# Density = 1.881968 g / cm^3
# Si number density = 18.862610 Si / 1000 Ang^3
#
#
#
# Elastic Constant Matrix: (Units=GPa)
#
#
# Indices 1 2 3 4 5 6 
#
# 1 150.9080 39.9849 41.4814 0.0000 0.0000 0.0000
# 2 39.9849 32.0544 29.0285 0.0000 0.0000 0.0000
# 3 41.4814 29.0285 119.7915 0.0000 0.0000 0.0000
# 4 0.0000 0.0000 0.0000 29.4889 0.0000 0.0000
# 5 0.0000 0.0000 0.0000 0.0000 31.0901 0.0000
# 6 0.0000 0.0000 0.0000 0.0000 0.0000 29.2690
#
#
#
# Elastic Compliance Matrix: (Units=1/GPa)
#
#
# Indices 1 2 3 4 5 6 
#
# 1 0.009927 -0.011876 -0.000560 0.000000 0.000000 0.000000
# 2 -0.011876 0.054176 -0.009016 0.000000 0.000000 0.000000
# 3 -0.000560 -0.009016 0.010726 0.000000 0.000000 0.000000
# 4 0.000000 0.000000 0.000000 0.033911 0.000000 0.000000
# 5 0.000000 0.000000 0.000000 0.000000 0.032165 0.000000
# 6 0.000000 0.000000 0.000000 0.000000 0.000000 0.034166
#
#
# Mechanical properties :
#
#
# Convention : Reuss Voigt Hill
#
# Bulk Modulus (GPa) = 31.32214 58.19373 44.75794
# Shear Modulus (GPa) = 21.87063 30.78687 26.32875
#
# Velocity S-wave (km/s) = 3.40879 4.04439 3.74012
# Velocity P-wave (km/s) = 5.66874 7.26139 6.51392
#
# Compressibility (1/GPa) = 0.03192630
#
# Stress axis : x y z
#
# Youngs Moduli (GPa) = 100.73344 18.45824 93.22821
#
# Poissons Ratio (x) = 0.21922 0.05217
# Poissons Ratio (y) = 1.19636 0.84052
# Poissons Ratio (z) = 0.05637 0.16641
#
# Static dielectric constant tensor:
#      x y z
#    x 4.144020 0.000000 0.000000 
#    y 0.000000 2.860480 0.000000 
#    z 0.000000 0.000000 3.693000 
# 
# 
# High freq. dielectric constant tensor:
#      x y z
#    x 1.752560 0.000000 0.000000 
#    y 0.000000 1.659430 0.000000 
#    z 0.000000 0.000000 1.761910 
# 
# From -- ./inp_files/21633.got.cif
#   From: 2010.03.12/outbox.cif.g09.slc.cpg/sg20_11_cif.got.tgz:21633.got - 2010.04.14 01:38:04.
