data_PCOD8158659
_publ_section_title
;
Structure prediction by ZEFSAII (Michael W. Deem and Ramdas Pophale) SiO2 
 PCOD8158659
Probable space group: C 2 2 21
;
_chemical_formula_sum "Si O2"
_cell_formula_units_Z 40
_cell_length_a 8.859761
_cell_length_b 16.059978
_cell_length_c 14.433279
_cell_angle_alpha 90.000000
_cell_angle_beta 90.000000
_cell_angle_gamma 90.000000
_cell_volume 2053.676149
_symmetry_space_group_name_H-M "C 2 2 21"
_symmetry_group_IT_number 20
_symmetry_cell_setting 'orthorhombic'
loop_
_space_group_symop_operation_xyz
x,y,z
-x,-y,1/2+z
x,-y,-z
-x,y,1/2-z
1/2+x,1/2+y,z
1/2-x,1/2-y,1/2+z
1/2+x,1/2-y,-z
1/2-x,1/2+y,1/2-z
loop_
_atom_site_type_symbol
_atom_site_label
_atom_site_fract_x
_atom_site_fract_y
_atom_site_fract_z
Si Si1 0.539334 0.528550 0.350013
Si Si2 0.319186 0.935249 0.423018
Si Si3 0.434963 0.818357 0.156473
Si Si4 0.572141 0.326996 0.511240
Si Si5 0.597671 0.641079 0.839699
O O1 0.500000 0.567895 0.250000
O O2 0.707477 0.487268 0.354753
O O3 0.509839 0.597505 0.426830
O O4 0.422593 0.454664 0.368925
O O5 0.462905 0.898283 0.369504
O O6 0.232057 0.856297 0.468611
O O7 0.378872 0.000000 0.500000
O O8 0.500000 0.775597 0.250000
O O9 0.415616 0.755026 0.072297
O O10 0.270248 0.847905 0.185194
O O11 0.456405 0.304748 0.428191
O O12 0.500000 0.665990 0.750000
#
# Coordination Sequence:
#
# PCOD8158659 Si02
#       5
#     8   8   8   8   8
#     4   9  17  35  57  77 106 145 182 214 259 323
#     4   9  20  37  55  76 109 144 179 222 265 310
#     4  12  22  34  56  84 110 138 176 226 273 312
#     4  10  20  36  56  80 108 142 178 221 269 320
#     4  10  21  36  56  77 107 145 183 217 261 323
#
# _framework density 19.477269
#
# number of rings (size 3 to 8) (size 9 to 14) (size 15 to 20)
#    0.000    2.000    0.000    7.200    0.000    1.600 
#    0.000    0.000    0.000   18.000    0.000    1.400 
#    0.000    0.000    0.000    0.000    0.000    0.000 
#
# Total GULP energy -247893.647543 kJ/mol
# GULP energy per Si atom -12394.682377 kJ/mol
# Density = 1.943294 g / cm^3
# Si number density = 19.477269 Si / 1000 Ang^3
#
#
#
# Elastic Constant Matrix: (Units=GPa)
#
#
# Indices 1 2 3 4 5 6 
#
# 1 134.1696 36.4926 61.3154 0.0000 0.0000 0.0000
# 2 36.4926 53.8240 29.1869 0.0000 0.0000 0.0000
# 3 61.3154 29.1869 131.4519 0.0000 0.0000 0.0000
# 4 0.0000 0.0000 0.0000 21.8181 0.0000 0.0000
# 5 0.0000 0.0000 0.0000 0.0000 33.0433 0.0000
# 6 0.0000 0.0000 0.0000 0.0000 0.0000 15.3817
#
#
#
# Elastic Compliance Matrix: (Units=1/GPa)
#
#
# Indices 1 2 3 4 5 6 
#
# 1 0.010581 -0.005113 -0.003800 0.000000 0.000000 0.000000
# 2 -0.005113 0.023593 -0.002854 0.000000 0.000000 0.000000
# 3 -0.003800 -0.002854 0.010013 0.000000 0.000000 0.000000
# 4 0.000000 0.000000 0.000000 0.045834 0.000000 0.000000
# 5 0.000000 0.000000 0.000000 0.000000 0.030263 0.000000
# 6 0.000000 0.000000 0.000000 0.000000 0.000000 0.065012
#
#
# Mechanical properties :
#
#
# Convention : Reuss Voigt Hill
#
# Bulk Modulus (GPa) = 48.41687 63.71504 56.06595
# Shear Modulus (GPa) = 23.17885 26.87865 25.02875
#
# Velocity S-wave (km/s) = 3.45345 3.71887 3.58861
# Velocity P-wave (km/s) = 6.38857 7.15706 6.78371
#
# Compressibility (1/GPa) = 0.02065396
#
# Stress axis : x y z
#
# Youngs Moduli (GPa) = 94.51332 42.38543 99.86589
#
# Poissons Ratio (x) = 0.21672 0.37949
# Poissons Ratio (y) = 0.48324 0.28497
# Poissons Ratio (z) = 0.35915 0.12095
#
# Static dielectric constant tensor:
#      x y z
#    x 3.434120 0.000000 0.000000 
#    y 0.000000 3.326800 0.000000 
#    z 0.000000 0.000000 3.968850 
# 
# 
# High freq. dielectric constant tensor:
#      x y z
#    x 1.744660 0.000000 0.000000 
#    y 0.000000 1.736850 0.000000 
#    z 0.000000 0.000000 1.781250 
# 
# From -- ./inp_files/18534.got.cif
#   From: 2010.03.12/outbox.cif.g09.slc.cpg/sg20_10_cif.got.tgz:18534.got - 2010.04.14 01:38:04.
