data_PCOD8158145
_publ_section_title
;
Structure prediction by ZEFSAII (Michael W. Deem and Ramdas Pophale) SiO2 
 PCOD8158145
Probable space group: C 2 2 21
;
_chemical_formula_sum "Si O2"
_cell_formula_units_Z 64
_cell_length_a 19.899031
_cell_length_b 7.153882
_cell_length_c 18.480963
_cell_angle_alpha 90.000000
_cell_angle_beta 90.000000
_cell_angle_gamma 90.000000
_cell_volume 2630.863396
_symmetry_space_group_name_H-M "C 2 2 21"
_symmetry_group_IT_number 20
_symmetry_cell_setting 'orthorhombic'
loop_
_space_group_symop_operation_xyz
x,y,z
-x,-y,1/2+z
x,-y,-z
-x,y,1/2-z
1/2+x,1/2+y,z
1/2-x,1/2-y,1/2+z
1/2+x,1/2-y,-z
1/2-x,1/2+y,1/2-z
loop_
_atom_site_type_symbol
_atom_site_label
_atom_site_fract_x
_atom_site_fract_y
_atom_site_fract_z
Si Si1 0.836361 0.751247 0.194422
Si Si2 0.310171 0.442961 0.417326
Si Si3 0.452918 0.244028 0.937069
Si Si4 0.450519 0.673329 0.906725
Si Si5 0.819613 0.667834 0.851883
Si Si6 0.452699 0.189311 0.684450
Si Si7 0.925245 0.876201 0.326521
Si Si8 0.310143 0.231121 0.699692
O O1 0.874714 0.815725 0.122133
O O2 0.820347 0.532285 0.188364
O O3 0.883994 0.781505 0.262736
O O4 0.764581 0.863283 0.199585
O O5 0.305156 0.500000 0.500000
O O6 0.248016 0.305790 0.399040
O O7 0.382040 0.349867 0.400791
O O8 0.307946 0.615451 0.362388
O O9 0.466618 0.462967 0.928842
O O10 0.380765 0.190568 0.906104
O O11 0.510478 0.138450 0.891063
O O12 0.456069 0.192428 0.022428
O O13 0.504725 0.732212 0.844455
O O14 0.821725 0.810243 0.782897
O O15 0.500000 0.116619 0.750000
O O16 0.440832 0.411076 0.695566
O O17 0.376838 0.100175 0.684063
#
# Coordination Sequence:
#
# PCOD8158145 Si02
#       8
#     8   8   8   8   8   8   8   8
#     4  11  23  40  61  92 123 170 204 261 321 384
#     4  10  23  38  68  95 126 166 215 265 318 375
#     4  10  22  39  63  92 121 160 218 265 317 368
#     4  10  23  39  63  90 123 167 213 269 315 372
#     4  11  23  40  64  90 133 166 208 258 320 389
#     4  10  18  35  62  87 112 157 204 264 298 364
#     4  10  20  38  63  88 120 158 214 263 311 367
#     4  10  22  38  60  93 120 161 210 253 307 381
#
# _framework density 24.326615
#
# number of rings (size 3 to 8) (size 9 to 14) (size 15 to 20)
#    0.000    1.750    2.500    1.875   10.500    0.000 
#    4.500    0.000    0.000    0.750    0.000    0.000 
#    0.000    0.000    0.000    0.000    0.000    0.000 
#
# Total GULP energy -396419.681474 kJ/mol
# GULP energy per Si atom -12388.115046 kJ/mol
# Density = 2.427125 g / cm^3
# Si number density = 24.326615 Si / 1000 Ang^3
#
#
#
# Elastic Constant Matrix: (Units=GPa)
#
#
# Indices 1 2 3 4 5 6 
#
# 1 222.8146 -7.4602 75.7628 0.0000 0.0000 0.0000
# 2 -7.4602 9.2445 2.6060 0.0000 0.0000 0.0000
# 3 75.7628 2.6060 171.8129 0.0000 0.0000 0.0000
# 4 0.0000 0.0000 0.0000 27.0810 0.0000 0.0000
# 5 0.0000 0.0000 0.0000 0.0000 47.9966 0.0000
# 6 0.0000 0.0000 0.0000 0.0000 0.0000 21.6886
#
#
#
# Elastic Compliance Matrix: (Units=1/GPa)
#
#
# Indices 1 2 3 4 5 6 
#
# 1 0.005514 0.005157 -0.002510 0.000000 0.000000 0.000000
# 2 0.005157 0.113460 -0.003995 0.000000 0.000000 0.000000
# 3 -0.002510 -0.003995 0.006988 0.000000 0.000000 0.000000
# 4 0.000000 0.000000 0.000000 0.036926 0.000000 0.000000
# 5 0.000000 0.000000 0.000000 0.000000 0.020835 0.000000
# 6 0.000000 0.000000 0.000000 0.000000 0.000000 0.046107
#
#
# Mechanical properties :
#
#
# Convention : Reuss Voigt Hill
#
# Bulk Modulus (GPa) = 8.11249 60.63215 34.37232
# Shear Modulus (GPa) = 18.27390 41.55078 29.91234
#
# Velocity S-wave (km/s) = 2.74376 4.13733 3.51039
# Velocity P-wave (km/s) = 3.65782 6.91387 5.53088
#
# Compressibility (1/GPa) = 0.12326674
#
# Stress axis : x y z
#
# Youngs Moduli (GPa) = 181.35393 8.81366 143.11123
#
# Poissons Ratio (x) = -0.04545 0.35917
# Poissons Ratio (y) = -0.93529 0.57174
# Poissons Ratio (z) = 0.45515 0.03521
#
# Static dielectric constant tensor:
#      x y z
#    x 5.495260 0.000000 0.000000 
#    y 0.000000 3.959580 0.000000 
#    z 0.000000 0.000000 4.542710 
# 
# 
# High freq. dielectric constant tensor:
#      x y z
#    x 1.998890 0.000000 0.000000 
#    y 0.000000 1.921840 0.000000 
#    z 0.000000 0.000000 1.968440 
# 
# From -- ./inp_files/25536.got.cif
#   From: 2010.03.12/outbox.cif.g09.slc.cpg/sg20_13_cif.got.tgz:25536.got - 2010.04.14 01:38:04.
