data_PCOD8158251
_publ_section_title
;
Structure prediction by ZEFSAII (Michael W. Deem and Ramdas Pophale) SiO2 
 PCOD8158251
Probable space group: C 2 2 21
;
_chemical_formula_sum "Si O2"
_cell_formula_units_Z 60
_cell_length_a 25.163526
_cell_length_b 9.317874
_cell_length_c 13.544618
_cell_angle_alpha 90.000000
_cell_angle_beta 90.000000
_cell_angle_gamma 90.000000
_cell_volume 3175.814231
_symmetry_space_group_name_H-M "C 2 2 21"
_symmetry_group_IT_number 20
_symmetry_cell_setting 'orthorhombic'
loop_
_space_group_symop_operation_xyz
x,y,z
-x,-y,1/2+z
x,-y,-z
-x,y,1/2-z
1/2+x,1/2+y,z
1/2-x,1/2-y,1/2+z
1/2+x,1/2-y,-z
1/2-x,1/2+y,1/2-z
loop_
_atom_site_type_symbol
_atom_site_label
_atom_site_fract_x
_atom_site_fract_y
_atom_site_fract_z
Si Si1 0.000000 0.991606 0.750000
Si Si2 0.837374 0.815935 0.620094
Si Si3 0.665070 0.960242 0.224700
Si Si4 0.180500 0.717997 0.094467
Si Si5 0.744856 0.964217 0.392256
Si Si6 0.452734 0.021687 0.679564
Si Si7 0.434402 0.703696 0.637810
Si Si8 0.954218 0.182778 0.417162
O O1 0.048653 0.102373 0.770033
O O2 0.998976 0.889920 0.849019
O O3 0.823156 0.707173 0.707723
O O4 0.830112 0.721176 0.521644
O O5 0.798362 0.948052 0.627393
O O6 0.897703 0.875839 0.625783
O O7 0.685808 0.055541 0.132687
O O8 0.697058 0.007613 0.321266
O O9 0.602236 0.978568 0.241336
O O10 0.129112 0.790060 0.145977
O O11 0.235438 0.800389 0.119927
O O12 0.722360 0.000000 0.500000
O O13 0.500000 0.067792 0.750000
O O14 0.461145 0.861609 0.639229
O O15 0.452312 0.142898 0.593435
O O16 0.457027 0.639654 0.533158
#
# Coordination Sequence:
#
# PCOD8158251 Si02
#       8
#     4   8   8   8   8   8   8   8
#     4  12  20  30  52  76 112 128 170 222 266 326
#     4   9  18  33  54  77 101 131 174 219 257 299
#     4  10  19  31  55  78 102 132 176 217 255 301
#     4   9  18  33  54  77 101 131 174 219 257 299
#     4  10  19  32  49  76 111 139 164 203 261 321
#     4  10  19  37  55  75 103 138 182 224 257 306
#     4  10  20  34  54  78 103 138 179 225 267 305
#     4  10  20  34  54  78 103 138 179 225 267 305
#
# _framework density 18.892793000000001
#
# number of rings (size 3 to 8) (size 9 to 14) (size 15 to 20)
#    0.000    2.133    1.333    2.800    0.000    5.333 
#    0.000    1.333    0.000    0.000    0.000    3.733 
#    0.000    0.000    0.000    0.000    0.000    0.000 
#
# Total GULP energy -371708.858250 kJ/mol
# GULP energy per Si atom -12390.295275 kJ/mol
# Density = 1.884979 g / cm^3
# Si number density = 18.892793 Si / 1000 Ang^3
#
#
#
# Elastic Constant Matrix: (Units=GPa)
#
#
# Indices 1 2 3 4 5 6 
#
# 1 61.8379 15.6652 39.7769 0.0000 0.0000 0.0000
# 2 15.6652 56.5643 13.2143 0.0000 0.0000 0.0000
# 3 39.7769 13.2143 70.8807 0.0000 0.0000 0.0000
# 4 0.0000 0.0000 0.0000 28.2545 0.0000 0.0000
# 5 0.0000 0.0000 0.0000 0.0000 29.8202 0.0000
# 6 0.0000 0.0000 0.0000 0.0000 0.0000 8.8861
#
#
#
# Elastic Compliance Matrix: (Units=1/GPa)
#
#
# Indices 1 2 3 4 5 6 
#
# 1 0.026138 -0.003986 -0.013925 0.000000 0.000000 0.000000
# 2 -0.003986 0.019092 -0.001323 0.000000 0.000000 0.000000
# 3 -0.013925 -0.001323 0.022169 0.000000 0.000000 0.000000
# 4 0.000000 0.000000 0.000000 0.035393 0.000000 0.000000
# 5 0.000000 0.000000 0.000000 0.000000 0.033534 0.000000
# 6 0.000000 0.000000 0.000000 0.000000 0.000000 0.112535
#
#
# Mechanical properties :
#
#
# Convention : Reuss Voigt Hill
#
# Bulk Modulus (GPa) = 34.56335 36.28841 35.42588
# Shear Modulus (GPa) = 16.83656 21.43395 19.13526
#
# Velocity S-wave (km/s) = 2.98847 3.37189 3.18596
# Velocity P-wave (km/s) = 5.49929 5.86590 5.68555
#
# Compressibility (1/GPa) = 0.02893238
#
# Stress axis : x y z
#
# Youngs Moduli (GPa) = 38.25794 52.37856 45.10725
#
# Poissons Ratio (x) = 0.20877 0.62813
# Poissons Ratio (y) = 0.15249 0.05966
# Poissons Ratio (z) = 0.53275 0.06927
#
# Static dielectric constant tensor:
#      x y z
#    x 3.310800 0.000000 0.000000 
#    y 0.000000 3.624350 0.000000 
#    z 0.000000 0.000000 3.305730 
# 
# 
# High freq. dielectric constant tensor:
#      x y z
#    x 1.707490 0.000000 0.000000 
#    y 0.000000 1.757680 0.000000 
#    z 0.000000 0.000000 1.708900 
# 
# From -- ./inp_files/19401.got.cif
#   From: 2010.03.12/outbox.cif.g09.slc.cpg/sg20_10_cif.got.tgz:19401.got - 2010.04.14 01:38:04.
