data_PCOD8158355
_publ_section_title
;
Structure prediction by ZEFSAII (Michael W. Deem and Ramdas Pophale) SiO2 
 PCOD8158355
Probable space group: C 2 2 21
;
_chemical_formula_sum "Si O2"
_cell_formula_units_Z 44
_cell_length_a 16.692818
_cell_length_b 5.184274
_cell_length_c 23.746635
_cell_angle_alpha 90.000000
_cell_angle_beta 90.000000
_cell_angle_gamma 90.000000
_cell_volume 2055.037173
_symmetry_space_group_name_H-M "C 2 2 21"
_symmetry_group_IT_number 20
_symmetry_cell_setting 'orthorhombic'
loop_
_space_group_symop_operation_xyz
x,y,z
-x,-y,1/2+z
x,-y,-z
-x,y,1/2-z
1/2+x,1/2+y,z
1/2-x,1/2-y,1/2+z
1/2+x,1/2-y,-z
1/2-x,1/2+y,1/2-z
loop_
_atom_site_type_symbol
_atom_site_label
_atom_site_fract_x
_atom_site_fract_y
_atom_site_fract_z
Si Si1 0.146614 0.789580 0.144976
Si Si2 0.465078 0.284738 0.107191
Si Si3 0.881816 0.704507 0.709339
Si Si4 0.393637 0.500000 0.000000
Si Si5 0.063788 0.285541 0.329066
Si Si6 0.759800 0.743719 0.467107
O O1 0.161267 0.549383 0.186080
O O2 0.212934 0.771556 0.096867
O O3 0.159583 0.045865 0.181822
O O4 0.059946 0.781200 0.115947
O O5 0.449547 0.332408 0.041204
O O6 0.422569 0.513075 0.141371
O O7 0.423080 0.020484 0.127339
O O8 0.873716 0.702453 0.777156
O O9 0.974521 0.696095 0.694090
O O10 0.336391 0.699439 0.034215
O O11 0.800847 0.500000 0.500000
O O12 0.784386 0.000000 0.500000
#
# Coordination Sequence:
#
# PCOD8158355 Si02
#       6
#     8   8   8   4   8   8
#     4  10  19  35  58  90 111 148 191 241 275 342
#     4  10  21  34  58  86 117 146 195 234 283 335
#     4   9  17  32  57  86 119 142 182 232 301 334
#     4  10  26  40  58  82 116 166 186 238 290 344
#     4   9  18  33  54  88 118 146 176 241 291 343
#     4  10  23  39  57  80 112 162 189 231 285 343
#
# _framework density 21.410803999999999
#
# number of rings (size 3 to 8) (size 9 to 14) (size 15 to 20)
#    0.545    1.818    0.000    2.182    3.818    4.364 
#    0.000    0.000    0.000    4.364    0.000    0.000 
#    0.000    0.000    0.000    0.000    0.000    0.000 
#
# Total GULP energy -272761.945811 kJ/mol
# GULP energy per Si atom -12398.270264 kJ/mol
# Density = 2.136207 g / cm^3
# Si number density = 21.410804 Si / 1000 Ang^3
#
#
#
# Elastic Constant Matrix: (Units=GPa)
#
#
# Indices 1 2 3 4 5 6 
#
# 1 26.7085 8.4850 13.4235 0.0000 0.0000 0.0000
# 2 8.4850 146.8907 14.6122 0.0000 0.0000 0.0000
# 3 13.4235 14.6122 70.2416 0.0000 0.0000 0.0000
# 4 0.0000 0.0000 0.0000 40.2560 0.0000 0.0000
# 5 0.0000 0.0000 0.0000 0.0000 8.2559 0.0000
# 6 0.0000 0.0000 0.0000 0.0000 0.0000 9.9457
#
#
#
# Elastic Compliance Matrix: (Units=1/GPa)
#
#
# Indices 1 2 3 4 5 6 
#
# 1 0.041810 -0.001655 -0.007646 0.000000 0.000000 0.000000
# 2 -0.001655 0.007017 -0.001144 0.000000 0.000000 0.000000
# 3 -0.007646 -0.001144 0.015936 0.000000 0.000000 0.000000
# 4 0.000000 0.000000 0.000000 0.024841 0.000000 0.000000
# 5 0.000000 0.000000 0.000000 0.000000 0.121126 0.000000
# 6 0.000000 0.000000 0.000000 0.000000 0.000000 0.100546
#
#
# Mechanical properties :
#
#
# Convention : Reuss Voigt Hill
#
# Bulk Modulus (GPa) = 22.79227 35.20912 29.00070
# Shear Modulus (GPa) = 14.41805 25.51286 19.96546
#
# Velocity S-wave (km/s) = 2.59781 3.45568 3.05699
# Velocity P-wave (km/s) = 4.43469 5.69233 5.10241
#
# Compressibility (1/GPa) = 0.04387452
#
# Stress axis : x y z
#
# Youngs Moduli (GPa) = 23.91799 142.50880 62.75250
#
# Poissons Ratio (x) = 0.23578 0.47979
# Poissons Ratio (y) = 0.03957 0.07176
# Poissons Ratio (z) = 0.18287 0.16297
#
# Static dielectric constant tensor:
#      x y z
#    x 3.391830 0.000000 0.000000 
#    y 0.000000 4.047200 0.000000 
#    z 0.000000 0.000000 3.895830 
# 
# 
# High freq. dielectric constant tensor:
#      x y z
#    x 1.798420 0.000000 0.000000 
#    y 0.000000 1.854740 0.000000 
#    z 0.000000 0.000000 1.846030 
# 
# From -- ./inp_files/29490.got.cif
#   From: 2010.03.12/outbox.cif.g09.slc.cpg/sg20_15_cif.got.tgz:29490.got - 2010.04.14 01:38:04.
