data_PCOD8158698
_publ_section_title
;
Structure prediction by ZEFSAII (Michael W. Deem and Ramdas Pophale) SiO2 
 PCOD8158698
Probable space group: C 2 2 21
;
_chemical_formula_sum "Si O2"
_cell_formula_units_Z 56
_cell_length_a 18.652045
_cell_length_b 9.060580
_cell_length_c 17.167449
_cell_angle_alpha 90.000000
_cell_angle_beta 90.000000
_cell_angle_gamma 90.000000
_cell_volume 2901.270484
_symmetry_space_group_name_H-M "C 2 2 21"
_symmetry_group_IT_number 20
_symmetry_cell_setting 'orthorhombic'
loop_
_space_group_symop_operation_xyz
x,y,z
-x,-y,1/2+z
x,-y,-z
-x,y,1/2-z
1/2+x,1/2+y,z
1/2-x,1/2-y,1/2+z
1/2+x,1/2-y,-z
1/2-x,1/2+y,1/2-z
loop_
_atom_site_type_symbol
_atom_site_label
_atom_site_fract_x
_atom_site_fract_y
_atom_site_fract_z
Si Si1 0.557537 0.264315 0.896031
Si Si2 0.210799 0.586079 0.283288
Si Si3 0.929169 0.752853 0.429683
Si Si4 0.568708 0.019513 0.203063
Si Si5 0.550295 0.482460 0.410992
Si Si6 0.825305 0.920977 0.205447
Si Si7 0.663929 0.487496 0.130044
O O1 0.489229 0.369618 0.882075
O O2 0.631255 0.354226 0.890116
O O3 0.554674 0.143503 0.828835
O O4 0.556415 0.193653 0.983012
O O5 0.132573 0.520632 0.266252
O O6 0.209326 0.759094 0.300987
O O7 0.261430 0.544344 0.208624
O O8 0.249340 0.506660 0.358784
O O9 0.913440 0.620207 0.371208
O O10 0.997763 0.843897 0.399470
O O11 0.859769 0.863739 0.432636
O O12 0.500000 0.077285 0.250000
O O13 0.572738 0.500000 0.500000
O O14 0.623432 0.456018 0.365705
O O15 0.869300 0.930275 0.286912
#
# Coordination Sequence:
#
# PCOD8158698 Si02
#       7
#     8   8   8   8   8   8   8
#     4  10  22  36  58  88 119 151 196 240 283 344
#     4  10  21  37  54  91 111 146 193 250 271 353
#     4  10  20  39  59  86 117 155 193 238 288 344
#     4  12  23  35  60  88 119 154 192 240 298 338
#     4   9  20  38  60  83 113 151 193 235 283 352
#     4  10  20  36  61  78 121 144 191 237 291 332
#     4   9  20  36  63  77 114 152 192 239 283 342
#
# _framework density 19.301888000000002
#
# number of rings (size 3 to 8) (size 9 to 14) (size 15 to 20)
#    0.857    1.143    1.429    3.429    2.000    1.143 
#    0.000    2.857    0.000    3.429    0.000    0.000 
#    0.000    0.000    0.000    0.000    0.000    0.000 
#
# Total GULP energy -346949.116742 kJ/mol
# GULP energy per Si atom -12391.039884 kJ/mol
# Density = 1.925796 g / cm^3
# Si number density = 19.301888 Si / 1000 Ang^3
#
#
#
# Elastic Constant Matrix: (Units=GPa)
#
#
# Indices 1 2 3 4 5 6 
#
# 1 129.4843 36.2451 36.3401 0.0000 0.0000 0.0000
# 2 36.2451 86.7452 23.5979 0.0000 0.0000 0.0000
# 3 36.3401 23.5979 46.6905 0.0000 0.0000 0.0000
# 4 0.0000 0.0000 0.0000 24.6177 0.0000 0.0000
# 5 0.0000 0.0000 0.0000 0.0000 33.6396 0.0000
# 6 0.0000 0.0000 0.0000 0.0000 0.0000 21.1582
#
#
#
# Elastic Compliance Matrix: (Units=1/GPa)
#
#
# Indices 1 2 3 4 5 6 
#
# 1 0.010317 -0.002465 -0.006784 0.000000 0.000000 0.000000
# 2 -0.002465 0.013955 -0.005134 0.000000 0.000000 0.000000
# 3 -0.006784 -0.005134 0.029293 0.000000 0.000000 0.000000
# 4 0.000000 0.000000 0.000000 0.040621 0.000000 0.000000
# 5 0.000000 0.000000 0.000000 0.000000 0.029727 0.000000
# 6 0.000000 0.000000 0.000000 0.000000 0.000000 0.047263
#
#
# Mechanical properties :
#
#
# Convention : Reuss Voigt Hill
#
# Bulk Modulus (GPa) = 40.32644 50.58737 45.45690
# Shear Modulus (GPa) = 24.01447 26.99889 25.50668
#
# Velocity S-wave (km/s) = 3.53108 3.74407 3.63913
# Velocity P-wave (km/s) = 6.12883 6.70493 6.42334
#
# Compressibility (1/GPa) = 0.02479763
#
# Stress axis : x y z
#
# Youngs Moduli (GPa) = 96.92788 71.66009 34.13840
#
# Poissons Ratio (x) = 0.17666 0.23159
# Poissons Ratio (y) = 0.23896 0.17527
# Poissons Ratio (z) = 0.65755 0.36791
#
# Static dielectric constant tensor:
#      x y z
#    x 3.337370 0.000000 0.000000 
#    y 0.000000 3.449130 0.000000 
#    z 0.000000 0.000000 3.426040 
# 
# 
# High freq. dielectric constant tensor:
#      x y z
#    x 1.736520 0.000000 0.000000 
#    y 0.000000 1.752090 0.000000 
#    z 0.000000 0.000000 1.739070 
# 
# From -- ./inp_files/27735.got.cif
#   From: 2010.03.12/outbox.cif.g09.slc.cpg/sg20_14_cif.got.tgz:27735.got - 2010.04.14 01:38:04.
