data_PCOD8158111
_publ_section_title
;
Structure prediction by ZEFSAII (Michael W. Deem and Ramdas Pophale) SiO2 
 PCOD8158111
Probable space group: C 2 2 21
;
_chemical_formula_sum "Si O2"
_cell_formula_units_Z 48
_cell_length_a 28.100729
_cell_length_b 10.072296
_cell_length_c 8.929219
_cell_angle_alpha 90.000000
_cell_angle_beta 90.000000
_cell_angle_gamma 90.000000
_cell_volume 2527.315969
_symmetry_space_group_name_H-M "C 2 2 21"
_symmetry_group_IT_number 20
_symmetry_cell_setting 'orthorhombic'
loop_
_space_group_symop_operation_xyz
x,y,z
-x,-y,1/2+z
x,-y,-z
-x,y,1/2-z
1/2+x,1/2+y,z
1/2-x,1/2-y,1/2+z
1/2+x,1/2-y,-z
1/2-x,1/2+y,1/2-z
loop_
_atom_site_type_symbol
_atom_site_label
_atom_site_fract_x
_atom_site_fract_y
_atom_site_fract_z
Si Si1 0.856294 0.516157 0.676110
Si Si2 0.709768 0.750000 0.138984
Si Si3 0.543144 0.597664 0.138521
Si Si4 0.356294 0.516157 0.323890
Si Si5 0.809862 0.250000 0.712827
Si Si6 0.543144 0.097664 0.861479
O O1 0.861056 0.500000 0.500000
O O2 0.815314 0.622328 0.712650
O O3 0.841792 0.377807 0.752847
O O4 0.908312 0.563902 0.730471
O O5 0.684686 0.622328 0.212650
O O6 0.764767 0.750000 0.179528
O O7 0.706116 0.750000 0.959694
O O8 0.500000 0.575810 0.250000
O O9 0.591688 0.563902 0.230471
O O10 0.545738 0.750000 0.080641
O O11 0.535412 0.500000 0.000000
O O12 0.361056 0.500000 0.500000
O O13 0.341792 0.377807 0.247153
O O14 0.500000 0.075810 0.750000
O O15 0.535412 0.000000 0.000000
#
# Coordination Sequence:
#
# PCOD8158111 Si02
#       6
#     8   8   8   8   8   8
#     4   9  18  33  54  76 102 140 178 214 260 323
#     4  10  18  34  51  76 102 138 175 216 261 314
#     4  10  21  38  59  84 111 143 184 229 274 328
#     4   9  18  33  54  76 102 140 178 214 260 323
#     4  10  20  32  53  76 104 136 179 218 263 318
#     4  10  21  38  59  84 111 143 184 229 274 328
#
# _framework density 18.99248
#
# number of rings (size 3 to 8) (size 9 to 14) (size 15 to 20)
#    0.000    2.333    1.667    1.000    7.000    0.667 
#    0.000    3.333    0.000    0.000    0.000    0.000 
#    0.000    0.000    0.000    0.000    0.000    0.000 
#
# Total GULP energy -297568.061095 kJ/mol
# GULP energy per Si atom -12398.669212 kJ/mol
# Density = 1.894925 g / cm^3
# Si number density = 18.992480 Si / 1000 Ang^3
#
#
#
# Elastic Constant Matrix: (Units=GPa)
#
#
# Indices 1 2 3 4 5 6 
#
# 1 149.6346 70.1492 31.1979 0.0000 0.0000 0.0000
# 2 70.1492 170.3355 34.3288 0.0000 0.0000 0.0000
# 3 31.1979 34.3288 28.6992 0.0000 0.0000 0.0000
# 4 0.0000 0.0000 0.0000 17.5241 0.0000 0.0000
# 5 0.0000 0.0000 0.0000 0.0000 26.2219 0.0000
# 6 0.0000 0.0000 0.0000 0.0000 0.0000 16.4754
#
#
#
# Elastic Compliance Matrix: (Units=1/GPa)
#
#
# Indices 1 2 3 4 5 6 
#
# 1 0.009313 -0.002365 -0.007294 0.000000 0.000000 0.000000
# 2 -0.002365 0.008336 -0.007400 0.000000 0.000000 0.000000
# 3 -0.007294 -0.007400 0.051626 0.000000 0.000000 0.000000
# 4 0.000000 0.000000 0.000000 0.057064 0.000000 0.000000
# 5 0.000000 0.000000 0.000000 0.000000 0.038136 0.000000
# 6 0.000000 0.000000 0.000000 0.000000 0.000000 0.060697
#
#
# Mechanical properties :
#
#
# Convention : Reuss Voigt Hill
#
# Bulk Modulus (GPa) = 28.44566 68.89125 48.66846
# Shear Modulus (GPa) = 18.44954 26.24382 22.34668
#
# Velocity S-wave (km/s) = 3.12013 3.72129 3.43389
# Velocity P-wave (km/s) = 5.29057 7.40376 6.43451
#
# Compressibility (1/GPa) = 0.03515475
#
# Stress axis : x y z
#
# Youngs Moduli (GPa) = 107.38211 119.95802 19.37021
#
# Poissons Ratio (x) = 0.28371 0.14129
# Poissons Ratio (y) = 0.25397 0.14335
# Poissons Ratio (z) = 0.78328 0.88774
#
# Static dielectric constant tensor:
#      x y z
#    x 3.783940 0.000000 0.000000 
#    y 0.000000 3.951540 0.000000 
#    z 0.000000 0.000000 2.990930 
# 
# 
# High freq. dielectric constant tensor:
#      x y z
#    x 1.757030 0.000000 0.000000 
#    y 0.000000 1.761760 0.000000 
#    z 0.000000 0.000000 1.680510 
# 
# From -- ./inp_files/6522.got.cif
#   From: 2010.03.12/outbox.cif.g09.slc.cpg/sg20_4_cif.got.tgz:6522.got - 2010.04.14 01:38:04.
