data_PCOD8158937
_publ_section_title
;
Structure prediction by ZEFSAII (Michael W. Deem and Ramdas Pophale) SiO2 
 PCOD8158937
Probable space group: C 2 2 21
;
_chemical_formula_sum "Si O2"
_cell_formula_units_Z 64
_cell_length_a 14.452818
_cell_length_b 9.580310
_cell_length_c 22.614958
_cell_angle_alpha 90.000000
_cell_angle_beta 90.000000
_cell_angle_gamma 90.000000
_cell_volume 3131.323098
_symmetry_space_group_name_H-M "C 2 2 21"
_symmetry_group_IT_number 20
_symmetry_cell_setting 'orthorhombic'
loop_
_space_group_symop_operation_xyz
x,y,z
-x,-y,1/2+z
x,-y,-z
-x,y,1/2-z
1/2+x,1/2+y,z
1/2-x,1/2-y,1/2+z
1/2+x,1/2-y,-z
1/2-x,1/2+y,1/2-z
loop_
_atom_site_type_symbol
_atom_site_label
_atom_site_fract_x
_atom_site_fract_y
_atom_site_fract_z
Si Si1 0.364426 0.700269 0.618065
Si Si2 0.807943 0.028758 0.855115
Si Si3 0.532244 0.141280 0.524143
Si Si4 0.946179 0.497066 0.195668
Si Si5 0.032813 0.897512 0.444870
Si Si6 0.107818 0.505364 0.897855
Si Si7 0.102266 0.204147 0.745019
Si Si8 0.333387 0.790919 0.126127
O O1 0.443264 0.589423 0.598526
O O2 0.360457 0.725030 0.688871
O O3 0.262466 0.644344 0.601064
O O4 0.372501 0.846653 0.582536
O O5 0.873679 0.079400 0.908453
O O6 0.701770 0.070771 0.870457
O O7 0.833134 0.101905 0.793199
O O8 0.818413 0.863041 0.847084
O O9 0.528634 0.240627 0.467997
O O10 0.428778 0.102713 0.548438
O O11 0.591914 0.217250 0.574199
O O12 0.580406 0.000000 0.500000
O O13 0.902912 0.646832 0.212102
O O14 0.865017 0.392286 0.178492
O O15 0.000000 0.428067 0.250000
O O16 0.020957 0.512653 0.144944
O O17 0.023799 0.000000 0.500000
O O18 0.000000 0.137547 0.750000
#
# Coordination Sequence:
#
# PCOD8158937 Si02
#       8
#     8   8   8   8   8   8   8   8
#     4  11  22  42  66  91 129 167 212 259 316 389
#     4  11  24  41  64  95 131 164 209 259 324 386
#     4  11  23  42  69  89 122 168 216 258 316 372
#     4  10  20  40  62  90 126 164 212 258 295 372
#     4  12  24  43  64  92 128 163 209 272 315 375
#     4  10  21  40  65  93 120 165 214 251 313 376
#     4  11  21  39  69  90 123 175 211 250 320 380
#     4  10  25  40  59  96 129 159 209 262 316 367
#
# _framework density 20.438644
#
# number of rings (size 3 to 8) (size 9 to 14) (size 15 to 20)
#    0.000    1.250    6.250    0.000    3.500    2.500 
#    2.250    0.000    0.000    0.000    0.000    0.000 
#    0.000    0.000    0.000    0.000    0.000    0.000 
#
# Total GULP energy -396636.219426 kJ/mol
# GULP energy per Si atom -12394.881857 kJ/mol
# Density = 2.039213 g / cm^3
# Si number density = 20.438644 Si / 1000 Ang^3
#
#
#
# Elastic Constant Matrix: (Units=GPa)
#
#
# Indices 1 2 3 4 5 6 
#
# 1 115.5644 33.1028 25.7566 0.0000 0.0000 0.0000
# 2 33.1028 77.9781 33.1101 0.0000 0.0000 0.0000
# 3 25.7566 33.1101 75.0114 0.0000 0.0000 0.0000
# 4 0.0000 0.0000 0.0000 38.8722 0.0000 0.0000
# 5 0.0000 0.0000 0.0000 0.0000 18.8482 0.0000
# 6 0.0000 0.0000 0.0000 0.0000 0.0000 28.5219
#
#
#
# Elastic Compliance Matrix: (Units=1/GPa)
#
#
# Indices 1 2 3 4 5 6 
#
# 1 0.010074 -0.003455 -0.001934 0.000000 0.000000 0.000000
# 2 -0.003455 0.016967 -0.006303 0.000000 0.000000 0.000000
# 3 -0.001934 -0.006303 0.016777 0.000000 0.000000 0.000000
# 4 0.000000 0.000000 0.000000 0.025725 0.000000 0.000000
# 5 0.000000 0.000000 0.000000 0.000000 0.053055 0.000000
# 6 0.000000 0.000000 0.000000 0.000000 0.000000 0.035061
#
#
# Mechanical properties :
#
#
# Convention : Reuss Voigt Hill
#
# Bulk Modulus (GPa) = 48.93724 50.27699 49.60711
# Shear Modulus (GPa) = 26.61613 29.02074 27.81844
#
# Velocity S-wave (km/s) = 3.61258 3.77224 3.69327
# Velocity P-wave (km/s) = 6.43401 6.60495 6.52004
#
# Compressibility (1/GPa) = 0.02043434
#
# Stress axis : x y z
#
# Youngs Moduli (GPa) = 99.26557 58.93707 59.60385
#
# Poissons Ratio (x) = 0.20365 0.11527
# Poissons Ratio (y) = 0.34300 0.37568
# Poissons Ratio (z) = 0.19197 0.37147
#
# Static dielectric constant tensor:
#      x y z
#    x 3.949000 0.000000 0.000000 
#    y 0.000000 3.635340 0.000000 
#    z 0.000000 0.000000 3.947250 
# 
# 
# High freq. dielectric constant tensor:
#      x y z
#    x 1.807210 0.000000 0.000000 
#    y 0.000000 1.784250 0.000000 
#    z 0.000000 0.000000 1.805320 
# 
# From -- ./inp_files/29341.got.cif
#   From: 2010.03.12/outbox.cif.g09.slc.cpg/sg20_15_cif.got.tgz:29341.got - 2010.04.14 01:38:04.
