data_PCOD8158573
_publ_section_title
;
Structure prediction by ZEFSAII (Michael W. Deem and Ramdas Pophale) SiO2 
 PCOD8158573
Probable space group: C 2 2 21
;
_chemical_formula_sum "Si O2"
_cell_formula_units_Z 64
_cell_length_a 17.885532
_cell_length_b 22.033322
_cell_length_c 8.352492
_cell_angle_alpha 90.000000
_cell_angle_beta 90.000000
_cell_angle_gamma 90.000000
_cell_volume 3291.530717
_symmetry_space_group_name_H-M "C 2 2 21"
_symmetry_group_IT_number 20
_symmetry_cell_setting 'orthorhombic'
loop_
_space_group_symop_operation_xyz
x,y,z
-x,-y,1/2+z
x,-y,-z
-x,y,1/2-z
1/2+x,1/2+y,z
1/2-x,1/2-y,1/2+z
1/2+x,1/2-y,-z
1/2-x,1/2+y,1/2-z
loop_
_atom_site_type_symbol
_atom_site_label
_atom_site_fract_x
_atom_site_fract_y
_atom_site_fract_z
Si Si1 0.776183 0.689708 0.499156
Si Si2 0.891840 0.235692 0.657583
Si Si3 0.564293 0.595138 0.437519
Si Si4 0.171370 0.714075 0.643772
Si Si5 0.096224 0.939063 0.915174
Si Si6 0.287484 0.624249 0.601750
Si Si7 0.958605 0.770017 0.997125
Si Si8 0.713197 0.563489 0.579324
O O1 0.842071 0.704412 0.373641
O O2 0.805879 0.712726 0.671012
O O3 0.702455 0.726742 0.449491
O O4 0.758078 0.618117 0.493206
O O5 0.837753 0.177740 0.678866
O O6 0.932857 0.241993 0.823568
O O7 0.951006 0.231025 0.508423
O O8 0.481168 0.580205 0.501945
O O9 0.583003 0.559494 0.273689
O O10 0.567658 0.667154 0.416286
O O11 0.623845 0.570635 0.563623
O O12 0.206739 0.653567 0.559639
O O13 0.081067 0.718212 0.614970
O O14 0.167560 0.895633 0.944434
O O15 0.121857 0.000000 0.000000
O O16 0.274740 0.569041 0.729074
O O17 0.740793 0.500000 0.500000
#
# Coordination Sequence:
#
# PCOD8158573 Si02
#       8
#     8   8   8   8   8   8   8   8
#     4  10  21  35  53  81 107 145 180 233 283 331
#     4  10  21  35  56  77 111 140 178 232 284 341
#     4  11  22  35  51  77 105 148 192 223 261 330
#     4  10  20  33  55  77 109 137 184 227 283 336
#     4  11  24  36  48  75 109 150 190 222 263 312
#     4  10  20  36  52  77 108 144 180 233 271 316
#     4  11  20  36  55  83 105 144 179 227 293 340
#     4  11  21  36  56  77 108 152 192 224 270 331
#
# _framework density 19.443840999999999
#
# number of rings (size 3 to 8) (size 9 to 14) (size 15 to 20)
#    0.000    1.500    3.750    2.625    3.500    3.000 
#    0.000    0.000    0.000    0.000    0.000    7.875 
#    0.000    0.000    0.000    0.000    0.000    0.000 
#
# Total GULP energy -396467.955761 kJ/mol
# GULP energy per Si atom -12389.623618 kJ/mol
# Density = 1.939959 g / cm^3
# Si number density = 19.443841 Si / 1000 Ang^3
#
#
#
# Elastic Constant Matrix: (Units=GPa)
#
#
# Indices 1 2 3 4 5 6 
#
# 1 46.5842 26.3978 9.2894 0.0000 0.0000 0.0000
# 2 26.3978 89.9572 26.6581 0.0000 0.0000 0.0000
# 3 9.2894 26.6581 43.4368 0.0000 0.0000 0.0000
# 4 0.0000 0.0000 0.0000 28.6601 0.0000 0.0000
# 5 0.0000 0.0000 0.0000 0.0000 29.1797 0.0000
# 6 0.0000 0.0000 0.0000 0.0000 0.0000 18.3965
#
#
#
# Elastic Compliance Matrix: (Units=1/GPa)
#
#
# Indices 1 2 3 4 5 6 
#
# 1 0.025788 -0.007252 -0.001064 0.000000 0.000000 0.000000
# 2 -0.007252 0.015627 -0.008040 0.000000 0.000000 0.000000
# 3 -0.001064 -0.008040 0.028184 0.000000 0.000000 0.000000
# 4 0.000000 0.000000 0.000000 0.034892 0.000000 0.000000
# 5 0.000000 0.000000 0.000000 0.000000 0.034270 0.000000
# 6 0.000000 0.000000 0.000000 0.000000 0.000000 0.054358
#
#
# Mechanical properties :
#
#
# Convention : Reuss Voigt Hill
#
# Bulk Modulus (GPa) = 27.11003 33.85212 30.48107
# Shear Modulus (GPa) = 20.99717 23.08944 22.04330
#
# Velocity S-wave (km/s) = 3.28973 3.44974 3.37069
# Velocity P-wave (km/s) = 5.32942 5.77197 5.55510
#
# Compressibility (1/GPa) = 0.03688672
#
# Stress axis : x y z
#
# Youngs Moduli (GPa) = 38.77727 63.99172 35.48150
#
# Poissons Ratio (x) = 0.46408 0.03776
# Poissons Ratio (y) = 0.28122 0.28526
# Poissons Ratio (z) = 0.04127 0.51447
#
# Static dielectric constant tensor:
#      x y z
#    x 3.898370 0.000000 0.000000 
#    y 0.000000 3.513650 0.000000 
#    z 0.000000 0.000000 3.469560 
# 
# 
# High freq. dielectric constant tensor:
#      x y z
#    x 1.746460 0.000000 0.000000 
#    y 0.000000 1.728010 0.000000 
#    z 0.000000 0.000000 1.756600 
# 
# From -- ./inp_files/9662.got.cif
#   From: 2010.03.12/outbox.cif.g09.slc.cpg/sg20_5_cif.got.tgz:9662.got - 2010.04.14 01:38:04.
