data_PCOD8158063
_publ_section_title
;
Structure prediction by ZEFSAII (Michael W. Deem and Ramdas Pophale) SiO2 
 PCOD8158063
Probable space group: C 2 2 21
;
_chemical_formula_sum "Si O2"
_cell_formula_units_Z 48
_cell_length_a 9.408752
_cell_length_b 15.652818
_cell_length_c 17.489966
_cell_angle_alpha 90.000000
_cell_angle_beta 90.000000
_cell_angle_gamma 90.000000
_cell_volume 2575.808204
_symmetry_space_group_name_H-M "C 2 2 21"
_symmetry_group_IT_number 20
_symmetry_cell_setting 'orthorhombic'
loop_
_space_group_symop_operation_xyz
x,y,z
-x,-y,1/2+z
x,-y,-z
-x,y,1/2-z
1/2+x,1/2+y,z
1/2-x,1/2-y,1/2+z
1/2+x,1/2-y,-z
1/2-x,1/2+y,1/2-z
loop_
_atom_site_type_symbol
_atom_site_label
_atom_site_fract_x
_atom_site_fract_y
_atom_site_fract_z
Si Si1 0.481730 0.007819 0.338459
Si Si2 0.193771 0.836303 0.078398
Si Si3 0.521343 0.657868 0.070874
Si Si4 0.482116 0.155101 0.562315
Si Si5 0.774787 0.984684 0.591528
Si Si6 0.304548 0.148755 0.409046
O O1 0.500000 0.988313 0.250000
O O2 0.361120 0.080154 0.348245
O O3 0.440395 0.918778 0.378397
O O4 0.623730 0.045486 0.376758
O O5 0.350823 0.843237 0.038755
O O6 0.181497 0.922891 0.129800
O O7 0.180306 0.746354 0.123798
O O8 0.067906 0.839443 0.017233
O O9 0.550566 0.753479 0.103016
O O10 0.613818 0.587912 0.116564
O O11 0.359347 0.628256 0.075446
O O12 0.389062 0.138853 0.487710
O O13 0.770979 0.000000 0.500000
#
# Coordination Sequence:
#
# PCOD8158063 Si02
#       6
#     8   8   8   8   8   8
#     4  11  22  35  49  69  99 140 177 204 240 295
#     4   8  16  30  51  76 102 128 154 194 255 304
#     4   9  17  30  55  84 102 122 160 212 259 296
#     4   9  18  34  54  75 102 134 166 202 246 304
#     4   9  17  34  55  73  98 132 161 198 257 310
#     4  10  18  31  53  79  99 122 167 214 245 287
#
# _framework density 18.634927999999999
#
# number of rings (size 3 to 8) (size 9 to 14) (size 15 to 20)
#    0.000    2.667    0.000    3.500    0.000    5.333 
#    0.000    5.833    0.000    0.000    0.000    0.000 
#    0.000    0.000    0.000    0.000    0.000    0.000 
#
# Total GULP energy -297335.552274 kJ/mol
# GULP energy per Si atom -12388.981345 kJ/mol
# Density = 1.859251 g / cm^3
# Si number density = 18.634928 Si / 1000 Ang^3
#
#
#
# Elastic Constant Matrix: (Units=GPa)
#
#
# Indices 1 2 3 4 5 6 
#
# 1 88.5511 55.5534 10.0795 0.0000 0.0000 0.0000
# 2 55.5534 152.1104 18.8579 0.0000 0.0000 0.0000
# 3 10.0795 18.8579 39.8626 0.0000 0.0000 0.0000
# 4 0.0000 0.0000 0.0000 8.8507 0.0000 0.0000
# 5 0.0000 0.0000 0.0000 0.0000 6.3979 0.0000
# 6 0.0000 0.0000 0.0000 0.0000 0.0000 34.9855
#
#
#
# Elastic Compliance Matrix: (Units=1/GPa)
#
#
# Indices 1 2 3 4 5 6 
#
# 1 0.014708 -0.005216 -0.001251 0.000000 0.000000 0.000000
# 2 -0.005216 0.008834 -0.002860 0.000000 0.000000 0.000000
# 3 -0.001251 -0.002860 0.026756 0.000000 0.000000 0.000000
# 4 0.000000 0.000000 0.000000 0.112985 0.000000 0.000000
# 5 0.000000 0.000000 0.000000 0.000000 0.156301 0.000000
# 6 0.000000 0.000000 0.000000 0.000000 0.000000 0.028583
#
#
# Mechanical properties :
#
#
# Convention : Reuss Voigt Hill
#
# Bulk Modulus (GPa) = 31.60365 49.94506 40.77436
# Shear Modulus (GPa) = 13.24958 23.11570 18.18264
#
# Velocity S-wave (km/s) = 2.66937 3.52582 3.12706
# Velocity P-wave (km/s) = 5.14751 6.59054 5.91321
#
# Compressibility (1/GPa) = 0.03164191
#
# Stress axis : x y z
#
# Youngs Moduli (GPa) = 67.99047 113.20031 37.37537
#
# Poissons Ratio (x) = 0.59051 0.04676
# Poissons Ratio (y) = 0.35467 0.10690
# Poissons Ratio (z) = 0.08507 0.32376
#
# Static dielectric constant tensor:
#      x y z
#    x 3.507730 0.000000 0.000000 
#    y 0.000000 4.312460 0.000000 
#    z 0.000000 0.000000 2.741660 
# 
# 
# High freq. dielectric constant tensor:
#      x y z
#    x 1.727340 0.000000 0.000000 
#    y 0.000000 1.759520 0.000000 
#    z 0.000000 0.000000 1.644570 
# 
# From -- ./inp_files/23630.got.cif
#   From: 2010.03.12/outbox.cif.g09.slc.cpg/sg20_12_cif.got.tgz:23630.got - 2010.04.14 01:38:04.
