data_PCOD8158786
_publ_section_title
;
Structure prediction by ZEFSAII (Michael W. Deem and Ramdas Pophale) SiO2 
 PCOD8158786
Probable space group: C 2 2 21
;
_chemical_formula_sum "Si O2"
_cell_formula_units_Z 48
_cell_length_a 8.430516
_cell_length_b 21.168783
_cell_length_c 12.933195
_cell_angle_alpha 90.000000
_cell_angle_beta 90.000000
_cell_angle_gamma 90.000000
_cell_volume 2308.106657
_symmetry_space_group_name_H-M "C 2 2 21"
_symmetry_group_IT_number 20
_symmetry_cell_setting 'orthorhombic'
loop_
_space_group_symop_operation_xyz
x,y,z
-x,-y,1/2+z
x,-y,-z
-x,y,1/2-z
1/2+x,1/2+y,z
1/2-x,1/2-y,1/2+z
1/2+x,1/2-y,-z
1/2-x,1/2+y,1/2-z
loop_
_atom_site_type_symbol
_atom_site_label
_atom_site_fract_x
_atom_site_fract_y
_atom_site_fract_z
Si Si1 0.312307 0.199340 0.488339
Si Si2 0.897688 0.909173 0.602548
Si Si3 0.633576 0.590533 0.574013
Si Si4 0.527648 0.277597 0.637145
Si Si5 0.463265 0.898265 0.871029
Si Si6 0.000000 0.016665 0.750000
Si Si7 0.102997 0.500000 0.000000
O O1 0.183662 0.163918 0.563540
O O2 0.402010 0.250521 0.556234
O O3 0.435591 0.153602 0.431799
O O4 0.207574 0.235472 0.401046
O O5 0.006891 0.853287 0.647950
O O6 0.718520 0.884202 0.599588
O O7 0.972851 0.925514 0.490205
O O8 0.902081 0.971668 0.673255
O O9 0.614506 0.564853 0.689775
O O10 0.788683 0.557113 0.532775
O O11 0.500000 0.246382 0.750000
O O12 0.500000 0.892627 0.750000
O O13 0.496896 0.970339 0.908153
#
# Coordination Sequence:
#
# PCOD8158786 Si02
#       7
#     8   8   8   8   8   4   4
#     4  10  24  44  62  95 133 169 218 280 320 395
#     4  11  22  38  67  95 120 169 218 264 322 391
#     4  10  22  40  59  90 132 164 211 264 317 375
#     4  11  22  44  69  91 128 175 220 273 335 391
#     4  11  23  38  62  95 126 169 216 267 336 389
#     4  12  20  38  68  92 126 170 212 256 324 398
#     4  10  20  38  54  88 132 160 204 276 306 380
#
# _framework density 20.796264000000001
#
# number of rings (size 3 to 8) (size 9 to 14) (size 15 to 20)
#    0.000    1.333    2.500    3.000    4.667    0.000 
#    9.000    1.667    0.000    0.000    0.000    0.000 
#    0.000    0.000    0.000    0.000    0.000    0.000 
#
# Total GULP energy -297459.228572 kJ/mol
# GULP energy per Si atom -12394.134524 kJ/mol
# Density = 2.074893 g / cm^3
# Si number density = 20.796264 Si / 1000 Ang^3
#
#
#
# Elastic Constant Matrix: (Units=GPa)
#
#
# Indices 1 2 3 4 5 6 
#
# 1 100.5037 3.3795 26.8321 0.0000 0.0000 0.0000
# 2 3.3795 47.6714 31.9653 0.0000 0.0000 0.0000
# 3 26.8321 31.9653 92.4802 0.0000 0.0000 0.0000
# 4 0.0000 0.0000 0.0000 29.1632 0.0000 0.0000
# 5 0.0000 0.0000 0.0000 0.0000 1231.5379 0.0000
# 6 0.0000 0.0000 0.0000 0.0000 0.0000 32.3754
#
#
#
# Elastic Compliance Matrix: (Units=1/GPa)
#
#
# Indices 1 2 3 4 5 6 
#
# 1 0.010897 0.001754 -0.003768 0.000000 0.000000 0.000000
# 2 0.001754 0.027588 -0.010044 0.000000 0.000000 0.000000
# 3 -0.003768 -0.010044 0.015378 0.000000 0.000000 0.000000
# 4 0.000000 0.000000 0.000000 0.034290 0.000000 0.000000
# 5 0.000000 0.000000 0.000000 0.000000 0.000812 0.000000
# 6 0.000000 0.000000 0.000000 0.000000 0.000000 0.030888
#
#
# Mechanical properties :
#
#
# Convention : Reuss Voigt Hill
#
# Bulk Modulus (GPa) = 33.61789 40.55656 37.08722
# Shear Modulus (GPa) = 32.49198 270.51387 151.50293
#
# Velocity S-wave (km/s) = 3.95700 11.41755 8.54454
# Velocity P-wave (km/s) = 6.08914 13.90533 10.73396
#
# Compressibility (1/GPa) = 0.02974607
#
# Stress axis : x y z
#
# Youngs Moduli (GPa) = 91.76979 36.24797 65.02743
#
# Poissons Ratio (x) = -0.06358 0.24501
# Poissons Ratio (y) = -0.16096 0.65316
# Poissons Ratio (z) = 0.34577 0.36409
#
# Static dielectric constant tensor:
#      x y z
#    x 3.889380 0.000000 0.000000 
#    y 0.000000 2.542750 0.000000 
#    z 0.000000 0.000000 3.882340 
# 
# 
# High freq. dielectric constant tensor:
#      x y z
#    x 1.818610 0.000000 0.000000 
#    y 0.000000 1.808200 0.000000 
#    z 0.000000 0.000000 1.808530 
# 
# From -- ./inp_files/13138.got.cif
#   From: 2010.03.12/outbox.cif.g09.slc.cpg/sg20_7_cif.got.tgz:13138.got - 2010.04.14 01:38:04.
