data_PCOD8158634
_publ_section_title
;
Structure prediction by ZEFSAII (Michael W. Deem and Ramdas Pophale) SiO2 
 PCOD8158634
Probable space group: C 2 2 21
;
_chemical_formula_sum "Si O2"
_cell_formula_units_Z 48
_cell_length_a 11.315245
_cell_length_b 19.296472
_cell_length_c 11.302384
_cell_angle_alpha 90.000000
_cell_angle_beta 90.000000
_cell_angle_gamma 90.000000
_cell_volume 2467.811217
_symmetry_space_group_name_H-M "C 2 2 21"
_symmetry_group_IT_number 20
_symmetry_cell_setting 'orthorhombic'
loop_
_space_group_symop_operation_xyz
x,y,z
-x,-y,1/2+z
x,-y,-z
-x,y,1/2-z
1/2+x,1/2+y,z
1/2-x,1/2-y,1/2+z
1/2+x,1/2-y,-z
1/2-x,1/2+y,1/2-z
loop_
_atom_site_type_symbol
_atom_site_label
_atom_site_fract_x
_atom_site_fract_y
_atom_site_fract_z
Si Si1 0.895401 0.780388 0.828518
Si Si2 0.022590 0.304356 0.543793
Si Si3 0.600043 0.000000 0.000000
Si Si4 0.222575 0.632132 0.027329
Si Si5 0.753910 0.155252 0.753154
Si Si6 0.123180 0.566938 0.559780
Si Si7 0.500000 0.706571 0.750000
O O1 0.832182 0.844395 0.893045
O O2 0.806534 0.730788 0.756069
O O3 0.000000 0.813187 0.750000
O O4 0.961430 0.731657 0.919598
O O5 0.883706 0.316620 0.558267
O O6 0.104734 0.373411 0.541233
O O7 0.060659 0.254264 0.649544
O O8 0.512174 0.041483 0.907970
O O9 0.684399 0.945269 0.933353
O O10 0.253880 0.631051 0.888651
O O11 0.690399 0.096137 0.673927
O O12 0.889862 0.159789 0.706215
O O13 0.189973 0.500000 0.500000
#
# Coordination Sequence:
#
# PCOD8158634 Si02
#       7
#     8   8   4   8   8   8   4
#     4  11  21  35  63  96 128 162 209 268 323 378
#     4  10  20  35  57  92 127 158 210 257 321 371
#     4   8  20  38  64  84 124 160 208 266 304 386
#     4  11  20  39  61  91 124 169 211 260 324 376
#     4  11  22  35  66  89 127 169 206 269 321 377
#     4   8  19  40  58  92 119 159 213 263 309 372
#     4  12  22  36  56  94 128 170 206 264 318 388
#
# _framework density 19.450434999999999
#
# number of rings (size 3 to 8) (size 9 to 14) (size 15 to 20)
#    0.500    1.333    5.000    0.000    0.000    0.000 
#    6.000    0.000    3.667    0.000    0.000    0.000 
#    0.000    0.000    0.000    0.000    0.000    0.000 
#
# Total GULP energy -297368.913590 kJ/mol
# GULP energy per Si atom -12390.371400 kJ/mol
# Density = 1.940617 g / cm^3
# Si number density = 19.450435 Si / 1000 Ang^3
#
#
#
# Elastic Constant Matrix: (Units=GPa)
#
#
# Indices 1 2 3 4 5 6 
#
# 1 121.5353 60.9346 42.1394 0.0000 0.0000 0.0000
# 2 60.9346 112.8311 41.1326 0.0000 0.0000 0.0000
# 3 42.1394 41.1326 82.4911 0.0000 0.0000 0.0000
# 4 0.0000 0.0000 0.0000 20.0226 0.0000 0.0000
# 5 0.0000 0.0000 0.0000 0.0000 34.5354 0.0000
# 6 0.0000 0.0000 0.0000 0.0000 0.0000 10.4855
#
#
#
# Elastic Compliance Matrix: (Units=1/GPa)
#
#
# Indices 1 2 3 4 5 6 
#
# 1 0.012085 -0.005226 -0.003568 0.000000 0.000000 0.000000
# 2 -0.005226 0.013092 -0.003858 0.000000 0.000000 0.000000
# 3 -0.003568 -0.003858 0.015869 0.000000 0.000000 0.000000
# 4 0.000000 0.000000 0.000000 0.049944 0.000000 0.000000
# 5 0.000000 0.000000 0.000000 0.000000 0.028956 0.000000
# 6 0.000000 0.000000 0.000000 0.000000 0.000000 0.095370
#
#
# Mechanical properties :
#
#
# Convention : Reuss Voigt Hill
#
# Bulk Modulus (GPa) = 63.52524 67.25230 65.38877
# Shear Modulus (GPa) = 20.33627 24.51875 22.42751
#
# Velocity S-wave (km/s) = 3.23699 3.55431 3.39936
# Velocity P-wave (km/s) = 6.83387 7.17603 7.00704
#
# Compressibility (1/GPa) = 0.01574178
#
# Stress axis : x y z
#
# Youngs Moduli (GPa) = 82.74519 76.38435 63.01636
#
# Poissons Ratio (x) = 0.39919 0.22482
# Poissons Ratio (y) = 0.43243 0.24313
# Poissons Ratio (z) = 0.29521 0.29471
#
# Static dielectric constant tensor:
#      x y z
#    x 3.529970 0.000000 0.000000 
#    y 0.000000 3.654110 0.000000 
#    z 0.000000 0.000000 3.298380 
# 
# 
# High freq. dielectric constant tensor:
#      x y z
#    x 1.750180 0.000000 0.000000 
#    y 0.000000 1.747440 0.000000 
#    z 0.000000 0.000000 1.737850 
# 
# From -- ./inp_files/14281.got.cif
#   From: 2010.03.12/outbox.cif.g09.slc.cpg/sg20_8_cif.got.tgz:14281.got - 2010.04.14 01:38:04.
