data_PCOD8158524
_publ_section_title
;
Structure prediction by ZEFSAII (Michael W. Deem and Ramdas Pophale) SiO2 
 PCOD8158524
Probable space group: C 2 2 21
;
_chemical_formula_sum "Si O2"
_cell_formula_units_Z 36
_cell_length_a 20.035048
_cell_length_b 8.639744
_cell_length_c 9.876130
_cell_angle_alpha 90.000000
_cell_angle_beta 90.000000
_cell_angle_gamma 90.000000
_cell_volume 1709.535247
_symmetry_space_group_name_H-M "C 2 2 21"
_symmetry_group_IT_number 20
_symmetry_cell_setting 'orthorhombic'
loop_
_space_group_symop_operation_xyz
x,y,z
-x,-y,1/2+z
x,-y,-z
-x,y,1/2-z
1/2+x,1/2+y,z
1/2-x,1/2-y,1/2+z
1/2+x,1/2-y,-z
1/2-x,1/2+y,1/2-z
loop_
_atom_site_type_symbol
_atom_site_label
_atom_site_fract_x
_atom_site_fract_y
_atom_site_fract_z
Si Si1 0.895129 0.405190 0.636620
Si Si2 0.311774 0.356689 0.652397
Si Si3 0.000000 0.380057 0.250000
Si Si4 0.542294 0.331676 0.965960
Si Si5 0.274682 0.298021 0.356416
O O1 0.879162 0.500000 0.500000
O O2 0.943248 0.259425 0.604283
O O3 0.826847 0.334228 0.695593
O O4 0.933181 0.515323 0.742482
O O5 0.389837 0.345449 0.621059
O O6 0.269636 0.299507 0.520200
O O7 0.296958 0.533011 0.692129
O O8 0.294150 0.246717 0.780367
O O9 0.010101 0.269796 0.380318
O O10 0.512219 0.500000 0.000000
#
# Coordination Sequence:
#
# PCOD8158524 Si02
#       5
#     8   8   4   8   8
#     4   9  19  37  59  85 118 160 200 249 309 368
#     4  10  21  38  62  93 122 171 202 251 309 368
#     4  10  22  34  64  88 108 162 210 250 302 370
#     4  10  19  41  60  84 119 161 208 250 317 370
#     4  10  21  37  61  91 128 162 208 247 305 375
#
# _framework density 21.058356
#
# number of rings (size 3 to 8) (size 9 to 14) (size 15 to 20)
#    0.000    2.222    4.444    0.000    9.333    0.889 
#    0.000    6.667    0.000    0.000    0.000    0.000 
#    0.000    0.000    0.000    0.000    0.000    0.000 
#
# Total GULP energy -223084.367359 kJ/mol
# GULP energy per Si atom -12393.575964 kJ/mol
# Density = 2.101043 g / cm^3
# Si number density = 21.058356 Si / 1000 Ang^3
#
#
#
# Elastic Constant Matrix: (Units=GPa)
#
#
# Indices 1 2 3 4 5 6 
#
# 1 54.7684 40.8674 34.1161 0.0000 0.0000 0.0000
# 2 40.8674 157.2501 36.3749 0.0000 0.0000 0.0000
# 3 34.1161 36.3749 57.8424 0.0000 0.0000 0.0000
# 4 0.0000 0.0000 0.0000 38.5898 0.0000 0.0000
# 5 0.0000 0.0000 0.0000 0.0000 34.9796 0.0000
# 6 0.0000 0.0000 0.0000 0.0000 0.0000 35.0529
#
#
#
# Elastic Compliance Matrix: (Units=1/GPa)
#
#
# Indices 1 2 3 4 5 6 
#
# 1 0.031405 -0.004537 -0.015670 0.000000 0.000000 0.000000
# 2 -0.004537 0.008097 -0.002416 0.000000 0.000000 0.000000
# 3 -0.015670 -0.002416 0.028050 0.000000 0.000000 0.000000
# 4 0.000000 0.000000 0.000000 0.025914 0.000000 0.000000
# 5 0.000000 0.000000 0.000000 0.000000 0.028588 0.000000
# 6 0.000000 0.000000 0.000000 0.000000 0.000000 0.028528
#
#
# Mechanical properties :
#
#
# Convention : Reuss Voigt Hill
#
# Bulk Modulus (GPa) = 44.83024 54.73086 49.78055
# Shear Modulus (GPa) = 24.59848 32.29127 28.44488
#
# Velocity S-wave (km/s) = 3.42147 3.92014 3.67926
# Velocity P-wave (km/s) = 6.07811 6.82177 6.46065
#
# Compressibility (1/GPa) = 0.02230637
#
# Stress axis : x y z
#
# Youngs Moduli (GPa) = 31.84173 123.49773 35.65050
#
# Poissons Ratio (x) = 0.56032 0.55864
# Poissons Ratio (y) = 0.14447 0.08613
# Poissons Ratio (z) = 0.49896 0.29838
#
# Static dielectric constant tensor:
#      x y z
#    x 3.484460 0.000000 0.000000 
#    y 0.000000 4.421710 0.000000 
#    z 0.000000 0.000000 3.594670 
# 
# 
# High freq. dielectric constant tensor:
#      x y z
#    x 1.786120 0.000000 0.000000 
#    y 0.000000 1.860940 0.000000 
#    z 0.000000 0.000000 1.791360 
# 
# From -- ./inp_files/16119.got.cif
#   From: 2010.03.12/outbox.cif.g09.slc.cpg/sg20_9_cif.got.tgz:16119.got - 2010.04.14 01:38:04.
