data_PCOD8158046
_publ_section_title
;
Structure prediction by ZEFSAII (Michael W. Deem and Ramdas Pophale) SiO2 
 PCOD8158046
Probable space group: C 2 2 21
;
_chemical_formula_sum "Si O2"
_cell_formula_units_Z 56
_cell_length_a 18.896409
_cell_length_b 12.949663
_cell_length_c 11.701857
_cell_angle_alpha 90.000000
_cell_angle_beta 90.000000
_cell_angle_gamma 90.000000
_cell_volume 2863.469315
_symmetry_space_group_name_H-M "C 2 2 21"
_symmetry_group_IT_number 20
_symmetry_cell_setting 'orthorhombic'
loop_
_space_group_symop_operation_xyz
x,y,z
-x,-y,1/2+z
x,-y,-z
-x,y,1/2-z
1/2+x,1/2+y,z
1/2-x,1/2-y,1/2+z
1/2+x,1/2-y,-z
1/2-x,1/2+y,1/2-z
loop_
_atom_site_type_symbol
_atom_site_label
_atom_site_fract_x
_atom_site_fract_y
_atom_site_fract_z
Si Si1 0.129892 0.706274 0.472208
Si Si2 0.830435 0.592584 0.806949
Si Si3 0.232545 0.116901 0.457768
Si Si4 0.473870 0.833459 0.477062
Si Si5 0.736868 0.104754 0.307870
Si Si6 0.553941 0.979974 0.833866
Si Si7 0.163750 0.740518 0.892020
O O1 0.140549 0.620421 0.569675
O O2 0.163518 0.816352 0.505893
O O3 0.164041 0.661238 0.354616
O O4 0.044043 0.718649 0.468718
O O5 0.762052 0.519446 0.827002
O O6 0.875719 0.513146 0.730096
O O7 0.819199 0.695660 0.734521
O O8 0.247222 0.128296 0.323927
O O9 0.301230 0.163717 0.517760
O O10 0.219959 0.000000 0.500000
O O11 0.427735 0.896430 0.570205
O O12 0.419827 0.749001 0.422177
O O13 0.489709 0.918810 0.379395
O O14 0.800534 0.147059 0.388589
O O15 0.500000 0.922630 0.750000
#
# Coordination Sequence:
#
# PCOD8158046 Si02
#       7
#     8   8   8   8   8   8   8
#     4  11  23  37  60  91 123 157 199 258 306 370
#     4  11  19  35  56  85 120 153 192 246 302 360
#     4  11  22  41  60  85 118 166 209 250 295 360
#     4  10  21  34  53  90 123 153 193 245 311 361
#     4  11  22  36  59  86 122 159 203 243 302 363
#     4  10  18  29  53  82 123 152 180 236 309 368
#     4  10  22  36  57  88 117 157 199 250 301 355
#
# _framework density 19.556695999999999
#
# number of rings (size 3 to 8) (size 9 to 14) (size 15 to 20)
#    0.000    1.429    4.286    2.143    4.000    0.000 
#    0.000    0.000    0.000    3.429    0.000    4.000 
#    0.000    0.000    0.000    0.000    0.000    0.000 
#
# Total GULP energy -346868.335721 kJ/mol
# GULP energy per Si atom -12388.154847 kJ/mol
# Density = 1.951218 g / cm^3
# Si number density = 19.556696 Si / 1000 Ang^3
#
#
#
# Elastic Constant Matrix: (Units=GPa)
#
#
# Indices 1 2 3 4 5 6 
#
# 1 108.3376 44.5450 27.3879 0.0000 0.0000 0.0000
# 2 44.5450 64.2706 32.1278 0.0000 0.0000 0.0000
# 3 27.3879 32.1278 85.9886 0.0000 0.0000 0.0000
# 4 0.0000 0.0000 0.0000 22.0684 0.0000 0.0000
# 5 0.0000 0.0000 0.0000 0.0000 25.7285 0.0000
# 6 0.0000 0.0000 0.0000 0.0000 0.0000 21.4135
#
#
#
# Elastic Compliance Matrix: (Units=1/GPa)
#
#
# Indices 1 2 3 4 5 6 
#
# 1 0.012972 -0.008516 -0.000950 0.000000 0.000000 0.000000
# 2 -0.008516 0.024723 -0.006525 0.000000 0.000000 0.000000
# 3 -0.000950 -0.006525 0.014370 0.000000 0.000000 0.000000
# 4 0.000000 0.000000 0.000000 0.045314 0.000000 0.000000
# 5 0.000000 0.000000 0.000000 0.000000 0.038867 0.000000
# 6 0.000000 0.000000 0.000000 0.000000 0.000000 0.046699
#
#
# Mechanical properties :
#
#
# Convention : Reuss Voigt Hill
#
# Bulk Modulus (GPa) = 49.79168 51.85758 50.82463
# Shear Modulus (GPa) = 22.56100 24.14450 23.35275
#
# Velocity S-wave (km/s) = 3.40018 3.51748 3.45933
# Velocity P-wave (km/s) = 6.39769 6.56285 6.48080
#
# Compressibility (1/GPa) = 0.02008368
#
# Stress axis : x y z
#
# Youngs Moduli (GPa) = 77.08916 40.44791 69.58990
#
# Poissons Ratio (x) = 0.34445 0.06610
# Poissons Ratio (y) = 0.65648 0.45407
# Poissons Ratio (z) = 0.07323 0.26392
#
# Static dielectric constant tensor:
#      x y z
#    x 3.477760 0.000000 0.000000 
#    y 0.000000 3.493470 0.000000 
#    z 0.000000 0.000000 3.853250 
# 
# 
# High freq. dielectric constant tensor:
#      x y z
#    x 1.745770 0.000000 0.000000 
#    y 0.000000 1.729620 0.000000 
#    z 0.000000 0.000000 1.781620 
# 
# From -- ./inp_files/16326.got.cif
#   From: 2010.03.12/outbox.cif.g09.slc.cpg/sg20_9_cif.got.tgz:16326.got - 2010.04.14 01:38:04.
