data_PCOD8158881
_publ_section_title
;
Structure prediction by ZEFSAII (Michael W. Deem and Ramdas Pophale) SiO2 
 PCOD8158881
Probable space group: C 2 2 21
;
_chemical_formula_sum "Si O2"
_cell_formula_units_Z 56
_cell_length_a 21.337324
_cell_length_b 15.179553
_cell_length_c 8.465705
_cell_angle_alpha 90.000000
_cell_angle_beta 90.000000
_cell_angle_gamma 90.000000
_cell_volume 2741.966001
_symmetry_space_group_name_H-M "C 2 2 21"
_symmetry_group_IT_number 20
_symmetry_cell_setting 'orthorhombic'
loop_
_space_group_symop_operation_xyz
x,y,z
-x,-y,1/2+z
x,-y,-z
-x,y,1/2-z
1/2+x,1/2+y,z
1/2-x,1/2-y,1/2+z
1/2+x,1/2-y,-z
1/2-x,1/2+y,1/2-z
loop_
_atom_site_type_symbol
_atom_site_label
_atom_site_fract_x
_atom_site_fract_y
_atom_site_fract_z
Si Si1 0.337337 0.328974 0.738525
Si Si2 0.993615 0.245700 0.932296
Si Si3 0.370568 0.953605 0.352424
Si Si4 0.379908 0.159030 0.929917
Si Si5 0.696322 0.117804 0.280443
Si Si6 0.950873 0.924020 0.877591
Si Si7 0.367093 0.213259 0.473760
O O1 0.349848 0.243611 0.845804
O O2 0.268802 0.368312 0.754639
O O3 0.386318 0.403507 0.788099
O O4 0.345303 0.304526 0.552937
O O5 0.000000 0.217780 0.750000
O O6 0.057677 0.292036 0.985988
O O7 0.938807 0.316567 0.960045
O O8 0.980952 0.160392 0.037718
O O9 0.405635 0.914612 0.196647
O O10 0.336942 0.868082 0.427679
O O11 0.410020 0.000000 0.500000
O O12 0.319549 0.023905 0.296055
O O13 0.324305 0.117608 0.036366
O O14 0.658326 0.201064 0.203713
O O15 0.000000 0.960235 0.750000
O O16 0.935325 0.000000 0.000000
#
# Coordination Sequence:
#
# PCOD8158881 Si02
#       7
#     8   8   8   8   8   8   8
#     4  10  22  38  63  89 121 168 205 249 316 385
#     4  11  21  40  67  92 121 165 213 258 314 379
#     4   9  21  37  58  84 124 167 194 261 312 356
#     4  10  21  37  63  93 121 165 211 262 306 378
#     4  11  20  38  60  90 128 159 213 255 311 364
#     4  11  23  41  64  92 125 157 203 265 322 374
#     4  10  20  39  62  88 123 163 207 252 312 368
#
# _framework density 20.423300000000001
#
# number of rings (size 3 to 8) (size 9 to 14) (size 15 to 20)
#    0.000    1.714    2.857    1.714    0.000    1.714 
#    0.000   10.000    0.000    0.000    0.000    0.000 
#    0.000    0.000    0.000    0.000    0.000    0.000 
#
# Total GULP energy -346909.283164 kJ/mol
# GULP energy per Si atom -12389.617256 kJ/mol
# Density = 2.037682 g / cm^3
# Si number density = 20.423300 Si / 1000 Ang^3
#
#
#
# Elastic Constant Matrix: (Units=GPa)
#
#
# Indices 1 2 3 4 5 6 
#
# 1 109.8307 35.0582 24.4527 0.0000 0.0000 0.0000
# 2 35.0582 80.1743 32.7980 0.0000 0.0000 0.0000
# 3 24.4527 32.7980 104.9839 0.0000 0.0000 0.0000
# 4 0.0000 0.0000 0.0000 43.8675 0.0000 0.0000
# 5 0.0000 0.0000 0.0000 0.0000 26.7229 0.0000
# 6 0.0000 0.0000 0.0000 0.0000 0.0000 12.6197
#
#
#
# Elastic Compliance Matrix: (Units=1/GPa)
#
#
# Indices 1 2 3 4 5 6 
#
# 1 0.010708 -0.004199 -0.001182 0.000000 0.000000 0.000000
# 2 -0.004199 0.015947 -0.004004 0.000000 0.000000 0.000000
# 3 -0.001182 -0.004004 0.011052 0.000000 0.000000 0.000000
# 4 0.000000 0.000000 0.000000 0.022796 0.000000 0.000000
# 5 0.000000 0.000000 0.000000 0.000000 0.037421 0.000000
# 6 0.000000 0.000000 0.000000 0.000000 0.000000 0.079241
#
#
# Mechanical properties :
#
#
# Convention : Reuss Voigt Hill
#
# Bulk Modulus (GPa) = 52.80838 53.28962 53.04900
# Shear Modulus (GPa) = 24.72219 30.15403 27.43811
#
# Velocity S-wave (km/s) = 3.48298 3.84663 3.66932
# Velocity P-wave (km/s) = 6.48752 6.77333 6.63197
#
# Compressibility (1/GPa) = 0.01893639
#
# Stress axis : x y z
#
# Youngs Moduli (GPa) = 93.38416 62.70845 90.48501
#
# Poissons Ratio (x) = 0.26330 0.10699
# Poissons Ratio (y) = 0.39210 0.36230
# Poissons Ratio (z) = 0.11042 0.25108
#
# Static dielectric constant tensor:
#      x y z
#    x 3.420180 0.000000 0.000000 
#    y 0.000000 3.688200 0.000000 
#    z 0.000000 0.000000 4.154060 
# 
# 
# High freq. dielectric constant tensor:
#      x y z
#    x 1.770440 0.000000 0.000000 
#    y 0.000000 1.791490 0.000000 
#    z 0.000000 0.000000 1.821140 
# 
# From -- ./inp_files/10186.got.cif
#   From: 2010.03.12/outbox.cif.g09.slc.cpg/sg20_6_cif.got.tgz:10186.got - 2010.04.14 01:38:04.
