data_PCOD8158254
_publ_section_title
;
Structure prediction by ZEFSAII (Michael W. Deem and Ramdas Pophale) SiO2 
 PCOD8158254
Probable space group: C 2 2 21
;
_chemical_formula_sum "Si O2"
_cell_formula_units_Z 52
_cell_length_a 34.877617
_cell_length_b 20.117602
_cell_length_c 5.115474
_cell_angle_alpha 90.000000
_cell_angle_beta 90.000000
_cell_angle_gamma 90.000000
_cell_volume 3589.292884
_symmetry_space_group_name_H-M "C 2 2 21"
_symmetry_group_IT_number 20
_symmetry_cell_setting 'orthorhombic'
loop_
_space_group_symop_operation_xyz
x,y,z
-x,-y,1/2+z
x,-y,-z
-x,y,1/2-z
1/2+x,1/2+y,z
1/2-x,1/2-y,1/2+z
1/2+x,1/2-y,-z
1/2-x,1/2+y,1/2-z
loop_
_atom_site_type_symbol
_atom_site_label
_atom_site_fract_x
_atom_site_fract_y
_atom_site_fract_z
Si Si1 0.785314 0.000000 0.500000
Si Si2 0.477653 0.579164 0.999684
Si Si3 0.609078 0.421684 0.467635
Si Si4 0.713962 0.187927 0.692781
Si Si5 0.711028 0.964399 0.257066
Si Si6 0.799196 0.230971 0.683440
Si Si7 0.653689 0.612582 0.032898
O O1 0.757322 0.022192 0.738378
O O2 0.811104 0.062591 0.422117
O O3 0.500000 0.607477 0.250000
O O4 0.434110 0.605107 0.997876
O O5 0.477739 0.500000 0.000000
O O6 0.500000 0.607496 0.750000
O O7 0.612339 0.500000 0.500000
O O8 0.622342 0.413132 0.170145
O O9 0.634517 0.381161 0.679891
O O10 0.700550 0.112136 0.696305
O O11 0.759762 0.190142 0.667916
O O12 0.694711 0.234029 0.466548
O O13 0.700804 0.210719 0.975384
O O14 0.690414 0.000000 0.500000
O O15 0.694189 0.000000 0.000000
O O16 0.832810 0.181707 0.594954
#
# Coordination Sequence:
#
# PCOD8158254 Si02
#       7
#     4   8   8   8   8   8   8
#     4  10  22  28  44  60  80 108 128 176 226 266
#     4   9  17  30  45  58  78 102 130 163 205 252
#     4  11  21  30  44  64  81 105 134 171 214 263
#     4  10  19  32  44  59  75 104 142 163 207 264
#     4  10  20  30  46  62  78  96 134 174 224 253
#     4  10  20  31  44  56  79 109 135 169 202 259
#     4  12  21  32  42  62  86 107 135 172 223 262
#
# _framework density 14.487534
#
# number of rings (size 3 to 8) (size 9 to 14) (size 15 to 20)
#    0.462    1.231    3.077    2.769    2.154    3.692 
#    0.000    0.000    0.000    0.000    0.000    0.000 
#    0.000    0.000    0.000    0.000    0.000    0.000 
#
# Total GULP energy -322174.564518 kJ/mol
# GULP energy per Si atom -12391.329405 kJ/mol
# Density = 1.445456 g / cm^3
# Si number density = 14.487534 Si / 1000 Ang^3
#
#
#
# Elastic Constant Matrix: (Units=GPa)
#
#
# Indices 1 2 3 4 5 6 
#
# 1 37.8692 1.4521 2.9843 0.0000 0.0000 0.0000
# 2 1.4521 62.4358 3.5106 0.0000 0.0000 0.0000
# 3 2.9843 3.5106 74.9220 0.0000 0.0000 0.0000
# 4 0.0000 0.0000 0.0000 13.5079 0.0000 0.0000
# 5 0.0000 0.0000 0.0000 0.0000 7.5628 0.0000
# 6 0.0000 0.0000 0.0000 0.0000 0.0000 4.1115
#
#
#
# Elastic Compliance Matrix: (Units=1/GPa)
#
#
# Indices 1 2 3 4 5 6 
#
# 1 0.026509 -0.000559 -0.001030 0.000000 0.000000 0.000000
# 2 -0.000559 0.016071 -0.000731 0.000000 0.000000 0.000000
# 3 -0.001030 -0.000731 0.013422 0.000000 0.000000 0.000000
# 4 0.000000 0.000000 0.000000 0.074031 0.000000 0.000000
# 5 0.000000 0.000000 0.000000 0.000000 0.132226 0.000000
# 6 0.000000 0.000000 0.000000 0.000000 0.000000 0.243221
#
#
# Mechanical properties :
#
#
# Convention : Reuss Voigt Hill
#
# Bulk Modulus (GPa) = 19.46887 21.23565 20.35226
# Shear Modulus (GPa) = 9.48336 16.18844 12.83590
#
# Velocity S-wave (km/s) = 2.56127 3.34639 2.97980
# Velocity P-wave (km/s) = 4.71321 5.44250 5.09093
#
# Compressibility (1/GPa) = 0.05136404
#
# Stress axis : x y z
#
# Youngs Moduli (GPa) = 37.72265 62.22564 74.50188
#
# Poissons Ratio (x) = 0.03476 0.07672
# Poissons Ratio (y) = 0.02107 0.05444
# Poissons Ratio (z) = 0.03884 0.04547
#
# Static dielectric constant tensor:
#      x y z
#    x 2.633810 0.000000 0.000000 
#    y 0.000000 2.613440 0.000000 
#    z 0.000000 0.000000 3.027540 
# 
# 
# High freq. dielectric constant tensor:
#      x y z
#    x 1.508450 0.000000 0.000000 
#    y 0.000000 1.525530 0.000000 
#    z 0.000000 0.000000 1.576110 
# 
# From -- ./inp_files/4760.got.cif
#   From: 2010.03.12/outbox.cif.g09.slc.cpg/sg20_3_cif.got.tgz:4760.got - 2010.04.14 01:38:04.
