data_PCOD8158990
_publ_section_title
;
Structure prediction by ZEFSAII (Michael W. Deem and Ramdas Pophale) SiO2 
 PCOD8158990
Probable space group: C 2 2 21
;
_chemical_formula_sum "Si O2"
_cell_formula_units_Z 56
_cell_length_a 13.622957
_cell_length_b 6.544533
_cell_length_c 29.176033
_cell_angle_alpha 90.000000
_cell_angle_beta 90.000000
_cell_angle_gamma 90.000000
_cell_volume 2601.215237
_symmetry_space_group_name_H-M "C 2 2 21"
_symmetry_group_IT_number 20
_symmetry_cell_setting 'orthorhombic'
loop_
_space_group_symop_operation_xyz
x,y,z
-x,-y,1/2+z
x,-y,-z
-x,y,1/2-z
1/2+x,1/2+y,z
1/2-x,1/2-y,1/2+z
1/2+x,1/2-y,-z
1/2-x,1/2+y,1/2-z
loop_
_atom_site_type_symbol
_atom_site_label
_atom_site_fract_x
_atom_site_fract_y
_atom_site_fract_z
Si Si1 0.001913 0.363131 0.900498
Si Si2 0.390185 0.763191 0.369648
Si Si3 0.829465 0.658115 0.898499
Si Si4 0.251815 0.950707 0.810024
Si Si5 0.886263 0.166350 0.758646
Si Si6 0.571081 0.514005 0.348896
Si Si7 0.636613 0.440973 0.052405
O O1 0.916066 0.513061 0.919061
O O2 0.958732 0.217672 0.861210
O O3 0.089595 0.498547 0.878683
O O4 0.048883 0.222615 0.940313
O O5 0.293091 0.741777 0.338563
O O6 0.478750 0.662255 0.341407
O O7 0.379030 0.643933 0.417812
O O8 0.803915 0.593704 0.846837
O O9 0.739968 0.660826 0.933693
O O10 0.864939 0.891912 0.890942
O O11 0.329541 0.874348 0.772494
O O12 0.163493 0.075124 0.786568
O O13 0.875253 0.001406 0.799860
O O14 0.000000 0.219961 0.750000
O O15 0.638701 0.500000 0.000000
#
# Coordination Sequence:
#
# PCOD8158990 Si02
#       7
#     8   8   8   8   8   8   8
#     4  10  21  41  67  93 125 178 213 267 337 395
#     4   9  21  41  67  89 126 174 220 265 330 407
#     4  10  22  41  65  92 127 174 221 266 332 411
#     4  11  23  40  60  93 128 175 227 273 336 386
#     4  12  24  39  60  94 134 166 226 282 316 381
#     4  10  20  41  63  88 129 170 219 266 323 391
#     4  10  23  42  65 101 130 162 219 276 335 402
#
# _framework density 21.528399
#
# number of rings (size 3 to 8) (size 9 to 14) (size 15 to 20)
#    0.000    1.714    2.857    0.857    2.000    1.714 
#    7.714    0.000    0.000    0.000    0.000    0.000 
#    0.000    0.000    0.000    0.000    0.000    0.000 
#
# Total GULP energy -347171.523775 kJ/mol
# GULP energy per Si atom -12398.982992 kJ/mol
# Density = 2.147940 g / cm^3
# Si number density = 21.528399 Si / 1000 Ang^3
#
#
#
# Elastic Constant Matrix: (Units=GPa)
#
#
# Indices 1 2 3 4 5 6 
#
# 1 108.1030 25.1232 37.2007 0.0000 0.0000 0.0000
# 2 25.1232 91.1943 22.9083 0.0000 0.0000 0.0000
# 3 37.2007 22.9083 83.7099 0.0000 0.0000 0.0000
# 4 0.0000 0.0000 0.0000 16.2922 0.0000 0.0000
# 5 0.0000 0.0000 0.0000 0.0000 28.2656 0.0000
# 6 0.0000 0.0000 0.0000 0.0000 0.0000 28.9123
#
#
#
# Elastic Compliance Matrix: (Units=1/GPa)
#
#
# Indices 1 2 3 4 5 6 
#
# 1 0.011243 -0.001978 -0.004455 0.000000 0.000000 0.000000
# 2 -0.001978 0.012123 -0.002439 0.000000 0.000000 0.000000
# 3 -0.004455 -0.002439 0.014593 0.000000 0.000000 0.000000
# 4 0.000000 0.000000 0.000000 0.061379 0.000000 0.000000
# 5 0.000000 0.000000 0.000000 0.000000 0.035379 0.000000
# 6 0.000000 0.000000 0.000000 0.000000 0.000000 0.034587
#
#
# Mechanical properties :
#
#
# Convention : Reuss Voigt Hill
#
# Bulk Modulus (GPa) = 49.46625 50.38574 49.92600
# Shear Modulus (GPa) = 25.80149 27.87902 26.84026
#
# Velocity S-wave (km/s) = 3.46567 3.60250 3.53475
# Velocity P-wave (km/s) = 6.24833 6.38429 6.31667
#
# Compressibility (1/GPa) = 0.02021580
#
# Stress axis : x y z
#
# Youngs Moduli (GPa) = 88.94172 82.48678 68.52494
#
# Poissons Ratio (x) = 0.16318 0.30529
# Poissons Ratio (y) = 0.17595 0.16710
# Poissons Ratio (z) = 0.39625 0.20114
#
# Static dielectric constant tensor:
#      x y z
#    x 4.128110 0.000000 0.000000 
#    y 0.000000 3.851060 0.000000 
#    z 0.000000 0.000000 3.522030 
# 
# 
# High freq. dielectric constant tensor:
#      x y z
#    x 1.862830 0.000000 0.000000 
#    y 0.000000 1.841140 0.000000 
#    z 0.000000 0.000000 1.815920 
# 
# From -- ./inp_files/31280.got.cif
#   From: 2010.03.12/outbox.cif.g09.slc.cpg/sg20_16_cif.got.tgz:31280.got - 2010.04.14 01:38:04.
