data_PCOD8158835
_publ_section_title
;
Structure prediction by ZEFSAII (Michael W. Deem and Ramdas Pophale) SiO2 
 PCOD8158835
Probable space group: C 2 2 21
;
_chemical_formula_sum "Si O2"
_cell_formula_units_Z 56
_cell_length_a 12.755133
_cell_length_b 10.089646
_cell_length_c 21.386052
_cell_angle_alpha 90.000000
_cell_angle_beta 90.000000
_cell_angle_gamma 90.000000
_cell_volume 2752.273186
_symmetry_space_group_name_H-M "C 2 2 21"
_symmetry_group_IT_number 20
_symmetry_cell_setting 'orthorhombic'
loop_
_space_group_symop_operation_xyz
x,y,z
-x,-y,1/2+z
x,-y,-z
-x,y,1/2-z
1/2+x,1/2+y,z
1/2-x,1/2-y,1/2+z
1/2+x,1/2-y,-z
1/2-x,1/2+y,1/2-z
loop_
_atom_site_type_symbol
_atom_site_label
_atom_site_fract_x
_atom_site_fract_y
_atom_site_fract_z
Si Si1 0.879058 0.698505 0.417635
Si Si2 0.734476 0.023863 0.846816
Si Si3 0.112105 0.340350 0.260327
Si Si4 0.386839 0.460732 0.749860
Si Si5 0.250066 0.566452 0.636588
Si Si6 0.269430 0.361811 0.023917
Si Si7 0.106162 0.611881 0.450554
O O1 0.832794 0.603649 0.364704
O O2 0.832948 0.845645 0.403686
O O3 0.838745 0.656248 0.486158
O O4 0.004968 0.676848 0.415845
O O5 0.690771 0.090632 0.785810
O O6 0.847138 0.978784 0.821199
O O7 0.744082 0.128628 0.902826
O O8 0.154703 0.350091 0.331842
O O9 0.000000 0.411851 0.250000
O O10 0.099956 0.192780 0.236590
O O11 0.500000 0.532782 0.750000
O O12 0.315332 0.508404 0.693435
O O13 0.193977 0.451224 0.595515
O O14 0.343150 0.235252 0.011653
O O15 0.323441 0.500000 0.000000
O O16 0.070235 0.500000 0.500000
#
# Coordination Sequence:
#
# PCOD8158835 Si02
#       7
#     8   8   8   8   8   8   8
#     4  11  23  43  65  96 134 175 224 283 338 400
#     4  10  20  39  61  88 126 168 216 271 334 405
#     4  10  20  38  63  91 124 171 219 271 335 393
#     4  10  22  38  61  90 127 171 216 282 340 399
#     4  11  23  42  64  99 137 172 231 285 327 418
#     4  10  23  44  65  94 132 173 225 278 339 409
#     4  12  24  43  70  99 135 181 230 282 344 405
#
# _framework density 20.346816
#
# number of rings (size 3 to 8) (size 9 to 14) (size 15 to 20)
#    0.000    1.429    2.857    3.000    2.000    0.000 
#    2.571    0.714    0.000    0.000    0.000    0.000 
#    0.000    0.000    0.000    0.000    0.000    0.000 
#
# Total GULP energy -346939.153977 kJ/mol
# GULP energy per Si atom -12390.684071 kJ/mol
# Density = 2.030051 g / cm^3
# Si number density = 20.346816 Si / 1000 Ang^3
#
#
#
# Elastic Constant Matrix: (Units=GPa)
#
#
# Indices 1 2 3 4 5 6 
#
# 1 115.3549 40.2348 38.1650 0.0000 0.0000 0.0000
# 2 40.2348 101.5846 29.8556 0.0000 0.0000 0.0000
# 3 38.1650 29.8556 101.4414 0.0000 0.0000 0.0000
# 4 0.0000 0.0000 0.0000 29.7225 0.0000 0.0000
# 5 0.0000 0.0000 0.0000 0.0000 34.2831 0.0000
# 6 0.0000 0.0000 0.0000 0.0000 0.0000 33.4385
#
#
#
# Elastic Compliance Matrix: (Units=1/GPa)
#
#
# Indices 1 2 3 4 5 6 
#
# 1 0.010878 -0.003400 -0.003092 0.000000 0.000000 0.000000
# 2 -0.003400 0.011839 -0.002205 0.000000 0.000000 0.000000
# 3 -0.003092 -0.002205 0.011670 0.000000 0.000000 0.000000
# 4 0.000000 0.000000 0.000000 0.033645 0.000000 0.000000
# 5 0.000000 0.000000 0.000000 0.000000 0.029169 0.000000
# 6 0.000000 0.000000 0.000000 0.000000 0.000000 0.029906
#
#
# Mechanical properties :
#
#
# Convention : Reuss Voigt Hill
#
# Bulk Modulus (GPa) = 58.84803 59.43241 59.14022
# Shear Modulus (GPa) = 33.29709 33.49719 33.39714
#
# Velocity S-wave (km/s) = 4.04973 4.06188 4.05581
# Velocity P-wave (km/s) = 7.13108 7.16042 7.14576
#
# Compressibility (1/GPa) = 0.01699292
#
# Stress axis : x y z
#
# Youngs Moduli (GPa) = 91.93201 84.46934 85.68833
#
# Poissons Ratio (x) = 0.28716 0.26494
# Poissons Ratio (y) = 0.31253 0.18896
# Poissons Ratio (z) = 0.28424 0.18628
#
# Static dielectric constant tensor:
#      x y z
#    x 4.047760 0.000000 0.000000 
#    y 0.000000 3.767390 0.000000 
#    z 0.000000 0.000000 3.717920 
# 
# 
# High freq. dielectric constant tensor:
#      x y z
#    x 1.793240 0.000000 0.000000 
#    y 0.000000 1.795640 0.000000 
#    z 0.000000 0.000000 1.798810 
# 
# From -- ./inp_files/27590.got.cif
#   From: 2010.03.12/outbox.cif.g09.slc.cpg/sg20_14_cif.got.tgz:27590.got - 2010.04.14 01:38:04.
