data_PCOD8158762
_publ_section_title
;
Structure prediction by ZEFSAII (Michael W. Deem and Ramdas Pophale) SiO2 
 PCOD8158762
Probable space group: C 2 2 21
;
_chemical_formula_sum "Si O2"
_cell_formula_units_Z 40
_cell_length_a 23.570154
_cell_length_b 8.810026
_cell_length_c 8.636811
_cell_angle_alpha 90.000000
_cell_angle_beta 90.000000
_cell_angle_gamma 90.000000
_cell_volume 1793.465497
_symmetry_space_group_name_H-M "C 2 2 21"
_symmetry_group_IT_number 20
_symmetry_cell_setting 'orthorhombic'
loop_
_space_group_symop_operation_xyz
x,y,z
-x,-y,1/2+z
x,-y,-z
-x,y,1/2-z
1/2+x,1/2+y,z
1/2-x,1/2-y,1/2+z
1/2+x,1/2-y,-z
1/2-x,1/2+y,1/2-z
loop_
_atom_site_type_symbol
_atom_site_label
_atom_site_fract_x
_atom_site_fract_y
_atom_site_fract_z
Si Si1 0.152456 0.100575 0.143601
Si Si2 0.174979 0.191293 0.691805
Si Si3 0.438354 0.838537 0.693329
Si Si4 0.233211 0.327541 0.971735
Si Si5 0.441398 0.815780 0.325961
O O1 0.196245 0.223533 0.083961
O O2 0.102890 0.190878 0.233327
O O3 0.180973 0.987214 0.267006
O O4 0.128523 0.000000 0.000000
O O5 0.110377 0.247024 0.713888
O O6 0.200256 0.204139 0.517259
O O7 0.219558 0.285459 0.796104
O O8 0.500000 0.784631 0.750000
O O9 0.437889 0.808476 0.511545
O O10 0.427509 0.014911 0.732912
O O11 0.214200 0.500000 0.000000
O O12 0.500000 0.763689 0.250000
#
# Coordination Sequence:
#
# PCOD8158762 Si02
#       5
#     8   8   8   8   8
#     4  10  20  37  61  91 123 160 205 257 317 361
#     4  11  23  41  65  94 128 164 210 263 314 377
#     4  10  21  41  66  92 125 163 204 258 319 371
#     4  11  22  41  66  89 125 172 205 256 317 372
#     4  10  20  39  67  88 122 167 210 250 312 380
#
# _framework density 22.303189
#
# number of rings (size 3 to 8) (size 9 to 14) (size 15 to 20)
#    0.000    1.600    4.000    2.400    0.000    0.800 
#    7.200    2.000   13.200    0.000    0.000    0.000 
#    0.000    0.000    0.000    0.000    0.000    0.000 
#
# Total GULP energy -247889.102963 kJ/mol
# GULP energy per Si atom -12394.455148 kJ/mol
# Density = 2.225243 g / cm^3
# Si number density = 22.303189 Si / 1000 Ang^3
#
#
#
# Elastic Constant Matrix: (Units=GPa)
#
#
# Indices 1 2 3 4 5 6 
#
# 1 116.5830 44.6278 33.9751 0.0000 0.0000 0.0000
# 2 44.6278 120.0159 9.9475 0.0000 0.0000 0.0000
# 3 33.9751 9.9475 21.0432 0.0000 0.0000 0.0000
# 4 0.0000 0.0000 0.0000 16.2804 0.0000 0.0000
# 5 0.0000 0.0000 0.0000 0.0000 36.5971 0.0000
# 6 0.0000 0.0000 0.0000 0.0000 0.0000 24.3291
#
#
#
# Elastic Compliance Matrix: (Units=1/GPa)
#
#
# Indices 1 2 3 4 5 6 
#
# 1 0.018298 -0.004533 -0.027399 0.000000 0.000000 0.000000
# 2 -0.004533 0.009795 0.002688 0.000000 0.000000 0.000000
# 3 -0.027399 0.002688 0.090488 0.000000 0.000000 0.000000
# 4 0.000000 0.000000 0.000000 0.061424 0.000000 0.000000
# 5 0.000000 0.000000 0.000000 0.000000 0.027325 0.000000
# 6 0.000000 0.000000 0.000000 0.000000 0.000000 0.041103
#
#
# Mechanical properties :
#
#
# Convention : Reuss Voigt Hill
#
# Bulk Modulus (GPa) = 16.64105 48.30478 32.47291
# Shear Modulus (GPa) = 15.29283 26.71409 21.00346
#
# Velocity S-wave (km/s) = 2.62139 3.46464 3.07208
# Velocity P-wave (km/s) = 4.07918 6.14086 5.21296
#
# Compressibility (1/GPa) = 0.06009236
#
# Stress axis : x y z
#
# Youngs Moduli (GPa) = 54.65179 102.09310 11.05121
#
# Poissons Ratio (x) = 0.46278 0.30280
# Poissons Ratio (y) = 0.24773 -0.02971
# Poissons Ratio (z) = 1.49743 -0.27446
#
# Static dielectric constant tensor:
#      x y z
#    x 4.074730 0.000000 0.000000 
#    y 0.000000 4.398800 0.000000 
#    z 0.000000 0.000000 3.926620 
# 
# 
# High freq. dielectric constant tensor:
#      x y z
#    x 1.878840 0.000000 0.000000 
#    y 0.000000 1.892480 0.000000 
#    z 0.000000 0.000000 1.860290 
# 
# From -- ./inp_files/6036.got.cif
#   From: 2010.03.12/outbox.cif.g09.slc.cpg/sg20_4_cif.got.tgz:6036.got - 2010.04.14 01:38:04.
