data_PCOD8158122
_publ_section_title
;
Structure prediction by ZEFSAII (Michael W. Deem and Ramdas Pophale) SiO2 
 PCOD8158122
Probable space group: C 2 2 21
;
_chemical_formula_sum "Si O2"
_cell_formula_units_Z 44
_cell_length_a 8.290908
_cell_length_b 26.539537
_cell_length_c 9.737965
_cell_angle_alpha 90.000000
_cell_angle_beta 90.000000
_cell_angle_gamma 90.000000
_cell_volume 2142.711238
_symmetry_space_group_name_H-M "C 2 2 21"
_symmetry_group_IT_number 20
_symmetry_cell_setting 'orthorhombic'
loop_
_space_group_symop_operation_xyz
x,y,z
-x,-y,1/2+z
x,-y,-z
-x,y,1/2-z
1/2+x,1/2+y,z
1/2-x,1/2-y,1/2+z
1/2+x,1/2-y,-z
1/2-x,1/2+y,1/2-z
loop_
_atom_site_type_symbol
_atom_site_label
_atom_site_fract_x
_atom_site_fract_y
_atom_site_fract_z
Si Si1 0.313339 0.508478 0.722533
Si Si2 0.866782 0.775958 0.846861
Si Si3 0.884598 0.500000 0.500000
Si Si4 0.364020 0.166222 0.159462
Si Si5 0.460932 0.270311 0.394035
Si Si6 0.679203 0.068762 0.485732
O O1 0.500000 0.514194 0.750000
O O2 0.254674 0.556866 0.634565
O O3 0.280082 0.458097 0.635274
O O4 0.223741 0.507109 0.866817
O O5 0.787734 0.820330 0.757032
O O6 0.732113 0.737025 0.904323
O O7 0.000000 0.747922 0.750000
O O8 0.966301 0.800217 0.975967
O O9 0.995393 0.549332 0.481299
O O10 0.500000 0.137370 0.250000
O O11 0.449011 0.216314 0.101355
O O12 0.310792 0.128966 0.037376
O O13 0.500000 0.298301 0.250000
#
# Coordination Sequence:
#
# PCOD8158122 Si02
#       6
#     8   8   4   8   8   8
#     4  10  20  34  55  84 117 151 187 232 279 328
#     4  10  19  34  56  80 109 145 182 226 280 335
#     4  10  18  34  58  80 114 156 188 226 276 336
#     4   9  19  34  56  84 112 142 187 234 280 335
#     4   9  18  33  55  81 108 143 184 228 274 333
#     4  10  19  35  57  83 112 152 192 225 274 339
#
# _framework density 20.534732000000002
#
# number of rings (size 3 to 8) (size 9 to 14) (size 15 to 20)
#    0.000    2.909    0.000    6.545    0.000    0.727 
#    0.000    5.455    0.000   20.727    0.000    0.000 
#    0.000    0.000    0.000    0.000    0.000    0.000 
#
# Total GULP energy -272598.365028 kJ/mol
# GULP energy per Si atom -12390.834774 kJ/mol
# Density = 2.048799 g / cm^3
# Si number density = 20.534732 Si / 1000 Ang^3
#
#
#
# Elastic Constant Matrix: (Units=GPa)
#
#
# Indices 1 2 3 4 5 6 
#
# 1 168.6931 21.6826 87.6882 0.0000 0.0000 0.0000
# 2 21.6826 46.2753 14.4855 0.0000 0.0000 0.0000
# 3 87.6882 14.4855 145.8257 0.0000 0.0000 0.0000
# 4 0.0000 0.0000 0.0000 29.4401 0.0000 0.0000
# 5 0.0000 0.0000 0.0000 0.0000 49.3019 0.0000
# 6 0.0000 0.0000 0.0000 0.0000 0.0000 8.4942
#
#
#
# Elastic Compliance Matrix: (Units=1/GPa)
#
#
# Indices 1 2 3 4 5 6 
#
# 1 0.008912 -0.002578 -0.005103 0.000000 0.000000 0.000000
# 2 -0.002578 0.023049 -0.000739 0.000000 0.000000 0.000000
# 3 -0.005103 -0.000739 0.009999 0.000000 0.000000 0.000000
# 4 0.000000 0.000000 0.000000 0.033967 0.000000 0.000000
# 5 0.000000 0.000000 0.000000 0.000000 0.020283 0.000000
# 6 0.000000 0.000000 0.000000 0.000000 0.000000 0.117727
#
#
# Mechanical properties :
#
#
# Convention : Reuss Voigt Hill
#
# Bulk Modulus (GPa) = 39.80911 67.61186 53.71049
# Shear Modulus (GPa) = 20.90721 33.24308 27.07515
#
# Velocity S-wave (km/s) = 3.19429 4.02788 3.63506
# Velocity P-wave (km/s) = 5.74743 7.39114 6.62049
#
# Compressibility (1/GPa) = 0.02511988
#
# Stress axis : x y z
#
# Youngs Moduli (GPa) = 112.21112 43.38526 100.00698
#
# Poissons Ratio (x) = 0.11186 0.51031
# Poissons Ratio (y) = 0.28932 0.07392
# Poissons Ratio (z) = 0.57258 0.03207
#
# Static dielectric constant tensor:
#      x y z
#    x 3.986160 0.000000 0.000000 
#    y 0.000000 3.136930 0.000000 
#    z 0.000000 0.000000 4.076500 
# 
# 
# High freq. dielectric constant tensor:
#      x y z
#    x 1.824550 0.000000 0.000000 
#    y 0.000000 1.739340 0.000000 
#    z 0.000000 0.000000 1.822950 
# 
# From -- ./inp_files/6393.got.cif
#   From: 2010.03.12/outbox.cif.g09.slc.cpg/sg20_4_cif.got.tgz:6393.got - 2010.04.14 01:38:04.
