data_PCOD8158347
_publ_section_title
;
Structure prediction by ZEFSAII (Michael W. Deem and Ramdas Pophale) SiO2 
 PCOD8158347
Probable space group: C 2 2 21
;
_chemical_formula_sum "Si O2"
_cell_formula_units_Z 64
_cell_length_a 23.610689
_cell_length_b 7.666567
_cell_length_c 18.969622
_cell_angle_alpha 90.000000
_cell_angle_beta 90.000000
_cell_angle_gamma 90.000000
_cell_volume 3433.746843
_symmetry_space_group_name_H-M "C 2 2 21"
_symmetry_group_IT_number 20
_symmetry_cell_setting 'orthorhombic'
loop_
_space_group_symop_operation_xyz
x,y,z
-x,-y,1/2+z
x,-y,-z
-x,y,1/2-z
1/2+x,1/2+y,z
1/2-x,1/2-y,1/2+z
1/2+x,1/2-y,-z
1/2-x,1/2+y,1/2-z
loop_
_atom_site_type_symbol
_atom_site_label
_atom_site_fract_x
_atom_site_fract_y
_atom_site_fract_z
Si Si1 0.404703 0.477494 0.421537
Si Si2 0.914437 0.234262 0.814095
Si Si3 0.223194 0.999208 0.081603
Si Si4 0.989457 0.454918 0.167886
Si Si5 0.275680 0.152841 0.328005
Si Si6 0.097227 0.647473 0.159543
Si Si7 0.282168 0.288462 0.174399
Si Si8 0.508692 0.420151 0.667847
O O1 0.428097 0.500000 0.500000
O O2 0.342272 0.558938 0.411335
O O3 0.399777 0.272628 0.407335
O O4 0.447711 0.561709 0.367308
O O5 0.941061 0.405264 0.851265
O O6 0.923973 0.245641 0.729344
O O7 0.849404 0.216838 0.833002
O O8 0.946910 0.071609 0.849699
O O9 0.258607 0.148078 0.120042
O O10 0.233714 0.806236 0.114574
O O11 0.241757 0.000000 0.000000
O O12 0.967832 0.267036 0.140407
O O13 0.000000 0.446827 0.250000
O O14 0.051766 0.501372 0.136859
O O15 0.339728 0.074847 0.326750
O O16 0.261107 0.238069 0.252493
O O17 0.236252 0.986553 0.343913
O O18 0.500000 0.413783 0.750000
#
# Coordination Sequence:
#
# PCOD8158347 Si02
#       8
#     8   8   8   8   8   8   8   8
#     4  10  20  36  60  86 119 152 190 244 301 351
#     4  10  19  35  55  84 118 148 188 245 290 345
#     4  10  23  42  62  89 123 161 202 256 313 363
#     4   9  18  31  53  86 110 145 189 233 285 340
#     4  10  21  36  60  94 117 155 205 255 303 355
#     4   9  17  35  54  81 122 143 186 249 291 341
#     4  11  22  37  62  89 123 159 202 255 303 362
#     4  11  19  32  59  86 110 155 194 234 292 350
#
# _framework density 18.638532000000001
#
# number of rings (size 3 to 8) (size 9 to 14) (size 15 to 20)
#    0.000    2.000    3.750    0.375    1.750    1.500 
#    2.250    0.625    5.500    0.000    0.000    0.000 
#    0.000    0.000    0.000    0.000    0.000    0.000 
#
# Total GULP energy -396613.229742 kJ/mol
# GULP energy per Si atom -12394.163429 kJ/mol
# Density = 1.859611 g / cm^3
# Si number density = 18.638532 Si / 1000 Ang^3
#
#
#
# Elastic Constant Matrix: (Units=GPa)
#
#
# Indices 1 2 3 4 5 6 
#
# 1 99.5816 68.2502 37.2700 0.0000 0.0000 0.0000
# 2 68.2502 153.1377 36.1001 0.0000 0.0000 0.0000
# 3 37.2700 36.1001 87.4759 0.0000 0.0000 0.0000
# 4 0.0000 0.0000 0.0000 11.0807 0.0000 0.0000
# 5 0.0000 0.0000 0.0000 0.0000 18.0525 0.0000
# 6 0.0000 0.0000 0.0000 0.0000 0.0000 15.6081
#
#
#
# Elastic Compliance Matrix: (Units=1/GPa)
#
#
# Indices 1 2 3 4 5 6 
#
# 1 0.015752 -0.006024 -0.004225 0.000000 0.000000 0.000000
# 2 -0.006024 0.009538 -0.001369 0.000000 0.000000 0.000000
# 3 -0.004225 -0.001369 0.013797 0.000000 0.000000 0.000000
# 4 0.000000 0.000000 0.000000 0.090247 0.000000 0.000000
# 5 0.000000 0.000000 0.000000 0.000000 0.055394 0.000000
# 6 0.000000 0.000000 0.000000 0.000000 0.000000 0.064069
#
#
# Mechanical properties :
#
#
# Convention : Reuss Voigt Hill
#
# Bulk Modulus (GPa) = 63.09489 69.27064 66.18277
# Shear Modulus (GPa) = 18.02982 22.18660 20.10821
#
# Velocity S-wave (km/s) = 3.11359 3.45391 3.28815
# Velocity P-wave (km/s) = 6.84480 7.29054 7.07118
#
# Compressibility (1/GPa) = 0.01584914
#
# Stress axis : x y z
#
# Youngs Moduli (GPa) = 63.48260 104.84547 72.47927
#
# Poissons Ratio (x) = 0.63164 0.30624
# Poissons Ratio (y) = 0.38245 0.09925
# Poissons Ratio (z) = 0.26823 0.14357
#
# Static dielectric constant tensor:
#      x y z
#    x 3.637950 0.000000 0.000000 
#    y 0.000000 3.764720 0.000000 
#    z 0.000000 0.000000 3.197070 
# 
# 
# High freq. dielectric constant tensor:
#      x y z
#    x 1.724390 0.000000 0.000000 
#    y 0.000000 1.729340 0.000000 
#    z 0.000000 0.000000 1.688920 
# 
# From -- ./inp_files/25533.got.cif
#   From: 2010.03.12/outbox.cif.g09.slc.cpg/sg20_13_cif.got.tgz:25533.got - 2010.04.14 01:38:04.
