data_PCOD8158272
_publ_section_title
;
Structure prediction by ZEFSAII (Michael W. Deem and Ramdas Pophale) SiO2 
 PCOD8158272
Probable space group: C 2 2 21
;
_chemical_formula_sum "Si O2"
_cell_formula_units_Z 36
_cell_length_a 24.269599
_cell_length_b 5.210634
_cell_length_c 14.292757
_cell_angle_alpha 90.000000
_cell_angle_beta 90.000000
_cell_angle_gamma 90.000000
_cell_volume 1807.462018
_symmetry_space_group_name_H-M "C 2 2 21"
_symmetry_group_IT_number 20
_symmetry_cell_setting 'orthorhombic'
loop_
_space_group_symop_operation_xyz
x,y,z
-x,-y,1/2+z
x,-y,-z
-x,y,1/2-z
1/2+x,1/2+y,z
1/2-x,1/2-y,1/2+z
1/2+x,1/2-y,-z
1/2-x,1/2+y,1/2-z
loop_
_atom_site_type_symbol
_atom_site_label
_atom_site_fract_x
_atom_site_fract_y
_atom_site_fract_z
Si Si1 0.592889 0.000000 0.500000
Si Si2 0.810958 0.185569 0.071619
Si Si3 0.940819 0.445106 0.793903
Si Si4 0.874086 0.051164 0.246496
Si Si5 0.735230 0.476021 0.193499
O O1 0.632489 0.237849 0.519882
O O2 0.555558 0.053972 0.407599
O O3 0.771392 0.423714 0.099465
O O4 0.830287 0.025324 0.161805
O O5 0.778214 0.000000 0.000000
O O6 0.919205 0.172278 0.756396
O O7 0.000000 0.492646 0.750000
O O8 0.901880 0.669868 0.754754
O O9 0.830219 0.021633 0.332528
O O10 0.761547 0.719779 0.243610
#
# Coordination Sequence:
#
# PCOD8158272 Si02
#       5
#     4   8   8   8   8
#     4  10  20  36  56  86 116 142 198 256 276 344
#     4  10  19  32  57  87 114 142 186 236 290 342
#     4  11  22  37  61  84 110 154 200 244 293 326
#     4  10  20  37  54  85 115 146 185 239 282 344
#     4  10  20  33  54  83 118 150 172 223 292 353
#
# _framework density 19.917432000000002
#
# number of rings (size 3 to 8) (size 9 to 14) (size 15 to 20)
#    0.000    1.778    2.222    4.667    3.111    0.000 
#    0.000    0.000    2.444    0.000    0.000    0.000 
#    0.000    0.000    0.000    0.000    0.000    0.000 
#
# Total GULP energy -222999.517732 kJ/mol
# GULP energy per Si atom -12388.862096 kJ/mol
# Density = 1.987210 g / cm^3
# Si number density = 19.917432 Si / 1000 Ang^3
#
#
#
# Elastic Constant Matrix: (Units=GPa)
#
#
# Indices 1 2 3 4 5 6 
#
# 1 104.7774 18.0525 50.2076 0.0000 0.0000 0.0000
# 2 18.0525 108.8920 15.9032 0.0000 0.0000 0.0000
# 3 50.2076 15.9032 61.6273 0.0000 0.0000 0.0000
# 4 0.0000 0.0000 0.0000 22.4955 0.0000 0.0000
# 5 0.0000 0.0000 0.0000 0.0000 25.1860 0.0000
# 6 0.0000 0.0000 0.0000 0.0000 0.0000 32.7492
#
#
#
# Elastic Compliance Matrix: (Units=1/GPa)
#
#
# Indices 1 2 3 4 5 6 
#
# 1 0.015717 -0.000764 -0.012607 0.000000 0.000000 0.000000
# 2 -0.000764 0.009580 -0.001849 0.000000 0.000000 0.000000
# 3 -0.012607 -0.001849 0.026975 0.000000 0.000000 0.000000
# 4 0.000000 0.000000 0.000000 0.044453 0.000000 0.000000
# 5 0.000000 0.000000 0.000000 0.000000 0.039705 0.000000
# 6 0.000000 0.000000 0.000000 0.000000 0.000000 0.030535
#
#
# Mechanical properties :
#
#
# Convention : Reuss Voigt Hill
#
# Bulk Modulus (GPa) = 45.80887 49.29148 47.55018
# Shear Modulus (GPa) = 24.42787 28.82837 26.62812
#
# Velocity S-wave (km/s) = 3.50588 3.80859 3.66037
# Velocity P-wave (km/s) = 6.27993 6.64395 6.46451
#
# Compressibility (1/GPa) = 0.02182983
#
# Stress axis : x y z
#
# Youngs Moduli (GPa) = 63.62549 104.38155 37.07132
#
# Poissons Ratio (x) = 0.07979 0.46737
# Poissons Ratio (y) = 0.04863 0.06856
# Poissons Ratio (z) = 0.80215 0.19305
#
# Static dielectric constant tensor:
#      x y z
#    x 3.677190 0.000000 0.000000 
#    y 0.000000 3.766930 0.000000 
#    z 0.000000 0.000000 3.918940 
# 
# 
# High freq. dielectric constant tensor:
#      x y z
#    x 1.761600 0.000000 0.000000 
#    y 0.000000 1.799720 0.000000 
#    z 0.000000 0.000000 1.746780 
# 
# From -- ./inp_files/17591.got.cif
#   From: 2010.03.12/outbox.cif.g09.slc.cpg/sg20_9_cif.got.tgz:17591.got - 2010.04.14 01:38:04.
