data_PCOD8158195
_publ_section_title
;
Structure prediction by ZEFSAII (Michael W. Deem and Ramdas Pophale) SiO2 
 PCOD8158195
Probable space group: C 2 2 21
;
_chemical_formula_sum "Si O2"
_cell_formula_units_Z 36
_cell_length_a 20.787876
_cell_length_b 8.388942
_cell_length_c 10.147458
_cell_angle_alpha 90.000000
_cell_angle_beta 90.000000
_cell_angle_gamma 90.000000
_cell_volume 1769.597809
_symmetry_space_group_name_H-M "C 2 2 21"
_symmetry_group_IT_number 20
_symmetry_cell_setting 'orthorhombic'
loop_
_space_group_symop_operation_xyz
x,y,z
-x,-y,1/2+z
x,-y,-z
-x,y,1/2-z
1/2+x,1/2+y,z
1/2-x,1/2-y,1/2+z
1/2+x,1/2-y,-z
1/2-x,1/2+y,1/2-z
loop_
_atom_site_type_symbol
_atom_site_label
_atom_site_fract_x
_atom_site_fract_y
_atom_site_fract_z
Si Si1 0.051954 0.831178 0.468012
Si Si2 0.896183 0.580287 0.859581
Si Si3 0.241139 0.547084 0.358036
Si Si4 0.500000 0.122409 0.250000
Si Si5 0.310733 0.600548 0.872670
O O1 0.077524 0.758388 0.608734
O O2 0.000946 0.727242 0.384066
O O3 0.113827 0.860064 0.374860
O O4 0.018457 0.000000 0.500000
O O5 0.821289 0.563466 0.823420
O O6 0.937395 0.492500 0.746186
O O7 0.908915 0.500000 0.000000
O O8 0.268683 0.500000 0.500000
O O9 0.296109 0.510106 0.252699
O O10 0.226851 0.734044 0.359858
O O11 0.288395 0.500000 0.000000
#
# Coordination Sequence:
#
# PCOD8158195 Si02
#       5
#     8   8   8   4   8
#     4  10  21  38  62  89 117 160 203 255 315 363
#     4   9  18  37  61  83 117 161 201 247 310 369
#     4  11  20  38  62  91 126 165 209 249 307 375
#     4  10  18  38  64  82 112 160 212 244 292 376
#     4  11  22  37  62  93 126 165 204 254 310 371
#
# _framework density 20.343606000000001
#
# number of rings (size 3 to 8) (size 9 to 14) (size 15 to 20)
#    0.000    1.778    6.667    1.333    3.111    0.889 
#    0.000    4.444    0.000    0.000    0.000    0.000 
#    0.000    0.000    0.000    0.000    0.000    0.000 
#
# Total GULP energy -223060.852842 kJ/mol
# GULP energy per Si atom -12392.269602 kJ/mol
# Density = 2.029730 g / cm^3
# Si number density = 20.343606 Si / 1000 Ang^3
#
#
#
# Elastic Constant Matrix: (Units=GPa)
#
#
# Indices 1 2 3 4 5 6 
#
# 1 64.3527 20.7910 49.5612 0.0000 0.0000 0.0000
# 2 20.7910 106.2408 35.7399 0.0000 0.0000 0.0000
# 3 49.5612 35.7399 100.2677 0.0000 0.0000 0.0000
# 4 0.0000 0.0000 0.0000 43.9267 0.0000 0.0000
# 5 0.0000 0.0000 0.0000 0.0000 36.1678 0.0000
# 6 0.0000 0.0000 0.0000 0.0000 0.0000 19.4104
#
#
#
# Elastic Compliance Matrix: (Units=1/GPa)
#
#
# Indices 1 2 3 4 5 6 
#
# 1 0.025157 -0.000841 -0.012135 0.000000 0.000000 0.000000
# 2 -0.000841 0.010723 -0.003407 0.000000 0.000000 0.000000
# 3 -0.012135 -0.003407 0.017186 0.000000 0.000000 0.000000
# 4 0.000000 0.000000 0.000000 0.022765 0.000000 0.000000
# 5 0.000000 0.000000 0.000000 0.000000 0.027649 0.000000
# 6 0.000000 0.000000 0.000000 0.000000 0.000000 0.051519
#
#
# Mechanical properties :
#
#
# Convention : Reuss Voigt Hill
#
# Bulk Modulus (GPa) = 49.25910 53.67170 51.46540
# Shear Modulus (GPa) = 25.70294 30.88560 28.29427
#
# Velocity S-wave (km/s) = 3.55835 3.90063 3.73341
# Velocity P-wave (km/s) = 6.41471 6.83567 6.62854
#
# Compressibility (1/GPa) = 0.02030082
#
# Stress axis : x y z
#
# Youngs Moduli (GPa) = 39.75075 93.25648 58.18778
#
# Poissons Ratio (x) = 0.07841 0.70611
# Poissons Ratio (y) = 0.03342 0.19822
# Poissons Ratio (z) = 0.48237 0.31769
#
# Static dielectric constant tensor:
#      x y z
#    x 3.451050 0.000000 0.000000 
#    y 0.000000 4.419050 0.000000 
#    z 0.000000 0.000000 3.669140 
# 
# 
# High freq. dielectric constant tensor:
#      x y z
#    x 1.760010 0.000000 0.000000 
#    y 0.000000 1.821180 0.000000 
#    z 0.000000 0.000000 1.768280 
# 
# From -- ./inp_files/9848.got.cif
#   From: 2010.03.12/outbox.cif.g09.slc.cpg/sg20_5_cif.got.tgz:9848.got - 2010.04.14 01:38:04.
