data_PCOD8158900
_publ_section_title
;
Structure prediction by ZEFSAII (Michael W. Deem and Ramdas Pophale) SiO2 
 PCOD8158900
Probable space group: C 2 2 21
;
_chemical_formula_sum "Si O2"
_cell_formula_units_Z 64
_cell_length_a 21.819175
_cell_length_b 9.304429
_cell_length_c 14.755477
_cell_angle_alpha 90.000000
_cell_angle_beta 90.000000
_cell_angle_gamma 90.000000
_cell_volume 2995.582641
_symmetry_space_group_name_H-M "C 2 2 21"
_symmetry_group_IT_number 20
_symmetry_cell_setting 'orthorhombic'
loop_
_space_group_symop_operation_xyz
x,y,z
-x,-y,1/2+z
x,-y,-z
-x,y,1/2-z
1/2+x,1/2+y,z
1/2-x,1/2-y,1/2+z
1/2+x,1/2-y,-z
1/2-x,1/2+y,1/2-z
loop_
_atom_site_type_symbol
_atom_site_label
_atom_site_fract_x
_atom_site_fract_y
_atom_site_fract_z
Si Si1 0.955770 0.261592 0.392348
Si Si2 0.227944 0.130184 0.189810
Si Si3 0.337299 0.664821 0.491320
Si Si4 0.432620 0.962816 0.097990
Si Si5 0.939265 0.257411 0.795824
Si Si6 0.553216 0.484872 0.598231
Si Si7 0.885603 0.772693 0.785132
Si Si8 0.818557 0.809150 0.302826
O O1 0.895164 0.258755 0.455696
O O2 0.938145 0.264186 0.287053
O O3 0.996834 0.404637 0.408009
O O4 0.994004 0.116873 0.410202
O O5 0.219288 0.165371 0.082010
O O6 0.179797 0.231385 0.240347
O O7 0.290482 0.185393 0.236568
O O8 0.214854 0.962692 0.211275
O O9 0.359784 0.500000 0.500000
O O10 0.315528 0.727995 0.588943
O O11 0.387511 0.841107 0.134410
O O12 0.415514 0.101285 0.155790
O O13 0.408329 0.000000 0.000000
O O14 0.964418 0.142584 0.868372
O O15 0.889714 0.188251 0.726872
O O16 0.000000 0.314742 0.750000
O O17 0.584404 0.500000 0.500000
O O18 0.602490 0.427393 0.670147
#
# Coordination Sequence:
#
# PCOD8158900 Si02
#       8
#     8   8   8   8   8   8   8   8
#     4  10  20  39  65  89 130 175 225 268 330 409
#     4  10  23  47  70  97 133 174 230 280 336 400
#     4   9  21  42  73 102 123 178 235 284 327 395
#     4  11  24  39  56  95 135 179 216 265 344 404
#     4  12  25  39  64 101 138 171 217 286 342 397
#     4  11  21  34  60  96 128 171 217 270 327 399
#     4  10  20  42  62  84 125 178 220 267 335 396
#     4  11  25  46  71 103 134 176 231 282 339 401
#
# _framework density 21.364794
#
# number of rings (size 3 to 8) (size 9 to 14) (size 15 to 20)
#    0.000    1.500    1.250    4.875    8.750    0.000 
#    4.500    0.625    0.000    0.000    0.000    0.000 
#    0.000    0.000    0.000    0.000    0.000    0.000 
#
# Total GULP energy -396546.793783 kJ/mol
# GULP energy per Si atom -12392.087306 kJ/mol
# Density = 2.131617 g / cm^3
# Si number density = 21.364794 Si / 1000 Ang^3
#
#
#
# Elastic Constant Matrix: (Units=GPa)
#
#
# Indices 1 2 3 4 5 6 
#
# 1 62.9574 21.5226 41.9681 0.0000 0.0000 0.0000
# 2 21.5226 80.4302 25.7921 0.0000 0.0000 0.0000
# 3 41.9681 25.7921 137.6077 0.0000 0.0000 0.0000
# 4 0.0000 0.0000 0.0000 8.4075 0.0000 0.0000
# 5 0.0000 0.0000 0.0000 0.0000 23.6973 0.0000
# 6 0.0000 0.0000 0.0000 0.0000 0.0000 27.8239
#
#
#
# Elastic Compliance Matrix: (Units=1/GPa)
#
#
# Indices 1 2 3 4 5 6 
#
# 1 0.020968 -0.003788 -0.005685 0.000000 0.000000 0.000000
# 2 -0.003788 0.013913 -0.001452 0.000000 0.000000 0.000000
# 3 -0.005685 -0.001452 0.009273 0.000000 0.000000 0.000000
# 4 0.000000 0.000000 0.000000 0.118942 0.000000 0.000000
# 5 0.000000 0.000000 0.000000 0.000000 0.042199 0.000000
# 6 0.000000 0.000000 0.000000 0.000000 0.000000 0.035940
#
#
# Mechanical properties :
#
#
# Convention : Reuss Voigt Hill
#
# Bulk Modulus (GPa) = 44.83647 51.06234 47.94941
# Shear Modulus (GPa) = 18.48289 24.76655 21.62472
#
# Velocity S-wave (km/s) = 2.94447 3.40843 3.18491
# Velocity P-wave (km/s) = 5.70890 6.28028 6.00140
#
# Compressibility (1/GPa) = 0.02230327
#
# Stress axis : x y z
#
# Youngs Moduli (GPa) = 47.69069 71.87766 107.83864
#
# Poissons Ratio (x) = 0.27227 0.61307
# Poissons Ratio (y) = 0.18065 0.15662
# Poissons Ratio (z) = 0.27112 0.10439
#
# Static dielectric constant tensor:
#      x y z
#    x 3.997550 0.000000 0.000000 
#    y 0.000000 3.738290 0.000000 
#    z 0.000000 0.000000 4.109200 
# 
# 
# High freq. dielectric constant tensor:
#      x y z
#    x 1.812050 0.000000 0.000000 
#    y 0.000000 1.834770 0.000000 
#    z 0.000000 0.000000 1.854140 
# 
# From -- ./inp_files/22030.got.cif
#   From: 2010.03.12/outbox.cif.g09.slc.cpg/sg20_12_cif.got.tgz:22030.got - 2010.04.14 01:38:04.
