data_PCOD8158161
_publ_section_title
;
Structure prediction by ZEFSAII (Michael W. Deem and Ramdas Pophale) SiO2 
 PCOD8158161
Probable space group: C 2 2 21
;
_chemical_formula_sum "Si O2"
_cell_formula_units_Z 56
_cell_length_a 21.075428
_cell_length_b 7.856820
_cell_length_c 17.224628
_cell_angle_alpha 90.000000
_cell_angle_beta 90.000000
_cell_angle_gamma 90.000000
_cell_volume 2852.154569
_symmetry_space_group_name_H-M "C 2 2 21"
_symmetry_group_IT_number 20
_symmetry_cell_setting 'orthorhombic'
loop_
_space_group_symop_operation_xyz
x,y,z
-x,-y,1/2+z
x,-y,-z
-x,y,1/2-z
1/2+x,1/2+y,z
1/2-x,1/2-y,1/2+z
1/2+x,1/2-y,-z
1/2-x,1/2+y,1/2-z
loop_
_atom_site_type_symbol
_atom_site_label
_atom_site_fract_x
_atom_site_fract_y
_atom_site_fract_z
Si Si1 0.024689 0.693407 0.509970
Si Si2 0.935869 0.000000 0.500000
Si Si3 0.881566 0.963914 0.659989
Si Si4 0.419521 0.223123 0.145804
Si Si5 0.000000 0.037650 0.750000
Si Si6 0.449145 0.144331 0.816266
Si Si7 0.679909 0.833915 0.235965
Si Si8 0.182087 0.277851 0.767641
O O1 0.998837 0.500000 0.500000
O O2 0.083789 0.720475 0.448908
O O3 0.039600 0.735311 0.600033
O O4 0.975152 0.831213 0.479247
O O5 0.890525 0.953342 0.569578
O O6 0.830289 0.813963 0.672688
O O7 0.859826 0.156090 0.678781
O O8 0.945771 0.923132 0.708651
O O9 0.465480 0.366660 0.179783
O O10 0.347782 0.232659 0.180177
O O11 0.455889 0.055949 0.174920
O O12 0.500000 0.202095 0.750000
O O13 0.376369 0.191074 0.797658
O O14 0.747635 0.796850 0.273796
O O15 0.679070 0.026762 0.201710
#
# Coordination Sequence:
#
# PCOD8158161 Si02
#       8
#     8   4   8   8   4   8   8   8
#     4  10  22  37  56  89 130 160 197 253 320 378
#     4  12  24  38  58  94 134 158 198 254 320 378
#     4  11  24  38  63  92 125 163 204 260 315 367
#     4   9  18  36  60  85 122 158 199 251 312 363
#     4  10  18  36  60  90 118 158 202 256 304 376
#     4  10  20  34  61  92 120 156 202 255 315 371
#     4  11  22  40  63  91 118 163 219 259 303 375
#     4  10  22  41  64  87 122 164 217 260 304 369
#
# _framework density 19.63428
#
# number of rings (size 3 to 8) (size 9 to 14) (size 15 to 20)
#    0.000    1.714    3.571    0.857    3.000    1.143 
#    0.000    1.429    0.000    0.000    0.000    0.000 
#    0.000    0.000    0.000    0.000    0.000    0.000 
#
# Total GULP energy -346866.862013 kJ/mol
# GULP energy per Si atom -12388.102215 kJ/mol
# Density = 1.958959 g / cm^3
# Si number density = 19.634280 Si / 1000 Ang^3
#
#
#
# Elastic Constant Matrix: (Units=GPa)
#
#
# Indices 1 2 3 4 5 6 
#
# 1 83.3329 18.2362 33.3153 0.0000 0.0000 0.0000
# 2 18.2362 121.4456 15.8967 0.0000 0.0000 0.0000
# 3 33.3153 15.8967 115.3854 0.0000 0.0000 0.0000
# 4 0.0000 0.0000 0.0000 18.3484 0.0000 0.0000
# 5 0.0000 0.0000 0.0000 0.0000 17.8327 0.0000
# 6 0.0000 0.0000 0.0000 0.0000 0.0000 28.4419
#
#
#
# Elastic Compliance Matrix: (Units=1/GPa)
#
#
# Indices 1 2 3 4 5 6 
#
# 1 0.013860 -0.001586 -0.003783 0.000000 0.000000 0.000000
# 2 -0.001586 0.008567 -0.000722 0.000000 0.000000 0.000000
# 3 -0.003783 -0.000722 0.009858 0.000000 0.000000 0.000000
# 4 0.000000 0.000000 0.000000 0.054501 0.000000 0.000000
# 5 0.000000 0.000000 0.000000 0.000000 0.056077 0.000000
# 6 0.000000 0.000000 0.000000 0.000000 0.000000 0.035159
#
#
# Mechanical properties :
#
#
# Convention : Reuss Voigt Hill
#
# Bulk Modulus (GPa) = 49.74652 50.56226 50.15439
# Shear Modulus (GPa) = 25.39289 29.77229 27.58259
#
# Velocity S-wave (km/s) = 3.60014 3.89825 3.75216
# Velocity P-wave (km/s) = 6.53245 6.78747 6.66118
#
# Compressibility (1/GPa) = 0.02010191
#
# Stress axis : x y z
#
# Youngs Moduli (GPa) = 72.15222 116.72924 101.43578
#
# Poissons Ratio (x) = 0.18513 0.38375
# Poissons Ratio (y) = 0.11443 0.07327
# Poissons Ratio (z) = 0.27297 0.08432
#
# Static dielectric constant tensor:
#      x y z
#    x 3.480580 0.000000 0.000000 
#    y 0.000000 4.025130 0.000000 
#    z 0.000000 0.000000 3.645920 
# 
# 
# High freq. dielectric constant tensor:
#      x y z
#    x 1.745760 0.000000 0.000000 
#    y 0.000000 1.795470 0.000000 
#    z 0.000000 0.000000 1.747180 
# 
# From -- ./inp_files/25470.got.cif
#   From: 2010.03.12/outbox.cif.g09.slc.cpg/sg20_13_cif.got.tgz:25470.got - 2010.04.14 01:38:04.
