data_PCOD8158345
_publ_section_title
;
Structure prediction by ZEFSAII (Michael W. Deem and Ramdas Pophale) SiO2 
 PCOD8158345
Probable space group: C 2 2 21
;
_chemical_formula_sum "Si O2"
_cell_formula_units_Z 36
_cell_length_a 19.348372
_cell_length_b 12.142398
_cell_length_c 8.907154
_cell_angle_alpha 90.000000
_cell_angle_beta 90.000000
_cell_angle_gamma 90.000000
_cell_volume 2092.607867
_symmetry_space_group_name_H-M "C 2 2 21"
_symmetry_group_IT_number 20
_symmetry_cell_setting 'orthorhombic'
loop_
_space_group_symop_operation_xyz
x,y,z
-x,-y,1/2+z
x,-y,-z
-x,y,1/2-z
1/2+x,1/2+y,z
1/2-x,1/2-y,1/2+z
1/2+x,1/2-y,-z
1/2-x,1/2+y,1/2-z
loop_
_atom_site_type_symbol
_atom_site_label
_atom_site_fract_x
_atom_site_fract_y
_atom_site_fract_z
Si Si1 0.207038 0.000000 0.000000
Si Si2 0.780821 0.000000 0.000000
Si Si3 0.201249 0.382836 0.253260
Si Si4 0.000000 0.234329 0.250000
Si Si5 0.146604 0.141918 0.256371
Si Si6 0.941777 0.556859 0.653770
O O1 0.157940 0.920561 0.901877
O O2 0.255067 0.075237 0.894490
O O3 0.829588 0.067654 0.108115
O O4 0.734967 0.914992 0.094831
O O5 0.193021 0.251587 0.257347
O O6 0.125777 0.438539 0.258537
O O7 0.065392 0.159609 0.291849
O O8 0.027950 0.319069 0.119612
O O9 0.922762 0.500000 0.500000
O O10 0.000000 0.490400 0.750000
#
# Coordination Sequence:
#
# PCOD8158345 Si02
#       6
#     4   4   8   4   8   8
#     4  10  22  33  57  82 106 146 180 224 274 322
#     4  10  20  33  57  78 104 144 180 220 276 316
#     4  10  19  35  54  82 108 140 177 227 270 323
#     4   8  20  34  58  72 110 142 174 224 268 312
#     4  10  20  37  53  77 109 141 183 223 267 320
#     4   9  18  32  54  77 109 138 174 215 273 322
#
# _framework density 17.203415
#
# number of rings (size 3 to 8) (size 9 to 14) (size 15 to 20)
#    0.667    1.778    1.111    1.333    1.556    0.889 
#    0.000    0.000    9.778    0.000    0.000    0.000 
#    0.000    0.000    0.000    0.000    0.000    0.000 
#
# Total GULP energy -223013.072121 kJ/mol
# GULP energy per Si atom -12389.615118 kJ/mol
# Density = 1.716426 g / cm^3
# Si number density = 17.203415 Si / 1000 Ang^3
#
#
#
# Elastic Constant Matrix: (Units=GPa)
#
#
# Indices 1 2 3 4 5 6 
#
# 1 113.9063 42.2657 36.8320 0.0000 0.0000 0.0000
# 2 42.2657 91.1630 39.7816 0.0000 0.0000 0.0000
# 3 36.8320 39.7816 90.1575 0.0000 0.0000 0.0000
# 4 0.0000 0.0000 0.0000 23.3365 0.0000 0.0000
# 5 0.0000 0.0000 0.0000 0.0000 12.1289 0.0000
# 6 0.0000 0.0000 0.0000 0.0000 0.0000 -1.4230
#
#
#
# Elastic Compliance Matrix: (Units=1/GPa)
#
#
# Indices 1 2 3 4 5 6 
#
# 1 0.011152 -0.003941 -0.002817 0.000000 0.000000 0.000000
# 2 -0.003941 0.014978 -0.004999 0.000000 0.000000 0.000000
# 3 -0.002817 -0.004999 0.014448 0.000000 0.000000 0.000000
# 4 0.000000 0.000000 0.000000 0.042851 0.000000 0.000000
# 5 0.000000 0.000000 0.000000 0.000000 0.082448 0.000000
# 6 0.000000 0.000000 0.000000 0.000000 0.000000 -0.702735
#
#
# Mechanical properties :
#
#
# Convention : Reuss Voigt Hill
#
# Bulk Modulus (GPa) = 58.60152 59.22061 58.91107
# Shear Modulus (GPa) = -9.84923 18.56498 4.35787
#
# Velocity S-wave (km/s) = -2.39533 3.28860 1.59331
# Velocity P-wave (km/s) = 5.14662 6.99416 6.14028
#
# Compressibility (1/GPa) = 0.01706440
#
# Stress axis : x y z
#
# Youngs Moduli (GPa) = 89.66603 66.76426 69.21238
#
# Poissons Ratio (x) = 0.26314 0.19497
# Poissons Ratio (y) = 0.35340 0.34598
# Poissons Ratio (z) = 0.25259 0.33375
#
# Static dielectric constant tensor:
#      x y z
#    x 3.303600 0.000000 0.000000 
#    y 0.000000 3.188540 0.000000 
#    z 0.000000 0.000000 3.083700 
# 
# 
# High freq. dielectric constant tensor:
#      x y z
#    x 1.676750 0.000000 0.000000 
#    y 0.000000 1.658930 0.000000 
#    z 0.000000 0.000000 1.649810 
# 
# From -- ./inp_files/7203.got.cif
#   From: 2010.03.12/outbox.cif.g09.slc.cpg/sg20_4_cif.got.tgz:7203.got - 2010.04.14 01:38:04.
