data_PCOD8158404
_publ_section_title
;
Structure prediction by ZEFSAII (Michael W. Deem and Ramdas Pophale) SiO2 
 PCOD8158404
Probable space group: C 2 2 21
;
_chemical_formula_sum "Si O2"
_cell_formula_units_Z 32
_cell_length_a 8.367182
_cell_length_b 36.125387
_cell_length_c 5.068897
_cell_angle_alpha 90.000000
_cell_angle_beta 90.000000
_cell_angle_gamma 90.000000
_cell_volume 1532.163776
_symmetry_space_group_name_H-M "C 2 2 21"
_symmetry_group_IT_number 20
_symmetry_cell_setting 'orthorhombic'
loop_
_space_group_symop_operation_xyz
x,y,z
-x,-y,1/2+z
x,-y,-z
-x,y,1/2-z
1/2+x,1/2+y,z
1/2-x,1/2-y,1/2+z
1/2+x,1/2-y,-z
1/2-x,1/2+y,1/2-z
loop_
_atom_site_type_symbol
_atom_site_label
_atom_site_fract_x
_atom_site_fract_y
_atom_site_fract_z
Si Si1 0.311677 0.353087 0.285368
Si Si2 0.683459 0.730976 0.829860
Si Si3 0.688322 0.394116 0.707613
Si Si4 0.392062 0.042240 0.495659
O O1 0.500000 0.357464 0.250000
O O2 0.263277 0.311590 0.361679
O O3 0.241727 0.381761 0.506865
O O4 0.245062 0.363191 0.996571
O O5 0.500000 0.734548 0.750000
O O6 0.794986 0.749934 0.612121
O O7 0.500000 0.395515 0.750000
O O8 0.738218 0.432647 0.567671
O O9 0.500000 0.050412 0.250000
O O10 0.330874 0.000000 0.500000
O O11 0.500000 0.052170 0.750000
#
# Coordination Sequence:
#
# PCOD8158404 Si02
#       4
#     8   8   8   8
#     4   9  19  35  57  81 111 148 183 230 289 336
#     4  11  22  39  60  84 116 153 192 235 287 342
#     4  10  19  36  59  83 107 142 193 235 272 328
#     4  10  21  38  57  80 115 153 182 220 285 346
#
# _framework density 20.885494999999999
#
# number of rings (size 3 to 8) (size 9 to 14) (size 15 to 20)
#    0.000    2.000    0.000    3.750    0.000    4.000 
#    0.000   20.000    0.000    0.000    0.000    0.000 
#    0.000    0.000    0.000    0.000    0.000    0.000 
#
# Total GULP energy -198218.762830 kJ/mol
# GULP energy per Si atom -12388.672677 kJ/mol
# Density = 2.083796 g / cm^3
# Si number density = 20.885495 Si / 1000 Ang^3
#
#
#
# Elastic Constant Matrix: (Units=GPa)
#
#
# Indices 1 2 3 4 5 6 
#
# 1 32.0200 31.0922 22.2260 0.0000 0.0000 0.0000
# 2 31.0922 126.8556 59.3752 0.0000 0.0000 0.0000
# 3 22.2260 59.3752 160.9135 0.0000 0.0000 0.0000
# 4 0.0000 0.0000 0.0000 42.7261 0.0000 0.0000
# 5 0.0000 0.0000 0.0000 0.0000 36.2274 0.0000
# 6 0.0000 0.0000 0.0000 0.0000 0.0000 26.5910
#
#
#
# Elastic Compliance Matrix: (Units=1/GPa)
#
#
# Indices 1 2 3 4 5 6 
#
# 1 0.041741 -0.009105 -0.002406 0.000000 0.000000 0.000000
# 2 -0.009105 0.011515 -0.002991 0.000000 0.000000 0.000000
# 3 -0.002406 -0.002991 0.007651 0.000000 0.000000 0.000000
# 4 0.000000 0.000000 0.000000 0.023405 0.000000 0.000000
# 5 0.000000 0.000000 0.000000 0.000000 0.027603 0.000000
# 6 0.000000 0.000000 0.000000 0.000000 0.000000 0.037607
#
#
# Mechanical properties :
#
#
# Convention : Reuss Voigt Hill
#
# Bulk Modulus (GPa) = 31.34516 60.57512 45.96014
# Shear Modulus (GPa) = 26.43276 34.91530 30.67403
#
# Velocity S-wave (km/s) = 3.56139 4.09314 3.83649
# Velocity P-wave (km/s) = 5.65261 7.16971 6.45588
#
# Compressibility (1/GPa) = 0.03190285
#
# Stress axis : x y z
#
# Youngs Moduli (GPa) = 23.95707 86.84672 130.70969
#
# Poissons Ratio (x) = 0.79071 0.31448
# Poissons Ratio (y) = 0.21812 0.39097
# Poissons Ratio (z) = 0.05764 0.25977
#
# Static dielectric constant tensor:
#      x y z
#    x 3.346730 0.000000 0.000000 
#    y 0.000000 1.926510 0.000000 
#    z 0.000000 0.000000 4.393860 
# 
# 
# High freq. dielectric constant tensor:
#      x y z
#    x 1.782120 0.000000 0.000000 
#    y 0.000000 1.821640 0.000000 
#    z 0.000000 0.000000 1.846210 
# 
# From -- ./inp_files/549.got.cif
#   From: 2010.03.12/outbox.cif.g09.slc.cpg/sg20_1_cif.got.tgz:549.got - 2010.04.14 01:38:04.
