data_PCOD8158241
_publ_section_title
;
Structure prediction by ZEFSAII (Michael W. Deem and Ramdas Pophale) SiO2 
 PCOD8158241
Probable space group: C 2 2 21
;
_chemical_formula_sum "Si O2"
_cell_formula_units_Z 40
_cell_length_a 20.004532
_cell_length_b 22.261391
_cell_length_c 4.954175
_cell_angle_alpha 90.000000
_cell_angle_beta 90.000000
_cell_angle_gamma 90.000000
_cell_volume 2206.236355
_symmetry_space_group_name_H-M "C 2 2 21"
_symmetry_group_IT_number 20
_symmetry_cell_setting 'orthorhombic'
loop_
_space_group_symop_operation_xyz
x,y,z
-x,-y,1/2+z
x,-y,-z
-x,y,1/2-z
1/2+x,1/2+y,z
1/2-x,1/2-y,1/2+z
1/2+x,1/2-y,-z
1/2-x,1/2+y,1/2-z
loop_
_atom_site_type_symbol
_atom_site_label
_atom_site_fract_x
_atom_site_fract_y
_atom_site_fract_z
Si Si1 0.824628 0.291889 0.703252
Si Si2 0.041424 0.655497 0.987384
Si Si3 0.244388 0.829482 0.210837
Si Si4 0.606475 0.960448 0.258965
Si Si5 0.759637 0.039351 0.733880
O O1 0.900710 0.303831 0.617623
O O2 0.813255 0.220395 0.677175
O O3 0.775993 0.327125 0.505373
O O4 0.804660 0.317950 0.996495
O O5 0.000000 0.633997 0.250000
O O6 0.066821 0.599689 0.806996
O O7 0.000000 0.691399 0.750000
O O8 0.207434 0.894415 0.213423
O O9 0.682536 0.944972 0.335331
O O10 0.572920 0.000000 0.500000
O O11 0.607422 0.000000 0.000000
O O12 0.792663 0.000000 0.500000
O O13 0.770697 0.000000 0.000000
#
# Coordination Sequence:
#
# PCOD8158241 Si02
#       5
#     8   8   8   8   8
#     4  10  21  35  54  76  96 133 177 212 267 297
#     4  12  24  36  53  70 103 138 181 224 248 295
#     4  10  19  35  57  74 100 129 170 219 255 323
#     4  10  21  34  50  65  96 136 177 212 239 284
#     4  10  19  30  52  76 101 130 163 209 259 302
#
# _framework density 18.130423
#
# number of rings (size 3 to 8) (size 9 to 14) (size 15 to 20)
#    0.000    1.600    2.000    3.600    5.600    1.600 
#    0.000    0.000    0.000    0.000    0.000    0.000 
#    0.000    3.200    0.000    0.000    0.000    0.000 
#
# Total GULP energy -247803.769229 kJ/mol
# GULP energy per Si atom -12390.188461 kJ/mol
# Density = 1.808916 g / cm^3
# Si number density = 18.130423 Si / 1000 Ang^3
#
#
#
# Elastic Constant Matrix: (Units=GPa)
#
#
# Indices 1 2 3 4 5 6 
#
# 1 43.3822 23.5747 12.9375 0.0000 0.0000 0.0000
# 2 23.5747 143.9998 42.2214 0.0000 0.0000 0.0000
# 3 12.9375 42.2214 95.0710 0.0000 0.0000 0.0000
# 4 0.0000 0.0000 0.0000 28.3944 0.0000 0.0000
# 5 0.0000 0.0000 0.0000 0.0000 17.4244 0.0000
# 6 0.0000 0.0000 0.0000 0.0000 0.0000 10.8400
#
#
#
# Elastic Compliance Matrix: (Units=1/GPa)
#
#
# Indices 1 2 3 4 5 6 
#
# 1 0.025586 -0.003642 -0.001864 0.000000 0.000000 0.000000
# 2 -0.003642 0.008503 -0.003280 0.000000 0.000000 0.000000
# 3 -0.001864 -0.003280 0.012229 0.000000 0.000000 0.000000
# 4 0.000000 0.000000 0.000000 0.035218 0.000000 0.000000
# 5 0.000000 0.000000 0.000000 0.000000 0.057391 0.000000
# 6 0.000000 0.000000 0.000000 0.000000 0.000000 0.092251
#
#
# Mechanical properties :
#
#
# Convention : Reuss Voigt Hill
#
# Bulk Modulus (GPa) = 34.78996 48.88003 41.83500
# Shear Modulus (GPa) = 19.35488 24.91304 22.13396
#
# Velocity S-wave (km/s) = 3.27086 3.71091 3.49781
# Velocity P-wave (km/s) = 5.78749 6.73646 6.27993
#
# Compressibility (1/GPa) = 0.02874393
#
# Stress axis : x y z
#
# Youngs Moduli (GPa) = 39.08364 117.61179 81.77292
#
# Poissons Ratio (x) = 0.42836 0.15245
# Poissons Ratio (y) = 0.14235 0.26825
# Poissons Ratio (z) = 0.07287 0.38581
#
# Static dielectric constant tensor:
#      x y z
#    x 3.231300 0.000000 0.000000 
#    y 0.000000 3.561640 0.000000 
#    z 0.000000 0.000000 3.675490 
# 
# 
# High freq. dielectric constant tensor:
#      x y z
#    x 1.641230 0.000000 0.000000 
#    y 0.000000 1.698230 0.000000 
#    z 0.000000 0.000000 1.734540 
# 
# From -- ./inp_files/2616.got.cif
#   From: 2010.03.12/outbox.cif.g09.slc.cpg/sg20_2_cif.got.tgz:2616.got - 2010.04.14 01:38:04.
