data_PCOD8158874
_publ_section_title
;
Structure prediction by ZEFSAII (Michael W. Deem and Ramdas Pophale) SiO2 
 PCOD8158874
Probable space group: C 2 2 21
;
_chemical_formula_sum "Si O2"
_cell_formula_units_Z 64
_cell_length_a 14.186804
_cell_length_b 10.069235
_cell_length_c 21.304467
_cell_angle_alpha 90.000000
_cell_angle_beta 90.000000
_cell_angle_gamma 90.000000
_cell_volume 3043.348722
_symmetry_space_group_name_H-M "C 2 2 21"
_symmetry_group_IT_number 20
_symmetry_cell_setting 'orthorhombic'
loop_
_space_group_symop_operation_xyz
x,y,z
-x,-y,1/2+z
x,-y,-z
-x,y,1/2-z
1/2+x,1/2+y,z
1/2-x,1/2-y,1/2+z
1/2+x,1/2-y,-z
1/2-x,1/2+y,1/2-z
loop_
_atom_site_type_symbol
_atom_site_label
_atom_site_fract_x
_atom_site_fract_y
_atom_site_fract_z
Si Si1 0.845730 0.959067 0.359858
Si Si2 0.199961 0.104358 0.318128
Si Si3 0.820172 0.879265 0.956971
Si Si4 0.394673 0.359676 0.230772
Si Si5 0.527643 0.329711 0.914811
Si Si6 0.191561 0.150534 0.986934
Si Si7 0.059005 0.334528 0.310688
Si Si8 0.823074 0.413672 0.801448
O O1 0.840606 0.873065 0.296808
O O2 0.844743 0.851472 0.415346
O O3 0.937567 0.052418 0.368357
O O4 0.754647 0.056984 0.355294
O O5 0.118063 0.993395 0.309464
O O6 0.232654 0.099035 0.390347
O O7 0.154425 0.248542 0.306716
O O8 0.284218 0.072651 0.270091
O O9 0.781320 0.746737 0.991049
O O10 0.932910 0.873100 0.950419
O O11 0.789942 0.000000 0.000000
O O12 0.500000 0.331563 0.250000
O O13 0.356429 0.237377 0.189460
O O14 0.503069 0.200598 0.872529
O O15 0.608587 0.301023 0.966320
O O16 0.224362 0.000000 0.000000
O O17 0.088259 0.488689 0.311337
O O18 0.000000 0.299125 0.250000
#
# Coordination Sequence:
#
# PCOD8158874 Si02
#       8
#     8   8   8   8   8   8   8   8
#     4  10  20  39  61  84 118 161 206 246 299 374
#     4  10  21  38  59  83 116 160 205 244 301 379
#     4  11  22  39  61  89 120 156 207 262 312 371
#     4  11  21  35  57  90 121 154 196 248 306 365
#     4  10  22  40  64  89 117 167 218 255 305 383
#     4  10  22  41  65  87 116 161 208 257 311 372
#     4  11  21  37  59  87 122 159 200 252 311 374
#     4  11  22  35  58  91 125 154 194 256 319 368
#
# _framework density 21.029465999999999
#
# number of rings (size 3 to 8) (size 9 to 14) (size 15 to 20)
#    0.000    1.500    0.000    8.625    0.000    3.000 
#    0.000    1.875    0.000    0.000    0.000    0.000 
#    0.000    0.000    0.000    0.000    0.000    0.000 
#
# Total GULP energy -396709.725207 kJ/mol
# GULP energy per Si atom -12397.178913 kJ/mol
# Density = 2.098160 g / cm^3
# Si number density = 21.029466 Si / 1000 Ang^3
#
#
#
# Elastic Constant Matrix: (Units=GPa)
#
#
# Indices 1 2 3 4 5 6 
#
# 1 73.8323 30.6626 13.6130 0.0000 0.0000 0.0000
# 2 30.6626 105.1661 23.5666 0.0000 0.0000 0.0000
# 3 13.6130 23.5666 82.7746 0.0000 0.0000 0.0000
# 4 0.0000 0.0000 0.0000 22.9904 0.0000 0.0000
# 5 0.0000 0.0000 0.0000 0.0000 31.1915 0.0000
# 6 0.0000 0.0000 0.0000 0.0000 0.0000 25.3810
#
#
#
# Elastic Compliance Matrix: (Units=1/GPa)
#
#
# Indices 1 2 3 4 5 6 
#
# 1 0.015551 -0.004231 -0.001353 0.000000 0.000000 0.000000
# 2 -0.004231 0.011308 -0.002524 0.000000 0.000000 0.000000
# 3 -0.001353 -0.002524 0.013022 0.000000 0.000000 0.000000
# 4 0.000000 0.000000 0.000000 0.043497 0.000000 0.000000
# 5 0.000000 0.000000 0.000000 0.000000 0.032060 0.000000
# 6 0.000000 0.000000 0.000000 0.000000 0.000000 0.039400
#
#
# Mechanical properties :
#
#
# Convention : Reuss Voigt Hill
#
# Bulk Modulus (GPa) = 42.25504 44.16192 43.20848
# Shear Modulus (GPa) = 27.94232 28.84129 28.39180
#
# Velocity S-wave (km/s) = 3.64912 3.70735 3.67835
# Velocity P-wave (km/s) = 6.15562 6.27468 6.21543
#
# Compressibility (1/GPa) = 0.02366581
#
# Stress axis : x y z
#
# Youngs Moduli (GPa) = 64.30567 88.43409 76.79312
#
# Poissons Ratio (x) = 0.37415 0.10389
# Poissons Ratio (y) = 0.27207 0.19380
# Poissons Ratio (z) = 0.08700 0.22318
#
# Static dielectric constant tensor:
#      x y z
#    x 3.732910 0.000000 0.000000 
#    y 0.000000 3.755030 0.000000 
#    z 0.000000 0.000000 4.016290 
# 
# 
# High freq. dielectric constant tensor:
#      x y z
#    x 1.814880 0.000000 0.000000 
#    y 0.000000 1.818020 0.000000 
#    z 0.000000 0.000000 1.827870 
# 
# From -- ./inp_files/29386.got.cif
#   From: 2010.03.12/outbox.cif.g09.slc.cpg/sg20_15_cif.got.tgz:29386.got - 2010.04.14 01:38:04.
