data_PCOD8158882
_publ_section_title
;
Structure prediction by ZEFSAII (Michael W. Deem and Ramdas Pophale) SiO2 
 PCOD8158882
Probable space group: C 2 2 21
;
_chemical_formula_sum "Si O2"
_cell_formula_units_Z 36
_cell_length_a 5.195888
_cell_length_b 27.738823
_cell_length_c 10.166586
_cell_angle_alpha 90.000000
_cell_angle_beta 90.000000
_cell_angle_gamma 90.000000
_cell_volume 1465.287852
_symmetry_space_group_name_H-M "C 2 2 21"
_symmetry_group_IT_number 20
_symmetry_cell_setting 'orthorhombic'
loop_
_space_group_symop_operation_xyz
x,y,z
-x,-y,1/2+z
x,-y,-z
-x,y,1/2-z
1/2+x,1/2+y,z
1/2-x,1/2-y,1/2+z
1/2+x,1/2-y,-z
1/2-x,1/2+y,1/2-z
loop_
_atom_site_type_symbol
_atom_site_label
_atom_site_fract_x
_atom_site_fract_y
_atom_site_fract_z
Si Si1 0.000000 0.803417 0.250000
Si Si2 0.472470 0.342578 0.959811
Si Si3 0.000000 0.761630 0.750000
Si Si4 0.268683 0.000000 0.000000
Si Si5 0.000000 0.031666 0.750000
Si Si6 0.500000 0.907312 0.250000
Si Si7 0.964261 0.605357 0.025117
O O1 0.015483 0.836076 0.382060
O O2 0.248620 0.770356 0.253777
O O3 0.716416 0.372522 0.903301
O O4 0.226895 0.374575 0.913322
O O5 0.475280 0.292197 0.884092
O O6 0.450492 0.047060 0.014866
O O7 0.082533 0.999790 0.874238
O O8 0.750930 0.062087 0.791153
O O9 0.557689 0.874049 0.375218
#
# Coordination Sequence:
#
# PCOD8158882 Si02
#       7
#     4   8   4   4   4   4   8
#     4  12  24  47  76  96 128 175 220 271 340 413
#     4  12  25  43  69 102 135 171 221 278 331 401
#     4  12  26  46  70 103 136 165 210 274 356 422
#     4  10  24  44  68  96 138 190 232 278 332 390
#     4  10  22  38  62  90 122 173 238 281 320 378
#     4  10  20  39  62  89 124 173 232 278 310 377
#     4  11  23  41  66  97 137 179 227 274 326 387
#
# _framework density 24.568553000000001
#
# number of rings (size 3 to 8) (size 9 to 14) (size 15 to 20)
#    0.000    0.889    0.000    8.000    0.000    9.778 
#    0.000    6.667    0.000    1.333    0.000    0.000 
#    0.000    0.000    0.000    0.000    0.000    0.000 
#
# Total GULP energy -223073.608700 kJ/mol
# GULP energy per Si atom -12392.978261 kJ/mol
# Density = 2.451263 g / cm^3
# Si number density = 24.568553 Si / 1000 Ang^3
#
#
#
# Elastic Constant Matrix: (Units=GPa)
#
#
# Indices 1 2 3 4 5 6 
#
# 1 241.0970 89.0275 20.0743 0.0000 0.0000 0.0000
# 2 89.0275 120.3486 8.5554 0.0000 0.0000 0.0000
# 3 20.0743 8.5554 92.1520 0.0000 0.0000 0.0000
# 4 0.0000 0.0000 0.0000 289.4864 0.0000 0.0000
# 5 0.0000 0.0000 0.0000 0.0000 16.0060 0.0000
# 6 0.0000 0.0000 0.0000 0.0000 0.0000 56.1601
#
#
#
# Elastic Compliance Matrix: (Units=1/GPa)
#
#
# Indices 1 2 3 4 5 6 
#
# 1 0.005774 -0.004210 -0.000867 0.000000 0.000000 0.000000
# 2 -0.004210 0.011434 -0.000144 0.000000 0.000000 0.000000
# 3 -0.000867 -0.000144 0.011054 0.000000 0.000000 0.000000
# 4 0.000000 0.000000 0.000000 0.003454 0.000000 0.000000
# 5 0.000000 0.000000 0.000000 0.000000 0.062477 0.000000
# 6 0.000000 0.000000 0.000000 0.000000 0.000000 0.017806
#
#
# Mechanical properties :
#
#
# Convention : Reuss Voigt Hill
#
# Bulk Modulus (GPa) = 56.11906 76.54578 66.33242
# Shear Modulus (GPa) = 38.94622 94.72652 66.83637
#
# Velocity S-wave (km/s) = 3.98578 6.21608 5.22141
# Velocity P-wave (km/s) = 6.63878 9.09633 7.96293
#
# Compressibility (1/GPa) = 0.01781926
#
# Stress axis : x y z
#
# Youngs Moduli (GPa) = 173.17524 87.45988 90.46561
#
# Poissons Ratio (x) = 0.36821 0.07844
# Poissons Ratio (y) = 0.72907 0.01306
# Poissons Ratio (z) = 0.15015 0.01263
#
# Static dielectric constant tensor:
#      x y z
#    x 1.304180 0.000000 0.000000 
#    y 0.000000 4.218360 0.000000 
#    z 0.000000 0.000000 4.588130 
# 
# 
# High freq. dielectric constant tensor:
#      x y z
#    x 2.008710 0.000000 0.000000 
#    y 0.000000 1.967560 0.000000 
#    z 0.000000 0.000000 1.976230 
# 
# From -- ./inp_files/12108.got.cif
#   From: 2010.03.12/outbox.cif.g09.slc.cpg/sg20_7_cif.got.tgz:12108.got - 2010.04.14 01:38:04.
