data_PCOD8158108
_publ_section_title
;
Structure prediction by ZEFSAII (Michael W. Deem and Ramdas Pophale) SiO2 
 PCOD8158108
Probable space group: C 2 2 21
;
_chemical_formula_sum "Si O2"
_cell_formula_units_Z 64
_cell_length_a 8.786413
_cell_length_b 24.022348
_cell_length_c 15.303982
_cell_angle_alpha 90.000000
_cell_angle_beta 90.000000
_cell_angle_gamma 90.000000
_cell_volume 3230.215624
_symmetry_space_group_name_H-M "C 2 2 21"
_symmetry_group_IT_number 20
_symmetry_cell_setting 'orthorhombic'
loop_
_space_group_symop_operation_xyz
x,y,z
-x,-y,1/2+z
x,-y,-z
-x,y,1/2-z
1/2+x,1/2+y,z
1/2-x,1/2-y,1/2+z
1/2+x,1/2-y,-z
1/2-x,1/2+y,1/2-z
loop_
_atom_site_type_symbol
_atom_site_label
_atom_site_fract_x
_atom_site_fract_y
_atom_site_fract_z
Si Si1 0.177694 0.631747 0.599798
Si Si2 0.321478 0.568684 0.250000
Si Si3 0.822306 0.631747 0.599798
Si Si4 0.824930 0.752346 0.647450
Si Si5 0.323197 0.137391 0.096923
Si Si6 0.181054 0.447802 0.250000
Si Si7 0.823197 0.362609 0.596923
Si Si8 0.175070 0.752346 0.647450
O O1 0.210455 0.614144 0.500185
O O2 0.243729 0.584587 0.664302
O O3 0.246351 0.692437 0.622257
O O4 0.000000 0.637038 0.619301
O O5 0.500000 0.561363 0.250000
O O6 0.275022 0.601879 0.336244
O O7 0.245420 0.509078 0.250000
O O8 0.275022 0.601879 0.163756
O O9 0.753649 0.692437 0.622257
O O10 0.756271 0.584587 0.664302
O O11 0.789545 0.614144 0.500185
O O12 0.723907 0.798102 0.598328
O O13 0.811156 0.762670 0.750000
O O14 0.000000 0.757918 0.616722
O O15 0.500000 0.131651 0.121282
O O16 0.000000 0.452326 0.250000
O O17 0.776093 0.298102 0.598328
#
# Coordination Sequence:
#
# PCOD8158108 Si02
#       8
#     8   8   8   8   8   8   8   8
#     4   9  19  36  62  91 118 151 189 231 284 344
#     4  12  26  43  58  79 113 154 196 242 297 342
#     4   9  19  36  62  91 118 151 189 231 284 344
#     4  10  18  33  59  89 122 156 185 223 284 345
#     4  11  22  37  59  89 119 151 194 237 279 336
#     4  10  20  41  66  85 109 148 196 240 283 340
#     4  11  22  37  59  89 119 151 194 237 279 336
#     4  10  18  33  59  89 122 156 185 223 284 345
#
# _framework density 19.812919000000001
#
# number of rings (size 3 to 8) (size 9 to 14) (size 15 to 20)
#    0.000    1.750    2.500    2.625    0.000    1.000 
#    0.000   10.000    0.000    0.000    0.000    0.000 
#    0.000    0.000    0.000    0.000    0.000    0.000 
#
# Total GULP energy -396860.183044 kJ/mol
# GULP energy per Si atom -12401.880720 kJ/mol
# Density = 1.976782 g / cm^3
# Si number density = 19.812919 Si / 1000 Ang^3
#
#
#
# Elastic Constant Matrix: (Units=GPa)
#
#
# Indices 1 2 3 4 5 6 
#
# 1 27.2107 8.4563 24.6106 0.0000 0.0000 0.0000
# 2 8.4563 133.6912 47.2874 0.0000 0.0000 0.0000
# 3 24.6106 47.2874 107.6833 0.0000 0.0000 0.0000
# 4 0.0000 0.0000 0.0000 7.3709 0.0000 0.0000
# 5 0.0000 0.0000 0.0000 0.0000 13.9012 0.0000
# 6 0.0000 0.0000 0.0000 0.0000 0.0000 32.7804
#
#
#
# Elastic Compliance Matrix: (Units=1/GPa)
#
#
# Indices 1 2 3 4 5 6 
#
# 1 0.046431 0.000967 -0.011036 0.000000 0.000000 0.000000
# 2 0.000967 0.008876 -0.004118 0.000000 0.000000 0.000000
# 3 -0.011036 -0.004118 0.013617 0.000000 0.000000 0.000000
# 4 0.000000 0.000000 0.000000 0.135669 0.000000 0.000000
# 5 0.000000 0.000000 0.000000 0.000000 0.071936 0.000000
# 6 0.000000 0.000000 0.000000 0.000000 0.000000 0.030506
#
#
# Mechanical properties :
#
#
# Convention : Reuss Voigt Hill
#
# Bulk Modulus (GPa) = 24.66199 47.69934 36.18067
# Shear Modulus (GPa) = 14.32963 23.35923 18.84443
#
# Velocity S-wave (km/s) = 2.69224 3.43737 3.08737
# Velocity P-wave (km/s) = 4.70518 6.31515 5.56865
#
# Compressibility (1/GPa) = 0.04054823
#
# Stress axis : x y z
#
# Youngs Moduli (GPa) = 21.53714 112.66964 73.43580
#
# Poissons Ratio (x) = -0.10891 0.81045
# Poissons Ratio (y) = -0.02082 0.30244
# Poissons Ratio (z) = 0.23769 0.46403
#
# Static dielectric constant tensor:
#      x y z
#    x 3.327250 0.000000 0.000000 
#    y 0.000000 3.687960 0.000000 
#    z 0.000000 0.000000 3.735070 
# 
# 
# High freq. dielectric constant tensor:
#      x y z
#    x 1.742120 0.000000 0.000000 
#    y 0.000000 1.775520 0.000000 
#    z 0.000000 0.000000 1.787390 
# 
# From -- ./inp_files/19353.got.cif
#   From: 2010.03.12/outbox.cif.g09.slc.cpg/sg20_10_cif.got.tgz:19353.got - 2010.04.14 01:38:04.
