data_PCOD8158976
_publ_section_title
;
Structure prediction by ZEFSAII (Michael W. Deem and Ramdas Pophale) SiO2 
 PCOD8158976
Probable space group: C 2 2 21
;
_chemical_formula_sum "Si O2"
_cell_formula_units_Z 32
_cell_length_a 7.891581
_cell_length_b 11.293721
_cell_length_c 16.650412
_cell_angle_alpha 90.000000
_cell_angle_beta 90.000000
_cell_angle_gamma 90.000000
_cell_volume 1483.973199
_symmetry_space_group_name_H-M "C 2 2 21"
_symmetry_group_IT_number 20
_symmetry_cell_setting 'orthorhombic'
loop_
_space_group_symop_operation_xyz
x,y,z
-x,-y,1/2+z
x,-y,-z
-x,y,1/2-z
1/2+x,1/2+y,z
1/2-x,1/2-y,1/2+z
1/2+x,1/2-y,-z
1/2-x,1/2+y,1/2-z
loop_
_atom_site_type_symbol
_atom_site_label
_atom_site_fract_x
_atom_site_fract_y
_atom_site_fract_z
Si Si1 0.506576 0.000000 0.000000
Si Si2 0.021349 0.739036 0.442337
Si Si3 0.142242 0.820556 0.605951
Si Si4 0.747135 0.576544 0.634161
Si Si5 0.000000 0.331879 0.250000
O O1 0.622380 0.923991 0.060196
O O2 0.401538 0.103952 0.045434
O O3 0.029294 0.811448 0.525662
O O4 0.127274 0.808352 0.374744
O O5 0.829963 0.727626 0.411690
O O6 0.059222 0.746191 0.676003
O O7 0.139587 0.956411 0.634461
O O8 0.846610 0.585897 0.718616
#
# Coordination Sequence:
#
# PCOD8158976 Si02
#       5
#     4   8   8   8   4
#     4  10  20  40  70  94 128 172 216 278 318 398
#     4  11  20  44  68  96 126 176 223 269 321 400
#     4  11  24  42  68  97 134 174 222 278 331 399
#     4  11  23  45  67  97 135 168 226 274 327 401
#     4  12  26  44  62 102 140 174 216 280 346 380
#
# _framework density 21.563731000000001
#
# number of rings (size 3 to 8) (size 9 to 14) (size 15 to 20)
#    0.000    1.000    7.500    0.000    0.000    7.000 
#    9.000    0.000    0.000    0.000    0.000    0.000 
#    0.000    0.000    0.000    0.000    0.000    0.000 
#
# Total GULP energy -198360.327222 kJ/mol
# GULP energy per Si atom -12397.520451 kJ/mol
# Density = 2.151465 g / cm^3
# Si number density = 21.563731 Si / 1000 Ang^3
#
#
#
# Elastic Constant Matrix: (Units=GPa)
#
#
# Indices 1 2 3 4 5 6 
#
# 1 54.4046 33.5633 16.8749 0.0000 0.0000 0.0000
# 2 33.5633 119.7035 -6.5259 0.0000 0.0000 0.0000
# 3 16.8749 -6.5259 62.3645 0.0000 0.0000 0.0000
# 4 0.0000 0.0000 0.0000 29.0491 0.0000 0.0000
# 5 0.0000 0.0000 0.0000 0.0000 46.5650 0.0000
# 6 0.0000 0.0000 0.0000 0.0000 0.0000 24.8083
#
#
#
# Elastic Compliance Matrix: (Units=1/GPa)
#
#
# Indices 1 2 3 4 5 6 
#
# 1 0.025412 -0.007543 -0.007665 0.000000 0.000000 0.000000
# 2 -0.007543 0.010641 0.003155 0.000000 0.000000 0.000000
# 3 -0.007665 0.003155 0.018439 0.000000 0.000000 0.000000
# 4 0.000000 0.000000 0.000000 0.034424 0.000000 0.000000
# 5 0.000000 0.000000 0.000000 0.000000 0.021475 0.000000
# 6 0.000000 0.000000 0.000000 0.000000 0.000000 0.040309
#
#
# Mechanical properties :
#
#
# Convention : Reuss Voigt Hill
#
# Bulk Modulus (GPa) = 32.91211 36.03301 34.47256
# Shear Modulus (GPa) = 27.03630 32.92183 29.97907
#
# Velocity S-wave (km/s) = 3.54473 3.91157 3.73266
# Velocity P-wave (km/s) = 5.66121 6.09482 5.88201
#
# Compressibility (1/GPa) = 0.03038395
#
# Stress axis : x y z
#
# Youngs Moduli (GPa) = 39.35168 93.97680 54.23292
#
# Poissons Ratio (x) = 0.70887 0.41572
# Poissons Ratio (y) = 0.29683 -0.17108
# Poissons Ratio (z) = 0.30165 -0.29645
#
# Static dielectric constant tensor:
#      x y z
#    x 3.747430 0.000000 0.000000 
#    y 0.000000 4.249630 0.000000 
#    z 0.000000 0.000000 4.088280 
# 
# 
# High freq. dielectric constant tensor:
#      x y z
#    x 1.826070 0.000000 0.000000 
#    y 0.000000 1.863510 0.000000 
#    z 0.000000 0.000000 1.840260 
# 
# From -- ./inp_files/18232.got.cif
#   From: 2010.03.12/outbox.cif.g09.slc.cpg/sg20_10_cif.got.tgz:18232.got - 2010.04.14 01:38:04.
