data_PCOD8158200
_publ_section_title
;
Structure prediction by ZEFSAII (Michael W. Deem and Ramdas Pophale) SiO2 
 PCOD8158200
Probable space group: C 2 2 21
;
_chemical_formula_sum "Si O2"
_cell_formula_units_Z 64
_cell_length_a 9.563076
_cell_length_b 18.014862
_cell_length_c 18.251330
_cell_angle_alpha 90.000000
_cell_angle_beta 90.000000
_cell_angle_gamma 90.000000
_cell_volume 3144.293403
_symmetry_space_group_name_H-M "C 2 2 21"
_symmetry_group_IT_number 20
_symmetry_cell_setting 'orthorhombic'
loop_
_space_group_symop_operation_xyz
x,y,z
-x,-y,1/2+z
x,-y,-z
-x,y,1/2-z
1/2+x,1/2+y,z
1/2-x,1/2-y,1/2+z
1/2+x,1/2-y,-z
1/2-x,1/2+y,1/2-z
loop_
_atom_site_type_symbol
_atom_site_label
_atom_site_fract_x
_atom_site_fract_y
_atom_site_fract_z
Si Si1 0.479830 0.503385 0.086807
Si Si2 0.317883 0.674563 0.543715
Si Si3 0.287897 0.974317 0.083233
Si Si4 0.027236 0.413944 0.665565
Si Si5 0.629869 0.358781 0.440177
Si Si6 0.020402 0.847919 0.666245
Si Si7 0.230938 0.291801 0.612454
Si Si8 0.219605 0.667916 0.090034
O O1 0.640165 0.503067 0.114516
O O2 0.378005 0.434033 0.109937
O O3 0.426990 0.578926 0.121837
O O4 0.472814 0.500000 0.000000
O O5 0.223709 0.615675 0.589975
O O6 0.472019 0.643816 0.526254
O O7 0.224155 0.682812 0.471387
O O8 0.354936 0.752837 0.580435
O O9 0.411144 0.009761 0.131715
O O10 0.310840 0.000000 0.000000
O O11 0.135330 0.345690 0.660596
O O12 0.000000 0.430366 0.750000
O O13 0.885318 0.392540 0.623525
O O14 0.676034 0.293104 0.384605
O O15 0.731404 0.362588 0.510399
O O16 0.890154 0.799519 0.639261
O O17 0.000000 0.869110 0.750000
O O18 0.160881 0.803364 0.647446
#
# Coordination Sequence:
#
# PCOD8158200 Si02
#       8
#     8   8   8   8   8   8   8   8
#     4  10  18  38  65  94 121 159 212 270 314 375
#     4  10  19  37  68  94 123 157 218 266 329 375
#     4  10  19  38  65  91 119 166 214 260 318 383
#     4  12  24  40  61  95 135 174 213 259 324 391
#     4  10  20  37  67  97 126 154 212 283 319 367
#     4  12  23  40  64  89 129 178 215 253 326 398
#     4  11  20  40  63  95 123 168 215 265 322 389
#     4  11  23  38  61  99 127 162 213 276 318 376
#
# _framework density 20.354334999999999
#
# number of rings (size 3 to 8) (size 9 to 14) (size 15 to 20)
#    0.000    1.250    6.250    1.500    0.000    0.000 
#    2.250    1.250    2.750    0.000    0.000    0.000 
#    0.000    0.000    0.000    0.000    0.000    0.000 
#
# Total GULP energy -396438.254063 kJ/mol
# GULP energy per Si atom -12388.695439 kJ/mol
# Density = 2.030801 g / cm^3
# Si number density = 20.354335 Si / 1000 Ang^3
#
#
#
# Elastic Constant Matrix: (Units=GPa)
#
#
# Indices 1 2 3 4 5 6 
#
# 1 102.9777 40.4987 26.1418 0.0000 0.0000 0.0000
# 2 40.4987 109.5031 41.3638 0.0000 0.0000 0.0000
# 3 26.1418 41.3638 76.7274 0.0000 0.0000 0.0000
# 4 0.0000 0.0000 0.0000 19.4495 0.0000 0.0000
# 5 0.0000 0.0000 0.0000 0.0000 22.9864 0.0000
# 6 0.0000 0.0000 0.0000 0.0000 0.0000 34.2341
#
#
#
# Elastic Compliance Matrix: (Units=1/GPa)
#
#
# Indices 1 2 3 4 5 6 
#
# 1 0.011618 -0.003518 -0.002062 0.000000 0.000000 0.000000
# 2 -0.003518 0.012533 -0.005558 0.000000 0.000000 0.000000
# 3 -0.002062 -0.005558 0.016732 0.000000 0.000000 0.000000
# 4 0.000000 0.000000 0.000000 0.051415 0.000000 0.000000
# 5 0.000000 0.000000 0.000000 0.000000 0.043504 0.000000
# 6 0.000000 0.000000 0.000000 0.000000 0.000000 0.029211
#
#
# Mechanical properties :
#
#
# Convention : Reuss Voigt Hill
#
# Bulk Modulus (GPa) = 53.74236 56.13522 54.93879
# Shear Modulus (GPa) = 25.84124 27.41427 26.62775
#
# Velocity S-wave (km/s) = 3.56697 3.67393 3.62084
# Velocity P-wave (km/s) = 6.58977 6.75543 6.67312
#
# Compressibility (1/GPa) = 0.01860730
#
# Stress axis : x y z
#
# Youngs Moduli (GPa) = 86.07524 79.79181 59.76630
#
# Poissons Ratio (x) = 0.28070 0.12323
# Poissons Ratio (y) = 0.30280 0.33217
# Poissons Ratio (z) = 0.17747 0.44346
#
# Static dielectric constant tensor:
#      x y z
#    x 3.774740 0.000000 0.000000 
#    y 0.000000 4.169380 0.000000 
#    z 0.000000 0.000000 3.346150 
# 
# 
# High freq. dielectric constant tensor:
#      x y z
#    x 1.798630 0.000000 0.000000 
#    y 0.000000 1.804590 0.000000 
#    z 0.000000 0.000000 1.756280 
# 
# From -- ./inp_files/23908.got.cif
#   From: 2010.03.12/outbox.cif.g09.slc.cpg/sg20_12_cif.got.tgz:23908.got - 2010.04.14 01:38:04.
