data_PCOD8158614
_publ_section_title
;
Structure prediction by ZEFSAII (Michael W. Deem and Ramdas Pophale) SiO2 
 PCOD8158614
Probable space group: C 2 2 21
;
_chemical_formula_sum "Si O2"
_cell_formula_units_Z 48
_cell_length_a 15.862989
_cell_length_b 17.150451
_cell_length_c 8.622472
_cell_angle_alpha 90.000000
_cell_angle_beta 90.000000
_cell_angle_gamma 90.000000
_cell_volume 2345.807448
_symmetry_space_group_name_H-M "C 2 2 21"
_symmetry_group_IT_number 20
_symmetry_cell_setting 'orthorhombic'
loop_
_space_group_symop_operation_xyz
x,y,z
-x,-y,1/2+z
x,-y,-z
-x,y,1/2-z
1/2+x,1/2+y,z
1/2-x,1/2-y,1/2+z
1/2+x,1/2-y,-z
1/2-x,1/2+y,1/2-z
loop_
_atom_site_type_symbol
_atom_site_label
_atom_site_fract_x
_atom_site_fract_y
_atom_site_fract_z
Si Si1 0.820683 0.991407 0.175321
Si Si2 0.500000 0.755402 0.250000
Si Si3 0.679350 0.307999 0.291224
Si Si4 0.235992 0.916459 0.927865
Si Si5 0.334662 0.791275 0.091157
Si Si6 0.500000 0.461863 0.250000
Si Si7 0.931178 0.160687 0.532236
O O1 0.805549 0.901580 0.225361
O O2 0.917312 0.014560 0.221687
O O3 0.757873 0.056872 0.248185
O O4 0.799821 0.000000 0.000000
O O5 0.419141 0.805320 0.193434
O O6 0.482952 0.706190 0.404051
O O7 0.661285 0.279140 0.465545
O O8 0.762411 0.268778 0.216287
O O9 0.597036 0.288537 0.184949
O O10 0.317559 0.871103 0.993852
O O11 0.155609 0.862749 0.951330
O O12 0.218420 0.000000 0.000000
O O13 0.510724 0.410151 0.093237
#
# Coordination Sequence:
#
# PCOD8158614 Si02
#       7
#     8   4   8   8   8   4   8
#     4  11  24  35  58  93 129 173 215 254 319 383
#     4  12  24  39  64  98 125 172 214 276 316 379
#     4  10  22  43  62  93 128 169 215 262 311 408
#     4  11  21  43  60  89 127 175 206 262 314 393
#     4  11  23  40  67  89 130 170 221 263 324 380
#     4  10  20  35  52  92 139 166 200 258 314 393
#     4  10  22  37  59  90 134 162 214 258 328 374
#
# _framework density 20.462036999999999
#
# number of rings (size 3 to 8) (size 9 to 14) (size 15 to 20)
#    0.000    1.333    5.000    4.000    9.333    0.000 
#    0.000    0.000    0.000    3.000    0.000    0.000 
#    0.000    0.000    0.000    0.000    0.000    0.000 
#
# Total GULP energy -297317.857377 kJ/mol
# GULP energy per Si atom -12388.244057 kJ/mol
# Density = 2.041546 g / cm^3
# Si number density = 20.462037 Si / 1000 Ang^3
#
#
#
# Elastic Constant Matrix: (Units=GPa)
#
#
# Indices 1 2 3 4 5 6 
#
# 1 85.1436 19.1475 36.3738 0.0000 0.0000 0.0000
# 2 19.1475 37.3850 8.0241 0.0000 0.0000 0.0000
# 3 36.3738 8.0241 117.4061 0.0000 0.0000 0.0000
# 4 0.0000 0.0000 0.0000 16.2216 0.0000 0.0000
# 5 0.0000 0.0000 0.0000 0.0000 79.5396 0.0000
# 6 0.0000 0.0000 0.0000 0.0000 0.0000 24.9421
#
#
#
# Elastic Compliance Matrix: (Units=1/GPa)
#
#
# Indices 1 2 3 4 5 6 
#
# 1 0.015074 -0.006818 -0.004204 0.000000 0.000000 0.000000
# 2 -0.006818 0.030231 0.000046 0.000000 0.000000 0.000000
# 3 -0.004204 0.000046 0.009817 0.000000 0.000000 0.000000
# 4 0.000000 0.000000 0.000000 0.061646 0.000000 0.000000
# 5 0.000000 0.000000 0.000000 0.000000 0.012572 0.000000
# 6 0.000000 0.000000 0.000000 0.000000 0.000000 0.040093
#
#
# Mechanical properties :
#
#
# Convention : Reuss Voigt Hill
#
# Bulk Modulus (GPa) = 30.14813 40.78061 35.46437
# Shear Modulus (GPa) = 24.69841 35.89994 30.29918
#
# Velocity S-wave (km/s) = 3.47801 4.19318 3.85223
# Velocity P-wave (km/s) = 5.55828 6.58914 6.09554
#
# Compressibility (1/GPa) = 0.03316956
#
# Stress axis : x y z
#
# Youngs Moduli (GPa) = 66.33833 33.07878 101.86624
#
# Poissons Ratio (x) = 0.22554 0.42827
# Poissons Ratio (y) = 0.45231 -0.00471
# Poissons Ratio (z) = 0.27890 -0.00153
#
# Static dielectric constant tensor:
#      x y z
#    x 3.725060 0.000000 0.000000 
#    y 0.000000 -46.199160 0.000000 
#    z 0.000000 0.000000 4.176510 
# 
# 
# High freq. dielectric constant tensor:
#      x y z
#    x 1.775960 0.000000 0.000000 
#    y 0.000000 1.763690 0.000000 
#    z 0.000000 0.000000 1.832390 
# 
# From -- ./inp_files/8482.got.cif
#   From: 2010.03.12/outbox.cif.g09.slc.cpg/sg20_5_cif.got.tgz:8482.got - 2010.04.14 01:38:04.
