data_PCOD8158567
_publ_section_title
;
Structure prediction by ZEFSAII (Michael W. Deem and Ramdas Pophale) SiO2 
 PCOD8158567
Probable space group: C 2 2 21
;
_chemical_formula_sum "Si O2"
_cell_formula_units_Z 64
_cell_length_a 22.401015
_cell_length_b 9.061360
_cell_length_c 17.877780
_cell_angle_alpha 90.000000
_cell_angle_beta 90.000000
_cell_angle_gamma 90.000000
_cell_volume 3628.897240
_symmetry_space_group_name_H-M "C 2 2 21"
_symmetry_group_IT_number 20
_symmetry_cell_setting 'orthorhombic'
loop_
_space_group_symop_operation_xyz
x,y,z
-x,-y,1/2+z
x,-y,-z
-x,y,1/2-z
1/2+x,1/2+y,z
1/2-x,1/2-y,1/2+z
1/2+x,1/2-y,-z
1/2-x,1/2+y,1/2-z
loop_
_atom_site_type_symbol
_atom_site_label
_atom_site_fract_x
_atom_site_fract_y
_atom_site_fract_z
Si Si1 0.110034 0.925690 0.575813
Si Si2 0.767475 0.087312 0.139756
Si Si3 0.889966 0.574310 0.924187
Si Si4 0.667512 0.086370 0.797297
Si Si5 0.332488 0.586370 0.297297
Si Si6 0.732525 0.087312 0.639756
Si Si7 0.566484 0.419867 0.279101
Si Si8 0.566484 0.919867 0.720899
O O1 0.179933 0.969337 0.585231
O O2 0.101412 0.750000 0.573895
O O3 0.086144 0.000000 0.500000
O O4 0.071740 0.989469 0.644187
O O5 0.794715 0.095145 0.222132
O O6 0.746003 0.250000 0.115385
O O7 0.710024 0.980423 0.137595
O O8 0.820067 0.530663 0.914769
O O9 0.928260 0.510531 0.855813
O O10 0.913856 0.500000 0.000000
O O11 0.647094 0.250000 0.822137
O O12 0.705285 0.095145 0.722132
O O13 0.609733 0.984568 0.785042
O O14 0.289976 0.519577 0.362405
O O15 0.390267 0.484568 0.285042
O O16 0.500000 0.436380 0.250000
O O17 0.583984 0.250000 0.293700
O O18 0.500000 0.936380 0.750000
#
# Coordination Sequence:
#
# PCOD8158567 Si02
#       8
#     8   8   8   8   8   8   8   8
#     4  10  20  33  51  74 100 130 163 204 253 303
#     4   8  15  27  43  66  94 122 151 186 233 287
#     4  10  20  33  51  74 100 130 163 204 253 303
#     4   9  16  26  44  69  94 121 153 193 238 281
#     4   9  16  26  44  69  94 121 153 193 238 281
#     4   8  15  27  43  66  94 122 151 186 233 287
#     4  10  20  33  50  72  99 133 172 212 251 294
#     4  10  20  33  50  72  99 133 172 212 251 294
#
# _framework density 17.636212
#
# number of rings (size 3 to 8) (size 9 to 14) (size 15 to 20)
#    0.000    2.750    0.000    3.750    0.000    9.000 
#    0.000    0.000    0.000    1.500    0.000    7.000 
#    0.000    0.000    0.000    0.000    0.000    0.000 
#
# Total GULP energy -396672.869252 kJ/mol
# GULP energy per Si atom -12396.027164 kJ/mol
# Density = 1.759607 g / cm^3
# Si number density = 17.636212 Si / 1000 Ang^3
#
#
#
# Elastic Constant Matrix: (Units=GPa)
#
#
# Indices 1 2 3 4 5 6 
#
# 1 80.7095 58.2684 25.8204 0.0000 0.0000 0.0000
# 2 58.2684 134.2559 39.6101 0.0000 0.0000 0.0000
# 3 25.8204 39.6101 53.5810 0.0000 0.0000 0.0000
# 4 0.0000 0.0000 0.0000 21.6586 0.0000 0.0000
# 5 0.0000 0.0000 0.0000 0.0000 15.1308 0.0000
# 6 0.0000 0.0000 0.0000 0.0000 0.0000 29.3712
#
#
#
# Elastic Compliance Matrix: (Units=1/GPa)
#
#
# Indices 1 2 3 4 5 6 
#
# 1 0.018642 -0.006958 -0.003840 0.000000 0.000000 0.000000
# 2 -0.006958 0.012123 -0.005609 0.000000 0.000000 0.000000
# 3 -0.003840 -0.005609 0.024660 0.000000 0.000000 0.000000
# 4 0.000000 0.000000 0.000000 0.046171 0.000000 0.000000
# 5 0.000000 0.000000 0.000000 0.000000 0.066090 0.000000
# 6 0.000000 0.000000 0.000000 0.000000 0.000000 0.034047
#
#
# Mechanical properties :
#
#
# Convention : Reuss Voigt Hill
#
# Bulk Modulus (GPa) = 44.22488 57.32711 50.77600
# Shear Modulus (GPa) = 20.65397 22.88862 21.77130
#
# Velocity S-wave (km/s) = 3.42586 3.60643 3.51731
# Velocity P-wave (km/s) = 6.38587 7.06525 6.73413
#
# Compressibility (1/GPa) = 0.02261170
#
# Stress axis : x y z
#
# Youngs Moduli (GPa) = 53.64308 82.48701 40.55109
#
# Poissons Ratio (x) = 0.57393 0.15570
# Poissons Ratio (y) = 0.37324 0.22746
# Poissons Ratio (z) = 0.20597 0.46268
#
# Static dielectric constant tensor:
#      x y z
#    x 3.171270 0.000000 0.000000 
#    y 0.000000 3.596500 0.000000 
#    z 0.000000 0.000000 2.997230 
# 
# 
# High freq. dielectric constant tensor:
#      x y z
#    x 1.664420 0.000000 0.000000 
#    y 0.000000 1.700350 0.000000 
#    z 0.000000 0.000000 1.638960 
# 
# From -- ./inp_files/25639.got.cif
#   From: 2010.03.12/outbox.cif.g09.slc.cpg/sg20_13_cif.got.tgz:25639.got - 2010.04.14 01:38:04.
