data_PCOD8158252
_publ_section_title
;
Structure prediction by ZEFSAII (Michael W. Deem and Ramdas Pophale) SiO2 
 PCOD8158252
Probable space group: C 2 2 21
;
_chemical_formula_sum "Si O2"
_cell_formula_units_Z 28
_cell_length_a 15.058199
_cell_length_b 16.782343
_cell_length_c 5.160427
_cell_angle_alpha 90.000000
_cell_angle_beta 90.000000
_cell_angle_gamma 90.000000
_cell_volume 1304.101109
_symmetry_space_group_name_H-M "C 2 2 21"
_symmetry_group_IT_number 20
_symmetry_cell_setting 'orthorhombic'
loop_
_space_group_symop_operation_xyz
x,y,z
-x,-y,1/2+z
x,-y,-z
-x,y,1/2-z
1/2+x,1/2+y,z
1/2-x,1/2-y,1/2+z
1/2+x,1/2-y,-z
1/2-x,1/2+y,1/2-z
loop_
_atom_site_type_symbol
_atom_site_label
_atom_site_fract_x
_atom_site_fract_y
_atom_site_fract_z
Si Si1 0.162829 0.818607 0.540025
Si Si2 0.834138 0.090951 0.529015
Si Si3 0.500000 0.052586 0.250000
Si Si4 0.166346 0.655158 0.313290
O O1 0.128250 0.730103 0.477005
O O2 0.270948 0.813122 0.576549
O O3 0.119558 0.854823 0.803216
O O4 0.136404 0.878211 0.308845
O O5 0.726882 0.098348 0.496740
O O6 0.864441 0.000000 0.500000
O O7 0.585202 0.106944 0.193022
O O8 0.518781 0.000000 0.500000
#
# Coordination Sequence:
#
# PCOD8158252 Si02
#       4
#     8   8   4   8
#     4  10  20  34  59  76 113 158 208 247 274 356
#     4  10  19  31  56  84 109 141 195 257 294 332
#     4  12  30  38  58  92 138 168 186 244 326 384
#     4  10  22  38  56  82 120 163 205 237 298 367
#
# _framework density 21.470727
#
# number of rings (size 3 to 8) (size 9 to 14) (size 15 to 20)
#    1.714    0.000    2.857    1.714    8.000    0.000 
#    0.000    0.000    0.000    0.000    0.000    4.000 
#    0.000    2.286    0.000    0.000    0.000    0.000 
#
# Total GULP energy -173502.689706 kJ/mol
# GULP energy per Si atom -12393.049265 kJ/mol
# Density = 2.142186 g / cm^3
# Si number density = 21.470727 Si / 1000 Ang^3
#
#
#
# Elastic Constant Matrix: (Units=GPa)
#
#
# Indices 1 2 3 4 5 6 
#
# 1 25.5540 2.1622 -4.0085 0.0000 0.0000 0.0000
# 2 2.1622 120.7296 33.5572 0.0000 0.0000 0.0000
# 3 -4.0085 33.5572 129.1710 0.0000 0.0000 0.0000
# 4 0.0000 0.0000 0.0000 34.2940 0.0000 0.0000
# 5 0.0000 0.0000 0.0000 0.0000 10.3380 0.0000
# 6 0.0000 0.0000 0.0000 0.0000 0.0000 37.0857
#
#
#
# Elastic Compliance Matrix: (Units=1/GPa)
#
#
# Indices 1 2 3 4 5 6 
#
# 1 0.039466 -0.001129 0.001518 0.000000 0.000000 0.000000
# 2 -0.001129 0.008960 -0.002363 0.000000 0.000000 0.000000
# 3 0.001518 -0.002363 0.008403 0.000000 0.000000 0.000000
# 4 0.000000 0.000000 0.000000 0.029160 0.000000 0.000000
# 5 0.000000 0.000000 0.000000 0.000000 0.096730 0.000000
# 6 0.000000 0.000000 0.000000 0.000000 0.000000 0.026965
#
#
# Mechanical properties :
#
#
# Convention : Reuss Voigt Hill
#
# Bulk Modulus (GPa) = 18.91006 37.65293 28.28150
# Shear Modulus (GPa) = 21.62089 32.59312 27.10700
#
# Velocity S-wave (km/s) = 3.17676 3.90041 3.55704
# Velocity P-wave (km/s) = 4.72040 6.15299 5.48368
#
# Compressibility (1/GPa) = 0.05288191
#
# Stress axis : x y z
#
# Youngs Moduli (GPa) = 25.33801 111.60820 119.01089
#
# Poissons Ratio (x) = 0.12598 -0.18066
# Poissons Ratio (y) = 0.02860 0.28119
# Poissons Ratio (z) = -0.03846 0.26370
#
# Static dielectric constant tensor:
#      x y z
#    x 3.177400 0.000000 0.000000 
#    y 0.000000 3.729570 0.000000 
#    z 0.000000 0.000000 3.650420 
# 
# 
# High freq. dielectric constant tensor:
#      x y z
#    x 1.777360 0.000000 0.000000 
#    y 0.000000 1.853420 0.000000 
#    z 0.000000 0.000000 1.845290 
# 
# From -- ./inp_files/2363.got.cif
#   From: 2010.03.12/outbox.cif.g09.slc.cpg/sg20_2_cif.got.tgz:2363.got - 2010.04.14 01:38:04.
