data_PCOD8158089
_publ_section_title
;
Structure prediction by ZEFSAII (Michael W. Deem and Ramdas Pophale) SiO2 
 PCOD8158089
Probable space group: C 2 2 21
;
_chemical_formula_sum "Si O2"
_cell_formula_units_Z 48
_cell_length_a 11.290828
_cell_length_b 11.451191
_cell_length_c 18.488504
_cell_angle_alpha 90.000000
_cell_angle_beta 90.000000
_cell_angle_gamma 90.000000
_cell_volume 2390.442060
_symmetry_space_group_name_H-M "C 2 2 21"
_symmetry_group_IT_number 20
_symmetry_cell_setting 'orthorhombic'
loop_
_space_group_symop_operation_xyz
x,y,z
-x,-y,1/2+z
x,-y,-z
-x,y,1/2-z
1/2+x,1/2+y,z
1/2-x,1/2-y,1/2+z
1/2+x,1/2-y,-z
1/2-x,1/2+y,1/2-z
loop_
_atom_site_type_symbol
_atom_site_label
_atom_site_fract_x
_atom_site_fract_y
_atom_site_fract_z
Si Si1 0.873894 0.323739 0.607130
Si Si2 0.360340 0.444176 0.927132
Si Si3 0.786104 0.041983 0.417963
Si Si4 0.064720 0.762861 0.948801
Si Si5 0.476560 0.406756 0.332996
Si Si6 0.973071 0.525652 0.915738
O O1 0.733759 0.356154 0.611793
O O2 0.907109 0.283037 0.527511
O O3 0.928314 0.225906 0.659674
O O4 0.937881 0.444145 0.628301
O O5 0.471729 0.368319 0.953106
O O6 0.404485 0.551807 0.876189
O O7 0.301701 0.500000 0.000000
O O8 0.812962 0.182108 0.416408
O O9 0.809363 0.000000 0.500000
O O10 0.657728 0.006397 0.389350
O O11 0.870109 0.985511 0.359519
O O12 0.010854 0.659321 0.899486
O O13 0.500000 0.432573 0.250000
O O14 0.981377 0.500000 0.000000
#
# Coordination Sequence:
#
# PCOD8158089 Si02
#       6
#     8   8   8   8   8   8
#     4  11  21  36  60  90 125 156 201 261 316 368
#     4  11  21  38  67  94 123 158 215 267 311 368
#     4  10  18  36  61  83 117 158 202 253 310 363
#     4  10  18  32  57  90 120 148 194 256 310 353
#     4  11  23  42  61  85 124 169 210 254 322 385
#     4   9  20  31  53  94 119 145 192 251 311 366
#
# _framework density 20.079968999999998
#
# number of rings (size 3 to 8) (size 9 to 14) (size 15 to 20)
#    0.000    1.667    3.333    3.500    4.667    1.333 
#    3.000    0.000    0.000    1.000    0.000    0.000 
#    0.000    0.000    0.000    0.000    0.000    0.000 
#
# Total GULP energy -297335.633404 kJ/mol
# GULP energy per Si atom -12388.984725 kJ/mol
# Density = 2.003427 g / cm^3
# Si number density = 20.079969 Si / 1000 Ang^3
#
#
#
# Elastic Constant Matrix: (Units=GPa)
#
#
# Indices 1 2 3 4 5 6 
#
# 1 100.8644 44.9920 25.6504 0.0000 0.0000 0.0000
# 2 44.9920 123.4770 18.2170 0.0000 0.0000 0.0000
# 3 25.6504 18.2170 67.1153 0.0000 0.0000 0.0000
# 4 0.0000 0.0000 0.0000 15.2416 0.0000 0.0000
# 5 0.0000 0.0000 0.0000 0.0000 4.5584 0.0000
# 6 0.0000 0.0000 0.0000 0.0000 0.0000 26.5495
#
#
#
# Elastic Compliance Matrix: (Units=1/GPa)
#
#
# Indices 1 2 3 4 5 6 
#
# 1 0.012681 -0.004068 -0.003742 0.000000 0.000000 0.000000
# 2 -0.004068 0.009742 -0.001089 0.000000 0.000000 0.000000
# 3 -0.003742 -0.001089 0.016626 0.000000 0.000000 0.000000
# 4 0.000000 0.000000 0.000000 0.065610 0.000000 0.000000
# 5 0.000000 0.000000 0.000000 0.000000 0.219377 0.000000
# 6 0.000000 0.000000 0.000000 0.000000 0.000000 0.037665
#
#
# Mechanical properties :
#
#
# Convention : Reuss Voigt Hill
#
# Bulk Modulus (GPa) = 47.06229 52.13060 49.59645
# Shear Modulus (GPa) = 12.93384 22.77638 17.85511
#
# Velocity S-wave (km/s) = 2.54070 3.37157 2.98518
# Velocity P-wave (km/s) = 5.66526 6.41673 6.05267
#
# Compressibility (1/GPa) = 0.02124843
#
# Stress axis : x y z
#
# Youngs Moduli (GPa) = 78.85978 102.65012 60.14833
#
# Poissons Ratio (x) = 0.41763 0.22508
# Poissons Ratio (y) = 0.32084 0.06552
# Poissons Ratio (z) = 0.29510 0.11182
#
# Static dielectric constant tensor:
#      x y z
#    x 3.971590 0.000000 0.000000 
#    y 0.000000 4.429330 0.000000 
#    z 0.000000 0.000000 3.061270 
# 
# 
# High freq. dielectric constant tensor:
#      x y z
#    x 1.794540 0.000000 0.000000 
#    y 0.000000 1.802510 0.000000 
#    z 0.000000 0.000000 1.717040 
# 
# From -- ./inp_files/24227.got.cif
#   From: 2010.03.12/outbox.cif.g09.slc.cpg/sg20_13_cif.got.tgz:24227.got - 2010.04.14 01:38:04.
