data_PCOD8158570
_publ_section_title
;
Structure prediction by ZEFSAII (Michael W. Deem and Ramdas Pophale) SiO2 
 PCOD8158570
Probable space group: C 2 2 21
;
_chemical_formula_sum "Si O2"
_cell_formula_units_Z 40
_cell_length_a 18.529502
_cell_length_b 5.205601
_cell_length_c 21.154672
_cell_angle_alpha 90.000000
_cell_angle_beta 90.000000
_cell_angle_gamma 90.000000
_cell_volume 2040.520304
_symmetry_space_group_name_H-M "C 2 2 21"
_symmetry_group_IT_number 20
_symmetry_cell_setting 'orthorhombic'
loop_
_space_group_symop_operation_xyz
x,y,z
-x,-y,1/2+z
x,-y,-z
-x,y,1/2-z
1/2+x,1/2+y,z
1/2-x,1/2-y,1/2+z
1/2+x,1/2-y,-z
1/2-x,1/2+y,1/2-z
loop_
_atom_site_type_symbol
_atom_site_label
_atom_site_fract_x
_atom_site_fract_y
_atom_site_fract_z
Si Si1 0.595065 0.066105 0.899423
Si Si2 0.974003 0.077701 0.565015
Si Si3 0.178826 0.505592 0.692697
Si Si4 0.738985 0.992995 0.167636
Si Si5 0.519877 0.840087 0.681575
O O1 0.584630 0.354849 0.923357
O O2 0.569281 0.843948 0.948445
O O3 0.679055 0.017290 0.886569
O O4 0.545659 0.032179 0.836192
O O5 0.016830 0.000000 0.500000
O O6 0.025325 0.116977 0.626808
O O7 0.211568 0.756035 0.658991
O O8 0.197546 0.506325 0.766176
O O9 0.093071 0.503103 0.683480
O O10 0.210743 0.253745 0.659764
O O11 0.500000 0.716741 0.750000
#
# Coordination Sequence:
#
# PCOD8158570 Si02
#       5
#     8   8   8   8   8
#     4  10  21  37  60  83 114 150 203 242 282 355
#     4  10  22  38  62  88 114 158 198 249 293 350
#     4  10  20  33  52  83 125 154 182 236 306 347
#     4  10  20  34  53  82 120 156 186 234 301 356
#     4  10  22  36  60  93 119 153 200 252 294 350
#
# _framework density 19.602841999999999
#
# number of rings (size 3 to 8) (size 9 to 14) (size 15 to 20)
#    1.200    0.800    2.000    1.800    2.800    2.400 
#    0.000    0.000    0.000    4.800    0.000    0.000 
#    0.000    0.000    0.000    0.000    0.000    0.000 
#
# Total GULP energy -247764.213329 kJ/mol
# GULP energy per Si atom -12388.210666 kJ/mol
# Density = 1.955822 g / cm^3
# Si number density = 19.602842 Si / 1000 Ang^3
#
#
#
# Elastic Constant Matrix: (Units=GPa)
#
#
# Indices 1 2 3 4 5 6 
#
# 1 93.2145 28.1888 17.0318 0.0000 0.0000 0.0000
# 2 28.1888 137.4468 19.9700 0.0000 0.0000 0.0000
# 3 17.0318 19.9700 75.9451 0.0000 0.0000 0.0000
# 4 0.0000 0.0000 0.0000 10.1115 0.0000 0.0000
# 5 0.0000 0.0000 0.0000 0.0000 16.6265 0.0000
# 6 0.0000 0.0000 0.0000 0.0000 0.0000 23.3827
#
#
#
# Elastic Compliance Matrix: (Units=1/GPa)
#
#
# Indices 1 2 3 4 5 6 
#
# 1 0.011745 -0.002107 -0.002080 0.000000 0.000000 0.000000
# 2 -0.002107 0.007942 -0.001616 0.000000 0.000000 0.000000
# 3 -0.002080 -0.001616 0.014059 0.000000 0.000000 0.000000
# 4 0.000000 0.000000 0.000000 0.098897 0.000000 0.000000
# 5 0.000000 0.000000 0.000000 0.000000 0.060145 0.000000
# 6 0.000000 0.000000 0.000000 0.000000 0.000000 0.042767
#
#
# Mechanical properties :
#
#
# Convention : Reuss Voigt Hill
#
# Bulk Modulus (GPa) = 45.16530 48.55420 46.85975
# Shear Modulus (GPa) = 19.64325 26.11854 22.88090
#
# Velocity S-wave (km/s) = 3.16897 3.65415 3.42017
# Velocity P-wave (km/s) = 6.03987 6.52889 6.28914
#
# Compressibility (1/GPa) = 0.02214089
#
# Stress axis : x y z
#
# Youngs Moduli (GPa) = 85.14229 125.90697 71.12962
#
# Poissons Ratio (x) = 0.26523 0.14796
# Poissons Ratio (y) = 0.17936 0.11495
# Poissons Ratio (z) = 0.17710 0.20347
#
# Static dielectric constant tensor:
#      x y z
#    x 3.302380 0.000000 0.000000 
#    y 0.000000 3.557120 0.000000 
#    z 0.000000 0.000000 3.432760 
# 
# 
# High freq. dielectric constant tensor:
#      x y z
#    x 1.743180 0.000000 0.000000 
#    y 0.000000 1.770490 0.000000 
#    z 0.000000 0.000000 1.741240 
# 
# From -- ./inp_files/26005.got.cif
#   From: 2010.03.12/outbox.cif.g09.slc.cpg/sg20_14_cif.got.tgz:26005.got - 2010.04.14 01:38:04.
