data_PCOD8158926
_publ_section_title
;
Structure prediction by ZEFSAII (Michael W. Deem and Ramdas Pophale) SiO2 
 PCOD8158926
Probable space group: C 2 2 21
;
_chemical_formula_sum "Si O2"
_cell_formula_units_Z 36
_cell_length_a 24.377903
_cell_length_b 10.189431
_cell_length_c 7.504853
_cell_angle_alpha 90.000000
_cell_angle_beta 90.000000
_cell_angle_gamma 90.000000
_cell_volume 1864.182675
_symmetry_space_group_name_H-M "C 2 2 21"
_symmetry_group_IT_number 20
_symmetry_cell_setting 'orthorhombic'
loop_
_space_group_symop_operation_xyz
x,y,z
-x,-y,1/2+z
x,-y,-z
-x,y,1/2-z
1/2+x,1/2+y,z
1/2-x,1/2-y,1/2+z
1/2+x,1/2-y,-z
1/2-x,1/2+y,1/2-z
loop_
_atom_site_type_symbol
_atom_site_label
_atom_site_fract_x
_atom_site_fract_y
_atom_site_fract_z
Si Si1 0.151678 0.091473 0.298145
Si Si2 0.500000 0.183277 0.250000
Si Si3 0.892414 0.820808 0.160134
Si Si4 0.250467 0.000000 0.500000
Si Si5 0.568173 0.000000 0.000000
Si Si6 0.654738 0.801202 0.007340
O O1 0.135312 0.187513 0.463574
O O2 0.211199 0.024715 0.330091
O O3 0.154244 0.166230 0.113362
O O4 0.107866 0.973281 0.278718
O O5 0.455687 0.274636 0.149615
O O6 0.470534 0.084900 0.379804
O O7 0.859127 0.728949 0.299955
O O8 0.286498 0.130132 0.528706
O O9 0.609072 0.103288 0.902856
#
# Coordination Sequence:
#
# PCOD8158926 Si02
#       6
#     8   4   8   4   4   8
#     4  10  22  39  59  88 116 151 193 232 289 349
#     4  10  20  40  60  82 118 150 192 240 288 344
#     4   9  21  40  56  88 118 144 195 239 276 349
#     4   9  22  36  60  90 114 150 198 227 286 350
#     4   9  22  36  60  88 112 152 196 231 288 352
#     4  10  20  41  58  85 122 148 187 245 281 336
#
# _framework density 19.311412000000001
#
# number of rings (size 3 to 8) (size 9 to 14) (size 15 to 20)
#    0.000    2.667    0.000    0.667    9.333    0.000 
#   16.000    0.000    0.000    0.000    0.000    0.000 
#    0.000    0.000    0.000    0.000    0.000    0.000 
#
# Total GULP energy -223054.912707 kJ/mol
# GULP energy per Si atom -12391.939595 kJ/mol
# Density = 1.926746 g / cm^3
# Si number density = 19.311412 Si / 1000 Ang^3
#
#
#
# Elastic Constant Matrix: (Units=GPa)
#
#
# Indices 1 2 3 4 5 6 
#
# 1 130.4822 50.9090 32.5009 0.0000 0.0000 0.0000
# 2 50.9090 99.3022 24.3938 0.0000 0.0000 0.0000
# 3 32.5009 24.3938 54.6630 0.0000 0.0000 0.0000
# 4 0.0000 0.0000 0.0000 -9.0579 0.0000 0.0000
# 5 0.0000 0.0000 0.0000 0.0000 10.7582 0.0000
# 6 0.0000 0.0000 0.0000 0.0000 0.0000 50.6579
#
#
#
# Elastic Compliance Matrix: (Units=1/GPa)
#
#
# Indices 1 2 3 4 5 6 
#
# 1 0.010398 -0.004282 -0.004272 0.000000 0.000000 0.000000
# 2 -0.004282 0.013073 -0.003288 0.000000 0.000000 0.000000
# 3 -0.004272 -0.003288 0.022301 0.000000 0.000000 0.000000
# 4 0.000000 0.000000 0.000000 -0.110400 0.000000 0.000000
# 5 0.000000 0.000000 0.000000 0.000000 0.092953 0.000000
# 6 0.000000 0.000000 0.000000 0.000000 0.000000 0.019740
#
#
# Mechanical properties :
#
#
# Convention : Reuss Voigt Hill
#
# Bulk Modulus (GPa) = 45.27078 55.56163 50.41621
# Shear Modulus (GPa) = 63.20182 22.24788 42.72485
#
# Velocity S-wave (km/s) = 5.72702 3.39788 4.70873
# Velocity P-wave (km/s) = 8.19909 6.65041 7.46502
#
# Compressibility (1/GPa) = 0.02208930
#
# Stress axis : x y z
#
# Youngs Moduli (GPa) = 96.16841 76.49329 44.84050
#
# Poissons Ratio (x) = 0.32751 0.19155
# Poissons Ratio (y) = 0.41175 0.14745
# Poissons Ratio (z) = 0.41082 0.25153
#
# Static dielectric constant tensor:
#      x y z
#    x 5.739920 0.000000 0.000000 
#    y 0.000000 3.765910 0.000000 
#    z 0.000000 0.000000 3.240030 
# 
# 
# High freq. dielectric constant tensor:
#      x y z
#    x 1.758970 0.000000 0.000000 
#    y 0.000000 1.763670 0.000000 
#    z 0.000000 0.000000 1.726650 
# 
# From -- ./inp_files/10944.got.cif
#   From: 2010.03.12/outbox.cif.g09.slc.cpg/sg20_6_cif.got.tgz:10944.got - 2010.04.14 01:38:04.
