data_PCOD8158059
_publ_section_title
;
Structure prediction by ZEFSAII (Michael W. Deem and Ramdas Pophale) SiO2 
 PCOD8158059
Probable space group: C 2 2 21
;
_chemical_formula_sum "Si O2"
_cell_formula_units_Z 32
_cell_length_a 8.776392
_cell_length_b 30.038786
_cell_length_c 5.314271
_cell_angle_alpha 90.000000
_cell_angle_beta 90.000000
_cell_angle_gamma 90.000000
_cell_volume 1401.012749
_symmetry_space_group_name_H-M "C 2 2 21"
_symmetry_group_IT_number 20
_symmetry_cell_setting 'orthorhombic'
loop_
_space_group_symop_operation_xyz
x,y,z
-x,-y,1/2+z
x,-y,-z
-x,y,1/2-z
1/2+x,1/2+y,z
1/2-x,1/2-y,1/2+z
1/2+x,1/2-y,-z
1/2-x,1/2+y,1/2-z
loop_
_atom_site_type_symbol
_atom_site_label
_atom_site_fract_x
_atom_site_fract_y
_atom_site_fract_z
Si Si1 0.681333 0.588596 0.999993
Si Si2 0.599362 0.224311 0.999353
Si Si3 0.672050 0.317726 0.818553
Si Si4 0.655452 0.551820 0.499775
O O1 0.727221 0.640751 0.012503
O O2 0.750068 0.564406 0.248790
O O3 0.751703 0.566555 0.747119
O O4 0.499608 0.580329 0.998490
O O5 0.500000 0.226169 0.250000
O O6 0.729275 0.187294 0.059568
O O7 0.500000 0.212590 0.750000
O O8 0.684982 0.271834 0.974712
O O9 0.500000 0.327913 0.750000
O O10 0.614714 0.500000 0.500000
#
# Coordination Sequence:
#
# PCOD8158059 Si02
#       4
#     8   8   8   8
#     4  10  19  29  51  79 109 158 203 245 295 398
#     4  11  26  42  60  87 128 170 214 290 337 379
#     4  11  22  40  63  88 117 166 231 268 323 385
#     4  10  18  31  47  80 126 160 181 251 333 390
#
# _framework density 22.840622
#
# number of rings (size 3 to 8) (size 9 to 14) (size 15 to 20)
#    0.000    1.500    2.500    6.750    3.500    4.000 
#    0.000    0.000    0.000    0.000    0.000    0.000 
#    0.000    8.000    0.000    3.000    0.000    0.500 
#
# Total GULP energy -198233.153274 kJ/mol
# GULP energy per Si atom -12389.572080 kJ/mol
# Density = 2.278864 g / cm^3
# Si number density = 22.840622 Si / 1000 Ang^3
#
#
#
# Elastic Constant Matrix: (Units=GPa)
#
#
# Indices 1 2 3 4 5 6 
#
# 1 55.3128 28.9972 38.8582 0.0000 0.0000 0.0000
# 2 28.9972 155.5841 68.7941 0.0000 0.0000 0.0000
# 3 38.8582 68.7941 236.9308 0.0000 0.0000 0.0000
# 4 0.0000 0.0000 0.0000 44.7845 0.0000 0.0000
# 5 0.0000 0.0000 0.0000 0.0000 19.9075 0.0000
# 6 0.0000 0.0000 0.0000 0.0000 0.0000 22.2334
#
#
#
# Elastic Compliance Matrix: (Units=1/GPa)
#
#
# Indices 1 2 3 4 5 6 
#
# 1 0.021447 -0.002802 -0.002704 0.000000 0.000000 0.000000
# 2 -0.002802 0.007740 -0.001788 0.000000 0.000000 0.000000
# 3 -0.002704 -0.001788 0.005183 0.000000 0.000000 0.000000
# 4 0.000000 0.000000 0.000000 0.022329 0.000000 0.000000
# 5 0.000000 0.000000 0.000000 0.000000 0.050232 0.000000
# 6 0.000000 0.000000 0.000000 0.000000 0.000000 0.044977
#
#
# Mechanical properties :
#
#
# Convention : Reuss Voigt Hill
#
# Bulk Modulus (GPa) = 50.54701 80.12518 65.33609
# Shear Modulus (GPa) = 28.88650 38.13029 33.50840
#
# Velocity S-wave (km/s) = 3.56012 4.09027 3.83437
# Velocity P-wave (km/s) = 6.25121 7.58046 6.94770
#
# Compressibility (1/GPa) = 0.01978356
#
# Stress axis : x y z
#
# Youngs Moduli (GPa) = 46.62575 129.19730 192.92944
#
# Poissons Ratio (x) = 0.36197 0.52169
# Poissons Ratio (y) = 0.13063 0.34494
# Poissons Ratio (z) = 0.12608 0.23099
#
# Static dielectric constant tensor:
#      x y z
#    x 3.710290 0.000000 0.000000 
#    y 0.000000 4.052180 0.000000 
#    z 0.000000 0.000000 5.214000 
# 
# 
# High freq. dielectric constant tensor:
#      x y z
#    x 1.823680 0.000000 0.000000 
#    y 0.000000 1.899020 0.000000 
#    z 0.000000 0.000000 1.934660 
# 
# From -- ./inp_files/555.got.cif
#   From: 2010.03.12/outbox.cif.g09.slc.cpg/sg20_1_cif.got.tgz:555.got - 2010.04.14 01:38:04.
