data_PCOD8158475
_publ_section_title
;
Structure prediction by ZEFSAII (Michael W. Deem and Ramdas Pophale) SiO2 
 PCOD8158475
Probable space group: C 2 2 21
;
_chemical_formula_sum "Si O2"
_cell_formula_units_Z 64
_cell_length_a 15.261870
_cell_length_b 8.922567
_cell_length_c 23.690948
_cell_angle_alpha 90.000000
_cell_angle_beta 90.000000
_cell_angle_gamma 90.000000
_cell_volume 3226.116209
_symmetry_space_group_name_H-M "C 2 2 21"
_symmetry_group_IT_number 20
_symmetry_cell_setting 'orthorhombic'
loop_
_space_group_symop_operation_xyz
x,y,z
-x,-y,1/2+z
x,-y,-z
-x,y,1/2-z
1/2+x,1/2+y,z
1/2-x,1/2-y,1/2+z
1/2+x,1/2-y,-z
1/2-x,1/2+y,1/2-z
loop_
_atom_site_type_symbol
_atom_site_label
_atom_site_fract_x
_atom_site_fract_y
_atom_site_fract_z
Si Si1 0.097359 0.826263 0.384885
Si Si2 0.335286 0.828653 0.498702
Si Si3 0.912798 0.821805 0.891796
Si Si4 0.248972 0.301604 0.817585
Si Si5 0.844763 0.676762 0.000181
Si Si6 0.411042 0.825731 0.376876
Si Si7 0.420831 0.827769 0.613528
Si Si8 0.750301 0.848908 0.198566
O O1 0.128313 0.737485 0.439332
O O2 0.164662 0.790157 0.334670
O O3 0.002610 0.768954 0.365063
O O4 0.094681 0.000984 0.399200
O O5 0.254809 0.721131 0.513482
O O6 0.374532 0.785746 0.438563
O O7 0.409767 0.807263 0.546105
O O8 0.300285 0.000000 0.500000
O O9 0.835497 0.758722 0.852491
O O10 0.005092 0.776960 0.863432
O O11 0.908487 0.745459 0.953017
O O12 0.164937 0.264736 0.855671
O O13 0.245315 0.201336 0.762519
O O14 0.249419 0.473315 0.800368
O O15 0.856232 0.500000 0.000000
O O16 0.336839 0.784892 0.331287
O O17 0.438014 0.999070 0.372143
#
# Coordination Sequence:
#
# PCOD8158475 Si02
#       8
#     8   8   8   8   8   8   8   8
#     4  11  23  41  63  90 123 160 200 247 303 359
#     4  10  19  38  63  86 124 160 193 243 302 359
#     4  11  23  41  63  90 123 160 200 247 303 359
#     4  10  23  42  63  86 120 162 204 252 303 352
#     4  12  23  36  61  94 124 158 199 243 298 363
#     4  10  21  39  63  91 122 160 200 246 303 359
#     4  10  21  39  63  91 122 160 200 246 303 359
#     4  10  23  42  63  86 120 162 204 252 303 352
#
# _framework density 19.838097000000001
#
# number of rings (size 3 to 8) (size 9 to 14) (size 15 to 20)
#    0.000    1.500    2.500    2.625    0.000    6.000 
#    0.000    5.000    0.000    0.000    0.000    0.000 
#    0.000    0.000    0.000    0.000    0.000    0.000 
#
# Total GULP energy -396989.295732 kJ/mol
# GULP energy per Si atom -12405.915492 kJ/mol
# Density = 1.979294 g / cm^3
# Si number density = 19.838097 Si / 1000 Ang^3
#
#
#
# Elastic Constant Matrix: (Units=GPa)
#
#
# Indices 1 2 3 4 5 6 
#
# 1 106.5227 33.9865 14.7900 0.0000 0.0000 0.0000
# 2 33.9865 67.6876 25.5737 0.0000 0.0000 0.0000
# 3 14.7900 25.5737 87.7262 0.0000 0.0000 0.0000
# 4 0.0000 0.0000 0.0000 32.0620 0.0000 0.0000
# 5 0.0000 0.0000 0.0000 0.0000 16.0220 0.0000
# 6 0.0000 0.0000 0.0000 0.0000 0.0000 36.5466
#
#
#
# Elastic Compliance Matrix: (Units=1/GPa)
#
#
# Indices 1 2 3 4 5 6 
#
# 1 0.011185 -0.005510 -0.000279 0.000000 0.000000 0.000000
# 2 -0.005510 0.019317 -0.004702 0.000000 0.000000 0.000000
# 3 -0.000279 -0.004702 0.012817 0.000000 0.000000 0.000000
# 4 0.000000 0.000000 0.000000 0.031190 0.000000 0.000000
# 5 0.000000 0.000000 0.000000 0.000000 0.062414 0.000000
# 6 0.000000 0.000000 0.000000 0.000000 0.000000 0.027362
#
#
# Mechanical properties :
#
#
# Convention : Reuss Voigt Hill
#
# Bulk Modulus (GPa) = 44.77298 45.62631 45.19964
# Shear Modulus (GPa) = 25.94527 29.43189 27.68858
#
# Velocity S-wave (km/s) = 3.62035 3.85594 3.74000
# Velocity P-wave (km/s) = 6.33199 6.54779 6.44079
#
# Compressibility (1/GPa) = 0.02233490
#
# Stress axis : x y z
#
# Youngs Moduli (GPa) = 89.40920 51.76752 78.02149
#
# Poissons Ratio (x) = 0.28526 0.02179
# Poissons Ratio (y) = 0.49267 0.36688
# Poissons Ratio (z) = 0.02497 0.24343
#
# Static dielectric constant tensor:
#      x y z
#    x 3.811480 0.000000 0.000000 
#    y 0.000000 3.540030 0.000000 
#    z 0.000000 0.000000 3.574240 
# 
# 
# High freq. dielectric constant tensor:
#      x y z
#    x 1.787150 0.000000 0.000000 
#    y 0.000000 1.766240 0.000000 
#    z 0.000000 0.000000 1.771800 
# 
# From -- ./inp_files/29372.got.cif
#   From: 2010.03.12/outbox.cif.g09.slc.cpg/sg20_15_cif.got.tgz:29372.got - 2010.04.14 01:38:04.
