data_PCOD8158370
_publ_section_title
;
Structure prediction by ZEFSAII (Michael W. Deem and Ramdas Pophale) SiO2 
 PCOD8158370
Probable space group: C 2 2 21
;
_chemical_formula_sum "Si O2"
_cell_formula_units_Z 56
_cell_length_a 5.083984
_cell_length_b 31.641576
_cell_length_c 16.853941
_cell_angle_alpha 90.000000
_cell_angle_beta 90.000000
_cell_angle_gamma 90.000000
_cell_volume 2711.213704
_symmetry_space_group_name_H-M "C 2 2 21"
_symmetry_group_IT_number 20
_symmetry_cell_setting 'orthorhombic'
loop_
_space_group_symop_operation_xyz
x,y,z
-x,-y,1/2+z
x,-y,-z
-x,y,1/2-z
1/2+x,1/2+y,z
1/2-x,1/2-y,1/2+z
1/2+x,1/2-y,-z
1/2-x,1/2+y,1/2-z
loop_
_atom_site_type_symbol
_atom_site_label
_atom_site_fract_x
_atom_site_fract_y
_atom_site_fract_z
Si Si1 0.498017 0.484135 0.656182
Si Si2 0.450491 0.129118 0.901075
Si Si3 0.498686 0.964297 0.344338
Si Si4 0.023349 0.110863 0.156041
Si Si5 0.442387 0.674791 0.840683
Si Si6 0.989928 0.745321 0.052007
Si Si7 0.024965 0.349058 0.917026
O O1 0.500000 0.481755 0.750000
O O2 0.227088 0.504347 0.627101
O O3 0.526529 0.436569 0.623543
O O4 0.732177 0.513823 0.625713
O O5 0.463981 0.079247 0.889657
O O6 0.662759 0.151515 0.844846
O O7 0.159835 0.144707 0.879770
O O8 0.515690 0.139889 0.990993
O O9 0.500000 0.956268 0.250000
O O10 0.816296 0.141604 0.114489
O O11 0.000000 0.113890 0.250000
O O12 0.316983 0.124159 0.132915
O O13 0.500000 0.684263 0.750000
O O14 0.422536 0.719356 0.884097
O O15 0.968724 0.700399 0.095549
O O16 0.783954 0.747758 0.980025
#
# Coordination Sequence:
#
# PCOD8158370 Si02
#       7
#     8   8   8   8   8   8   8
#     4   9  19  37  60  86 123 167 208 257 319 366
#     4  12  24  41  63  96 134 169 208 259 322 384
#     4  10  19  35  60  89 122 167 213 255 305 375
#     4  11  24  43  66  94 125 164 220 274 312 371
#     4  12  24  41  66  97 129 167 215 266 310 369
#     4  12  23  45  67  91 128 172 211 251 321 391
#     4  12  24  42  68  93 127 171 211 255 333 386
#
# _framework density 20.654958000000001
#
# number of rings (size 3 to 8) (size 9 to 14) (size 15 to 20)
#    0.000    0.857    2.857    5.143    0.000    4.571 
#    0.000    4.286    0.000    0.000    0.000    0.000 
#    0.000    0.000    0.000    0.000    0.000    0.000 
#
# Total GULP energy -347397.693044 kJ/mol
# GULP energy per Si atom -12407.060466 kJ/mol
# Density = 2.060795 g / cm^3
# Si number density = 20.654958 Si / 1000 Ang^3
#
#
#
# Elastic Constant Matrix: (Units=GPa)
#
#
# Indices 1 2 3 4 5 6 
#
# 1 93.4654 15.6141 2.9673 0.0000 0.0000 0.0000
# 2 15.6141 133.6127 5.1454 0.0000 0.0000 0.0000
# 3 2.9673 5.1454 50.8101 0.0000 0.0000 0.0000
# 4 0.0000 0.0000 0.0000 -14.3446 0.0000 0.0000
# 5 0.0000 0.0000 0.0000 0.0000 32.4680 0.0000
# 6 0.0000 0.0000 0.0000 0.0000 0.0000 34.3289
#
#
#
# Elastic Compliance Matrix: (Units=1/GPa)
#
#
# Indices 1 2 3 4 5 6 
#
# 1 0.010925 -0.001257 -0.000511 0.000000 0.000000 0.000000
# 2 -0.001257 0.007658 -0.000702 0.000000 0.000000 0.000000
# 3 -0.000511 -0.000702 0.019782 0.000000 0.000000 0.000000
# 4 0.000000 0.000000 0.000000 -0.069713 0.000000 0.000000
# 5 0.000000 0.000000 0.000000 0.000000 0.030800 0.000000
# 6 0.000000 0.000000 0.000000 0.000000 0.000000 0.029130
#
#
# Mechanical properties :
#
#
# Convention : Reuss Voigt Hill
#
# Bulk Modulus (GPa) = 29.91703 36.14911 33.03307
# Shear Modulus (GPa) = 111.94605 27.43455 69.69030
#
# Velocity S-wave (km/s) = 7.36993 3.64844 5.81494
# Velocity P-wave (km/s) = 9.32399 5.94034 7.81743
#
# Compressibility (1/GPa) = 0.03342578
#
# Stress axis : x y z
#
# Youngs Moduli (GPa) = 91.53012 130.57796 50.55090
#
# Poissons Ratio (x) = 0.16415 0.02582
# Poissons Ratio (y) = 0.11506 0.03549
# Poissons Ratio (z) = 0.04675 0.09168
#
# Static dielectric constant tensor:
#      x y z
#    x 4.277490 0.000000 0.000000 
#    y 0.000000 3.961800 0.000000 
#    z 0.000000 0.000000 3.619420 
# 
# 
# High freq. dielectric constant tensor:
#      x y z
#    x 1.827480 0.000000 0.000000 
#    y 0.000000 1.826170 0.000000 
#    z 0.000000 0.000000 1.791640 
# 
# From -- ./inp_files/17961.got.cif
#   From: 2010.03.12/outbox.cif.g09.slc.cpg/sg20_9_cif.got.tgz:17961.got - 2010.04.14 01:38:04.
