data_PCOD8158898
_publ_section_title
;
Structure prediction by ZEFSAII (Michael W. Deem and Ramdas Pophale) SiO2 
 PCOD8158898
Probable space group: C 2 2 21
;
_chemical_formula_sum "Si O2"
_cell_formula_units_Z 48
_cell_length_a 21.255181
_cell_length_b 8.543145
_cell_length_c 13.094392
_cell_angle_alpha 90.000000
_cell_angle_beta 90.000000
_cell_angle_gamma 90.000000
_cell_volume 2377.759487
_symmetry_space_group_name_H-M "C 2 2 21"
_symmetry_group_IT_number 20
_symmetry_cell_setting 'orthorhombic'
loop_
_space_group_symop_operation_xyz
x,y,z
-x,-y,1/2+z
x,-y,-z
-x,y,1/2-z
1/2+x,1/2+y,z
1/2-x,1/2-y,1/2+z
1/2+x,1/2-y,-z
1/2-x,1/2+y,1/2-z
loop_
_atom_site_type_symbol
_atom_site_label
_atom_site_fract_x
_atom_site_fract_y
_atom_site_fract_z
Si Si1 0.297349 0.027097 0.688657
Si Si2 0.071031 0.889484 0.224010
Si Si3 0.105901 0.352316 0.941438
Si Si4 0.347560 0.649392 0.379421
Si Si5 0.786369 0.583998 0.094973
Si Si6 0.669074 0.585119 0.603851
O O1 0.321865 0.205913 0.688944
O O2 0.222087 0.996918 0.672680
O O3 0.329769 0.927057 0.600086
O O4 0.318459 0.961793 0.798468
O O5 0.070143 0.732232 0.153043
O O6 0.108899 0.864347 0.329670
O O7 0.000000 0.930524 0.250000
O O8 0.099598 0.045403 0.174143
O O9 0.070043 0.500000 0.000000
O O10 0.120729 0.212368 0.017877
O O11 0.287752 0.538995 0.402846
O O12 0.792767 0.764449 0.067941
O O13 0.820168 0.500000 0.000000
O O14 0.647081 0.500000 0.500000
#
# Coordination Sequence:
#
# PCOD8158898 Si02
#       6
#     8   8   8   8   8   8
#     4  10  20  39  64  95 125 161 202 263 325 383
#     4  12  25  42  63  90 127 170 214 259 310 371
#     4  10  21  43  67  91 122 164 216 257 311 381
#     4  10  22  36  66  92 124 163 206 256 313 386
#     4  11  21  34  63  97 127 158 201 256 331 385
#     4  11  24  38  60  94 132 160 199 262 325 379
#
# _framework density 20.187069999999999
#
# number of rings (size 3 to 8) (size 9 to 14) (size 15 to 20)
#    0.000    1.333    3.333    4.000    2.333    1.333 
#    0.000    4.167    0.000    0.000    0.000    0.000 
#    0.000    0.000    0.000    0.000    0.000    0.000 
#
# Total GULP energy -297415.214211 kJ/mol
# GULP energy per Si atom -12392.300592 kJ/mol
# Density = 2.014112 g / cm^3
# Si number density = 20.187070 Si / 1000 Ang^3
#
#
#
# Elastic Constant Matrix: (Units=GPa)
#
#
# Indices 1 2 3 4 5 6 
#
# 1 99.7427 33.6076 27.9259 0.0000 0.0000 0.0000
# 2 33.6076 80.9107 48.1247 0.0000 0.0000 0.0000
# 3 27.9259 48.1247 135.7907 0.0000 0.0000 0.0000
# 4 0.0000 0.0000 0.0000 47.2510 0.0000 0.0000
# 5 0.0000 0.0000 0.0000 0.0000 16.6004 0.0000
# 6 0.0000 0.0000 0.0000 0.0000 0.0000 19.9868
#
#
#
# Elastic Compliance Matrix: (Units=1/GPa)
#
#
# Indices 1 2 3 4 5 6 
#
# 1 0.011738 -0.004358 -0.000869 0.000000 0.000000 0.000000
# 2 -0.004358 0.017279 -0.005227 0.000000 0.000000 0.000000
# 3 -0.000869 -0.005227 0.009396 0.000000 0.000000 0.000000
# 4 0.000000 0.000000 0.000000 0.021164 0.000000 0.000000
# 5 0.000000 0.000000 0.000000 0.000000 0.060240 0.000000
# 6 0.000000 0.000000 0.000000 0.000000 0.000000 0.050033
#
#
# Mechanical properties :
#
#
# Convention : Reuss Voigt Hill
#
# Bulk Modulus (GPa) = 57.13606 59.52896 58.33251
# Shear Modulus (GPa) = 25.43333 30.55336 27.99334
#
# Velocity S-wave (km/s) = 3.55333 3.89461 3.72788
# Velocity P-wave (km/s) = 6.72307 7.05526 6.89116
#
# Compressibility (1/GPa) = 0.01750208
#
# Stress axis : x y z
#
# Youngs Moduli (GPa) = 85.19544 57.87435 106.43240
#
# Poissons Ratio (x) = 0.25224 0.09252
# Poissons Ratio (y) = 0.37132 0.55636
# Poissons Ratio (z) = 0.07406 0.30253
#
# Static dielectric constant tensor:
#      x y z
#    x 3.184160 0.000000 0.000000 
#    y 0.000000 3.764640 0.000000 
#    z 0.000000 0.000000 3.810070 
# 
# 
# High freq. dielectric constant tensor:
#      x y z
#    x 1.735970 0.000000 0.000000 
#    y 0.000000 1.797730 0.000000 
#    z 0.000000 0.000000 1.806510 
# 
# From -- ./inp_files/16643.got.cif
#   From: 2010.03.12/outbox.cif.g09.slc.cpg/sg20_9_cif.got.tgz:16643.got - 2010.04.14 01:38:04.
