data_PCOD8158186
_publ_section_title
;
Structure prediction by ZEFSAII (Michael W. Deem and Ramdas Pophale) SiO2 
 PCOD8158186
Probable space group: C 2 2 21
;
_chemical_formula_sum "Si O2"
_cell_formula_units_Z 36
_cell_length_a 13.892101
_cell_length_b 9.734177
_cell_length_c 14.110045
_cell_angle_alpha 90.000000
_cell_angle_beta 90.000000
_cell_angle_gamma 90.000000
_cell_volume 1908.075564
_symmetry_space_group_name_H-M "C 2 2 21"
_symmetry_group_IT_number 20
_symmetry_cell_setting 'orthorhombic'
loop_
_space_group_symop_operation_xyz
x,y,z
-x,-y,1/2+z
x,-y,-z
-x,y,1/2-z
1/2+x,1/2+y,z
1/2-x,1/2-y,1/2+z
1/2+x,1/2-y,-z
1/2-x,1/2+y,1/2-z
loop_
_atom_site_type_symbol
_atom_site_label
_atom_site_fract_x
_atom_site_fract_y
_atom_site_fract_z
Si Si1 0.499191 0.721636 0.355183
Si Si2 0.788051 0.773235 0.856401
Si Si3 0.326853 0.850059 0.468463
Si Si4 0.794542 0.918996 0.205454
Si Si5 0.500000 0.461823 0.250000
O O1 0.500000 0.793192 0.250000
O O2 0.605078 0.741410 0.400467
O O3 0.420559 0.780093 0.425685
O O4 0.476397 0.559403 0.340868
O O5 0.783488 0.915302 0.795653
O O6 0.770574 0.644547 0.787893
O O7 0.710530 0.766788 0.940515
O O8 0.360117 0.000000 0.500000
O O9 0.238932 0.857515 0.394595
O O10 0.905469 0.872340 0.225108
#
# Coordination Sequence:
#
# PCOD8158186 Si02
#       5
#     8   8   8   8   4
#     4   9  17  38  58  76 114 158 181 225 302 333
#     4  10  21  35  62  81 113 150 193 233 285 340
#     4  10  20  34  58  84 114 149 196 232 282 343
#     4  10  18  38  53  84 111 151 186 235 286 334
#     4   8  18  32  62  76 106 152 184 228 292 328
#
# _framework density 18.867179
#
# number of rings (size 3 to 8) (size 9 to 14) (size 15 to 20)
#    0.667    1.778    2.222    0.000    0.000    1.778 
#    0.000   15.556    0.000    0.000    0.000    0.000 
#    0.000    0.000    0.000    0.000    0.000    0.000 
#
# Total GULP energy -223062.896663 kJ/mol
# GULP energy per Si atom -12392.383148 kJ/mol
# Density = 1.882424 g / cm^3
# Si number density = 18.867179 Si / 1000 Ang^3
#
#
#
# Elastic Constant Matrix: (Units=GPa)
#
#
# Indices 1 2 3 4 5 6 
#
# 1 123.6586 47.7501 45.0689 0.0000 0.0000 0.0000
# 2 47.7501 47.0206 29.4307 0.0000 0.0000 0.0000
# 3 45.0689 29.4307 78.8321 0.0000 0.0000 0.0000
# 4 0.0000 0.0000 0.0000 16.3261 0.0000 0.0000
# 5 0.0000 0.0000 0.0000 0.0000 43.7136 0.0000
# 6 0.0000 0.0000 0.0000 0.0000 0.0000 22.5525
#
#
#
# Elastic Compliance Matrix: (Units=1/GPa)
#
#
# Indices 1 2 3 4 5 6 
#
# 1 0.014015 -0.012028 -0.003522 0.000000 0.000000 0.000000
# 2 -0.012028 0.038075 -0.007338 0.000000 0.000000 0.000000
# 3 -0.003522 -0.007338 0.017438 0.000000 0.000000 0.000000
# 4 0.000000 0.000000 0.000000 0.061252 0.000000 0.000000
# 5 0.000000 0.000000 0.000000 0.000000 0.022876 0.000000
# 6 0.000000 0.000000 0.000000 0.000000 0.000000 0.044341
#
#
# Mechanical properties :
#
#
# Convention : Reuss Voigt Hill
#
# Bulk Modulus (GPa) = 42.10186 54.89008 48.49597
# Shear Modulus (GPa) = 19.86567 25.00255 22.43411
#
# Velocity S-wave (km/s) = 3.24840 3.64426 3.45201
# Velocity P-wave (km/s) = 6.03596 6.84570 6.45354
#
# Compressibility (1/GPa) = 0.02375192
#
# Stress axis : x y z
#
# Youngs Moduli (GPa) = 71.35235 26.26401 57.34488
#
# Poissons Ratio (x) = 0.31590 0.20197
# Poissons Ratio (y) = 0.85822 0.42081
# Poissons Ratio (z) = 0.25130 0.19273
#
# Static dielectric constant tensor:
#      x y z
#    x 3.485230 0.000000 0.000000 
#    y 0.000000 3.196840 0.000000 
#    z 0.000000 0.000000 3.374750 
# 
# 
# High freq. dielectric constant tensor:
#      x y z
#    x 1.744780 0.000000 0.000000 
#    y 0.000000 1.698320 0.000000 
#    z 0.000000 0.000000 1.722170 
# 
# From -- ./inp_files/20454.got.cif
#   From: 2010.03.12/outbox.cif.g09.slc.cpg/sg20_11_cif.got.tgz:20454.got - 2010.04.14 01:38:04.
