data_PCOD8158532
_publ_section_title
;
Structure prediction by ZEFSAII (Michael W. Deem and Ramdas Pophale) SiO2 
 PCOD8158532
Probable space group: C 2 2 21
;
_chemical_formula_sum "Si O2"
_cell_formula_units_Z 48
_cell_length_a 9.293008
_cell_length_b 17.920876
_cell_length_c 14.359172
_cell_angle_alpha 90.000000
_cell_angle_beta 90.000000
_cell_angle_gamma 90.000000
_cell_volume 2391.359906
_symmetry_space_group_name_H-M "C 2 2 21"
_symmetry_group_IT_number 20
_symmetry_cell_setting 'orthorhombic'
loop_
_space_group_symop_operation_xyz
x,y,z
-x,-y,1/2+z
x,-y,-z
-x,y,1/2-z
1/2+x,1/2+y,z
1/2-x,1/2-y,1/2+z
1/2+x,1/2-y,-z
1/2-x,1/2+y,1/2-z
loop_
_atom_site_type_symbol
_atom_site_label
_atom_site_fract_x
_atom_site_fract_y
_atom_site_fract_z
Si Si1 0.104348 0.921452 0.023272
Si Si2 0.149631 0.683532 0.852805
Si Si3 0.338715 0.875302 0.152857
Si Si4 0.340801 0.030430 0.234847
Si Si5 0.614535 0.351511 0.833757
Si Si6 0.799244 0.047793 0.912637
O O1 0.213077 0.864829 0.075989
O O2 0.971969 0.943742 0.090828
O O3 0.043745 0.883911 0.928239
O O4 0.183621 0.000000 0.000000
O O5 0.206288 0.659265 0.751211
O O6 0.178450 0.771037 0.861300
O O7 0.239532 0.632373 0.923916
O O8 0.983337 0.666862 0.876362
O O9 0.365001 0.963835 0.161258
O O10 0.500000 0.064025 0.250000
O O11 0.259766 0.995872 0.323428
O O12 0.247511 0.097134 0.193970
O O13 0.500000 0.345549 0.750000
O O14 0.746976 0.000000 0.000000
#
# Coordination Sequence:
#
# PCOD8158532 Si02
#       6
#     8   8   8   8   8   8
#     4  11  23  38  65 101 127 167 226 275 324 393
#     4  10  22  42  66  89 133 182 207 278 340 388
#     4  10  19  42  65  90 125 174 218 257 333 396
#     4  11  22  41  68  94 127 178 227 270 331 399
#     4  12  24  43  66  95 140 174 215 279 347 391
#     4  10  22  42  64  97 126 169 230 272 319 397
#
# _framework density 20.072261999999998
#
# number of rings (size 3 to 8) (size 9 to 14) (size 15 to 20)
#    0.000    1.333    6.667    2.000    0.000    5.333 
#    6.000    0.000    0.000    0.000    0.000    0.000 
#    0.000    0.000    0.000    0.000    0.000    0.000 
#
# Total GULP energy -297449.312340 kJ/mol
# GULP energy per Si atom -12393.721348 kJ/mol
# Density = 2.002658 g / cm^3
# Si number density = 20.072262 Si / 1000 Ang^3
#
#
#
# Elastic Constant Matrix: (Units=GPa)
#
#
# Indices 1 2 3 4 5 6 
#
# 1 92.5137 34.3138 49.5411 0.0000 0.0000 0.0000
# 2 34.3138 145.6491 27.5380 0.0000 0.0000 0.0000
# 3 49.5411 27.5380 82.8352 0.0000 0.0000 0.0000
# 4 0.0000 0.0000 0.0000 27.2605 0.0000 0.0000
# 5 0.0000 0.0000 0.0000 0.0000 35.6975 0.0000
# 6 0.0000 0.0000 0.0000 0.0000 0.0000 30.8308
#
#
#
# Elastic Compliance Matrix: (Units=1/GPa)
#
#
# Indices 1 2 3 4 5 6 
#
# 1 0.016515 -0.002159 -0.009159 0.000000 0.000000 0.000000
# 2 -0.002159 0.007609 -0.001238 0.000000 0.000000 0.000000
# 3 -0.009159 -0.001238 0.017962 0.000000 0.000000 0.000000
# 4 0.000000 0.000000 0.000000 0.036683 0.000000 0.000000
# 5 0.000000 0.000000 0.000000 0.000000 0.028013 0.000000
# 6 0.000000 0.000000 0.000000 0.000000 0.000000 0.032435
#
#
# Mechanical properties :
#
#
# Convention : Reuss Voigt Hill
#
# Bulk Modulus (GPa) = 58.92005 60.42042 59.67023
# Shear Modulus (GPa) = 29.41410 32.73143 31.07276
#
# Velocity S-wave (km/s) = 3.83222 4.04255 3.93879
# Velocity P-wave (km/s) = 6.99992 7.20808 7.10476
#
# Compressibility (1/GPa) = 0.01697215
#
# Stress axis : x y z
#
# Youngs Moduli (GPa) = 60.55191 131.43077 55.67430
#
# Poissons Ratio (x) = 0.28376 0.50993
# Poissons Ratio (y) = 0.13073 0.06893
# Poissons Ratio (z) = 0.55461 0.16273
#
# Static dielectric constant tensor:
#      x y z
#    x 3.576160 0.000000 0.000000 
#    y 0.000000 3.781700 0.000000 
#    z 0.000000 0.000000 3.668150 
# 
# 
# High freq. dielectric constant tensor:
#      x y z
#    x 1.774590 0.000000 0.000000 
#    y 0.000000 1.784710 0.000000 
#    z 0.000000 0.000000 1.775730 
# 
# From -- ./inp_files/18906.got.cif
#   From: 2010.03.12/outbox.cif.g09.slc.cpg/sg20_10_cif.got.tgz:18906.got - 2010.04.14 01:38:04.
