data_PCOD8158885
_publ_section_title
;
Structure prediction by ZEFSAII (Michael W. Deem and Ramdas Pophale) SiO2 
 PCOD8158885
Probable space group: C 2 2 21
;
_chemical_formula_sum "Si O2"
_cell_formula_units_Z 64
_cell_length_a 21.762773
_cell_length_b 9.278889
_cell_length_c 16.083695
_cell_angle_alpha 90.000000
_cell_angle_beta 90.000000
_cell_angle_gamma 90.000000
_cell_volume 3247.850576
_symmetry_space_group_name_H-M "C 2 2 21"
_symmetry_group_IT_number 20
_symmetry_cell_setting 'orthorhombic'
loop_
_space_group_symop_operation_xyz
x,y,z
-x,-y,1/2+z
x,-y,-z
-x,y,1/2-z
1/2+x,1/2+y,z
1/2-x,1/2-y,1/2+z
1/2+x,1/2-y,-z
1/2-x,1/2+y,1/2-z
loop_
_atom_site_type_symbol
_atom_site_label
_atom_site_fract_x
_atom_site_fract_y
_atom_site_fract_z
Si Si1 0.779240 0.835376 0.011344
Si Si2 0.360500 0.893215 0.923371
Si Si3 0.990762 0.651629 0.153218
Si Si4 0.921908 0.415171 0.418631
Si Si5 0.199598 0.350614 0.169396
Si Si6 0.196712 0.878755 0.067478
Si Si7 0.557369 0.660403 0.972698
Si Si8 0.251164 0.554860 0.299181
O O1 0.842959 0.760028 0.036037
O O2 0.728325 0.818641 0.081205
O O3 0.745633 0.753767 0.934666
O O4 0.796597 0.000000 0.000000
O O5 0.419762 0.873926 0.866431
O O6 0.306062 0.943228 0.862697
O O7 0.372840 0.000000 0.000000
O O8 0.000000 0.681997 0.250000
O O9 0.026336 0.508825 0.125564
O O10 0.015163 0.792088 0.104287
O O11 0.894930 0.500000 0.500000
O O12 0.871887 0.380043 0.347736
O O13 0.953311 0.266531 0.448983
O O14 0.229029 0.490408 0.211909
O O15 0.214994 0.206045 0.222214
O O16 0.128305 0.823058 0.052986
O O17 0.198636 0.949095 0.159025
O O18 0.216349 0.000000 0.000000
O O19 0.539453 0.500000 0.000000
#
# Coordination Sequence:
#
# PCOD8158885 Si02
#       8
#     8   8   8   8   8   8   8   8
#     4  11  22  35  61  91 121 159 199 250 297 371
#     4  11  21  42  61  81 122 168 207 240 310 379
#     4  11  25  42  63  91 122 165 213 259 306 362
#     4  10  20  39  63  88 113 160 216 257 292 367
#     4  11  22  35  54  90 127 153 203 254 308 364
#     4  11  18  40  61  86 122 159 204 239 307 366
#     4  10  21  37  68  92 118 164 210 263 305 360
#     4  11  23  35  58  89 125 163 193 256 318 365
#
# _framework density 19.705338999999999
#
# number of rings (size 3 to 8) (size 9 to 14) (size 15 to 20)
#    0.000    1.250    5.000    3.000    3.500    2.500 
#    0.000    0.625    0.000    0.000    0.000    0.000 
#    0.000    0.000    0.000    0.000    0.000    0.000 
#
# Total GULP energy -396760.564111 kJ/mol
# GULP energy per Si atom -12398.767628 kJ/mol
# Density = 1.966049 g / cm^3
# Si number density = 19.705339 Si / 1000 Ang^3
#
#
#
# Elastic Constant Matrix: (Units=GPa)
#
#
# Indices 1 2 3 4 5 6 
#
# 1 83.8388 28.1146 21.0602 0.0000 0.0000 0.0000
# 2 28.1146 133.1981 23.7871 0.0000 0.0000 0.0000
# 3 21.0602 23.7871 39.2611 0.0000 0.0000 0.0000
# 4 0.0000 0.0000 0.0000 30.7478 0.0000 0.0000
# 5 0.0000 0.0000 0.0000 0.0000 25.8520 0.0000
# 6 0.0000 0.0000 0.0000 0.0000 0.0000 26.0369
#
#
#
# Elastic Compliance Matrix: (Units=1/GPa)
#
#
# Indices 1 2 3 4 5 6 
#
# 1 0.014173 -0.001832 -0.006493 0.000000 0.000000 0.000000
# 2 -0.001832 0.008655 -0.004261 0.000000 0.000000 0.000000
# 3 -0.006493 -0.004261 0.031535 0.000000 0.000000 0.000000
# 4 0.000000 0.000000 0.000000 0.032523 0.000000 0.000000
# 5 0.000000 0.000000 0.000000 0.000000 0.038682 0.000000
# 6 0.000000 0.000000 0.000000 0.000000 0.000000 0.038407
#
#
# Mechanical properties :
#
#
# Convention : Reuss Voigt Hill
#
# Bulk Modulus (GPa) = 34.25657 44.69131 39.47394
# Shear Modulus (GPa) = 25.14118 28.74975 26.94547
#
# Velocity S-wave (km/s) = 3.57579 3.82381 3.70188
# Velocity P-wave (km/s) = 5.87116 6.49803 6.19253
#
# Compressibility (1/GPa) = 0.02919148
#
# Stress axis : x y z
#
# Youngs Moduli (GPa) = 70.55694 115.53603 31.71079
#
# Poissons Ratio (x) = 0.21167 0.20588
# Poissons Ratio (y) = 0.12926 0.13513
# Poissons Ratio (z) = 0.45810 0.49233
#
# Static dielectric constant tensor:
#      x y z
#    x 3.463630 0.000000 0.000000 
#    y 0.000000 4.383370 0.000000 
#    z 0.000000 0.000000 3.566830 
# 
# 
# High freq. dielectric constant tensor:
#      x y z
#    x 1.754760 0.000000 0.000000 
#    y 0.000000 1.780390 0.000000 
#    z 0.000000 0.000000 1.756650 
# 
# From -- ./inp_files/25496.got.cif
#   From: 2010.03.12/outbox.cif.g09.slc.cpg/sg20_13_cif.got.tgz:25496.got - 2010.04.14 01:38:04.
