data_PCOD8158941
_publ_section_title
;
Structure prediction by ZEFSAII (Michael W. Deem and Ramdas Pophale) SiO2 
 PCOD8158941
Probable space group: C 2 2 21
;
_chemical_formula_sum "Si O2"
_cell_formula_units_Z 28
_cell_length_a 14.709727
_cell_length_b 12.019679
_cell_length_c 8.753069
_cell_angle_alpha 90.000000
_cell_angle_beta 90.000000
_cell_angle_gamma 90.000000
_cell_volume 1547.596839
_symmetry_space_group_name_H-M "C 2 2 21"
_symmetry_group_IT_number 20
_symmetry_cell_setting 'orthorhombic'
loop_
_space_group_symop_operation_xyz
x,y,z
-x,-y,1/2+z
x,-y,-z
-x,y,1/2-z
1/2+x,1/2+y,z
1/2-x,1/2-y,1/2+z
1/2+x,1/2-y,-z
1/2-x,1/2+y,1/2-z
loop_
_atom_site_type_symbol
_atom_site_label
_atom_site_fract_x
_atom_site_fract_y
_atom_site_fract_z
Si Si1 0.656302 0.732245 0.570372
Si Si2 0.507457 0.882724 0.429588
Si Si3 0.675917 0.175103 0.098276
Si Si4 0.701352 0.500000 0.500000
O O1 0.581699 0.788979 0.464276
O O2 0.647237 0.775808 0.740901
O O3 0.756124 0.756707 0.497321
O O4 0.639909 0.597370 0.575541
O O5 0.500000 0.898367 0.250000
O O6 0.412673 0.842815 0.497700
O O7 0.538849 0.000000 0.500000
O O8 0.730424 0.058366 0.124090
#
# Coordination Sequence:
#
# PCOD8158941 Si02
#       4
#     8   8   8   4
#     4  10  21  38  66  85 124 159 198 253 307 355
#     4  12  23  37  62  92 120 158 212 256 302 359
#     4  10  20  40  63  89 122 155 202 252 302 360
#     4   8  22  40  60  86 130 148 206 244 298 376
#
# _framework density 18.092568
#
# number of rings (size 3 to 8) (size 9 to 14) (size 15 to 20)
#    1.714    0.000    1.429    4.286    0.000    0.000 
#    0.000    2.857    3.143    0.000    0.000    0.000 
#    0.000    0.000    0.000    0.000    0.000    0.000 
#
# Total GULP energy -173449.494450 kJ/mol
# GULP energy per Si atom -12389.249604 kJ/mol
# Density = 1.805139 g / cm^3
# Si number density = 18.092568 Si / 1000 Ang^3
#
#
#
# Elastic Constant Matrix: (Units=GPa)
#
#
# Indices 1 2 3 4 5 6 
#
# 1 90.6030 58.7240 23.6838 0.0000 0.0000 0.0000
# 2 58.7240 135.5115 62.6697 0.0000 0.0000 0.0000
# 3 23.6838 62.6697 137.4238 0.0000 0.0000 0.0000
# 4 0.0000 0.0000 0.0000 26.4630 0.0000 0.0000
# 5 0.0000 0.0000 0.0000 0.0000 26.9898 0.0000
# 6 0.0000 0.0000 0.0000 0.0000 0.0000 25.6271
#
#
#
# Elastic Compliance Matrix: (Units=1/GPa)
#
#
# Indices 1 2 3 4 5 6 
#
# 1 0.015374 -0.006890 0.000493 0.000000 0.000000 0.000000
# 2 -0.006890 0.012440 -0.004485 0.000000 0.000000 0.000000
# 3 0.000493 -0.004485 0.009237 0.000000 0.000000 0.000000
# 4 0.000000 0.000000 0.000000 0.037789 0.000000 0.000000
# 5 0.000000 0.000000 0.000000 0.000000 0.037051 0.000000
# 6 0.000000 0.000000 0.000000 0.000000 0.000000 0.039021
#
#
# Mechanical properties :
#
#
# Convention : Reuss Voigt Hill
#
# Bulk Modulus (GPa) = 65.42313 72.63259 69.02786
# Shear Modulus (GPa) = 28.12569 30.38005 29.25287
#
# Velocity S-wave (km/s) = 3.94705 4.10218 4.02536
# Velocity P-wave (km/s) = 7.55056 7.91640 7.73564
#
# Compressibility (1/GPa) = 0.01528511
#
# Stress axis : x y z
#
# Youngs Moduli (GPa) = 65.04371 80.38780 108.25588
#
# Poissons Ratio (x) = 0.55389 -0.05332
# Poissons Ratio (y) = 0.44817 0.48557
# Poissons Ratio (z) = -0.03204 0.36057
#
# Static dielectric constant tensor:
#      x y z
#    x 3.361640 0.000000 0.000000 
#    y 0.000000 3.428170 0.000000 
#    z 0.000000 0.000000 3.157420 
# 
# 
# High freq. dielectric constant tensor:
#      x y z
#    x 1.701340 0.000000 0.000000 
#    y 0.000000 1.697470 0.000000 
#    z 0.000000 0.000000 1.695330 
# 
# From -- ./inp_files/5613.got.cif
#   From: 2010.03.12/outbox.cif.g09.slc.cpg/sg20_3_cif.got.tgz:5613.got - 2010.04.14 01:38:04.
