data_PCOD8158913
_publ_section_title
;
Structure prediction by ZEFSAII (Michael W. Deem and Ramdas Pophale) SiO2 
 PCOD8158913
Probable space group: C 2 2 21
;
_chemical_formula_sum "Si O2"
_cell_formula_units_Z 56
_cell_length_a 9.399722
_cell_length_b 15.202816
_cell_length_c 19.034183
_cell_angle_alpha 90.000000
_cell_angle_beta 90.000000
_cell_angle_gamma 90.000000
_cell_volume 2720.027464
_symmetry_space_group_name_H-M "C 2 2 21"
_symmetry_group_IT_number 20
_symmetry_cell_setting 'orthorhombic'
loop_
_space_group_symop_operation_xyz
x,y,z
-x,-y,1/2+z
x,-y,-z
-x,y,1/2-z
1/2+x,1/2+y,z
1/2-x,1/2-y,1/2+z
1/2+x,1/2-y,-z
1/2-x,1/2+y,1/2-z
loop_
_atom_site_type_symbol
_atom_site_label
_atom_site_fract_x
_atom_site_fract_y
_atom_site_fract_z
Si Si1 0.079441 0.601294 0.487675
Si Si2 0.967739 0.002534 0.327972
Si Si3 0.309018 0.356966 0.155836
Si Si4 0.882429 0.850819 0.567852
Si Si5 0.968790 0.763760 0.426033
Si Si6 0.489682 0.175308 0.628050
Si Si7 0.776389 0.842919 0.311445
O O1 0.035225 0.500000 0.500000
O O2 0.223693 0.613244 0.444303
O O3 0.959801 0.660184 0.447434
O O4 0.090484 0.645906 0.563845
O O5 0.962179 0.073677 0.389262
O O6 0.000000 0.042360 0.250000
O O7 0.822709 0.944045 0.326620
O O8 0.098257 0.943483 0.352523
O O9 0.371580 0.284130 0.102060
O O10 0.145838 0.387887 0.141460
O O11 0.328116 0.316913 0.233826
O O12 0.947991 0.829333 0.491919
O O13 0.905436 0.766936 0.618074
O O14 0.849985 0.777532 0.366871
O O15 0.605276 0.172335 0.690400
#
# Coordination Sequence:
#
# PCOD8158913 Si02
#       7
#     8   8   8   8   8   8   8
#     4  11  23  40  62  90 125 167 206 267 319 373
#     4   9  21  40  64  92 124 168 214 260 315 384
#     4  10  21  39  62  96 125 162 209 263 312 373
#     4  11  22  38  66  89 124 163 216 258 306 387
#     4  10  21  40  62  91 121 167 214 252 314 378
#     4  11  22  40  62  92 125 163 207 257 325 376
#     4  10  20  39  67  87 131 165 203 256 323 377
#
# _framework density 20.588027
#
# number of rings (size 3 to 8) (size 9 to 14) (size 15 to 20)
#    0.000    1.714    2.857    2.571    2.000    1.143 
#    5.143    0.000    0.000    1.714    0.000    0.000 
#    0.000    0.000    0.000    0.000    0.000    0.000 
#
# Total GULP energy -346912.074341 kJ/mol
# GULP energy per Si atom -12389.716941 kJ/mol
# Density = 2.054117 g / cm^3
# Si number density = 20.588027 Si / 1000 Ang^3
#
#
#
# Elastic Constant Matrix: (Units=GPa)
#
#
# Indices 1 2 3 4 5 6 
#
# 1 120.3994 27.8219 26.1278 0.0000 0.0000 0.0000
# 2 27.8219 107.9420 49.6359 0.0000 0.0000 0.0000
# 3 26.1278 49.6359 92.8560 0.0000 0.0000 0.0000
# 4 0.0000 0.0000 0.0000 24.1060 0.0000 0.0000
# 5 0.0000 0.0000 0.0000 0.0000 30.4706 0.0000
# 6 0.0000 0.0000 0.0000 0.0000 0.0000 18.7106
#
#
#
# Elastic Compliance Matrix: (Units=1/GPa)
#
#
# Indices 1 2 3 4 5 6 
#
# 1 0.009034 -0.001538 -0.001720 0.000000 0.000000 0.000000
# 2 -0.001538 0.012545 -0.006273 0.000000 0.000000 0.000000
# 3 -0.001720 -0.006273 0.014607 0.000000 0.000000 0.000000
# 4 0.000000 0.000000 0.000000 0.041484 0.000000 0.000000
# 5 0.000000 0.000000 0.000000 0.000000 0.032819 0.000000
# 6 0.000000 0.000000 0.000000 0.000000 0.000000 0.053446
#
#
# Mechanical properties :
#
#
# Convention : Reuss Voigt Hill
#
# Bulk Modulus (GPa) = 58.39721 58.70762 58.55242
# Shear Modulus (GPa) = 26.49645 29.16487 27.83066
#
# Velocity S-wave (km/s) = 3.59135 3.76785 3.68066
# Velocity P-wave (km/s) = 6.75450 6.89248 6.82384
#
# Compressibility (1/GPa) = 0.01712411
#
# Stress axis : x y z
#
# Youngs Moduli (GPa) = 110.68951 79.71116 68.46121
#
# Poissons Ratio (x) = 0.12256 0.11776
# Poissons Ratio (y) = 0.17019 0.42948
# Poissons Ratio (z) = 0.19040 0.50006
#
# Static dielectric constant tensor:
#      x y z
#    x 3.717620 0.000000 0.000000 
#    y 0.000000 3.564810 0.000000 
#    z 0.000000 0.000000 3.856700 
# 
# 
# High freq. dielectric constant tensor:
#      x y z
#    x 1.806890 0.000000 0.000000 
#    y 0.000000 1.777900 0.000000 
#    z 0.000000 0.000000 1.818830 
# 
# From -- ./inp_files/26739.got.cif
#   From: 2010.03.12/outbox.cif.g09.slc.cpg/sg20_14_cif.got.tgz:26739.got - 2010.04.14 01:38:04.
