data_PCOD8158535
_publ_section_title
;
Structure prediction by ZEFSAII (Michael W. Deem and Ramdas Pophale) SiO2 
 PCOD8158535
Probable space group: C 2 2 21
;
_chemical_formula_sum "Si O2"
_cell_formula_units_Z 48
_cell_length_a 16.878203
_cell_length_b 9.371861
_cell_length_c 13.186355
_cell_angle_alpha 90.000000
_cell_angle_beta 90.000000
_cell_angle_gamma 90.000000
_cell_volume 2085.819908
_symmetry_space_group_name_H-M "C 2 2 21"
_symmetry_group_IT_number 20
_symmetry_cell_setting 'orthorhombic'
loop_
_space_group_symop_operation_xyz
x,y,z
-x,-y,1/2+z
x,-y,-z
-x,y,1/2-z
1/2+x,1/2+y,z
1/2-x,1/2-y,1/2+z
1/2+x,1/2-y,-z
1/2-x,1/2+y,1/2-z
loop_
_atom_site_type_symbol
_atom_site_label
_atom_site_fract_x
_atom_site_fract_y
_atom_site_fract_z
Si Si1 0.438146 0.465581 0.635865
Si Si2 0.001333 0.234174 0.971140
Si Si3 0.790034 0.000000 0.500000
Si Si4 0.106549 0.500000 0.000000
Si Si5 0.167167 0.127853 0.294963
Si Si6 0.325046 0.744947 0.991339
Si Si7 0.778783 0.606602 0.672313
O O1 0.487522 0.341240 0.580617
O O2 0.477417 0.619892 0.617254
O O3 0.347470 0.459031 0.592925
O O4 0.419950 0.431972 0.755148
O O5 0.056479 0.369563 0.956898
O O6 0.913016 0.296251 0.962263
O O7 0.733380 0.868942 0.471069
O O8 0.156466 0.449350 0.094878
O O9 0.166361 0.131722 0.416995
O O10 0.180633 0.284815 0.249954
O O11 0.239813 0.023138 0.263815
O O12 0.292905 0.675699 0.889527
#
# Coordination Sequence:
#
# PCOD8158535 Si02
#       7
#     8   8   4   4   8   8   8
#     4  10  22  43  65  96 133 180 216 274 353 401
#     4  10  24  41  69  94 143 176 216 278 354 401
#     4  10  19  42  69  92 136 174 222 282 339 398
#     4  12  21  48  67  98 134 188 218 278 347 416
#     4  12  25  42  73 101 135 180 236 285 336 412
#     4  12  24  44  71 105 133 180 231 290 338 407
#     4  12  26  44  72 105 132 179 241 286 334 409
#
# _framework density 23.012532
#
# number of rings (size 3 to 8) (size 9 to 14) (size 15 to 20)
#    0.000    1.000    5.000    2.500    7.000    0.667 
#    0.000    0.000    0.000    0.000    0.000    0.000 
#    0.000    0.000    0.000    0.000    0.000    0.000 
#
# Total GULP energy -297616.041620 kJ/mol
# GULP energy per Si atom -12400.668401 kJ/mol
# Density = 2.296015 g / cm^3
# Si number density = 23.012532 Si / 1000 Ang^3
#
#
#
# Elastic Constant Matrix: (Units=GPa)
#
#
# Indices 1 2 3 4 5 6 
#
# 1 69.3563 -0.5183 -20.5179 0.0000 0.0000 0.0000
# 2 -0.5183 76.1800 -13.6764 0.0000 0.0000 0.0000
# 3 -20.5179 -13.6764 54.4931 0.0000 0.0000 0.0000
# 4 0.0000 0.0000 0.0000 29.9218 0.0000 0.0000
# 5 0.0000 0.0000 0.0000 0.0000 5.2575 0.0000
# 6 0.0000 0.0000 0.0000 0.0000 0.0000 14.6646
#
#
#
# Elastic Compliance Matrix: (Units=1/GPa)
#
#
# Indices 1 2 3 4 5 6 
#
# 1 0.016343 0.001273 0.006473 0.000000 0.000000 0.000000
# 2 0.001273 0.013845 0.003954 0.000000 0.000000 0.000000
# 3 0.006473 0.003954 0.021781 0.000000 0.000000 0.000000
# 4 0.000000 0.000000 0.000000 0.033420 0.000000 0.000000
# 5 0.000000 0.000000 0.000000 0.000000 0.190203 0.000000
# 6 0.000000 0.000000 0.000000 0.000000 0.000000 0.068192
#
#
# Mechanical properties :
#
#
# Convention : Reuss Voigt Hill
#
# Bulk Modulus (GPa) = 13.26794 14.51158 13.88976
# Shear Modulus (GPa) = 14.47154 25.61825 20.04489
#
# Velocity S-wave (km/s) = 2.51042 3.34013 2.95454
# Velocity P-wave (km/s) = 3.76576 4.60380 4.20570
#
# Compressibility (1/GPa) = 0.07536967
#
# Stress axis : x y z
#
# Youngs Moduli (GPa) = 61.18924 72.22637 45.91244
#
# Poissons Ratio (x) = -0.09196 -0.29719
# Poissons Ratio (y) = -0.07791 -0.18155
# Poissons Ratio (z) = -0.39608 -0.28560
#
# Static dielectric constant tensor:
#      x y z
#    x 4.352910 0.000000 0.000000 
#    y 0.000000 4.260590 0.000000 
#    z 0.000000 0.000000 4.544620 
# 
# 
# High freq. dielectric constant tensor:
#      x y z
#    x 1.925690 0.000000 0.000000 
#    y 0.000000 1.907800 0.000000 
#    z 0.000000 0.000000 1.902460 
# 
# From -- ./inp_files/21335.got.cif
#   From: 2010.03.12/outbox.cif.g09.slc.cpg/sg20_11_cif.got.tgz:21335.got - 2010.04.14 01:38:04.
