data_PCOD8158017
_publ_section_title
;
Structure prediction by ZEFSAII (Michael W. Deem and Ramdas Pophale) SiO2 
 PCOD8158017
Probable space group: C 2 2 21
;
_chemical_formula_sum "Si O2"
_cell_formula_units_Z 32
_cell_length_a 35.222895
_cell_length_b 5.231239
_cell_length_c 8.313690
_cell_angle_alpha 90.000000
_cell_angle_beta 90.000000
_cell_angle_gamma 90.000000
_cell_volume 1531.875382
_symmetry_space_group_name_H-M "C 2 2 21"
_symmetry_group_IT_number 20
_symmetry_cell_setting 'orthorhombic'
loop_
_space_group_symop_operation_xyz
x,y,z
-x,-y,1/2+z
x,-y,-z
-x,y,1/2-z
1/2+x,1/2+y,z
1/2-x,1/2-y,1/2+z
1/2+x,1/2-y,-z
1/2-x,1/2+y,1/2-z
loop_
_atom_site_type_symbol
_atom_site_label
_atom_site_fract_x
_atom_site_fract_y
_atom_site_fract_z
Si Si1 0.972246 0.742587 0.602633
Si Si2 0.734084 0.594077 0.823217
Si Si3 0.114050 0.274300 0.176489
Si Si4 0.353417 0.724281 0.682239
O O1 0.986740 0.500000 0.500000
O O2 0.930633 0.679310 0.669040
O O3 0.000000 0.787942 0.750000
O O4 0.971333 0.000000 0.500000
O O5 0.740888 0.347550 0.709792
O O6 0.691103 0.684710 0.805928
O O7 0.744544 0.500000 0.000000
O O8 0.133647 0.512960 0.269322
O O9 0.124490 0.011299 0.268342
O O10 0.133037 0.248738 0.001480
#
# Coordination Sequence:
#
# PCOD8158017 Si02
#       4
#     8   8   8   8
#     4  12  23  40  64 102 133 167 210 271 320 379
#     4  12  25  40  64  98 131 165 212 273 331 377
#     4  10  17  34  63  90 111 162 233 246 279 375
#     4  10  18  34  63  88 112 161 229 250 281 377
#
# _framework density 20.889426
#
# number of rings (size 3 to 8) (size 9 to 14) (size 15 to 20)
#    0.000    1.000    7.500    3.000    3.500    0.000 
#    0.000    0.000    0.000   15.000    0.000    0.000 
#    0.000    0.000    0.000    0.000    0.000    0.000 
#
# Total GULP energy -198306.173594 kJ/mol
# GULP energy per Si atom -12394.135850 kJ/mol
# Density = 2.084188 g / cm^3
# Si number density = 20.889426 Si / 1000 Ang^3
#
#
#
# Elastic Constant Matrix: (Units=GPa)
#
#
# Indices 1 2 3 4 5 6 
#
# 1 150.4270 63.9877 49.0193 0.0000 0.0000 0.0000
# 2 63.9877 221.9296 27.4277 0.0000 0.0000 0.0000
# 3 49.0193 27.4277 36.1130 0.0000 0.0000 0.0000
# 4 0.0000 0.0000 0.0000 7.5107 0.0000 0.0000
# 5 0.0000 0.0000 0.0000 0.0000 -9.4855 0.0000
# 6 0.0000 0.0000 0.0000 0.0000 0.0000 36.1881
#
#
#
# Elastic Compliance Matrix: (Units=1/GPa)
#
#
# Indices 1 2 3 4 5 6 
#
# 1 0.012449 -0.001656 -0.015640 0.000000 0.000000 0.000000
# 2 -0.001656 0.005193 -0.001696 0.000000 0.000000 0.000000
# 3 -0.015640 -0.001696 0.050208 0.000000 0.000000 0.000000
# 4 0.000000 0.000000 0.000000 0.133144 0.000000 0.000000
# 5 0.000000 0.000000 0.000000 0.000000 -0.105424 0.000000
# 6 0.000000 0.000000 0.000000 0.000000 0.000000 0.027633
#
#
# Mechanical properties :
#
#
# Convention : Reuss Voigt Hill
#
# Bulk Modulus (GPa) = 33.48287 76.59322 55.03804
# Shear Modulus (GPa) = 29.21543 24.71166 26.96354
#
# Velocity S-wave (km/s) = 3.74381 3.44317 3.59663
# Velocity P-wave (km/s) = 5.89505 7.24934 6.60698
#
# Compressibility (1/GPa) = 0.02986602
#
# Stress axis : x y z
#
# Youngs Moduli (GPa) = 80.32864 192.56351 19.91710
#
# Poissons Ratio (x) = 0.31897 0.31150
# Poissons Ratio (y) = 0.13306 0.03377
# Poissons Ratio (z) = 1.25633 0.32654
#
# Static dielectric constant tensor:
#      x y z
#    x 3.827180 0.000000 0.000000 
#    y 0.000000 63.998500 0.000000 
#    z 0.000000 0.000000 3.229230 
# 
# 
# High freq. dielectric constant tensor:
#      x y z
#    x 1.825290 0.000000 0.000000 
#    y 0.000000 1.867420 0.000000 
#    z 0.000000 0.000000 1.750230 
# 
# From -- ./inp_files/11297.got.cif
#   From: 2010.03.12/outbox.cif.g09.slc.cpg/sg20_6_cif.got.tgz:11297.got - 2010.04.14 01:38:04.
