data_PCOD8158443
_publ_section_title
;
Structure prediction by ZEFSAII (Michael W. Deem and Ramdas Pophale) SiO2 
 PCOD8158443
Probable space group: C 2 2 21
;
_chemical_formula_sum "Si O2"
_cell_formula_units_Z 48
_cell_length_a 16.365916
_cell_length_b 8.378620
_cell_length_c 18.442352
_cell_angle_alpha 90.000000
_cell_angle_beta 90.000000
_cell_angle_gamma 90.000000
_cell_volume 2528.885223
_symmetry_space_group_name_H-M "C 2 2 21"
_symmetry_group_IT_number 20
_symmetry_cell_setting 'orthorhombic'
loop_
_space_group_symop_operation_xyz
x,y,z
-x,-y,1/2+z
x,-y,-z
-x,y,1/2-z
1/2+x,1/2+y,z
1/2-x,1/2-y,1/2+z
1/2+x,1/2-y,-z
1/2-x,1/2+y,1/2-z
loop_
_atom_site_type_symbol
_atom_site_label
_atom_site_fract_x
_atom_site_fract_y
_atom_site_fract_z
Si Si1 0.129254 0.067945 0.919835
Si Si2 0.848483 0.436492 0.578247
Si Si3 0.209722 0.149721 0.195356
Si Si4 0.201436 0.947915 0.335021
Si Si5 0.518772 0.461376 0.665171
Si Si6 0.446877 0.141313 0.684482
O O1 0.160558 0.247609 0.920945
O O2 0.040731 0.070197 0.882483
O O3 0.192239 0.960087 0.874323
O O4 0.123033 0.000000 0.000000
O O5 0.873545 0.500000 0.500000
O O6 0.760307 0.506585 0.598821
O O7 0.919871 0.498888 0.631888
O O8 0.289053 0.258453 0.179563
O O9 0.132544 0.263206 0.214148
O O10 0.230623 0.041788 0.263847
O O11 0.109316 0.986904 0.356403
O O12 0.500000 0.490053 0.750000
O O13 0.503459 0.274942 0.644812
O O14 0.500000 0.065800 0.750000
#
# Coordination Sequence:
#
# PCOD8158443 Si02
#       6
#     8   8   8   8   8   8
#     4  11  22  41  61  82 121 165 204 250 308 361
#     4  11  24  39  59  90 121 160 206 251 305 367
#     4  10  20  36  59  93 116 160 197 250 297 357
#     4  11  20  36  62  87 125 154 206 246 300 361
#     4  10  19  37  61  89 122 156 199 245 303 363
#     4   9  17  37  61  87 119 156 196 247 299 354
#
# _framework density 18.980695999999998
#
# number of rings (size 3 to 8) (size 9 to 14) (size 15 to 20)
#    0.000    1.667    5.000    4.000    0.000    1.333 
#    3.000    0.000    0.000    2.000    0.000    0.000 
#    0.000    0.000    0.000    0.000    0.000    0.000 
#
# Total GULP energy -297598.864891 kJ/mol
# GULP energy per Si atom -12399.952704 kJ/mol
# Density = 1.893749 g / cm^3
# Si number density = 18.980696 Si / 1000 Ang^3
#
#
#
# Elastic Constant Matrix: (Units=GPa)
#
#
# Indices 1 2 3 4 5 6 
#
# 1 86.2426 32.5522 12.6726 0.0000 0.0000 0.0000
# 2 32.5522 108.5560 29.4778 0.0000 0.0000 0.0000
# 3 12.6726 29.4778 89.5005 0.0000 0.0000 0.0000
# 4 0.0000 0.0000 0.0000 32.0860 0.0000 0.0000
# 5 0.0000 0.0000 0.0000 0.0000 22.1614 0.0000
# 6 0.0000 0.0000 0.0000 0.0000 0.0000 32.6513
#
#
#
# Elastic Compliance Matrix: (Units=1/GPa)
#
#
# Indices 1 2 3 4 5 6 
#
# 1 0.013106 -0.003763 -0.000616 0.000000 0.000000 0.000000
# 2 -0.003763 0.011197 -0.003155 0.000000 0.000000 0.000000
# 3 -0.000616 -0.003155 0.012300 0.000000 0.000000 0.000000
# 4 0.000000 0.000000 0.000000 0.031166 0.000000 0.000000
# 5 0.000000 0.000000 0.000000 0.000000 0.045123 0.000000
# 6 0.000000 0.000000 0.000000 0.000000 0.000000 0.030627
#
#
# Mechanical properties :
#
#
# Convention : Reuss Voigt Hill
#
# Bulk Modulus (GPa) = 46.43788 48.18938 47.31363
# Shear Modulus (GPa) = 30.16316 31.35283 30.75799
#
# Velocity S-wave (km/s) = 3.99074 4.06868 4.02990
# Velocity P-wave (km/s) = 6.76414 6.89318 6.82897
#
# Compressibility (1/GPa) = 0.02153415
#
# Stress axis : x y z
#
# Youngs Moduli (GPa) = 76.30100 89.31078 81.30385
#
# Poissons Ratio (x) = 0.33604 0.05012
# Poissons Ratio (y) = 0.28709 0.25652
# Poissons Ratio (z) = 0.04704 0.28178
#
# Static dielectric constant tensor:
#      x y z
#    x 3.537360 0.000000 0.000000 
#    y 0.000000 3.602330 0.000000 
#    z 0.000000 0.000000 3.430640 
# 
# 
# High freq. dielectric constant tensor:
#      x y z
#    x 1.728820 0.000000 0.000000 
#    y 0.000000 1.742650 0.000000 
#    z 0.000000 0.000000 1.729230 
# 
# From -- ./inp_files/25154.got.cif
#   From: 2010.03.12/outbox.cif.g09.slc.cpg/sg20_13_cif.got.tgz:25154.got - 2010.04.14 01:38:04.
