data_PCOD8158906
_publ_section_title
;
Structure prediction by ZEFSAII (Michael W. Deem and Ramdas Pophale) SiO2 
 PCOD8158906
Probable space group: C 2 2 21
;
_chemical_formula_sum "Si O2"
_cell_formula_units_Z 60
_cell_length_a 11.567686
_cell_length_b 20.996158
_cell_length_c 10.558651
_cell_angle_alpha 90.000000
_cell_angle_beta 90.000000
_cell_angle_gamma 90.000000
_cell_volume 2564.453088
_symmetry_space_group_name_H-M "C 2 2 21"
_symmetry_group_IT_number 20
_symmetry_cell_setting 'orthorhombic'
loop_
_space_group_symop_operation_xyz
x,y,z
-x,-y,1/2+z
x,-y,-z
-x,y,1/2-z
1/2+x,1/2+y,z
1/2-x,1/2-y,1/2+z
1/2+x,1/2-y,-z
1/2-x,1/2+y,1/2-z
loop_
_atom_site_type_symbol
_atom_site_label
_atom_site_fract_x
_atom_site_fract_y
_atom_site_fract_z
Si Si1 0.997453 0.552180 0.098945
Si Si2 0.608096 0.709088 0.054792
Si Si3 0.694862 0.878505 0.466985
Si Si4 0.270591 0.886516 0.545645
Si Si5 0.652990 0.500000 0.000000
Si Si6 0.478877 0.409274 0.888689
Si Si7 0.616200 0.781145 0.813449
Si Si8 0.795370 0.310787 0.287958
O O1 0.000000 0.534492 0.250000
O O2 0.126883 0.563151 0.052810
O O3 0.947639 0.500000 0.000000
O O4 0.911568 0.610953 0.065253
O O5 0.513824 0.654028 0.035476
O O6 0.616330 0.752114 0.182837
O O7 0.734362 0.677486 0.035011
O O8 0.573145 0.760067 0.950756
O O9 0.769677 0.943114 0.442728
O O10 0.654581 0.852966 0.328591
O O11 0.152358 0.925259 0.572908
O O12 0.289540 0.836789 0.661762
O O13 0.270357 0.855312 0.407666
O O14 0.564409 0.469875 0.898368
O O15 0.500000 0.383605 0.750000
O O16 0.500000 0.809009 0.750000
O O17 0.671038 0.720066 0.744915
#
# Coordination Sequence:
#
# PCOD8158906 Si02
#       8
#     8   8   8   8   4   8   8   8
#     4  12  30  49  78 102 147 192 246 314 375 470
#     4   9  21  41  66 105 134 189 231 296 355 438
#     4  10  23  46  75 104 144 191 248 295 386 446
#     4  11  26  41  66 110 139 191 241 308 375 435
#     4  10  24  44  72  96 128 192 234 292 360 440
#     4  11  24  42  67  96 142 180 243 298 364 436
#     4  10  20  39  65  96 142 190 231 289 363 431
#     4  10  22  42  73 104 148 180 247 301 359 453
#
# _framework density 23.396801
#
# number of rings (size 3 to 8) (size 9 to 14) (size 15 to 20)
#    0.000    1.600    0.667    2.000   10.267    1.067 
#   14.400    1.333    0.000    0.000    0.000    0.000 
#    0.000    0.000    0.000    0.000    0.000    0.000 
#
# Total GULP energy -371698.593751 kJ/mol
# GULP energy per Si atom -12389.953125 kJ/mol
# Density = 2.334355 g / cm^3
# Si number density = 23.396801 Si / 1000 Ang^3
#
#
#
# Elastic Constant Matrix: (Units=GPa)
#
#
# Indices 1 2 3 4 5 6 
#
# 1 119.6581 25.6020 41.0130 0.0000 0.0000 0.0000
# 2 25.6020 91.9697 40.7386 0.0000 0.0000 0.0000
# 3 41.0130 40.7386 131.6936 0.0000 0.0000 0.0000
# 4 0.0000 0.0000 0.0000 32.5214 0.0000 0.0000
# 5 0.0000 0.0000 0.0000 0.0000 25.6261 0.0000
# 6 0.0000 0.0000 0.0000 0.0000 0.0000 397.0415
#
#
#
# Elastic Compliance Matrix: (Units=1/GPa)
#
#
# Indices 1 2 3 4 5 6 
#
# 1 0.009543 -0.001553 -0.002492 0.000000 0.000000 0.000000
# 2 -0.001553 0.012852 -0.003492 0.000000 0.000000 0.000000
# 3 -0.002492 -0.003492 0.009450 0.000000 0.000000 0.000000
# 4 0.000000 0.000000 0.000000 0.030749 0.000000 0.000000
# 5 0.000000 0.000000 0.000000 0.000000 0.039023 0.000000
# 6 0.000000 0.000000 0.000000 0.000000 0.000000 0.002519
#
#
# Mechanical properties :
#
#
# Convention : Reuss Voigt Hill
#
# Bulk Modulus (GPa) = 59.62381 62.00318 60.81350
# Shear Modulus (GPa) = 40.06410 106.76897 73.41654
#
# Velocity S-wave (km/s) = 4.14257 6.76262 5.60776
# Velocity P-wave (km/s) = 6.95847 9.35605 8.24488
#
# Compressibility (1/GPa) = 0.01677182
#
# Stress axis : x y z
#
# Youngs Moduli (GPa) = 104.78402 77.80698 105.82411
#
# Poissons Ratio (x) = 0.12083 0.26368
# Poissons Ratio (y) = 0.16272 0.36955
# Poissons Ratio (z) = 0.26109 0.27171
#
# Static dielectric constant tensor:
#      x y z
#    x 4.070380 0.000000 0.000000 
#    y 0.000000 4.217280 0.000000 
#    z 0.000000 0.000000 4.088540 
# 
# 
# High freq. dielectric constant tensor:
#      x y z
#    x 1.922290 0.000000 0.000000 
#    y 0.000000 1.929100 0.000000 
#    z 0.000000 0.000000 1.924120 
# 
# From -- ./inp_files/14390.got.cif
#   From: 2010.03.12/outbox.cif.g09.slc.cpg/sg20_8_cif.got.tgz:14390.got - 2010.04.14 01:38:04.
