data_PCOD8158654
_publ_section_title
;
Structure prediction by ZEFSAII (Michael W. Deem and Ramdas Pophale) SiO2 
 PCOD8158654
Probable space group: C 2 2 21
;
_chemical_formula_sum "Si O2"
_cell_formula_units_Z 52
_cell_length_a 16.728176
_cell_length_b 15.452015
_cell_length_c 9.436584
_cell_angle_alpha 90.000000
_cell_angle_beta 90.000000
_cell_angle_gamma 90.000000
_cell_volume 2439.206228
_symmetry_space_group_name_H-M "C 2 2 21"
_symmetry_group_IT_number 20
_symmetry_cell_setting 'orthorhombic'
loop_
_space_group_symop_operation_xyz
x,y,z
-x,-y,1/2+z
x,-y,-z
-x,y,1/2-z
1/2+x,1/2+y,z
1/2-x,1/2-y,1/2+z
1/2+x,1/2-y,-z
1/2-x,1/2+y,1/2-z
loop_
_atom_site_type_symbol
_atom_site_label
_atom_site_fract_x
_atom_site_fract_y
_atom_site_fract_z
Si Si1 0.185421 0.666909 0.322783
Si Si2 0.145115 0.660409 0.014819
Si Si3 0.114500 0.000000 0.500000
Si Si4 0.781263 0.870677 0.182206
Si Si5 0.497627 0.633921 0.406394
Si Si6 0.521090 0.201982 0.411933
Si Si7 0.827094 0.863029 0.492219
O O1 0.181678 0.627446 0.164112
O O2 0.194644 0.770622 0.329666
O O3 0.103911 0.648001 0.411639
O O4 0.259078 0.616585 0.392397
O O5 0.157482 0.762136 0.017234
O O6 0.049011 0.644579 0.012667
O O7 0.189975 0.618555 0.879115
O O8 0.165352 0.932024 0.412582
O O9 0.057719 0.946530 0.605053
O O10 0.792866 0.900868 0.344353
O O11 0.500000 0.676073 0.250000
O O12 0.531751 0.706213 0.511801
O O13 0.411146 0.596749 0.457169
O O14 0.500000 0.224746 0.250000
#
# Coordination Sequence:
#
# PCOD8158654 Si02
#       7
#     8   8   4   8   8   8   8
#     4   9  16  32  57  79 108 137 181 236 283 321
#     4   8  17  31  55  79 105 140 183 229 278 324
#     4  12  26  36  56  72 116 162 184 214 268 342
#     4  10  20  36  52  76 107 150 189 220 274 332
#     4  11  25  35  50  78 112 153 192 221 263 338
#     4   9  17  34  58  87 113 142 179 239 287 323
#     4   9  20  34  53  75 109 142 183 239 275 310
#
# _framework density 21.31841
#
# number of rings (size 3 to 8) (size 9 to 14) (size 15 to 20)
#    0.000    2.462    1.538    0.923    4.308    3.692 
#    0.000    0.000    0.000    0.000    0.000    7.538 
#    0.000    0.000    0.000    0.000    0.000    0.000 
#
# Total GULP energy -322164.744831 kJ/mol
# GULP energy per Si atom -12390.951724 kJ/mol
# Density = 2.126989 g / cm^3
# Si number density = 21.318410 Si / 1000 Ang^3
#
#
#
# Elastic Constant Matrix: (Units=GPa)
#
#
# Indices 1 2 3 4 5 6 
#
# 1 100.6149 4.7494 22.4579 0.0000 0.0000 0.0000
# 2 4.7494 27.0877 5.9016 0.0000 0.0000 0.0000
# 3 22.4579 5.9016 80.2400 0.0000 0.0000 0.0000
# 4 0.0000 0.0000 0.0000 5.7148 0.0000 0.0000
# 5 0.0000 0.0000 0.0000 0.0000 36.7989 0.0000
# 6 0.0000 0.0000 0.0000 0.0000 0.0000 16.3570
#
#
#
# Elastic Compliance Matrix: (Units=1/GPa)
#
#
# Indices 1 2 3 4 5 6 
#
# 1 0.010642 -0.001237 -0.002888 0.000000 0.000000 0.000000
# 2 -0.001237 0.037662 -0.002424 0.000000 0.000000 0.000000
# 3 -0.002888 -0.002424 0.013449 0.000000 0.000000 0.000000
# 4 0.000000 0.000000 0.000000 0.174985 0.000000 0.000000
# 5 0.000000 0.000000 0.000000 0.000000 0.027175 0.000000
# 6 0.000000 0.000000 0.000000 0.000000 0.000000 0.061136
#
#
# Mechanical properties :
#
#
# Convention : Reuss Voigt Hill
#
# Bulk Modulus (GPa) = 20.55220 30.46227 25.50724
# Shear Modulus (GPa) = 14.10979 23.42973 18.76976
#
# Velocity S-wave (km/s) = 2.57545 3.31877 2.97045
# Velocity P-wave (km/s) = 4.30180 5.38571 4.87398
#
# Compressibility (1/GPa) = 0.04865658
#
# Stress axis : x y z
#
# Youngs Moduli (GPa) = 93.96927 26.55196 74.35467
#
# Poissons Ratio (x) = 0.03284 0.21470
# Poissons Ratio (y) = 0.11622 0.18023
# Poissons Ratio (z) = 0.27134 0.06436
#
# Static dielectric constant tensor:
#      x y z
#    x 4.613510 0.000000 0.000000 
#    y 0.000000 3.237310 0.000000 
#    z 0.000000 0.000000 4.034370 
# 
# 
# High freq. dielectric constant tensor:
#      x y z
#    x 1.851880 0.000000 0.000000 
#    y 0.000000 1.777680 0.000000 
#    z 0.000000 0.000000 1.837250 
# 
# From -- ./inp_files/9547.got.cif
#   From: 2010.03.12/outbox.cif.g09.slc.cpg/sg20_5_cif.got.tgz:9547.got - 2010.04.14 01:38:04.
