data_PCOD8158936
_publ_section_title
;
Structure prediction by ZEFSAII (Michael W. Deem and Ramdas Pophale) SiO2 
 PCOD8158936
Probable space group: C 2 2 21
;
_chemical_formula_sum "Si O2"
_cell_formula_units_Z 32
_cell_length_a 11.621496
_cell_length_b 13.826992
_cell_length_c 9.886639
_cell_angle_alpha 90.000000
_cell_angle_beta 90.000000
_cell_angle_gamma 90.000000
_cell_volume 1588.687305
_symmetry_space_group_name_H-M "C 2 2 21"
_symmetry_group_IT_number 20
_symmetry_cell_setting 'orthorhombic'
loop_
_space_group_symop_operation_xyz
x,y,z
-x,-y,1/2+z
x,-y,-z
-x,y,1/2-z
1/2+x,1/2+y,z
1/2-x,1/2-y,1/2+z
1/2+x,1/2-y,-z
1/2-x,1/2+y,1/2-z
loop_
_atom_site_type_symbol
_atom_site_label
_atom_site_fract_x
_atom_site_fract_y
_atom_site_fract_z
Si Si1 0.945400 0.500000 0.000000
Si Si2 0.752905 0.682259 0.812644
Si Si3 0.891676 0.993378 0.655411
Si Si4 0.500000 0.113325 0.750000
Si Si5 0.775905 0.336219 0.892881
O O1 0.869486 0.582932 0.070756
O O2 0.022301 0.452902 0.117335
O O3 0.699265 0.575815 0.803814
O O4 0.886681 0.678812 0.767613
O O5 0.683005 0.755964 0.715523
O O6 0.742136 0.718765 0.967709
O O7 0.000000 0.003100 0.750000
O O8 0.931349 0.000000 0.500000
O O9 0.832417 0.889501 0.676420
#
# Coordination Sequence:
#
# PCOD8158936 Si02
#       5
#     4   8   8   4   8
#     4  10  20  42  62  82 126 160 188 254 298 348
#     4  10  22  40  60  91 118 156 202 245 297 353
#     4  10  21  42  61  84 124 159 197 246 297 349
#     4  10  20  40  62  90 116 156 202 244 302 350
#     4  10  20  42  61  85 124 155 196 245 297 348
#
# _framework density 20.142416000000001
#
# number of rings (size 3 to 8) (size 9 to 14) (size 15 to 20)
#    0.000    2.000    6.250    0.000    1.750    4.000 
#   18.000    0.000    0.000    0.000    0.000    0.000 
#    0.000    0.000    0.000    0.000    0.000    0.000 
#
# Total GULP energy -198323.996416 kJ/mol
# GULP energy per Si atom -12395.249776 kJ/mol
# Density = 2.009657 g / cm^3
# Si number density = 20.142416 Si / 1000 Ang^3
#
#
#
# Elastic Constant Matrix: (Units=GPa)
#
#
# Indices 1 2 3 4 5 6 
#
# 1 75.5982 18.7446 27.7528 0.0000 0.0000 0.0000
# 2 18.7446 94.9823 74.6043 0.0000 0.0000 0.0000
# 3 27.7528 74.6043 106.3727 0.0000 0.0000 0.0000
# 4 0.0000 0.0000 0.0000 44.9902 0.0000 0.0000
# 5 0.0000 0.0000 0.0000 0.0000 30.7238 0.0000
# 6 0.0000 0.0000 0.0000 0.0000 0.0000 6.9627
#
#
#
# Elastic Compliance Matrix: (Units=1/GPa)
#
#
# Indices 1 2 3 4 5 6 
#
# 1 0.014632 0.000247 -0.003991 0.000000 0.000000 0.000000
# 2 0.000247 0.023446 -0.016508 0.000000 0.000000 0.000000
# 3 -0.003991 -0.016508 0.022020 0.000000 0.000000 0.000000
# 4 0.000000 0.000000 0.000000 0.022227 0.000000 0.000000
# 5 0.000000 0.000000 0.000000 0.000000 0.032548 0.000000
# 6 0.000000 0.000000 0.000000 0.000000 0.000000 0.143622
#
#
# Mechanical properties :
#
#
# Convention : Reuss Voigt Hill
#
# Bulk Modulus (GPa) = 51.03641 57.68408 54.36024
# Shear Modulus (GPa) = 16.36498 26.92545 21.64522
#
# Velocity S-wave (km/s) = 2.85347 3.66013 3.28168
# Velocity P-wave (km/s) = 6.02073 6.82366 6.43473
#
# Compressibility (1/GPa) = 0.01959386
#
# Stress axis : x y z
#
# Youngs Moduli (GPa) = 68.34532 42.65111 45.41313
#
# Poissons Ratio (x) = -0.01053 0.18122
# Poissons Ratio (y) = -0.01687 0.74969
# Poissons Ratio (z) = 0.27273 0.70410
#
# Static dielectric constant tensor:
#      x y z
#    x 3.371780 0.000000 0.000000 
#    y 0.000000 3.597100 0.000000 
#    z 0.000000 0.000000 3.999340 
# 
# 
# High freq. dielectric constant tensor:
#      x y z
#    x 1.762240 0.000000 0.000000 
#    y 0.000000 1.783560 0.000000 
#    z 0.000000 0.000000 1.799440 
# 
# From -- ./inp_files/6819.got.cif
#   From: 2010.03.12/outbox.cif.g09.slc.cpg/sg20_4_cif.got.tgz:6819.got - 2010.04.14 01:38:04.
