data_PCOD8158271
_publ_section_title
;
Structure prediction by ZEFSAII (Michael W. Deem and Ramdas Pophale) SiO2 
 PCOD8158271
Probable space group: C 2 2 21
;
_chemical_formula_sum "Si O2"
_cell_formula_units_Z 56
_cell_length_a 16.246102
_cell_length_b 33.672026
_cell_length_c 5.021035
_cell_angle_alpha 90.000000
_cell_angle_beta 90.000000
_cell_angle_gamma 90.000000
_cell_volume 2746.702814
_symmetry_space_group_name_H-M "C 2 2 21"
_symmetry_group_IT_number 20
_symmetry_cell_setting 'orthorhombic'
loop_
_space_group_symop_operation_xyz
x,y,z
-x,-y,1/2+z
x,-y,-z
-x,y,1/2-z
1/2+x,1/2+y,z
1/2-x,1/2-y,1/2+z
1/2+x,1/2-y,-z
1/2-x,1/2+y,1/2-z
loop_
_atom_site_type_symbol
_atom_site_label
_atom_site_fract_x
_atom_site_fract_y
_atom_site_fract_z
Si Si1 0.411746 0.379812 0.613807
Si Si2 0.270825 0.774326 0.434409
Si Si3 0.824877 0.147050 0.882275
Si Si4 0.227704 0.431539 0.111655
Si Si5 0.445026 0.187178 0.490599
Si Si6 0.684288 0.541576 0.098028
Si Si7 0.945690 0.403309 0.509417
O O1 0.500000 0.377341 0.750000
O O2 0.401618 0.358778 0.324736
O O3 0.387401 0.425767 0.571594
O O4 0.351992 0.356314 0.812215
O O5 0.232102 0.759282 0.709633
O O6 0.216788 0.810903 0.328757
O O7 0.365045 0.785902 0.481839
O O8 0.756803 0.113390 0.839210
O O9 0.238635 0.451944 0.398178
O O10 0.133176 0.431451 0.023197
O O11 0.281156 0.456525 0.898072
O O12 0.500000 0.190095 0.750000
O O13 0.417641 0.141899 0.429409
O O14 0.500000 0.204093 0.250000
O O15 0.644157 0.500000 0.000000
O O16 0.000000 0.404902 0.250000
O O17 0.000000 0.420402 0.750000
#
# Coordination Sequence:
#
# PCOD8158271 Si02
#       7
#     8   8   8   8   8   8   8
#     4  10  21  39  63  87 118 154 200 249 296 354
#     4  12  24  40  61  88 122 161 201 244 302 368
#     4  10  21  39  59  85 114 152 201 243 294 353
#     4  10  19  36  59  82 116 151 194 247 283 353
#     4  10  21  38  59  84 117 146 191 254 301 336
#     4  10  21  36  59  87 118 156 196 241 299 348
#     4  10  19  32  57  87 110 142 191 246 292 330
#
# _framework density 20.388083000000002
#
# number of rings (size 3 to 8) (size 9 to 14) (size 15 to 20)
#    0.000    1.714    1.429    3.429    0.000    0.000 
#    0.000   11.429    0.000    8.571    0.000    0.000 
#    0.000    0.000    0.000    0.000    0.000    0.000 
#
# Total GULP energy -347182.558509 kJ/mol
# GULP energy per Si atom -12399.377090 kJ/mol
# Density = 2.034168 g / cm^3
# Si number density = 20.388083 Si / 1000 Ang^3
#
#
#
# Elastic Constant Matrix: (Units=GPa)
#
#
# Indices 1 2 3 4 5 6 
#
# 1 84.9545 29.0979 17.4453 0.0000 0.0000 0.0000
# 2 29.0979 73.4873 18.1290 0.0000 0.0000 0.0000
# 3 17.4453 18.1290 107.0248 0.0000 0.0000 0.0000
# 4 0.0000 0.0000 0.0000 27.4821 0.0000 0.0000
# 5 0.0000 0.0000 0.0000 0.0000 38.0130 0.0000
# 6 0.0000 0.0000 0.0000 0.0000 0.0000 20.5942
#
#
#
# Elastic Compliance Matrix: (Units=1/GPa)
#
#
# Indices 1 2 3 4 5 6 
#
# 1 0.013811 -0.005128 -0.001383 0.000000 0.000000 0.000000
# 2 -0.005128 0.016105 -0.001892 0.000000 0.000000 0.000000
# 3 -0.001383 -0.001892 0.009890 0.000000 0.000000 0.000000
# 4 0.000000 0.000000 0.000000 0.036387 0.000000 0.000000
# 5 0.000000 0.000000 0.000000 0.000000 0.026307 0.000000
# 6 0.000000 0.000000 0.000000 0.000000 0.000000 0.048557
#
#
# Mechanical properties :
#
#
# Convention : Reuss Voigt Hill
#
# Bulk Modulus (GPa) = 43.47696 43.86790 43.67243
# Shear Modulus (GPa) = 28.48535 30.60416 29.54476
#
# Velocity S-wave (km/s) = 3.74191 3.87858 3.81086
# Velocity P-wave (km/s) = 6.32773 6.45143 6.38988
#
# Compressibility (1/GPa) = 0.02300069
#
# Stress axis : x y z
#
# Youngs Moduli (GPa) = 72.40507 62.09297 101.11694
#
# Poissons Ratio (x) = 0.31838 0.13981
# Poissons Ratio (y) = 0.37126 0.19134
# Poissons Ratio (z) = 0.10011 0.11749
#
# Static dielectric constant tensor:
#      x y z
#    x 3.448830 0.000000 0.000000 
#    y 0.000000 3.632710 0.000000 
#    z 0.000000 0.000000 3.912820 
# 
# 
# High freq. dielectric constant tensor:
#      x y z
#    x 1.783480 0.000000 0.000000 
#    y 0.000000 1.779320 0.000000 
#    z 0.000000 0.000000 1.819200 
# 
# From -- ./inp_files/2227.got.cif
#   From: 2010.03.12/outbox.cif.g09.slc.cpg/sg20_2_cif.got.tgz:2227.got - 2010.04.14 01:38:04.
