data_PCOD8158477
_publ_section_title
;
Structure prediction by ZEFSAII (Michael W. Deem and Ramdas Pophale) SiO2 
 PCOD8158477
Probable space group: C 2 2 21
;
_chemical_formula_sum "Si O2"
_cell_formula_units_Z 64
_cell_length_a 16.347979
_cell_length_b 9.514701
_cell_length_c 19.442048
_cell_angle_alpha 90.000000
_cell_angle_beta 90.000000
_cell_angle_gamma 90.000000
_cell_volume 3024.135367
_symmetry_space_group_name_H-M "C 2 2 21"
_symmetry_group_IT_number 20
_symmetry_cell_setting 'orthorhombic'
loop_
_space_group_symop_operation_xyz
x,y,z
-x,-y,1/2+z
x,-y,-z
-x,y,1/2-z
1/2+x,1/2+y,z
1/2-x,1/2-y,1/2+z
1/2+x,1/2-y,-z
1/2-x,1/2+y,1/2-z
loop_
_atom_site_type_symbol
_atom_site_label
_atom_site_fract_x
_atom_site_fract_y
_atom_site_fract_z
Si Si1 0.965263 0.004989 0.077872
Si Si2 0.525758 0.022460 0.828166
Si Si3 0.678032 0.703743 0.576009
Si Si4 0.183478 0.802633 0.578934
Si Si5 0.057423 0.166631 0.184450
Si Si6 0.273264 0.212116 0.707235
Si Si7 0.120963 0.500813 0.576645
Si Si8 0.307211 0.091095 0.307539
O O1 0.906859 0.137909 0.090634
O O2 0.040156 0.037114 0.130914
O O3 0.911514 0.864344 0.092197
O O4 0.000258 0.000000 0.000000
O O5 0.500000 0.023466 0.750000
O O6 0.543956 0.182316 0.851923
O O7 0.452291 0.966127 0.872886
O O8 0.601613 0.915366 0.839187
O O9 0.708660 0.660770 0.499723
O O10 0.744751 0.660059 0.631815
O O11 0.681234 0.870732 0.582881
O O12 0.175419 0.637279 0.594253
O O13 0.245481 0.878601 0.629871
O O14 0.152620 0.173670 0.208197
O O15 0.000000 0.141483 0.250000
O O16 0.201326 0.282170 0.752336
O O17 0.297652 0.056924 0.735205
O O18 0.083671 0.500000 0.500000
#
# Coordination Sequence:
#
# PCOD8158477 Si02
#       8
#     8   8   8   8   8   8   8   8
#     4  10  19  38  63  89 122 158 204 254 302 368
#     4  10  21  39  63  90 123 161 208 259 309 367
#     4  10  22  39  62  93 123 160 206 260 307 368
#     4  10  20  40  66  88 120 165 209 248 313 377
#     4  10  21  38  64  90 120 167 209 250 309 378
#     4  11  24  40  63  91 125 162 212 259 313 371
#     4  10  21  40  65  91 124 164 204 256 317 373
#     4  11  24  40  64  92 123 168 207 263 310 375
#
# _framework density 21.163073000000001
#
# number of rings (size 3 to 8) (size 9 to 14) (size 15 to 20)
#    0.000    1.750    2.500    1.500    5.250    0.000 
#    6.750    2.500    0.000    0.000    0.000    0.000 
#    0.000    0.000    0.000    0.000    0.000    0.000 
#
# Total GULP energy -396544.176898 kJ/mol
# GULP energy per Si atom -12392.005528 kJ/mol
# Density = 2.111491 g / cm^3
# Si number density = 21.163073 Si / 1000 Ang^3
#
#
#
# Elastic Constant Matrix: (Units=GPa)
#
#
# Indices 1 2 3 4 5 6 
#
# 1 75.2029 20.9919 36.1344 0.0000 0.0000 0.0000
# 2 20.9919 107.7653 26.2309 0.0000 0.0000 0.0000
# 3 36.1344 26.2309 92.1185 0.0000 0.0000 0.0000
# 4 0.0000 0.0000 0.0000 29.1401 0.0000 0.0000
# 5 0.0000 0.0000 0.0000 0.0000 28.3408 0.0000
# 6 0.0000 0.0000 0.0000 0.0000 0.0000 28.7902
#
#
#
# Elastic Compliance Matrix: (Units=1/GPa)
#
#
# Indices 1 2 3 4 5 6 
#
# 1 0.016698 -0.001782 -0.006043 0.000000 0.000000 0.000000
# 2 -0.001782 0.010161 -0.002194 0.000000 0.000000 0.000000
# 3 -0.006043 -0.002194 0.013851 0.000000 0.000000 0.000000
# 4 0.000000 0.000000 0.000000 0.034317 0.000000 0.000000
# 5 0.000000 0.000000 0.000000 0.000000 0.035285 0.000000
# 6 0.000000 0.000000 0.000000 0.000000 0.000000 0.034734
#
#
# Mechanical properties :
#
#
# Convention : Reuss Voigt Hill
#
# Bulk Modulus (GPa) = 48.37483 49.08900 48.73192
# Shear Modulus (GPa) = 29.07424 30.03620 29.55522
#
# Velocity S-wave (km/s) = 3.71053 3.77141 3.74109
# Velocity P-wave (km/s) = 6.42379 6.49698 6.46049
#
# Compressibility (1/GPa) = 0.02067191
#
# Stress axis : x y z
#
# Youngs Moduli (GPa) = 59.88672 98.41916 72.19852
#
# Poissons Ratio (x) = 0.17537 0.43627
# Poissons Ratio (y) = 0.10671 0.15842
# Poissons Ratio (z) = 0.36187 0.21596
#
# Static dielectric constant tensor:
#      x y z
#    x 3.567600 0.000000 0.000000 
#    y 0.000000 3.955440 0.000000 
#    z 0.000000 0.000000 3.956850 
# 
# 
# High freq. dielectric constant tensor:
#      x y z
#    x 1.801120 0.000000 0.000000 
#    y 0.000000 1.835650 0.000000 
#    z 0.000000 0.000000 1.831930 
# 
# From -- ./inp_files/27770.got.cif
#   From: 2010.03.12/outbox.cif.g09.slc.cpg/sg20_14_cif.got.tgz:27770.got - 2010.04.14 01:38:04.
