data_PCOD8158752
_publ_section_title
;
Structure prediction by ZEFSAII (Michael W. Deem and Ramdas Pophale) SiO2 
 PCOD8158752
Probable space group: C 2 2 21
;
_chemical_formula_sum "Si O2"
_cell_formula_units_Z 40
_cell_length_a 23.230820
_cell_length_b 8.515068
_cell_length_c 9.816556
_cell_angle_alpha 90.000000
_cell_angle_beta 90.000000
_cell_angle_gamma 90.000000
_cell_volume 1941.832693
_symmetry_space_group_name_H-M "C 2 2 21"
_symmetry_group_IT_number 20
_symmetry_cell_setting 'orthorhombic'
loop_
_space_group_symop_operation_xyz
x,y,z
-x,-y,1/2+z
x,-y,-z
-x,y,1/2-z
1/2+x,1/2+y,z
1/2-x,1/2-y,1/2+z
1/2+x,1/2-y,-z
1/2-x,1/2+y,1/2-z
loop_
_atom_site_type_symbol
_atom_site_label
_atom_site_fract_x
_atom_site_fract_y
_atom_site_fract_z
Si Si1 0.204344 0.896633 0.131079
Si Si2 0.484191 0.822127 0.962453
Si Si3 0.789031 0.886408 0.872368
Si Si4 0.420280 0.311569 0.287481
Si Si5 0.082727 0.105926 0.367604
O O1 0.250398 0.763891 0.096133
O O2 0.147860 0.805407 0.186756
O O3 0.232014 0.012760 0.242725
O O4 0.188377 0.000000 0.000000
O O5 0.544754 0.743158 0.920173
O O6 0.437410 0.800556 0.840654
O O7 0.462270 0.744975 0.103795
O O8 0.495805 0.000000 0.000000
O O9 0.853629 0.824911 0.840396
O O10 0.786327 0.000000 0.000000
O O11 0.437598 0.493263 0.256093
O O12 0.086665 0.000000 0.500000
#
# Coordination Sequence:
#
# PCOD8158752 Si02
#       5
#     8   8   8   8   8
#     4  11  23  39  62  90 122 160 201 254 306 355
#     4  10  20  37  60  86 114 152 203 258 304 354
#     4  10  21  39  60  88 120 158 204 245 299 369
#     4   9  21  39  54  82 120 155 198 248 307 371
#     4   8  17  36  59  78 109 155 194 231 291 371
#
# _framework density 20.599097
#
# number of rings (size 3 to 8) (size 9 to 14) (size 15 to 20)
#    0.000    2.400    0.000    2.400    0.000    7.200 
#    0.000   20.000    0.000    0.000    0.000    0.000 
#    0.000    0.000    0.000    0.000    0.000    0.000 
#
# Total GULP energy -247921.449501 kJ/mol
# GULP energy per Si atom -12396.072475 kJ/mol
# Density = 2.055221 g / cm^3
# Si number density = 20.599097 Si / 1000 Ang^3
#
#
#
# Elastic Constant Matrix: (Units=GPa)
#
#
# Indices 1 2 3 4 5 6 
#
# 1 95.0234 70.4792 22.6025 0.0000 0.0000 0.0000
# 2 70.4792 123.5923 42.6225 0.0000 0.0000 0.0000
# 3 22.6025 42.6225 76.9560 0.0000 0.0000 0.0000
# 4 0.0000 0.0000 0.0000 38.8455 0.0000 0.0000
# 5 0.0000 0.0000 0.0000 0.0000 3.6735 0.0000
# 6 0.0000 0.0000 0.0000 0.0000 0.0000 19.1861
#
#
#
# Elastic Compliance Matrix: (Units=1/GPa)
#
#
# Indices 1 2 3 4 5 6 
#
# 1 0.018253 -0.010581 0.000499 0.000000 0.000000 0.000000
# 2 -0.010581 0.016135 -0.005829 0.000000 0.000000 0.000000
# 3 0.000499 -0.005829 0.016076 0.000000 0.000000 0.000000
# 4 0.000000 0.000000 0.000000 0.025743 0.000000 0.000000
# 5 0.000000 0.000000 0.000000 0.000000 0.272221 0.000000
# 6 0.000000 0.000000 0.000000 0.000000 0.000000 0.052121
#
#
# Mechanical properties :
#
#
# Convention : Reuss Voigt Hill
#
# Bulk Modulus (GPa) = 53.63890 62.99778 58.31834
# Shear Modulus (GPa) = 11.40031 22.99885 17.19958
#
# Velocity S-wave (km/s) = 2.35508 3.34503 2.89272
# Velocity P-wave (km/s) = 5.78715 6.75042 6.28726
#
# Compressibility (1/GPa) = 0.01864319
#
# Stress axis : x y z
#
# Youngs Moduli (GPa) = 54.78565 61.97633 62.20411
#
# Poissons Ratio (x) = 0.65578 -0.03106
# Poissons Ratio (y) = 0.57969 0.36258
# Poissons Ratio (z) = -0.02736 0.36125
#
# Static dielectric constant tensor:
#      x y z
#    x 3.720570 0.000000 0.000000 
#    y 0.000000 3.669530 0.000000 
#    z 0.000000 0.000000 3.968490 
# 
# 
# High freq. dielectric constant tensor:
#      x y z
#    x 1.803470 0.000000 0.000000 
#    y 0.000000 1.790270 0.000000 
#    z 0.000000 0.000000 1.804200 
# 
# From -- ./inp_files/6274.got.cif
#   From: 2010.03.12/outbox.cif.g09.slc.cpg/sg20_4_cif.got.tgz:6274.got - 2010.04.14 01:38:04.
