data_PCOD8158192
_publ_section_title
;
Structure prediction by ZEFSAII (Michael W. Deem and Ramdas Pophale) SiO2 
 PCOD8158192
Probable space group: C 2 2 21
;
_chemical_formula_sum "Si O2"
_cell_formula_units_Z 40
_cell_length_a 24.687695
_cell_length_b 9.057086
_cell_length_c 9.538205
_cell_angle_alpha 90.000000
_cell_angle_beta 90.000000
_cell_angle_gamma 90.000000
_cell_volume 2132.729063
_symmetry_space_group_name_H-M "C 2 2 21"
_symmetry_group_IT_number 20
_symmetry_cell_setting 'orthorhombic'
loop_
_space_group_symop_operation_xyz
x,y,z
-x,-y,1/2+z
x,-y,-z
-x,y,1/2-z
1/2+x,1/2+y,z
1/2-x,1/2-y,1/2+z
1/2+x,1/2-y,-z
1/2-x,1/2+y,1/2-z
loop_
_atom_site_type_symbol
_atom_site_label
_atom_site_fract_x
_atom_site_fract_y
_atom_site_fract_z
Si Si1 0.221436 0.077927 0.648209
Si Si2 0.960027 0.000000 0.500000
Si Si3 0.395161 0.000000 0.000000
Si Si4 0.058126 0.801143 0.534997
Si Si5 0.289792 0.081047 0.134088
Si Si6 0.604405 0.465727 0.276950
O O1 0.231629 0.251777 0.631045
O O2 0.212025 0.000000 0.500000
O O3 0.272255 0.001745 0.724131
O O4 0.168323 0.055206 0.743305
O O5 0.923074 0.946674 0.373042
O O6 0.996626 0.139735 0.451266
O O7 0.435706 0.126162 0.943470
O O8 0.355602 0.067707 0.121387
O O9 0.094310 0.872985 0.657284
O O10 0.079960 0.843955 0.381521
O O11 0.262689 0.000000 0.000000
#
# Coordination Sequence:
#
# PCOD8158192 Si02
#       6
#     8   4   4   8   8   8
#     4  12  21  39  61  84 121 159 191 239 292 343
#     4  10  22  35  60  90 110 145 202 240 274 348
#     4  10  20  39  60  84 116 151 196 228 298 338
#     4  10  18  38  61  78 112 153 188 235 288 341
#     4  10  23  37  58  91 112 158 196 237 284 352
#     4  10  19  37  59  84 110 151 195 232 285 341
#
# _framework density 18.755313999999998
#
# number of rings (size 3 to 8) (size 9 to 14) (size 15 to 20)
#    0.600    1.200    4.000    3.600    4.200    0.000 
#    0.000    4.000    0.000    0.000    0.000    0.000 
#    0.000    0.000    0.000    0.000    0.000    0.000 
#
# Total GULP energy -247923.195300 kJ/mol
# GULP energy per Si atom -12396.159765 kJ/mol
# Density = 1.871263 g / cm^3
# Si number density = 18.755314 Si / 1000 Ang^3
#
#
#
# Elastic Constant Matrix: (Units=GPa)
#
#
# Indices 1 2 3 4 5 6 
#
# 1 71.6897 23.8872 26.1217 0.0000 0.0000 0.0000
# 2 23.8872 156.1500 21.5190 0.0000 0.0000 0.0000
# 3 26.1217 21.5190 64.5808 0.0000 0.0000 0.0000
# 4 0.0000 0.0000 0.0000 20.1448 0.0000 0.0000
# 5 0.0000 0.0000 0.0000 0.0000 30.0053 0.0000
# 6 0.0000 0.0000 0.0000 0.0000 0.0000 15.8656
#
#
#
# Elastic Compliance Matrix: (Units=1/GPa)
#
#
# Indices 1 2 3 4 5 6 
#
# 1 0.016785 -0.001711 -0.006219 0.000000 0.000000 0.000000
# 2 -0.001711 0.006887 -0.001603 0.000000 0.000000 0.000000
# 3 -0.006219 -0.001603 0.018534 0.000000 0.000000 0.000000
# 4 0.000000 0.000000 0.000000 0.049641 0.000000 0.000000
# 5 0.000000 0.000000 0.000000 0.000000 0.033327 0.000000
# 6 0.000000 0.000000 0.000000 0.000000 0.000000 0.063029
#
#
# Mechanical properties :
#
#
# Convention : Reuss Voigt Hill
#
# Bulk Modulus (GPa) = 43.21423 48.38626 45.80025
# Shear Modulus (GPa) = 23.25774 27.92932 25.59353
#
# Velocity S-wave (km/s) = 3.52527 3.86313 3.69806
# Velocity P-wave (km/s) = 6.29771 6.76410 6.53507
#
# Compressibility (1/GPa) = 0.02314053
#
# Stress axis : x y z
#
# Youngs Moduli (GPa) = 59.57664 145.20815 53.95456
#
# Poissons Ratio (x) = 0.24840 0.33556
# Poissons Ratio (y) = 0.10191 0.08648
# Poissons Ratio (z) = 0.37052 0.23274
#
# Static dielectric constant tensor:
#      x y z
#    x 3.328420 0.000000 0.000000 
#    y 0.000000 3.409180 0.000000 
#    z 0.000000 0.000000 3.244990 
# 
# 
# High freq. dielectric constant tensor:
#      x y z
#    x 1.716010 0.000000 0.000000 
#    y 0.000000 1.725930 0.000000 
#    z 0.000000 0.000000 1.712980 
# 
# From -- ./inp_files/11352.got.cif
#   From: 2010.03.12/outbox.cif.g09.slc.cpg/sg20_6_cif.got.tgz:11352.got - 2010.04.14 01:38:04.
