data_PCOD8158978
_publ_section_title
;
Structure prediction by ZEFSAII (Michael W. Deem and Ramdas Pophale) SiO2 
 PCOD8158978
Probable space group: C 2 2 21
;
_chemical_formula_sum "Si O2"
_cell_formula_units_Z 60
_cell_length_a 8.705807
_cell_length_b 29.022216
_cell_length_c 11.755199
_cell_angle_alpha 90.000000
_cell_angle_beta 90.000000
_cell_angle_gamma 90.000000
_cell_volume 2970.089870
_symmetry_space_group_name_H-M "C 2 2 21"
_symmetry_group_IT_number 20
_symmetry_cell_setting 'orthorhombic'
loop_
_space_group_symop_operation_xyz
x,y,z
-x,-y,1/2+z
x,-y,-z
-x,y,1/2-z
1/2+x,1/2+y,z
1/2-x,1/2-y,1/2+z
1/2+x,1/2-y,-z
1/2-x,1/2+y,1/2-z
loop_
_atom_site_type_symbol
_atom_site_label
_atom_site_fract_x
_atom_site_fract_y
_atom_site_fract_z
Si Si1 0.161749 0.716874 0.187391
Si Si2 0.624129 0.782476 0.419613
Si Si3 0.536128 0.885704 0.377837
Si Si4 0.000000 0.425342 0.750000
Si Si5 0.475829 0.385777 0.617332
Si Si6 0.809032 0.373835 0.569717
Si Si7 0.850253 0.790773 0.604986
Si Si8 0.789883 0.449760 0.953214
O O1 0.219186 0.766594 0.144718
O O2 0.163758 0.681398 0.080729
O O3 0.305227 0.700601 0.264534
O O4 0.000000 0.720861 0.250000
O O5 0.590193 0.832979 0.372381
O O6 0.681985 0.781051 0.549739
O O7 0.474848 0.749991 0.408131
O O8 0.500000 0.903257 0.250000
O O9 0.384034 0.890605 0.453383
O O10 0.659563 0.917941 0.440757
O O11 0.121270 0.392957 0.812801
O O12 0.087109 0.454203 0.651045
O O13 0.500000 0.378722 0.750000
O O14 0.638588 0.393187 0.557116
O O15 0.411691 0.339296 0.558660
O O16 0.368271 0.429395 0.594543
O O17 0.756451 0.500000 0.000000
#
# Coordination Sequence:
#
# PCOD8158978 Si02
#       8
#     8   8   8   4   8   8   8   8
#     4  12  22  36  60  95 131 177 231 276 325 392
#     4  12  24  38  58  93 137 181 222 267 334 406
#     4  11  25  46  64  94 139 182 224 272 338 412
#     4  10  20  40  74 104 126 166 230 284 332 390
#     4  12  21  42  69 104 135 166 227 290 338 386
#     4  11  21  39  71  99 129 177 230 283 328 387
#     4  12  22  38  60  95 134 178 224 274 325 396
#     4  11  25  45  72 102 135 172 224 285 346 402
#
# _framework density 20.201411
#
# number of rings (size 3 to 8) (size 9 to 14) (size 15 to 20)
#    0.000    0.533    6.000    3.600    0.933    0.000 
#    2.400    4.667    0.000    0.000    0.000    0.000 
#    0.000    0.000    0.000    0.000    0.000    0.000 
#
# Total GULP energy -371844.791938 kJ/mol
# GULP energy per Si atom -12394.826398 kJ/mol
# Density = 2.015543 g / cm^3
# Si number density = 20.201411 Si / 1000 Ang^3
#
#
#
# Elastic Constant Matrix: (Units=GPa)
#
#
# Indices 1 2 3 4 5 6 
#
# 1 93.8060 40.3846 26.1726 0.0000 0.0000 0.0000
# 2 40.3846 112.7182 23.1609 0.0000 0.0000 0.0000
# 3 26.1726 23.1609 98.4008 0.0000 0.0000 0.0000
# 4 0.0000 0.0000 0.0000 23.4962 0.0000 0.0000
# 5 0.0000 0.0000 0.0000 0.0000 24.4806 0.0000
# 6 0.0000 0.0000 0.0000 0.0000 0.0000 25.7809
#
#
#
# Elastic Compliance Matrix: (Units=1/GPa)
#
#
# Indices 1 2 3 4 5 6 
#
# 1 0.013171 -0.004202 -0.002514 0.000000 0.000000 0.000000
# 2 -0.004202 0.010663 -0.001392 0.000000 0.000000 0.000000
# 3 -0.002514 -0.001392 0.011159 0.000000 0.000000 0.000000
# 4 0.000000 0.000000 0.000000 0.042560 0.000000 0.000000
# 5 0.000000 0.000000 0.000000 0.000000 0.040849 0.000000
# 6 0.000000 0.000000 0.000000 0.000000 0.000000 0.038788
#
#
# Mechanical properties :
#
#
# Convention : Reuss Voigt Hill
#
# Bulk Modulus (GPa) = 53.25922 53.81793 53.53857
# Shear Modulus (GPa) = 27.82944 29.09868 28.46406
#
# Velocity S-wave (km/s) = 3.71563 3.79941 3.75776
# Velocity P-wave (km/s) = 6.69546 6.77834 6.73703
#
# Compressibility (1/GPa) = 0.01877609
#
# Stress axis : x y z
#
# Youngs Moduli (GPa) = 75.92507 93.77946 89.61468
#
# Poissons Ratio (x) = 0.39409 0.22530
# Poissons Ratio (y) = 0.31906 0.12476
# Poissons Ratio (z) = 0.19088 0.13055
#
# Static dielectric constant tensor:
#      x y z
#    x 3.814780 0.000000 0.000000 
#    y 0.000000 3.410020 0.000000 
#    z 0.000000 0.000000 3.790210 
# 
# 
# High freq. dielectric constant tensor:
#      x y z
#    x 1.804390 0.000000 0.000000 
#    y 0.000000 1.763140 0.000000 
#    z 0.000000 0.000000 1.790090 
# 
# From -- ./inp_files/13282.got.cif
#   From: 2010.03.12/outbox.cif.g09.slc.cpg/sg20_7_cif.got.tgz:13282.got - 2010.04.14 01:38:04.
