data_PCOD8158328
_publ_section_title
;
Structure prediction by ZEFSAII (Michael W. Deem and Ramdas Pophale) SiO2 
 PCOD8158328
Probable space group: C 2 2 21
;
_chemical_formula_sum "Si O2"
_cell_formula_units_Z 64
_cell_length_a 21.077029
_cell_length_b 8.587572
_cell_length_c 18.980947
_cell_angle_alpha 90.000000
_cell_angle_beta 90.000000
_cell_angle_gamma 90.000000
_cell_volume 3435.560975
_symmetry_space_group_name_H-M "C 2 2 21"
_symmetry_group_IT_number 20
_symmetry_cell_setting 'orthorhombic'
loop_
_space_group_symop_operation_xyz
x,y,z
-x,-y,1/2+z
x,-y,-z
-x,y,1/2-z
1/2+x,1/2+y,z
1/2-x,1/2-y,1/2+z
1/2+x,1/2-y,-z
1/2-x,1/2+y,1/2-z
loop_
_atom_site_type_symbol
_atom_site_label
_atom_site_fract_x
_atom_site_fract_y
_atom_site_fract_z
Si Si1 0.296830 0.048207 0.788679
Si Si2 0.907368 0.630336 0.276317
Si Si3 0.980822 0.379194 0.865260
Si Si4 0.000553 0.953837 0.424026
Si Si5 0.565124 0.465858 0.209595
Si Si6 0.319918 0.409671 0.784590
Si Si7 0.144337 0.058682 0.573988
Si Si8 0.141210 0.569843 0.426265
O O1 0.300345 0.232324 0.788524
O O2 0.344480 0.972959 0.730733
O O3 0.226194 0.999580 0.768534
O O4 0.311233 0.992740 0.867444
O O5 0.935837 0.667500 0.199724
O O6 0.895310 0.805570 0.304430
O O7 0.956213 0.541492 0.330796
O O8 0.002592 0.231276 0.910866
O O9 0.932896 0.485164 0.912436
O O10 0.073326 0.010873 0.418304
O O11 0.956057 0.038541 0.365781
O O12 0.972556 0.000000 0.500000
O O13 0.500000 0.426394 0.250000
O O14 0.608877 0.584207 0.252938
O O15 0.315134 0.490567 0.861211
O O16 0.144429 0.244316 0.574281
O O17 0.174058 0.000000 0.500000
O O18 0.164171 0.500000 0.500000
#
# Coordination Sequence:
#
# PCOD8158328 Si02
#       8
#     8   8   8   8   8   8   8   8
#     4  11  24  38  57  84 111 155 198 244 285 343
#     4   9  15  33  57  79 105 144 190 227 287 341
#     4   8  14  28  51  77 108 144 178 223 282 331
#     4   9  16  28  50  81 113 146 184 223 286 343
#     4  11  17  34  57  82 112 150 185 236 289 348
#     4  12  23  39  57  83 115 151 201 242 288 344
#     4  10  19  34  58  84 113 147 183 238 288 341
#     4  10  19  35  55  85 117 151 192 233 284 342
#
# _framework density 18.628689999999999
#
# number of rings (size 3 to 8) (size 9 to 14) (size 15 to 20)
#    0.000    2.000    3.750    3.750    0.000    0.000 
#    4.500    0.625    0.000    5.250    0.000    0.000 
#    0.000    0.000    0.000    0.000    0.000    0.000 
#
# Total GULP energy -396491.733418 kJ/mol
# GULP energy per Si atom -12390.366669 kJ/mol
# Density = 1.858629 g / cm^3
# Si number density = 18.628690 Si / 1000 Ang^3
#
#
#
# Elastic Constant Matrix: (Units=GPa)
#
#
# Indices 1 2 3 4 5 6 
#
# 1 71.7764 30.0160 44.7608 0.0000 0.0000 0.0000
# 2 30.0160 87.5121 40.9669 0.0000 0.0000 0.0000
# 3 44.7608 40.9669 135.2657 0.0000 0.0000 0.0000
# 4 0.0000 0.0000 0.0000 27.8010 0.0000 0.0000
# 5 0.0000 0.0000 0.0000 0.0000 27.8562 0.0000
# 6 0.0000 0.0000 0.0000 0.0000 0.0000 60.2833
#
#
#
# Elastic Compliance Matrix: (Units=1/GPa)
#
#
# Indices 1 2 3 4 5 6 
#
# 1 0.018742 -0.004107 -0.004958 0.000000 0.000000 0.000000
# 2 -0.004107 0.014215 -0.002946 0.000000 0.000000 0.000000
# 3 -0.004958 -0.002946 0.009926 0.000000 0.000000 0.000000
# 4 0.000000 0.000000 0.000000 0.035970 0.000000 0.000000
# 5 0.000000 0.000000 0.000000 0.000000 0.035899 0.000000
# 6 0.000000 0.000000 0.000000 0.000000 0.000000 0.016588
#
#
# Mechanical properties :
#
#
# Convention : Reuss Voigt Hill
#
# Bulk Modulus (GPa) = 53.02273 58.44908 55.73591
# Shear Modulus (GPa) = 30.93141 35.10880 33.02010
#
# Velocity S-wave (km/s) = 4.07924 4.34598 4.21472
# Velocity P-wave (km/s) = 7.12121 7.52511 7.32595
#
# Compressibility (1/GPa) = 0.01885983
#
# Stress axis : x y z
#
# Youngs Moduli (GPa) = 53.35733 70.34879 100.74875
#
# Poissons Ratio (x) = 0.28895 0.49949
# Poissons Ratio (y) = 0.21916 0.29681
# Poissons Ratio (z) = 0.26454 0.20725
#
# Static dielectric constant tensor:
#      x y z
#    x 3.463890 0.000000 0.000000 
#    y 0.000000 3.148020 0.000000 
#    z 0.000000 0.000000 3.437830 
# 
# 
# High freq. dielectric constant tensor:
#      x y z
#    x 1.700540 0.000000 0.000000 
#    y 0.000000 1.699630 0.000000 
#    z 0.000000 0.000000 1.726090 
# 
# From -- ./inp_files/25507.got.cif
#   From: 2010.03.12/outbox.cif.g09.slc.cpg/sg20_13_cif.got.tgz:25507.got - 2010.04.14 01:38:04.
