data_PCOD8158138
_publ_section_title
;
Structure prediction by ZEFSAII (Michael W. Deem and Ramdas Pophale) SiO2 
 PCOD8158138
Probable space group: C 2 2 21
;
_chemical_formula_sum "Si O2"
_cell_formula_units_Z 60
_cell_length_a 28.764749
_cell_length_b 8.659283
_cell_length_c 12.400129
_cell_angle_alpha 90.000000
_cell_angle_beta 90.000000
_cell_angle_gamma 90.000000
_cell_volume 3088.650197
_symmetry_space_group_name_H-M "C 2 2 21"
_symmetry_group_IT_number 20
_symmetry_cell_setting 'orthorhombic'
loop_
_space_group_symop_operation_xyz
x,y,z
-x,-y,1/2+z
x,-y,-z
-x,y,1/2-z
1/2+x,1/2+y,z
1/2-x,1/2-y,1/2+z
1/2+x,1/2-y,-z
1/2-x,1/2+y,1/2-z
loop_
_atom_site_type_symbol
_atom_site_label
_atom_site_fract_x
_atom_site_fract_y
_atom_site_fract_z
Si Si1 0.487156 0.500000 0.000000
Si Si2 0.364002 0.808930 0.312569
Si Si3 0.917717 0.905618 0.174548
Si Si4 0.846133 0.340584 0.744504
Si Si5 0.169250 0.100235 0.368404
Si Si6 0.789408 0.793865 0.075148
Si Si7 0.958793 0.853210 0.678233
Si Si8 0.307766 0.179081 0.486028
O O1 0.456797 0.607982 0.918677
O O2 0.520708 0.377830 0.940662
O O3 0.329976 0.705635 0.237977
O O4 0.418057 0.770529 0.311675
O O5 0.349224 0.774648 0.434675
O O6 0.359573 0.984191 0.275334
O O7 0.892401 0.749312 0.215080
O O8 0.880488 0.021021 0.123353
O O9 0.941458 0.980292 0.279355
O O10 0.806679 0.330121 0.836955
O O11 0.823429 0.270877 0.634299
O O12 0.174919 0.205932 0.474314
O O13 0.209509 0.966507 0.368688
O O14 0.739670 0.740602 0.027918
O O15 0.000000 0.783712 0.750000
O O16 0.297282 0.000000 0.500000
#
# Coordination Sequence:
#
# PCOD8158138 Si02
#       8
#     4   8   8   8   8   8   8   8
#     4  10  18  34  66  88 110 140 202 244 286 342
#     4  10  22  37  59  82 123 154 183 239 305 344
#     4   9  18  36  59  89 110 148 191 241 288 342
#     4  10  22  37  59  85 121 157 191 233 296 351
#     4   9  18  36  61  81 111 153 197 238 282 332
#     4  10  19  35  60  81 111 156 206 238 270 330
#     4   9  20  37  60  86 109 147 194 243 286 347
#     4  10  21  36  56  81 120 159 187 235 290 339
#
# _framework density 19.425961000000001
#
# number of rings (size 3 to 8) (size 9 to 14) (size 15 to 20)
#    0.000    2.400    1.333    1.600    3.733    0.533 
#    0.000    2.000    8.800    0.000    0.000    0.000 
#    0.000    0.000    0.000    0.000    0.000    0.000 
#
# Total GULP energy -371744.785141 kJ/mol
# GULP energy per Si atom -12391.492838 kJ/mol
# Density = 1.938175 g / cm^3
# Si number density = 19.425961 Si / 1000 Ang^3
#
#
#
# Elastic Constant Matrix: (Units=GPa)
#
#
# Indices 1 2 3 4 5 6 
#
# 1 116.8202 41.7950 58.6825 0.0000 0.0000 0.0000
# 2 41.7950 61.0223 44.7849 0.0000 0.0000 0.0000
# 3 58.6825 44.7849 128.5385 0.0000 0.0000 0.0000
# 4 0.0000 0.0000 0.0000 23.9274 0.0000 0.0000
# 5 0.0000 0.0000 0.0000 0.0000 36.8488 0.0000
# 6 0.0000 0.0000 0.0000 0.0000 0.0000 19.3130
#
#
#
# Elastic Compliance Matrix: (Units=1/GPa)
#
#
# Indices 1 2 3 4 5 6 
#
# 1 0.012501 -0.005876 -0.003660 0.000000 0.000000 0.000000
# 2 -0.005876 0.024779 -0.005951 0.000000 0.000000 0.000000
# 3 -0.003660 -0.005951 0.011524 0.000000 0.000000 0.000000
# 4 0.000000 0.000000 0.000000 0.041793 0.000000 0.000000
# 5 0.000000 0.000000 0.000000 0.000000 0.027138 0.000000
# 6 0.000000 0.000000 0.000000 0.000000 0.000000 0.051779
#
#
# Mechanical properties :
#
#
# Convention : Reuss Voigt Hill
#
# Bulk Modulus (GPa) = 56.08276 66.32285 61.20281
# Shear Modulus (GPa) = 24.22115 26.75908 25.49011
#
# Velocity S-wave (km/s) = 3.53490 3.71548 3.62631
# Velocity P-wave (km/s) = 6.75229 7.25409 7.00768
#
# Compressibility (1/GPa) = 0.01783079
#
# Stress axis : x y z
#
# Youngs Moduli (GPa) = 79.99440 40.35597 86.77540
#
# Poissons Ratio (x) = 0.23713 0.31758
# Poissons Ratio (y) = 0.47005 0.51640
# Poissons Ratio (z) = 0.29276 0.24016
#
# Static dielectric constant tensor:
#      x y z
#    x 3.723880 0.000000 0.000000 
#    y 0.000000 3.224720 0.000000 
#    z 0.000000 0.000000 3.900140 
# 
# 
# High freq. dielectric constant tensor:
#      x y z
#    x 1.763120 0.000000 0.000000 
#    y 0.000000 1.713610 0.000000 
#    z 0.000000 0.000000 1.772870 
# 
# From -- ./inp_files/17068.got.cif
#   From: 2010.03.12/outbox.cif.g09.slc.cpg/sg20_9_cif.got.tgz:17068.got - 2010.04.14 01:38:04.
