data_PCOD8158385
_publ_section_title
;
Structure prediction by ZEFSAII (Michael W. Deem and Ramdas Pophale) SiO2 
 PCOD8158385
Probable space group: C 2 2 21
;
_chemical_formula_sum "Si O2"
_cell_formula_units_Z 56
_cell_length_a 8.986859
_cell_length_b 20.985344
_cell_length_c 14.335589
_cell_angle_alpha 90.000000
_cell_angle_beta 90.000000
_cell_angle_gamma 90.000000
_cell_volume 2703.582097
_symmetry_space_group_name_H-M "C 2 2 21"
_symmetry_group_IT_number 20
_symmetry_cell_setting 'orthorhombic'
loop_
_space_group_symop_operation_xyz
x,y,z
-x,-y,1/2+z
x,-y,-z
-x,y,1/2-z
1/2+x,1/2+y,z
1/2-x,1/2-y,1/2+z
1/2+x,1/2-y,-z
1/2-x,1/2+y,1/2-z
loop_
_atom_site_type_symbol
_atom_site_label
_atom_site_fract_x
_atom_site_fract_y
_atom_site_fract_z
Si Si1 0.916715 0.891851 0.045317
Si Si2 0.355508 0.477300 0.201640
Si Si3 0.754527 0.425104 0.005238
Si Si4 0.626315 0.378658 0.654161
Si Si5 0.361468 0.710932 0.807919
Si Si6 0.843216 0.388487 0.202482
Si Si7 0.710656 0.337815 0.837738
O O1 0.829656 0.947264 0.099805
O O2 0.927226 0.828459 0.105779
O O3 0.079164 0.918292 0.021335
O O4 0.818245 0.878362 0.952391
O O5 0.500000 0.444353 0.250000
O O6 0.388935 0.550800 0.194368
O O7 0.214708 0.458566 0.265370
O O8 0.846731 0.391031 0.089363
O O9 0.796702 0.500000 0.000000
O O10 0.791427 0.388236 0.907687
O O11 0.744379 0.347693 0.726298
O O12 0.467496 0.342839 0.653161
O O13 0.500000 0.739399 0.750000
O O14 0.264180 0.667235 0.738978
O O15 0.266469 0.766656 0.857331
O O16 0.000000 0.374706 0.250000
#
# Coordination Sequence:
#
# PCOD8158385 Si02
#       7
#     8   8   8   8   8   8   8
#     4  10  19  35  64  98 120 170 218 272 327 395
#     4  11  17  36  66  94 127 161 220 267 322 405
#     4  11  20  40  69  97 131 171 222 271 342 403
#     4  10  20  37  61  97 127 163 213 272 333 387
#     4  11  23  45  62  89 131 172 230 270 328 400
#     4  11  24  40  64  97 132 179 212 271 340 395
#     4  10  22  36  61  98 124 169 219 269 321 391
#
# _framework density 20.713260999999999
#
# number of rings (size 3 to 8) (size 9 to 14) (size 15 to 20)
#    0.000    1.429    4.286    3.857    2.000    1.143 
#    2.571    7.143    0.000    0.000    0.000    0.000 
#    0.000    0.000    0.000    0.000    0.000    0.000 
#
# Total GULP energy -346955.333651 kJ/mol
# GULP energy per Si atom -12391.261916 kJ/mol
# Density = 2.066612 g / cm^3
# Si number density = 20.713261 Si / 1000 Ang^3
#
#
#
# Elastic Constant Matrix: (Units=GPa)
#
#
# Indices 1 2 3 4 5 6 
#
# 1 60.0070 23.2502 19.8033 0.0000 0.0000 0.0000
# 2 23.2502 108.0316 12.3701 0.0000 0.0000 0.0000
# 3 19.8033 12.3701 117.7593 0.0000 0.0000 0.0000
# 4 0.0000 0.0000 0.0000 22.8485 0.0000 0.0000
# 5 0.0000 0.0000 0.0000 0.0000 26.4173 0.0000
# 6 0.0000 0.0000 0.0000 0.0000 0.0000 25.1723
#
#
#
# Elastic Compliance Matrix: (Units=1/GPa)
#
#
# Indices 1 2 3 4 5 6 
#
# 1 0.019056 -0.003780 -0.002808 0.000000 0.000000 0.000000
# 2 -0.003780 0.010119 -0.000427 0.000000 0.000000 0.000000
# 3 -0.002808 -0.000427 0.009009 0.000000 0.000000 0.000000
# 4 0.000000 0.000000 0.000000 0.043766 0.000000 0.000000
# 5 0.000000 0.000000 0.000000 0.000000 0.037854 0.000000
# 6 0.000000 0.000000 0.000000 0.000000 0.000000 0.039726
#
#
# Mechanical properties :
#
#
# Convention : Reuss Voigt Hill
#
# Bulk Modulus (GPa) = 41.40001 44.07166 42.73583
# Shear Modulus (GPa) = 27.53143 30.24592 28.88868
#
# Velocity S-wave (km/s) = 3.64973 3.82543 3.73861
# Velocity P-wave (km/s) = 6.14746 6.39023 6.27002
#
# Compressibility (1/GPa) = 0.02415459
#
# Stress axis : x y z
#
# Youngs Moduli (GPa) = 52.47772 98.82477 111.00104
#
# Poissons Ratio (x) = 0.37352 0.31164
# Poissons Ratio (y) = 0.19835 0.04744
# Poissons Ratio (z) = 0.14733 0.04223
#
# Static dielectric constant tensor:
#      x y z
#    x 3.337790 0.000000 0.000000 
#    y 0.000000 3.668640 0.000000 
#    z 0.000000 0.000000 4.563640 
# 
# 
# High freq. dielectric constant tensor:
#      x y z
#    x 1.760300 0.000000 0.000000 
#    y 0.000000 1.805340 0.000000 
#    z 0.000000 0.000000 1.834810 
# 
# From -- ./inp_files/19215.got.cif
#   From: 2010.03.12/outbox.cif.g09.slc.cpg/sg20_10_cif.got.tgz:19215.got - 2010.04.14 01:38:04.
