data_PCOD8158864
_publ_section_title
;
Structure prediction by ZEFSAII (Michael W. Deem and Ramdas Pophale) SiO2 
 PCOD8158864
Probable space group: C 2 2 21
;
_chemical_formula_sum "Si O2"
_cell_formula_units_Z 60
_cell_length_a 9.651643
_cell_length_b 12.658538
_cell_length_c 22.557588
_cell_angle_alpha 90.000000
_cell_angle_beta 90.000000
_cell_angle_gamma 90.000000
_cell_volume 2755.988871
_symmetry_space_group_name_H-M "C 2 2 21"
_symmetry_group_IT_number 20
_symmetry_cell_setting 'orthorhombic'
loop_
_space_group_symop_operation_xyz
x,y,z
-x,-y,1/2+z
x,-y,-z
-x,y,1/2-z
1/2+x,1/2+y,z
1/2-x,1/2-y,1/2+z
1/2+x,1/2-y,-z
1/2-x,1/2+y,1/2-z
loop_
_atom_site_type_symbol
_atom_site_label
_atom_site_fract_x
_atom_site_fract_y
_atom_site_fract_z
Si Si1 0.130763 0.961639 0.718629
Si Si2 0.536466 0.029395 0.414463
Si Si3 0.107508 0.668943 0.518389
Si Si4 0.221403 0.030886 0.404950
Si Si5 0.406836 0.305585 0.448224
Si Si6 0.888055 0.165618 0.847875
Si Si7 0.124756 0.382005 0.705598
Si Si8 0.016858 0.000000 0.500000
O O1 0.174316 0.909075 0.655659
O O2 0.258837 0.950949 0.762639
O O3 0.000000 0.904549 0.750000
O O4 0.083777 0.083815 0.706055
O O5 0.631881 0.101280 0.457542
O O6 0.376060 0.065459 0.423422
O O7 0.576023 0.041204 0.346530
O O8 0.549256 0.906672 0.430307
O O9 0.245676 0.725912 0.544534
O O10 0.993319 0.754803 0.501859
O O11 0.208500 0.901313 0.394523
O O12 0.118162 0.066789 0.456704
O O13 0.473829 0.289182 0.382546
O O14 0.415048 0.430583 0.460045
O O15 0.816949 0.270474 0.820367
O O16 0.000000 0.356240 0.750000
#
# Coordination Sequence:
#
# PCOD8158864 Si02
#       8
#     8   8   8   8   8   8   8   4
#     4  10  23  41  65  98 130 176 224 282 334 394
#     4  11  23  42  67  97 138 171 230 276 343 401
#     4  11  26  40  68 100 136 175 225 278 344 415
#     4   9  21  41  64  97 130 182 210 288 342 387
#     4  11  24  42  64 103 131 176 219 278 347 400
#     4   9  22  43  67  92 138 172 226 277 337 403
#     4  12  22  42  71  95 131 184 229 275 342 401
#     4  10  20  38  70  84 140 168 230 266 342 410
#
# _framework density 21.770771
#
# number of rings (size 3 to 8) (size 9 to 14) (size 15 to 20)
#    0.800    0.800    2.667    2.000    7.467    1.067 
#    0.000    2.000    0.000    0.000    0.000    0.000 
#    0.000    0.000    0.000    0.000    0.000    0.000 
#
# Total GULP energy -371680.239770 kJ/mol
# GULP energy per Si atom -12389.341326 kJ/mol
# Density = 2.172122 g / cm^3
# Si number density = 21.770771 Si / 1000 Ang^3
#
#
#
# Elastic Constant Matrix: (Units=GPa)
#
#
# Indices 1 2 3 4 5 6 
#
# 1 90.0424 0.8618 15.2377 0.0000 0.0000 0.0000
# 2 0.8618 30.9772 11.5632 0.0000 0.0000 0.0000
# 3 15.2377 11.5632 94.6607 0.0000 0.0000 0.0000
# 4 0.0000 0.0000 0.0000 29.3248 0.0000 0.0000
# 5 0.0000 0.0000 0.0000 0.0000 39.7146 0.0000
# 6 0.0000 0.0000 0.0000 0.0000 0.0000 28.0281
#
#
#
# Elastic Compliance Matrix: (Units=1/GPa)
#
#
# Indices 1 2 3 4 5 6 
#
# 1 0.011421 0.000386 -0.001886 0.000000 0.000000 0.000000
# 2 0.000386 0.033837 -0.004196 0.000000 0.000000 0.000000
# 3 -0.001886 -0.004196 0.011380 0.000000 0.000000 0.000000
# 4 0.000000 0.000000 0.000000 0.034101 0.000000 0.000000
# 5 0.000000 0.000000 0.000000 0.000000 0.025180 0.000000
# 6 0.000000 0.000000 0.000000 0.000000 0.000000 0.035678
#
#
# Mechanical properties :
#
#
# Convention : Reuss Voigt Hill
#
# Bulk Modulus (GPa) = 22.10017 30.11173 26.10595
# Shear Modulus (GPa) = 28.07877 31.94800 30.01338
#
# Velocity S-wave (km/s) = 3.59520 3.83492 3.71699
# Velocity P-wave (km/s) = 5.23520 5.78533 5.51713
#
# Compressibility (1/GPa) = 0.04524852
#
# Stress axis : x y z
#
# Youngs Moduli (GPa) = 87.55581 29.55325 87.87281
#
# Poissons Ratio (x) = -0.01141 0.16570
# Poissons Ratio (y) = -0.03381 0.36867
# Poissons Ratio (z) = 0.16510 0.12399
#
# Static dielectric constant tensor:
#      x y z
#    x 3.751580 0.000000 0.000000 
#    y 0.000000 3.746570 0.000000 
#    z 0.000000 0.000000 4.010600 
# 
# 
# High freq. dielectric constant tensor:
#      x y z
#    x 1.837130 0.000000 0.000000 
#    y 0.000000 1.842630 0.000000 
#    z 0.000000 0.000000 1.862810 
# 
# From -- ./inp_files/28856.got.cif
#   From: 2010.03.12/outbox.cif.g09.slc.cpg/sg20_15_cif.got.tgz:28856.got - 2010.04.14 01:38:04.
