data_PCOD8158458
_publ_section_title
;
Structure prediction by ZEFSAII (Michael W. Deem and Ramdas Pophale) SiO2 
 PCOD8158458
Probable space group: C 2 2 21
;
_chemical_formula_sum "Si O2"
_cell_formula_units_Z 64
_cell_length_a 17.736716
_cell_length_b 6.208253
_cell_length_c 29.086345
_cell_angle_alpha 90.000000
_cell_angle_beta 90.000000
_cell_angle_gamma 90.000000
_cell_volume 3202.814384
_symmetry_space_group_name_H-M "C 2 2 21"
_symmetry_group_IT_number 20
_symmetry_cell_setting 'orthorhombic'
loop_
_space_group_symop_operation_xyz
x,y,z
-x,-y,1/2+z
x,-y,-z
-x,y,1/2-z
1/2+x,1/2+y,z
1/2-x,1/2-y,1/2+z
1/2+x,1/2-y,-z
1/2-x,1/2+y,1/2-z
loop_
_atom_site_type_symbol
_atom_site_label
_atom_site_fract_x
_atom_site_fract_y
_atom_site_fract_z
Si Si1 0.574875 0.651990 0.724989
Si Si2 0.412241 0.369816 0.861768
Si Si3 0.334519 0.162352 0.380481
Si Si4 0.346064 0.512282 0.309019
Si Si5 0.673522 0.977039 0.679310
Si Si6 0.293847 0.348798 0.103122
Si Si7 0.426114 0.775343 0.386193
Si Si8 0.313282 0.548272 0.446858
O O1 0.500000 0.728786 0.750000
O O2 0.557775 0.537815 0.676417
O O3 0.617811 0.486234 0.758641
O O4 0.621158 0.871702 0.718111
O O5 0.365494 0.488909 0.903405
O O6 0.484026 0.252668 0.884033
O O7 0.356028 0.211025 0.834796
O O8 0.359410 0.285907 0.334821
O O9 0.301008 0.325600 0.418990
O O10 0.270020 0.985733 0.370444
O O11 0.409130 0.028482 0.395512
O O12 0.257329 0.530951 0.300919
O O13 0.383180 0.701980 0.339450
O O14 0.672049 0.837834 0.633639
O O15 0.254685 0.224778 0.059999
O O16 0.392938 0.642025 0.429236
O O17 0.319055 0.500000 0.500000
#
# Coordination Sequence:
#
# PCOD8158458 Si02
#       8
#     8   8   8   8   8   8   8   8
#     4  11  26  38  54  86 125 163 211 267 308 358
#     4  11  23  40  59  88 126 170 208 255 315 377
#     4  10  19  37  65  89 118 160 202 252 308 374
#     4  11  21  40  55  87 118 161 213 257 306 364
#     4  11  23  37  60  85 117 162 212 250 308 370
#     4  10  19  39  62  91 120 157 202 251 312 373
#     4  10  22  38  64  85 122 164 200 252 315 373
#     4  10  21  39  68 100 120 152 208 261 315 387
#
# _framework density 19.982424000000002
#
# number of rings (size 3 to 8) (size 9 to 14) (size 15 to 20)
#    0.000    1.500    6.250    0.000    3.500    4.500 
#    0.000    0.000    5.500    0.000    0.000    0.000 
#    0.000    0.000    0.000    0.000    0.000    0.000 
#
# Total GULP energy -396503.175335 kJ/mol
# GULP energy per Si atom -12390.724229 kJ/mol
# Density = 1.993694 g / cm^3
# Si number density = 19.982424 Si / 1000 Ang^3
#
#
#
# Elastic Constant Matrix: (Units=GPa)
#
#
# Indices 1 2 3 4 5 6 
#
# 1 128.2707 24.3353 17.9924 0.0000 0.0000 0.0000
# 2 24.3353 79.0662 12.1200 0.0000 0.0000 0.0000
# 3 17.9924 12.1200 57.8227 0.0000 0.0000 0.0000
# 4 0.0000 0.0000 0.0000 12.3846 0.0000 0.0000
# 5 0.0000 0.0000 0.0000 0.0000 18.6573 0.0000
# 6 0.0000 0.0000 0.0000 0.0000 0.0000 36.2170
#
#
#
# Elastic Compliance Matrix: (Units=1/GPa)
#
#
# Indices 1 2 3 4 5 6 
#
# 1 0.008536 -0.002294 -0.002175 0.000000 0.000000 0.000000
# 2 -0.002294 0.013684 -0.002154 0.000000 0.000000 0.000000
# 3 -0.002175 -0.002154 0.018423 0.000000 0.000000 0.000000
# 4 0.000000 0.000000 0.000000 0.080745 0.000000 0.000000
# 5 0.000000 0.000000 0.000000 0.000000 0.053598 0.000000
# 6 0.000000 0.000000 0.000000 0.000000 0.000000 0.027611
#
#
# Mechanical properties :
#
#
# Convention : Reuss Voigt Hill
#
# Bulk Modulus (GPa) = 36.50230 41.56165 39.03197
# Shear Modulus (GPa) = 22.22444 27.49923 24.86184
#
# Velocity S-wave (km/s) = 3.33858 3.71370 3.53113
# Velocity P-wave (km/s) = 5.75920 6.26363 6.01670
#
# Compressibility (1/GPa) = 0.02739553
#
# Stress axis : x y z
#
# Youngs Moduli (GPa) = 117.14621 73.07857 54.28074
#
# Poissons Ratio (x) = 0.16763 0.11808
# Poissons Ratio (y) = 0.26872 0.11695
# Poissons Ratio (z) = 0.25484 0.15744
#
# Static dielectric constant tensor:
#      x y z
#    x 3.775060 0.000000 0.000000 
#    y 0.000000 3.970550 0.000000 
#    z 0.000000 0.000000 3.231470 
# 
# 
# High freq. dielectric constant tensor:
#      x y z
#    x 1.784950 0.000000 0.000000 
#    y 0.000000 1.794430 0.000000 
#    z 0.000000 0.000000 1.732910 
# 
# From -- ./inp_files/31374.got.cif
#   From: 2010.03.12/outbox.cif.g09.slc.cpg/sg20_16_cif.got.tgz:31374.got - 2010.04.14 01:38:04.
