data_PCOD8158916
_publ_section_title
;
Structure prediction by ZEFSAII (Michael W. Deem and Ramdas Pophale) SiO2 
 PCOD8158916
Probable space group: C 2 2 21
;
_chemical_formula_sum "Si O2"
_cell_formula_units_Z 64
_cell_length_a 22.404261
_cell_length_b 9.031869
_cell_length_c 14.174684
_cell_angle_alpha 90.000000
_cell_angle_beta 90.000000
_cell_angle_gamma 90.000000
_cell_volume 2868.280623
_symmetry_space_group_name_H-M "C 2 2 21"
_symmetry_group_IT_number 20
_symmetry_cell_setting 'orthorhombic'
loop_
_space_group_symop_operation_xyz
x,y,z
-x,-y,1/2+z
x,-y,-z
-x,y,1/2-z
1/2+x,1/2+y,z
1/2-x,1/2-y,1/2+z
1/2+x,1/2-y,-z
1/2-x,1/2+y,1/2-z
loop_
_atom_site_type_symbol
_atom_site_label
_atom_site_fract_x
_atom_site_fract_y
_atom_site_fract_z
Si Si1 0.485450 0.103158 0.592066
Si Si2 0.807727 0.961824 0.098196
Si Si3 0.620105 0.931928 0.398121
Si Si4 0.690947 0.171113 0.884012
Si Si5 0.145895 0.122162 0.788566
Si Si6 0.096222 0.116239 0.079006
Si Si7 0.893263 0.439179 0.700640
Si Si8 0.225310 0.259022 0.322525
O O1 0.554658 0.140244 0.608782
O O2 0.457080 0.267173 0.591361
O O3 0.475207 0.000000 0.500000
O O4 0.458353 0.008564 0.679327
O O5 0.754896 0.849502 0.066287
O O6 0.853216 0.893663 0.174192
O O7 0.767560 0.088910 0.148026
O O8 0.842077 0.000000 0.000000
O O9 0.673374 0.815343 0.391811
O O10 0.628749 0.000000 0.500000
O O11 0.626252 0.044694 0.310206
O O12 0.654645 0.287480 0.948968
O O13 0.700257 0.244665 0.782554
O O14 0.652636 0.020761 0.870464
O O15 0.106713 0.263950 0.818841
O O16 0.213434 0.146440 0.828183
O O17 0.112437 0.977110 0.827218
O O18 0.078384 0.000000 0.000000
#
# Coordination Sequence:
#
# PCOD8158916 Si02
#       8
#     8   8   8   8   8   8   8   8
#     4  10  22  44  69  95 125 167 226 273 319 384
#     4  11  23  36  59  88 135 183 206 252 325 391
#     4  10  23  41  70  92 124 171 225 261 312 390
#     4   9  20  38  58  86 127 168 214 255 310 386
#     4  11  23  40  63 100 136 161 215 273 325 388
#     4  11  23  38  66  99 126 168 211 277 339 371
#     4  10  20  39  68  93 124 168 213 269 318 378
#     4  10  21  40  60  91 133 171 205 263 321 385
#
# _framework density 22.313020000000002
#
# number of rings (size 3 to 8) (size 9 to 14) (size 15 to 20)
#    0.000    1.750    2.500    1.125    3.500    2.500 
#    0.000    0.625    5.500    0.000    0.000    0.000 
#    0.000    0.000    0.000    0.000    0.000    0.000 
#
# Total GULP energy -396542.352283 kJ/mol
# GULP energy per Si atom -12391.948509 kJ/mol
# Density = 2.226223 g / cm^3
# Si number density = 22.313020 Si / 1000 Ang^3
#
#
#
# Elastic Constant Matrix: (Units=GPa)
#
#
# Indices 1 2 3 4 5 6 
#
# 1 99.5549 44.1056 20.7567 0.0000 0.0000 0.0000
# 2 44.1056 127.0990 28.5898 0.0000 0.0000 0.0000
# 3 20.7567 28.5898 60.6901 0.0000 0.0000 0.0000
# 4 0.0000 0.0000 0.0000 24.4841 0.0000 0.0000
# 5 0.0000 0.0000 0.0000 0.0000 24.5830 0.0000
# 6 0.0000 0.0000 0.0000 0.0000 0.0000 18.3347
#
#
#
# Elastic Compliance Matrix: (Units=1/GPa)
#
#
# Indices 1 2 3 4 5 6 
#
# 1 0.012182 -0.003680 -0.002433 0.000000 0.000000 0.000000
# 2 -0.003680 0.009912 -0.003411 0.000000 0.000000 0.000000
# 3 -0.002433 -0.003411 0.018916 0.000000 0.000000 0.000000
# 4 0.000000 0.000000 0.000000 0.040843 0.000000 0.000000
# 5 0.000000 0.000000 0.000000 0.000000 0.040679 0.000000
# 6 0.000000 0.000000 0.000000 0.000000 0.000000 0.054541
#
#
# Mechanical properties :
#
#
# Convention : Reuss Voigt Hill
#
# Bulk Modulus (GPa) = 45.53137 52.69426 49.11281
# Shear Modulus (GPa) = 24.57703 26.40648 25.49175
#
# Velocity S-wave (km/s) = 3.32243 3.44387 3.38370
# Velocity P-wave (km/s) = 5.93027 6.28338 6.10938
#
# Compressibility (1/GPa) = 0.02196288
#
# Stress axis : x y z
#
# Youngs Moduli (GPa) = 82.08561 100.88563 52.86554
#
# Poissons Ratio (x) = 0.37129 0.12861
# Poissons Ratio (y) = 0.30210 0.18031
# Poissons Ratio (z) = 0.19970 0.34409
#
# Static dielectric constant tensor:
#      x y z
#    x 3.930160 0.000000 0.000000 
#    y 0.000000 4.127220 0.000000 
#    z 0.000000 0.000000 3.985320 
# 
# 
# High freq. dielectric constant tensor:
#      x y z
#    x 1.859290 0.000000 0.000000 
#    y 0.000000 1.878080 0.000000 
#    z 0.000000 0.000000 1.880620 
# 
# From -- ./inp_files/22056.got.cif
#   From: 2010.03.12/outbox.cif.g09.slc.cpg/sg20_12_cif.got.tgz:22056.got - 2010.04.14 01:38:04.
