data_PCOD8158761
_publ_section_title
;
Structure prediction by ZEFSAII (Michael W. Deem and Ramdas Pophale) SiO2 
 PCOD8158761
Probable space group: C 2 2 21
;
_chemical_formula_sum "Si O2"
_cell_formula_units_Z 48
_cell_length_a 11.160285
_cell_length_b 23.296069
_cell_length_c 8.959384
_cell_angle_alpha 90.000000
_cell_angle_beta 90.000000
_cell_angle_gamma 90.000000
_cell_volume 2329.357140
_symmetry_space_group_name_H-M "C 2 2 21"
_symmetry_group_IT_number 20
_symmetry_cell_setting 'orthorhombic'
loop_
_space_group_symop_operation_xyz
x,y,z
-x,-y,1/2+z
x,-y,-z
-x,y,1/2-z
1/2+x,1/2+y,z
1/2-x,1/2-y,1/2+z
1/2+x,1/2-y,-z
1/2-x,1/2+y,1/2-z
loop_
_atom_site_type_symbol
_atom_site_label
_atom_site_fract_x
_atom_site_fract_y
_atom_site_fract_z
Si Si1 0.540192 0.444101 0.414894
Si Si2 0.221245 0.933437 0.010006
Si Si3 0.545855 0.196879 0.909186
Si Si4 0.744389 0.369599 0.297966
Si Si5 0.613167 0.852491 0.655810
Si Si6 0.125737 0.240901 0.821438
O O1 0.592547 0.500000 0.500000
O O2 0.500000 0.463825 0.250000
O O3 0.421659 0.420205 0.499568
O O4 0.639419 0.393641 0.406666
O O5 0.273487 0.915707 0.170820
O O6 0.287848 0.901123 0.874178
O O7 0.248580 0.000000 0.000000
O O8 0.500000 0.220334 0.750000
O O9 0.637789 0.143290 0.893714
O O10 0.432087 0.172850 0.998514
O O11 0.609852 0.248779 0.000276
O O12 0.714363 0.310719 0.210512
O O13 0.500000 0.877408 0.750000
O O14 0.673235 0.800448 0.749118
O O15 0.000000 0.223382 0.750000
#
# Coordination Sequence:
#
# PCOD8158761 Si02
#       6
#     8   8   8   8   8   8
#     4   9  20  40  62  89 117 162 205 260 311 361
#     4  10  20  38  63  83 117 166 202 249 312 359
#     4  10  20  37  61  89 123 158 199 257 298 367
#     4  11  21  38  64  90 123 159 206 248 321 367
#     4   9  20  41  58  86 124 158 205 251 310 364
#     4   9  21  37  62  88 121 159 194 252 317 362
#
# _framework density 20.606544
#
# number of rings (size 3 to 8) (size 9 to 14) (size 15 to 20)
#    0.000    2.667    1.667    1.500    2.333    0.000 
#   21.000    0.000    0.000   19.000    0.000    0.000 
#    0.000    0.000    0.000    0.000    0.000    0.000 
#
# Total GULP energy -297497.642956 kJ/mol
# GULP energy per Si atom -12395.735123 kJ/mol
# Density = 2.055964 g / cm^3
# Si number density = 20.606544 Si / 1000 Ang^3
#
#
#
# Elastic Constant Matrix: (Units=GPa)
#
#
# Indices 1 2 3 4 5 6 
#
# 1 61.7151 48.3987 39.1945 0.0000 0.0000 0.0000
# 2 48.3987 112.2775 47.3726 0.0000 0.0000 0.0000
# 3 39.1945 47.3726 113.0926 0.0000 0.0000 0.0000
# 4 0.0000 0.0000 0.0000 35.8360 0.0000 0.0000
# 5 0.0000 0.0000 0.0000 0.0000 30.8167 0.0000
# 6 0.0000 0.0000 0.0000 0.0000 0.0000 22.3902
#
#
#
# Elastic Compliance Matrix: (Units=1/GPa)
#
#
# Indices 1 2 3 4 5 6 
#
# 1 0.026979 -0.009334 -0.005440 0.000000 0.000000 0.000000
# 2 -0.009334 0.014048 -0.002650 0.000000 0.000000 0.000000
# 3 -0.005440 -0.002650 0.011838 0.000000 0.000000 0.000000
# 4 0.000000 0.000000 0.000000 0.027905 0.000000 0.000000
# 5 0.000000 0.000000 0.000000 0.000000 0.032450 0.000000
# 6 0.000000 0.000000 0.000000 0.000000 0.000000 0.044662
#
#
# Mechanical properties :
#
#
# Convention : Reuss Voigt Hill
#
# Bulk Modulus (GPa) = 55.50441 61.89076 58.69759
# Shear Modulus (GPa) = 25.15923 27.94988 26.55455
#
# Velocity S-wave (km/s) = 3.49798 3.68687 3.59367
# Velocity P-wave (km/s) = 6.58090 6.94433 6.76506
#
# Compressibility (1/GPa) = 0.01801659
#
# Stress axis : x y z
#
# Youngs Moduli (GPa) = 37.06655 71.18434 84.47728
#
# Poissons Ratio (x) = 0.66445 0.45956
# Poissons Ratio (y) = 0.34599 0.22383
# Poissons Ratio (z) = 0.20164 0.18861
#
# Static dielectric constant tensor:
#      x y z
#    x 3.741200 0.000000 0.000000 
#    y 0.000000 3.620240 0.000000 
#    z 0.000000 0.000000 3.849300 
# 
# 
# High freq. dielectric constant tensor:
#      x y z
#    x 1.797060 0.000000 0.000000 
#    y 0.000000 1.786620 0.000000 
#    z 0.000000 0.000000 1.806430 
# 
# From -- ./inp_files/7407.got.cif
#   From: 2010.03.12/outbox.cif.g09.slc.cpg/sg20_4_cif.got.tgz:7407.got - 2010.04.14 01:38:04.
