data_PCOD8158073
_publ_section_title
;
Structure prediction by ZEFSAII (Michael W. Deem and Ramdas Pophale) SiO2 
 PCOD8158073
Probable space group: C 2 2 21
;
_chemical_formula_sum "Si O2"
_cell_formula_units_Z 52
_cell_length_a 6.340914
_cell_length_b 20.971011
_cell_length_c 20.890603
_cell_angle_alpha 90.000000
_cell_angle_beta 90.000000
_cell_angle_gamma 90.000000
_cell_volume 2777.935815
_symmetry_space_group_name_H-M "C 2 2 21"
_symmetry_group_IT_number 20
_symmetry_cell_setting 'orthorhombic'
loop_
_space_group_symop_operation_xyz
x,y,z
-x,-y,1/2+z
x,-y,-z
-x,y,1/2-z
1/2+x,1/2+y,z
1/2-x,1/2-y,1/2+z
1/2+x,1/2-y,-z
1/2-x,1/2+y,1/2-z
loop_
_atom_site_type_symbol
_atom_site_label
_atom_site_fract_x
_atom_site_fract_y
_atom_site_fract_z
Si Si1 0.805551 0.036400 0.352552
Si Si2 0.000000 0.421725 0.750000
Si Si3 0.377121 0.357083 0.813032
Si Si4 0.738214 0.163547 0.973392
Si Si5 0.472546 0.720540 0.424540
Si Si6 0.648406 0.118752 0.457844
Si Si7 0.545712 0.443723 0.050642
O O1 0.664135 0.032712 0.288247
O O2 0.651130 0.060543 0.408412
O O3 0.007551 0.081503 0.343076
O O4 0.894953 0.969049 0.378272
O O5 0.134914 0.375697 0.797088
O O6 0.500000 0.333957 0.750000
O O7 0.383853 0.298141 0.863194
O O8 0.601119 0.205376 0.922891
O O9 0.849014 0.103972 0.938696
O O10 0.592381 0.134831 0.029039
O O11 0.902516 0.209946 0.009193
O O12 0.263543 0.677733 0.423819
O O13 0.761424 0.097794 0.523578
O O14 0.486132 0.500000 0.000000
#
# Coordination Sequence:
#
# PCOD8158073 Si02
#       7
#     8   4   8   8   8   8   8
#     4   9  18  33  51  77 113 135 181 228 265 319
#     4  10  18  32  54  80 104 146 180 222 286 316
#     4   9  19  34  53  81 108 137 181 233 274 317
#     4  11  19  31  53  80 114 147 175 216 280 325
#     4  10  19  32  51  82 114 139 179 224 270 329
#     4   9  18  32  49  76 113 144 168 215 268 328
#     4   9  20  33  48  79 114 144 175 216 270 331
#
# _framework density 18.718935999999999
#
# number of rings (size 3 to 8) (size 9 to 14) (size 15 to 20)
#    0.000    2.462    1.538    1.846    0.000    3.077 
#    0.000    0.000    0.000    0.000   16.000    0.000 
#    0.000    0.000    0.000    0.000    0.000    0.000 
#
# Total GULP energy -322290.122886 kJ/mol
# GULP energy per Si atom -12395.773957 kJ/mol
# Density = 1.867633 g / cm^3
# Si number density = 18.718936 Si / 1000 Ang^3
#
#
#
# Elastic Constant Matrix: (Units=GPa)
#
#
# Indices 1 2 3 4 5 6 
#
# 1 86.2209 40.9398 25.8211 0.0000 0.0000 0.0000
# 2 40.9398 93.6796 40.6029 0.0000 0.0000 0.0000
# 3 25.8211 40.6029 81.9317 0.0000 0.0000 0.0000
# 4 0.0000 0.0000 0.0000 26.3840 0.0000 0.0000
# 5 0.0000 0.0000 0.0000 0.0000 27.1167 0.0000
# 6 0.0000 0.0000 0.0000 0.0000 0.0000 28.3670
#
#
#
# Elastic Compliance Matrix: (Units=1/GPa)
#
#
# Indices 1 2 3 4 5 6 
#
# 1 0.014855 -0.005684 -0.001865 0.000000 0.000000 0.000000
# 2 -0.005684 0.015769 -0.006024 0.000000 0.000000 0.000000
# 3 -0.001865 -0.006024 0.015778 0.000000 0.000000 0.000000
# 4 0.000000 0.000000 0.000000 0.037902 0.000000 0.000000
# 5 0.000000 0.000000 0.000000 0.000000 0.036878 0.000000
# 6 0.000000 0.000000 0.000000 0.000000 0.000000 0.035252
#
#
# Mechanical properties :
#
#
# Convention : Reuss Voigt Hill
#
# Bulk Modulus (GPa) = 51.92588 52.95108 52.43848
# Shear Modulus (GPa) = 26.31596 26.67143 26.49369
#
# Velocity S-wave (km/s) = 3.75353 3.77880 3.76618
# Velocity P-wave (km/s) = 6.82534 6.88389 6.85468
#
# Compressibility (1/GPa) = 0.01925822
#
# Stress axis : x y z
#
# Youngs Moduli (GPa) = 67.31539 63.41412 63.37869
#
# Poissons Ratio (x) = 0.36043 0.11820
# Poissons Ratio (y) = 0.38260 0.38177
# Poissons Ratio (z) = 0.12555 0.38198
#
# Static dielectric constant tensor:
#      x y z
#    x 3.449880 0.000000 0.000000 
#    y 0.000000 3.304270 0.000000 
#    z 0.000000 0.000000 3.370150 
# 
# 
# High freq. dielectric constant tensor:
#      x y z
#    x 1.733400 0.000000 0.000000 
#    y 0.000000 1.698720 0.000000 
#    z 0.000000 0.000000 1.703520 
# 
# From -- ./inp_files/26111.got.cif
#   From: 2010.03.12/outbox.cif.g09.slc.cpg/sg20_14_cif.got.tgz:26111.got - 2010.04.14 01:38:04.
