data_PCOD8158561
_publ_section_title
;
Structure prediction by ZEFSAII (Michael W. Deem and Ramdas Pophale) SiO2 
 PCOD8158561
Probable space group: C 2 2 21
;
_chemical_formula_sum "Si O2"
_cell_formula_units_Z 56
_cell_length_a 22.789833
_cell_length_b 28.180079
_cell_length_c 5.142704
_cell_angle_alpha 90.000000
_cell_angle_beta 90.000000
_cell_angle_gamma 90.000000
_cell_volume 3302.743734
_symmetry_space_group_name_H-M "C 2 2 21"
_symmetry_group_IT_number 20
_symmetry_cell_setting 'orthorhombic'
loop_
_space_group_symop_operation_xyz
x,y,z
-x,-y,1/2+z
x,-y,-z
-x,y,1/2-z
1/2+x,1/2+y,z
1/2-x,1/2-y,1/2+z
1/2+x,1/2-y,-z
1/2-x,1/2+y,1/2-z
loop_
_atom_site_type_symbol
_atom_site_label
_atom_site_fract_x
_atom_site_fract_y
_atom_site_fract_z
Si Si1 0.221939 0.947106 0.981546
Si Si2 0.961821 0.232106 0.001719
Si Si3 0.538457 0.623264 0.494964
Si Si4 0.766723 0.645245 0.850437
Si Si5 0.761277 0.193417 0.161178
Si Si6 0.161120 0.276757 0.526844
Si Si7 0.853731 0.053456 0.978127
O O1 0.169765 0.939745 0.187068
O O2 0.273041 0.910230 0.071568
O O3 0.197355 0.937993 0.692013
O O4 0.248900 0.000000 0.000000
O O5 0.940408 0.177832 0.028368
O O6 0.000000 0.247875 0.250000
O O7 0.907385 0.267206 0.954987
O O8 0.000000 0.238818 0.750000
O O9 0.500000 0.608538 0.250000
O O10 0.595361 0.591078 0.485722
O O11 0.500000 0.614237 0.750000
O O12 0.722342 0.667021 0.069075
O O13 0.828871 0.673318 0.870480
O O14 0.738273 0.654465 0.568943
O O15 0.808921 0.233951 0.128646
O O16 0.695818 0.217627 0.195948
O O17 0.878929 0.000000 0.000000
#
# Coordination Sequence:
#
# PCOD8158561 Si02
#       7
#     8   8   8   8   8   8   8
#     4  10  21  35  51  76 106 129 163 206 263 328
#     4  10  24  36  50  71 104 145 173 213 263 308
#     4  10  21  36  47  68  91 125 177 222 260 297
#     4  10  20  32  51  79  99 132 169 200 264 306
#     4  10  20  32  51  83 100 131 168 221 261 298
#     4  10  21  34  53  75 110 126 183 206 265 313
#     4  10  21  35  52  71  93 132 169 213 268 308
#
# _framework density 16.9556
#
# number of rings (size 3 to 8) (size 9 to 14) (size 15 to 20)
#    0.857    1.143    1.429    1.714    6.000    0.571 
#    0.000    0.000    0.000    0.000    0.000    0.000 
#    0.000    1.143    0.000    0.000    0.571    0.000 
#
# Total GULP energy -346910.010976 kJ/mol
# GULP energy per Si atom -12389.643249 kJ/mol
# Density = 1.691701 g / cm^3
# Si number density = 16.955600 Si / 1000 Ang^3
#
#
#
# Elastic Constant Matrix: (Units=GPa)
#
#
# Indices 1 2 3 4 5 6 
#
# 1 54.6270 33.1385 7.2912 0.0000 0.0000 0.0000
# 2 33.1385 82.0532 13.1200 0.0000 0.0000 0.0000
# 3 7.2912 13.1200 98.3218 0.0000 0.0000 0.0000
# 4 0.0000 0.0000 0.0000 23.7734 0.0000 0.0000
# 5 0.0000 0.0000 0.0000 0.0000 14.8816 0.0000
# 6 0.0000 0.0000 0.0000 0.0000 0.0000 22.9821
#
#
#
# Elastic Compliance Matrix: (Units=1/GPa)
#
#
# Indices 1 2 3 4 5 6 
#
# 1 0.024271 -0.009722 -0.000503 0.000000 0.000000 0.000000
# 2 -0.009722 0.016347 -0.001460 0.000000 0.000000 0.000000
# 3 -0.000503 -0.001460 0.010403 0.000000 0.000000 0.000000
# 4 0.000000 0.000000 0.000000 0.042064 0.000000 0.000000
# 5 0.000000 0.000000 0.000000 0.000000 0.067197 0.000000
# 6 0.000000 0.000000 0.000000 0.000000 0.000000 0.043512
#
#
# Mechanical properties :
#
#
# Convention : Reuss Voigt Hill
#
# Bulk Modulus (GPa) = 36.16498 38.01125 37.08812
# Shear Modulus (GPa) = 21.15240 24.42424 22.78832
#
# Velocity S-wave (km/s) = 3.53585 3.79949 3.67004
# Velocity P-wave (km/s) = 6.16808 6.45871 6.31507
#
# Compressibility (1/GPa) = 0.02765106
#
# Stress axis : x y z
#
# Youngs Moduli (GPa) = 41.20223 61.17333 96.12773
#
# Poissons Ratio (x) = 0.59471 0.04831
# Poissons Ratio (y) = 0.40056 0.14039
# Poissons Ratio (z) = 0.02071 0.08934
#
# Static dielectric constant tensor:
#      x y z
#    x 2.738250 0.000000 0.000000 
#    y 0.000000 3.371820 0.000000 
#    z 0.000000 0.000000 3.387520 
# 
# 
# High freq. dielectric constant tensor:
#      x y z
#    x 1.599200 0.000000 0.000000 
#    y 0.000000 1.652050 0.000000 
#    z 0.000000 0.000000 1.677960 
# 
# From -- ./inp_files/3369.got.cif
#   From: 2010.03.12/outbox.cif.g09.slc.cpg/sg20_2_cif.got.tgz:3369.got - 2010.04.14 01:38:04.
