data_PCOD8158854
_publ_section_title
;
Structure prediction by ZEFSAII (Michael W. Deem and Ramdas Pophale) SiO2 
 PCOD8158854
Probable space group: C 2 2 21
;
_chemical_formula_sum "Si O2"
_cell_formula_units_Z 40
_cell_length_a 8.560377
_cell_length_b 22.586860
_cell_length_c 9.224108
_cell_angle_alpha 90.000000
_cell_angle_beta 90.000000
_cell_angle_gamma 90.000000
_cell_volume 1783.500070
_symmetry_space_group_name_H-M "C 2 2 21"
_symmetry_group_IT_number 20
_symmetry_cell_setting 'orthorhombic'
loop_
_space_group_symop_operation_xyz
x,y,z
-x,-y,1/2+z
x,-y,-z
-x,y,1/2-z
1/2+x,1/2+y,z
1/2-x,1/2-y,1/2+z
1/2+x,1/2-y,-z
1/2-x,1/2+y,1/2-z
loop_
_atom_site_type_symbol
_atom_site_label
_atom_site_fract_x
_atom_site_fract_y
_atom_site_fract_z
Si Si1 0.314198 0.178013 0.263998
Si Si2 0.735737 0.220456 0.923196
Si Si3 0.827816 0.448579 0.807537
Si Si4 0.500000 0.844232 0.250000
Si Si5 0.500000 0.350359 0.250000
Si Si6 0.745571 0.572815 0.869485
O O1 0.500000 0.176816 0.250000
O O2 0.250511 0.213566 0.403984
O O3 0.242494 0.210203 0.121789
O O4 0.256263 0.109292 0.273361
O O5 0.562953 0.196410 0.881625
O O6 0.879118 0.190300 0.837347
O O7 0.727080 0.508706 0.788950
O O8 0.000000 0.462872 0.750000
O O9 0.829024 0.433309 0.976957
O O10 0.645432 0.885200 0.278311
O O11 0.420755 0.393938 0.369374
#
# Coordination Sequence:
#
# PCOD8158854 Si02
#       6
#     8   8   8   4   4   8
#     4  11  25  43  67 100 137 177 230 280 333 404
#     4  11  25  42  70  98 140 181 226 283 337 407
#     4  10  21  41  67  96 127 172 229 273 327 399
#     4  10  20  38  66  96 128 176 224 270 338 396
#     4  10  24  46  64 100 140 178 220 280 352 400
#     4  10  21  42  68  94 133 175 221 280 334 405
#
# _framework density 22.427809
#
# number of rings (size 3 to 8) (size 9 to 14) (size 15 to 20)
#    0.000    1.600    2.000    2.400    8.400    0.000 
#    7.200    0.000    0.000    0.000    0.000    0.000 
#    0.000    0.000    0.000    0.000    0.000    0.000 
#
# Total GULP energy -247837.954436 kJ/mol
# GULP energy per Si atom -12391.897722 kJ/mol
# Density = 2.237676 g / cm^3
# Si number density = 22.427809 Si / 1000 Ang^3
#
#
#
# Elastic Constant Matrix: (Units=GPa)
#
#
# Indices 1 2 3 4 5 6 
#
# 1 51.3290 23.9419 16.3825 0.0000 0.0000 0.0000
# 2 23.9419 120.5993 6.6019 0.0000 0.0000 0.0000
# 3 16.3825 6.6019 74.5379 0.0000 0.0000 0.0000
# 4 0.0000 0.0000 0.0000 31.9919 0.0000 0.0000
# 5 0.0000 0.0000 0.0000 0.0000 33.8158 0.0000
# 6 0.0000 0.0000 0.0000 0.0000 0.0000 18.8499
#
#
#
# Elastic Compliance Matrix: (Units=1/GPa)
#
#
# Indices 1 2 3 4 5 6 
#
# 1 0.022981 -0.004307 -0.004670 0.000000 0.000000 0.000000
# 2 -0.004307 0.009139 0.000137 0.000000 0.000000 0.000000
# 3 -0.004670 0.000137 0.014430 0.000000 0.000000 0.000000
# 4 0.000000 0.000000 0.000000 0.031258 0.000000 0.000000
# 5 0.000000 0.000000 0.000000 0.000000 0.029572 0.000000
# 6 0.000000 0.000000 0.000000 0.000000 0.000000 0.053051
#
#
# Mechanical properties :
#
#
# Convention : Reuss Voigt Hill
#
# Bulk Modulus (GPa) = 34.63502 37.81318 36.22410
# Shear Modulus (GPa) = 26.63340 30.23417 28.43378
#
# Velocity S-wave (km/s) = 3.44977 3.67559 3.56447
# Velocity P-wave (km/s) = 5.59860 5.90845 5.75561
#
# Compressibility (1/GPa) = 0.02887251
#
# Stress axis : x y z
#
# Youngs Moduli (GPa) = 43.51354 109.41629 69.29925
#
# Poissons Ratio (x) = 0.47123 0.32360
# Poissons Ratio (y) = 0.18740 -0.00950
# Poissons Ratio (z) = 0.20319 -0.01500
#
# Static dielectric constant tensor:
#      x y z
#    x 3.653460 0.000000 0.000000 
#    y 0.000000 4.768220 0.000000 
#    z 0.000000 0.000000 4.089760 
# 
# 
# High freq. dielectric constant tensor:
#      x y z
#    x 1.864160 0.000000 0.000000 
#    y 0.000000 1.913470 0.000000 
#    z 0.000000 0.000000 1.866590 
# 
# From -- ./inp_files/6136.got.cif
#   From: 2010.03.12/outbox.cif.g09.slc.cpg/sg20_4_cif.got.tgz:6136.got - 2010.04.14 01:38:04.
