data_PCOD8158185
_publ_section_title
;
Structure prediction by ZEFSAII (Michael W. Deem and Ramdas Pophale) SiO2 
 PCOD8158185
Probable space group: C 2 2 21
;
_chemical_formula_sum "Si O2"
_cell_formula_units_Z 40
_cell_length_a 7.553413
_cell_length_b 17.309479
_cell_length_c 13.988528
_cell_angle_alpha 90.000000
_cell_angle_beta 90.000000
_cell_angle_gamma 90.000000
_cell_volume 1828.939098
_symmetry_space_group_name_H-M "C 2 2 21"
_symmetry_group_IT_number 20
_symmetry_cell_setting 'orthorhombic'
loop_
_space_group_symop_operation_xyz
x,y,z
-x,-y,1/2+z
x,-y,-z
-x,y,1/2-z
1/2+x,1/2+y,z
1/2-x,1/2-y,1/2+z
1/2+x,1/2-y,-z
1/2-x,1/2+y,1/2-z
loop_
_atom_site_type_symbol
_atom_site_label
_atom_site_fract_x
_atom_site_fract_y
_atom_site_fract_z
Si Si1 0.065934 0.177412 0.501849
Si Si2 0.500000 0.884828 0.750000
Si Si3 0.801747 0.445147 0.578714
Si Si4 0.687437 0.000000 0.500000
Si Si5 0.814237 0.663292 0.075025
Si Si6 0.485240 0.549716 0.637005
O O1 0.244050 0.140084 0.456532
O O2 0.102083 0.267490 0.514176
O O3 0.023204 0.137665 0.603750
O O4 0.898369 0.163637 0.431595
O O5 0.389315 0.941804 0.682225
O O6 0.629536 0.830322 0.686535
O O7 0.912629 0.500000 0.500000
O O8 0.624287 0.494209 0.587467
O O9 0.595001 0.083170 0.465384
O O10 0.796700 0.022235 0.595479
O O11 0.500000 0.544978 0.750000
#
# Coordination Sequence:
#
# PCOD8158185 Si02
#       6
#     8   4   8   4   8   8
#     4  10  22  42  67  92 136 169 215 279 336 388
#     4  12  26  36  68  92 138 174 228 262 328 400
#     4  10  21  42  64  99 130 177 217 278 326 392
#     4  10  20  42  68  96 126 172 212 268 336 388
#     4  11  23  42  65  98 127 176 217 273 331 396
#     4  10  18  37  69  92 123 169 216 257 328 406
#
# _framework density 21.870602999999999
#
# number of rings (size 3 to 8) (size 9 to 14) (size 15 to 20)
#    0.000    1.600    5.000    2.400    2.800    0.000 
#    0.000    0.000    0.000    0.000    0.000    0.000 
#    0.000    0.000    0.000    0.000    0.000    0.000 
#
# Total GULP energy -247913.290627 kJ/mol
# GULP energy per Si atom -12395.664531 kJ/mol
# Density = 2.182082 g / cm^3
# Si number density = 21.870603 Si / 1000 Ang^3
#
#
#
# Elastic Constant Matrix: (Units=GPa)
#
#
# Indices 1 2 3 4 5 6 
#
# 1 79.6048 67.7936 56.0305 0.0000 0.0000 0.0000
# 2 67.7936 166.0933 58.2737 0.0000 0.0000 0.0000
# 3 56.0305 58.2737 172.0339 0.0000 0.0000 0.0000
# 4 0.0000 0.0000 0.0000 30.6995 0.0000 0.0000
# 5 0.0000 0.0000 0.0000 0.0000 40.9012 0.0000
# 6 0.0000 0.0000 0.0000 0.0000 0.0000 41.7079
#
#
#
# Elastic Compliance Matrix: (Units=1/GPa)
#
#
# Indices 1 2 3 4 5 6 
#
# 1 0.022185 -0.007400 -0.004719 0.000000 0.000000 0.000000
# 2 -0.007400 0.009301 -0.000740 0.000000 0.000000 0.000000
# 3 -0.004719 -0.000740 0.007601 0.000000 0.000000 0.000000
# 4 0.000000 0.000000 0.000000 0.032574 0.000000 0.000000
# 5 0.000000 0.000000 0.000000 0.000000 0.024449 0.000000
# 6 0.000000 0.000000 0.000000 0.000000 0.000000 0.023976
#
#
# Mechanical properties :
#
#
# Convention : Reuss Voigt Hill
#
# Bulk Modulus (GPa) = 74.80375 86.88082 80.84229
# Shear Modulus (GPa) = 33.27554 38.37068 35.82311
#
# Velocity S-wave (km/s) = 3.90484 4.19315 4.05156
# Velocity P-wave (km/s) = 7.38969 7.95327 7.67665
#
# Compressibility (1/GPa) = 0.01336831
#
# Stress axis : x y z
#
# Youngs Moduli (GPa) = 45.07476 107.51799 131.56794
#
# Poissons Ratio (x) = 0.79559 0.62089
# Poissons Ratio (y) = 0.33353 0.09742
# Poissons Ratio (z) = 0.21271 0.07961
#
# Static dielectric constant tensor:
#      x y z
#    x 4.360170 0.000000 0.000000 
#    y 0.000000 4.102240 0.000000 
#    z 0.000000 0.000000 3.904190 
# 
# 
# High freq. dielectric constant tensor:
#      x y z
#    x 1.892860 0.000000 0.000000 
#    y 0.000000 1.868010 0.000000 
#    z 0.000000 0.000000 1.850840 
# 
# From -- ./inp_files/18722.got.cif
#   From: 2010.03.12/outbox.cif.g09.slc.cpg/sg20_10_cif.got.tgz:18722.got - 2010.04.14 01:38:04.
