data_PCOD8158755
_publ_section_title
;
Structure prediction by ZEFSAII (Michael W. Deem and Ramdas Pophale) SiO2 
 PCOD8158755
Probable space group: C 2 2 21
;
_chemical_formula_sum "Si O2"
_cell_formula_units_Z 64
_cell_length_a 11.388810
_cell_length_b 19.059133
_cell_length_c 15.230384
_cell_angle_alpha 90.000000
_cell_angle_beta 90.000000
_cell_angle_gamma 90.000000
_cell_volume 3305.920013
_symmetry_space_group_name_H-M "C 2 2 21"
_symmetry_group_IT_number 20
_symmetry_cell_setting 'orthorhombic'
loop_
_space_group_symop_operation_xyz
x,y,z
-x,-y,1/2+z
x,-y,-z
-x,y,1/2-z
1/2+x,1/2+y,z
1/2-x,1/2-y,1/2+z
1/2+x,1/2-y,-z
1/2-x,1/2+y,1/2-z
loop_
_atom_site_type_symbol
_atom_site_label
_atom_site_fract_x
_atom_site_fract_y
_atom_site_fract_z
Si Si1 0.038345 0.395609 0.845583
Si Si2 0.887167 0.128864 0.303347
Si Si3 0.974575 0.542916 0.842939
Si Si4 0.990653 0.202856 0.046812
Si Si5 0.245545 0.194870 0.354738
Si Si6 0.579720 0.853020 0.490813
Si Si7 0.275897 0.494499 0.393719
Si Si8 0.327977 0.342520 0.412858
O O1 0.149260 0.354785 0.884617
O O2 0.000000 0.368074 0.750000
O O3 0.067983 0.478730 0.846606
O O4 0.930270 0.380661 0.910709
O O5 0.924130 0.188763 0.371787
O O6 0.793421 0.167941 0.241265
O O7 0.000000 0.102864 0.250000
O O8 0.845895 0.059490 0.354040
O O9 0.848800 0.504760 0.845768
O O10 0.000000 0.582645 0.750000
O O11 0.984964 0.594897 0.923508
O O12 0.994435 0.283783 0.024242
O O13 0.856785 0.182478 0.072577
O O14 0.046042 0.165146 0.961166
O O15 0.293324 0.275989 0.350113
O O16 0.719043 0.846587 0.480466
O O17 0.266349 0.500000 0.500000
O O18 0.334543 0.418854 0.366044
#
# Coordination Sequence:
#
# PCOD8158755 Si02
#       8
#     8   8   8   8   8   8   8   8
#     4  11  21  35  57  87 122 154 193 253 308 366
#     4  10  21  37  60  86 118 159 204 253 304 361
#     4  10  21  34  57  86 118 150 196 251 306 360
#     4  10  20  37  61  81 117 158 197 250 298 364
#     4  10  22  37  58  90 122 158 202 250 312 370
#     4  10  21  36  60  84 115 152 201 245 308 362
#     4  11  20  36  66  88 114 161 212 253 302 377
#     4  10  20  37  61  85 115 153 208 249 303 363
#
# _framework density 19.359209
#
# number of rings (size 3 to 8) (size 9 to 14) (size 15 to 20)
#    0.000    1.750    2.500    3.375    1.750    3.500 
#    0.000    0.625   13.750    0.000    0.000    0.000 
#    0.000    0.000    0.000    0.000    0.000    0.000 
#
# Total GULP energy -396463.714490 kJ/mol
# GULP energy per Si atom -12389.491078 kJ/mol
# Density = 1.931515 g / cm^3
# Si number density = 19.359209 Si / 1000 Ang^3
#
#
#
# Elastic Constant Matrix: (Units=GPa)
#
#
# Indices 1 2 3 4 5 6 
#
# 1 48.0741 23.0995 30.2557 0.0000 0.0000 0.0000
# 2 23.0995 101.8952 42.2852 0.0000 0.0000 0.0000
# 3 30.2557 42.2852 106.9254 0.0000 0.0000 0.0000
# 4 0.0000 0.0000 0.0000 39.7768 0.0000 0.0000
# 5 0.0000 0.0000 0.0000 0.0000 24.4126 0.0000
# 6 0.0000 0.0000 0.0000 0.0000 0.0000 30.1300
#
#
#
# Elastic Compliance Matrix: (Units=1/GPa)
#
#
# Indices 1 2 3 4 5 6 
#
# 1 0.026276 -0.003435 -0.006077 0.000000 0.000000 0.000000
# 2 -0.003435 0.012190 -0.003849 0.000000 0.000000 0.000000
# 3 -0.006077 -0.003849 0.012594 0.000000 0.000000 0.000000
# 4 0.000000 0.000000 0.000000 0.025140 0.000000 0.000000
# 5 0.000000 0.000000 0.000000 0.000000 0.040962 0.000000
# 6 0.000000 0.000000 0.000000 0.000000 0.000000 0.033189
#
#
# Mechanical properties :
#
#
# Convention : Reuss Voigt Hill
#
# Bulk Modulus (GPa) = 41.08631 49.79730 45.44181
# Shear Modulus (GPa) = 26.99990 29.61416 28.30703
#
# Velocity S-wave (km/s) = 3.73859 3.91541 3.82802
# Velocity P-wave (km/s) = 6.31706 6.79847 6.56218
#
# Compressibility (1/GPa) = 0.02433901
#
# Stress axis : x y z
#
# Youngs Moduli (GPa) = 38.05735 82.03526 79.40414
#
# Poissons Ratio (x) = 0.28179 0.48252
# Poissons Ratio (y) = 0.13073 0.30560
# Poissons Ratio (z) = 0.23126 0.31573
#
# Static dielectric constant tensor:
#      x y z
#    x 3.369900 0.000000 0.000000 
#    y 0.000000 3.848820 0.000000 
#    z 0.000000 0.000000 3.513030 
# 
# 
# High freq. dielectric constant tensor:
#      x y z
#    x 1.743450 0.000000 0.000000 
#    y 0.000000 1.765660 0.000000 
#    z 0.000000 0.000000 1.743670 
# 
# From -- ./inp_files/20278.got.cif
#   From: 2010.03.12/outbox.cif.g09.slc.cpg/sg20_11_cif.got.tgz:20278.got - 2010.04.14 01:38:04.
