data_PCOD8158903
_publ_section_title
;
Structure prediction by ZEFSAII (Michael W. Deem and Ramdas Pophale) SiO2 
 PCOD8158903
Probable space group: C 2 2 21
;
_chemical_formula_sum "Si O2"
_cell_formula_units_Z 44
_cell_length_a 11.951579
_cell_length_b 8.899709
_cell_length_c 20.936436
_cell_angle_alpha 90.000000
_cell_angle_beta 90.000000
_cell_angle_gamma 90.000000
_cell_volume 2226.916058
_symmetry_space_group_name_H-M "C 2 2 21"
_symmetry_group_IT_number 20
_symmetry_cell_setting 'orthorhombic'
loop_
_space_group_symop_operation_xyz
x,y,z
-x,-y,1/2+z
x,-y,-z
-x,y,1/2-z
1/2+x,1/2+y,z
1/2-x,1/2-y,1/2+z
1/2+x,1/2-y,-z
1/2-x,1/2+y,1/2-z
loop_
_atom_site_type_symbol
_atom_site_label
_atom_site_fract_x
_atom_site_fract_y
_atom_site_fract_z
Si Si1 0.702415 0.890297 0.682795
Si Si2 0.246413 0.953638 0.312517
Si Si3 0.989359 0.000000 0.000000
Si Si4 0.635669 0.684588 0.403024
Si Si5 0.996992 0.407100 0.321918
Si Si6 0.296407 0.444890 0.433362
O O1 0.759158 0.970576 0.743253
O O2 0.575414 0.946257 0.673246
O O3 0.775882 0.930221 0.620808
O O4 0.699066 0.713599 0.694272
O O5 0.371900 0.953917 0.340859
O O6 0.167261 0.041600 0.360825
O O7 0.069437 0.071436 0.944637
O O8 0.911000 0.870503 0.970992
O O9 0.538039 0.778014 0.369127
O O10 0.745611 0.785516 0.412885
O O11 0.000000 0.341367 0.250000
O O12 0.239377 0.500000 0.500000
#
# Coordination Sequence:
#
# PCOD8158903 Si02
#       6
#     8   8   4   8   8   8
#     4  10  20  39  65  90 120 161 193 248 306 353
#     4  11  22  38  66  92 123 152 199 249 302 360
#     4  10  24  38  60  86 122 156 212 240 294 354
#     4  11  23  39  61  90 117 161 201 247 297 356
#     4   9  20  39  59  88 121 150 196 245 305 357
#     4   9  22  43  60  81 127 158 197 249 292 349
#
# _framework density 19.758267
#
# number of rings (size 3 to 8) (size 9 to 14) (size 15 to 20)
#    0.545    1.455    0.000    4.364    2.545    1.455 
#    3.273   10.000    0.000    0.000    0.000    0.000 
#    0.000    0.000    0.000    0.000    0.000    0.000 
#
# Total GULP energy -272818.156160 kJ/mol
# GULP energy per Si atom -12400.825280 kJ/mol
# Density = 1.971330 g / cm^3
# Si number density = 19.758267 Si / 1000 Ang^3
#
#
#
# Elastic Constant Matrix: (Units=GPa)
#
#
# Indices 1 2 3 4 5 6 
#
# 1 71.8990 26.5512 19.2295 0.0000 0.0000 0.0000
# 2 26.5512 143.3149 49.5508 0.0000 0.0000 0.0000
# 3 19.2295 49.5508 87.6793 0.0000 0.0000 0.0000
# 4 0.0000 0.0000 0.0000 28.9978 0.0000 0.0000
# 5 0.0000 0.0000 0.0000 0.0000 36.3555 0.0000
# 6 0.0000 0.0000 0.0000 0.0000 0.0000 19.5805
#
#
#
# Elastic Compliance Matrix: (Units=1/GPa)
#
#
# Indices 1 2 3 4 5 6 
#
# 1 0.015256 -0.002075 -0.002173 0.000000 0.000000 0.000000
# 2 -0.002075 0.008954 -0.004605 0.000000 0.000000 0.000000
# 3 -0.002173 -0.004605 0.014484 0.000000 0.000000 0.000000
# 4 0.000000 0.000000 0.000000 0.034485 0.000000 0.000000
# 5 0.000000 0.000000 0.000000 0.000000 0.027506 0.000000
# 6 0.000000 0.000000 0.000000 0.000000 0.000000 0.051071
#
#
# Mechanical properties :
#
#
# Convention : Reuss Voigt Hill
#
# Bulk Modulus (GPa) = 47.64718 54.83957 51.24337
# Shear Modulus (GPa) = 28.33499 30.82424 29.57961
#
# Velocity S-wave (km/s) = 3.79104 3.95405 3.87340
# Velocity P-wave (km/s) = 6.58255 6.97578 6.78202
#
# Compressibility (1/GPa) = 0.02098760
#
# Stress axis : x y z
#
# Youngs Moduli (GPa) = 65.54850 111.67753 69.03948
#
# Poissons Ratio (x) = 0.23173 0.15004
# Poissons Ratio (y) = 0.13601 0.31795
# Poissons Ratio (z) = 0.14245 0.51431
#
# Static dielectric constant tensor:
#      x y z
#    x 3.566880 0.000000 0.000000 
#    y 0.000000 3.430600 0.000000 
#    z 0.000000 0.000000 3.645100 
# 
# 
# High freq. dielectric constant tensor:
#      x y z
#    x 1.768010 0.000000 0.000000 
#    y 0.000000 1.765630 0.000000 
#    z 0.000000 0.000000 1.773730 
# 
# From -- ./inp_files/29043.got.cif
#   From: 2010.03.12/outbox.cif.g09.slc.cpg/sg20_15_cif.got.tgz:29043.got - 2010.04.14 01:38:04.
