data_PCOD8158555
_publ_section_title
;
Structure prediction by ZEFSAII (Michael W. Deem and Ramdas Pophale) SiO2 
 PCOD8158555
Probable space group: C 2 2 21
;
_chemical_formula_sum "Si O2"
_cell_formula_units_Z 40
_cell_length_a 16.230042
_cell_length_b 32.251579
_cell_length_c 4.994356
_cell_angle_alpha 90.000000
_cell_angle_beta 90.000000
_cell_angle_gamma 90.000000
_cell_volume 2614.268088
_symmetry_space_group_name_H-M "C 2 2 21"
_symmetry_group_IT_number 20
_symmetry_cell_setting 'orthorhombic'
loop_
_space_group_symop_operation_xyz
x,y,z
-x,-y,1/2+z
x,-y,-z
-x,y,1/2-z
1/2+x,1/2+y,z
1/2-x,1/2-y,1/2+z
1/2+x,1/2-y,-z
1/2-x,1/2+y,1/2-z
loop_
_atom_site_type_symbol
_atom_site_label
_atom_site_fract_x
_atom_site_fract_y
_atom_site_fract_z
Si Si1 0.403867 0.381159 0.311917
Si Si2 0.855048 0.167610 0.177180
Si Si3 0.223519 0.725363 0.364631
Si Si4 0.947289 0.249502 0.012598
Si Si5 0.598085 0.474956 0.247726
O O1 0.500000 0.377324 0.250000
O O2 0.391820 0.365318 0.613782
O O3 0.370932 0.427839 0.274059
O O4 0.349223 0.353763 0.111440
O O5 0.763795 0.182145 0.268534
O O6 0.912508 0.207817 0.149556
O O7 0.271394 0.740470 0.629539
O O8 0.126883 0.719535 0.431689
O O9 0.000000 0.271244 0.250000
O O10 0.000000 0.238565 0.750000
O O11 0.633533 0.500000 0.500000
O O12 0.500000 0.475012 0.250000
O O13 0.634210 0.500000 0.000000
#
# Coordination Sequence:
#
# PCOD8158555 Si02
#       5
#     8   8   8   8   8
#     4  11  20  28  43  63  81 107 143 179 213 243
#     4  11  20  30  42  61  85 106 137 181 219 245
#     4  10  20  32  44  59  83 113 139 173 222 263
#     4  11  20  31  46  62  81 110 148 183 213 247
#     4   9  17  29  41  55  78 106 136 170 205 244
#
# _framework density 15.300649999999999
#
# number of rings (size 3 to 8) (size 9 to 14) (size 15 to 20)
#    0.000    1.600    0.000    9.600    0.000    3.200 
#    0.000    0.000    0.000    0.000    0.000    0.000 
#    0.000    0.000    0.000    0.000    0.000   56.000 
#
# Total GULP energy -247969.365959 kJ/mol
# GULP energy per Si atom -12398.468298 kJ/mol
# Density = 1.526582 g / cm^3
# Si number density = 15.300650 Si / 1000 Ang^3
#
#
#
# Elastic Constant Matrix: (Units=GPa)
#
#
# Indices 1 2 3 4 5 6 
#
# 1 68.5261 32.3738 30.2241 0.0000 0.0000 0.0000
# 2 32.3738 65.8225 16.5935 0.0000 0.0000 0.0000
# 3 30.2241 16.5935 95.4384 0.0000 0.0000 0.0000
# 4 0.0000 0.0000 0.0000 21.7476 0.0000 0.0000
# 5 0.0000 0.0000 0.0000 0.0000 25.3044 0.0000
# 6 0.0000 0.0000 0.0000 0.0000 0.0000 12.3106
#
#
#
# Elastic Compliance Matrix: (Units=1/GPa)
#
#
# Indices 1 2 3 4 5 6 
#
# 1 0.021155 -0.009116 -0.005115 0.000000 0.000000 0.000000
# 2 -0.009116 0.019817 -0.000559 0.000000 0.000000 0.000000
# 3 -0.005115 -0.000559 0.012195 0.000000 0.000000 0.000000
# 4 0.000000 0.000000 0.000000 0.045982 0.000000 0.000000
# 5 0.000000 0.000000 0.000000 0.000000 0.039519 0.000000
# 6 0.000000 0.000000 0.000000 0.000000 0.000000 0.081231
#
#
# Mechanical properties :
#
#
# Convention : Reuss Voigt Hill
#
# Bulk Modulus (GPa) = 42.39281 43.12995 42.76138
# Shear Modulus (GPa) = 19.42959 21.91222 20.67090
#
# Velocity S-wave (km/s) = 3.56737 3.78843 3.67956
# Velocity P-wave (km/s) = 6.68841 6.88373 6.78677
#
# Compressibility (1/GPa) = 0.02358891
#
# Stress axis : x y z
#
# Youngs Moduli (GPa) = 47.26939 50.46290 82.00175
#
# Poissons Ratio (x) = 0.46000 0.41942
# Poissons Ratio (y) = 0.43089 0.04581
# Poissons Ratio (z) = 0.24177 0.02819
#
# Static dielectric constant tensor:
#      x y z
#    x 2.755610 0.000000 0.000000 
#    y 0.000000 2.864570 0.000000 
#    z 0.000000 0.000000 3.307940 
# 
# 
# High freq. dielectric constant tensor:
#      x y z
#    x 1.541810 0.000000 0.000000 
#    y 0.000000 1.557720 0.000000 
#    z 0.000000 0.000000 1.619700 
# 
# From -- ./inp_files/2138.got.cif
#   From: 2010.03.12/outbox.cif.g09.slc.cpg/sg20_2_cif.got.tgz:2138.got - 2010.04.14 01:38:04.
