data_PCOD8158242
_publ_section_title
;
Structure prediction by ZEFSAII (Michael W. Deem and Ramdas Pophale) SiO2 
 PCOD8158242
Probable space group: C 2 2 21
;
_chemical_formula_sum "Si O2"
_cell_formula_units_Z 48
_cell_length_a 21.278292
_cell_length_b 26.415805
_cell_length_c 5.218099
_cell_angle_alpha 90.000000
_cell_angle_beta 90.000000
_cell_angle_gamma 90.000000
_cell_volume 2933.005848
_symmetry_space_group_name_H-M "C 2 2 21"
_symmetry_group_IT_number 20
_symmetry_cell_setting 'orthorhombic'
loop_
_space_group_symop_operation_xyz
x,y,z
-x,-y,1/2+z
x,-y,-z
-x,y,1/2-z
1/2+x,1/2+y,z
1/2-x,1/2-y,1/2+z
1/2+x,1/2-y,-z
1/2-x,1/2+y,1/2-z
loop_
_atom_site_type_symbol
_atom_site_label
_atom_site_fract_x
_atom_site_fract_y
_atom_site_fract_z
Si Si1 0.666283 0.212836 0.916735
Si Si2 0.066663 0.445745 0.125537
Si Si3 0.800699 0.467324 0.241203
Si Si4 0.541027 0.839759 0.992522
Si Si5 0.756673 0.138448 0.711398
Si Si6 0.283921 0.310671 0.798020
O O1 0.595613 0.202042 0.001369
O O2 0.714216 0.214830 0.162162
O O3 0.689633 0.167594 0.729367
O O4 0.667202 0.266254 0.766946
O O5 0.128017 0.446797 0.308254
O O6 0.000000 0.436875 0.250000
O O7 0.063747 0.500000 0.000000
O O8 0.072106 0.395900 0.945008
O O9 0.797389 0.500000 0.500000
O O10 0.752663 0.420965 0.259196
O O11 0.779496 0.500000 0.000000
O O12 0.500000 0.824982 0.750000
O O13 0.500000 0.836859 0.250000
O O14 0.785033 0.148451 0.431525
O O15 0.802411 0.160028 0.938245
#
# Coordination Sequence:
#
# PCOD8158242 Si02
#       6
#     8   8   8   8   8   8
#     4  10  20  34  51  73  95 116 171 208 261 299
#     4  10  19  32  44  59  79 119 170 208 238 279
#     4  11  22  33  47  66  92 126 156 203 255 296
#     4  11  25  34  48  67  97 132 159 210 263 301
#     4  10  19  33  48  74  90 118 156 211 250 300
#     4  10  19  30  56  72  89 117 156 226 249 281
#
# _framework density 16.365463999999999
#
# number of rings (size 3 to 8) (size 9 to 14) (size 15 to 20)
#    1.000    0.667    3.333    2.000    2.333    4.000 
#    0.000    0.000    0.000    0.000    0.000    0.000 
#    0.000    0.000    0.000    0.000    0.000   46.667 
#
# Total GULP energy -297322.139484 kJ/mol
# GULP energy per Si atom -12388.422479 kJ/mol
# Density = 1.632822 g / cm^3
# Si number density = 16.365464 Si / 1000 Ang^3
#
#
#
# Elastic Constant Matrix: (Units=GPa)
#
#
# Indices 1 2 3 4 5 6 
#
# 1 47.7004 43.0516 19.1684 0.0000 0.0000 0.0000
# 2 43.0516 111.1825 38.7121 0.0000 0.0000 0.0000
# 3 19.1684 38.7121 104.4161 0.0000 0.0000 0.0000
# 4 0.0000 0.0000 0.0000 35.4404 0.0000 0.0000
# 5 0.0000 0.0000 0.0000 0.0000 15.2317 0.0000
# 6 0.0000 0.0000 0.0000 0.0000 0.0000 25.2418
#
#
#
# Elastic Compliance Matrix: (Units=1/GPa)
#
#
# Indices 1 2 3 4 5 6 
#
# 1 0.032427 -0.012038 -0.001490 0.000000 0.000000 0.000000
# 2 -0.012038 0.014796 -0.003276 0.000000 0.000000 0.000000
# 3 -0.001490 -0.003276 0.011065 0.000000 0.000000 0.000000
# 4 0.000000 0.000000 0.000000 0.028216 0.000000 0.000000
# 5 0.000000 0.000000 0.000000 0.000000 0.065653 0.000000
# 6 0.000000 0.000000 0.000000 0.000000 0.000000 0.039617
#
#
# Mechanical properties :
#
#
# Convention : Reuss Voigt Hill
#
# Bulk Modulus (GPa) = 40.51584 51.68480 46.10032
# Shear Modulus (GPa) = 21.40336 26.00724 23.70530
#
# Velocity S-wave (km/s) = 3.62033 3.99074 3.81004
# Velocity P-wave (km/s) = 6.50280 7.27220 6.89823
#
# Compressibility (1/GPa) = 0.02468171
#
# Stress axis : x y z
#
# Youngs Moduli (GPa) = 30.83813 67.58615 90.37444
#
# Poissons Ratio (x) = 0.81357 0.13466
# Poissons Ratio (y) = 0.37122 0.29604
# Poissons Ratio (z) = 0.04595 0.22139
#
# Static dielectric constant tensor:
#      x y z
#    x 2.829810 0.000000 0.000000 
#    y 0.000000 3.235170 0.000000 
#    z 0.000000 0.000000 3.206960 
# 
# 
# High freq. dielectric constant tensor:
#      x y z
#    x 1.567860 0.000000 0.000000 
#    y 0.000000 1.631440 0.000000 
#    z 0.000000 0.000000 1.632930 
# 
# From -- ./inp_files/3350.got.cif
#   From: 2010.03.12/outbox.cif.g09.slc.cpg/sg20_2_cif.got.tgz:3350.got - 2010.04.14 01:38:04.
