data_PCOD8158618
_publ_section_title
;
Structure prediction by ZEFSAII (Michael W. Deem and Ramdas Pophale) SiO2 
 PCOD8158618
Probable space group: C 2 2 21
;
_chemical_formula_sum "Si O2"
_cell_formula_units_Z 60
_cell_length_a 11.754040
_cell_length_b 24.100211
_cell_length_c 11.095719
_cell_angle_alpha 90.000000
_cell_angle_beta 90.000000
_cell_angle_gamma 90.000000
_cell_volume 3143.138070
_symmetry_space_group_name_H-M "C 2 2 21"
_symmetry_group_IT_number 20
_symmetry_cell_setting 'orthorhombic'
loop_
_space_group_symop_operation_xyz
x,y,z
-x,-y,1/2+z
x,-y,-z
-x,y,1/2-z
1/2+x,1/2+y,z
1/2-x,1/2-y,1/2+z
1/2+x,1/2-y,-z
1/2-x,1/2+y,1/2-z
loop_
_atom_site_type_symbol
_atom_site_label
_atom_site_fract_x
_atom_site_fract_y
_atom_site_fract_z
Si Si1 0.173740 0.963245 0.381663
Si Si2 0.450750 0.614356 0.048303
Si Si3 0.150296 0.195087 0.063290
Si Si4 0.726287 0.684445 0.322911
Si Si5 0.847506 0.303327 0.102918
Si Si6 0.000000 0.034499 0.250000
Si Si7 0.581530 0.812969 0.999973
Si Si8 0.884775 0.396564 0.300524
O O1 0.087094 0.914296 0.423077
O O2 0.283937 0.940922 0.310348
O O3 0.206169 0.000000 0.500000
O O4 0.111191 0.998069 0.277855
O O5 0.529988 0.667598 0.030325
O O6 0.333960 0.633275 0.110691
O O7 0.522219 0.572009 0.131978
O O8 0.214021 0.172834 0.181818
O O9 0.136237 0.261420 0.073228
O O10 0.229482 0.177707 0.953300
O O11 0.658128 0.740690 0.349995
O O12 0.858590 0.685899 0.367493
O O13 0.867949 0.344709 0.212068
O O14 0.945244 0.305591 0.999004
O O15 0.606686 0.870864 0.066262
O O16 0.000000 0.426581 0.250000
#
# Coordination Sequence:
#
# PCOD8158618 Si02
#       8
#     8   8   8   8   8   4   8   8
#     4  10  23  40  61  85 114 149 204 247 293 347
#     4  11  20  36  61  87 111 153 187 241 294 343
#     4  11  21  33  56  85 120 151 194 231 289 351
#     4  11  19  34  58  81 119 155 192 227 281 358
#     4  10  22  34  53  88 118 154 188 233 284 353
#     4  10  22  38  62  82 110 144 196 252 300 326
#     4  10  20  35  55  84 115 155 192 227 279 360
#     4  10  20  38  63  81 113 152 192 238 290 343
#
# _framework density 19.089203000000001
#
# number of rings (size 3 to 8) (size 9 to 14) (size 15 to 20)
#    0.000    1.600    5.333    0.000    1.867    0.533 
#    0.000    0.000    5.867    0.000    0.000    0.000 
#    0.000    0.000    0.000    0.000    0.000    0.000 
#
# Total GULP energy -371810.709986 kJ/mol
# GULP energy per Si atom -12393.690333 kJ/mol
# Density = 1.904576 g / cm^3
# Si number density = 19.089203 Si / 1000 Ang^3
#
#
#
# Elastic Constant Matrix: (Units=GPa)
#
#
# Indices 1 2 3 4 5 6 
#
# 1 93.7733 32.1780 29.7452 0.0000 0.0000 0.0000
# 2 32.1780 64.6688 16.4396 0.0000 0.0000 0.0000
# 3 29.7452 16.4396 49.8715 0.0000 0.0000 0.0000
# 4 0.0000 0.0000 0.0000 17.9181 0.0000 0.0000
# 5 0.0000 0.0000 0.0000 0.0000 28.9644 0.0000
# 6 0.0000 0.0000 0.0000 0.0000 0.0000 35.3027
#
#
#
# Elastic Compliance Matrix: (Units=1/GPa)
#
#
# Indices 1 2 3 4 5 6 
#
# 1 0.014796 -0.005587 -0.006983 0.000000 0.000000 0.000000
# 2 -0.005587 0.018987 -0.002927 0.000000 0.000000 0.000000
# 3 -0.006983 -0.002927 0.025181 0.000000 0.000000 0.000000
# 4 0.000000 0.000000 0.000000 0.055810 0.000000 0.000000
# 5 0.000000 0.000000 0.000000 0.000000 0.034525 0.000000
# 6 0.000000 0.000000 0.000000 0.000000 0.000000 0.028326
#
#
# Mechanical properties :
#
#
# Convention : Reuss Voigt Hill
#
# Bulk Modulus (GPa) = 35.75138 40.55991 38.15564
# Shear Modulus (GPa) = 22.94165 25.10043 24.02104
#
# Velocity S-wave (km/s) = 3.47048 3.63009 3.55118
# Velocity P-wave (km/s) = 5.90154 6.23408 6.07009
#
# Compressibility (1/GPa) = 0.02797095
#
# Stress axis : x y z
#
# Youngs Moduli (GPa) = 67.58410 52.66640 39.71188
#
# Poissons Ratio (x) = 0.29425 0.27732
# Poissons Ratio (y) = 0.37760 0.11622
# Poissons Ratio (z) = 0.47196 0.15413
#
# Static dielectric constant tensor:
#      x y z
#    x 3.550320 0.000000 0.000000 
#    y 0.000000 3.445600 0.000000 
#    z 0.000000 0.000000 3.286220 
# 
# 
# High freq. dielectric constant tensor:
#      x y z
#    x 1.739510 0.000000 0.000000 
#    y 0.000000 1.734940 0.000000 
#    z 0.000000 0.000000 1.725270 
# 
# From -- ./inp_files/11120.got.cif
#   From: 2010.03.12/outbox.cif.g09.slc.cpg/sg20_6_cif.got.tgz:11120.got - 2010.04.14 01:38:04.
