data_PCOD8158860
_publ_section_title
;
Structure prediction by ZEFSAII (Michael W. Deem and Ramdas Pophale) SiO2 
 PCOD8158860
Probable space group: C 2 2 21
;
_chemical_formula_sum "Si O2"
_cell_formula_units_Z 64
_cell_length_a 16.847761
_cell_length_b 9.381284
_cell_length_c 18.846607
_cell_angle_alpha 90.000000
_cell_angle_beta 90.000000
_cell_angle_gamma 90.000000
_cell_volume 2978.774663
_symmetry_space_group_name_H-M "C 2 2 21"
_symmetry_group_IT_number 20
_symmetry_cell_setting 'orthorhombic'
loop_
_space_group_symop_operation_xyz
x,y,z
-x,-y,1/2+z
x,-y,-z
-x,y,1/2-z
1/2+x,1/2+y,z
1/2-x,1/2-y,1/2+z
1/2+x,1/2-y,-z
1/2-x,1/2+y,1/2-z
loop_
_atom_site_type_symbol
_atom_site_label
_atom_site_fract_x
_atom_site_fract_y
_atom_site_fract_z
Si Si1 0.760344 0.100285 0.436482
Si Si2 0.589668 0.682006 0.833346
Si Si3 0.508025 0.205282 0.667913
Si Si4 0.149357 0.502312 0.321718
Si Si5 0.787163 0.910141 0.069518
Si Si6 0.137509 0.502741 0.158474
Si Si7 0.067883 0.065406 0.072372
Si Si8 0.594598 0.314541 0.323435
O O1 0.731969 0.015616 0.364869
O O2 0.711292 0.243841 0.448393
O O3 0.851954 0.155559 0.440951
O O4 0.735800 0.000000 0.500000
O O5 0.613124 0.836939 0.861524
O O6 0.616115 0.562095 0.887985
O O7 0.496415 0.651678 0.831717
O O8 0.626509 0.655076 0.755936
O O9 0.500000 0.254411 0.750000
O O10 0.496713 0.343687 0.616856
O O11 0.594032 0.132234 0.654587
O O12 0.440304 0.092491 0.648719
O O13 0.170032 0.488037 0.238569
O O14 0.101023 0.646001 0.337781
O O15 0.858445 0.924550 0.126209
O O16 0.704813 0.958017 0.103905
O O17 0.807235 0.000000 0.000000
O O18 0.029051 0.000000 0.000000
#
# Coordination Sequence:
#
# PCOD8158860 Si02
#       8
#     8   8   8   8   8   8   8   8
#     4  10  23  44  60  86 132 172 208 258 329 385
#     4  10  21  40  67  90 128 169 211 260 334 386
#     4  10  20  41  67  98 126 161 219 277 323 384
#     4   9  19  41  68  92 122 161 219 269 318 390
#     4  11  24  41  65  96 132 166 220 275 316 389
#     4  10  20  38  68  97 120 166 219 269 322 389
#     4  11  25  41  59  92 134 170 208 263 324 390
#     4   9  20  41  66  95 124 165 208 271 325 384
#
# _framework density 21.485344999999999
#
# number of rings (size 3 to 8) (size 9 to 14) (size 15 to 20)
#    0.000    2.000    2.500    0.000    7.000    0.500 
#    6.750    0.625    0.000    0.000    0.000    0.000 
#    0.000    0.000    0.000    0.000    0.000    0.000 
#
# Total GULP energy -396547.144639 kJ/mol
# GULP energy per Si atom -12392.098270 kJ/mol
# Density = 2.143644 g / cm^3
# Si number density = 21.485345 Si / 1000 Ang^3
#
#
#
# Elastic Constant Matrix: (Units=GPa)
#
#
# Indices 1 2 3 4 5 6 
#
# 1 52.8679 20.4500 29.1136 0.0000 0.0000 0.0000
# 2 20.4500 107.2269 64.4242 0.0000 0.0000 0.0000
# 3 29.1136 64.4242 115.0462 0.0000 0.0000 0.0000
# 4 0.0000 0.0000 0.0000 37.0613 0.0000 0.0000
# 5 0.0000 0.0000 0.0000 0.0000 28.9899 0.0000
# 6 0.0000 0.0000 0.0000 0.0000 0.0000 22.5957
#
#
#
# Elastic Compliance Matrix: (Units=1/GPa)
#
#
# Indices 1 2 3 4 5 6 
#
# 1 0.022095 -0.001288 -0.004870 0.000000 0.000000 0.000000
# 2 -0.001288 0.014130 -0.007587 0.000000 0.000000 0.000000
# 3 -0.004870 -0.007587 0.014173 0.000000 0.000000 0.000000
# 4 0.000000 0.000000 0.000000 0.026982 0.000000 0.000000
# 5 0.000000 0.000000 0.000000 0.000000 0.034495 0.000000
# 6 0.000000 0.000000 0.000000 0.000000 0.000000 0.044256
#
#
# Mechanical properties :
#
#
# Convention : Reuss Voigt Hill
#
# Bulk Modulus (GPa) = 43.65151 55.90187 49.77669
# Shear Modulus (GPa) = 26.14285 28.47293 27.30789
#
# Velocity S-wave (km/s) = 3.49202 3.64431 3.56898
# Velocity P-wave (km/s) = 6.05144 6.61688 6.34047
#
# Compressibility (1/GPa) = 0.02290871
#
# Stress axis : x y z
#
# Youngs Moduli (GPa) = 45.25872 70.77234 70.55653
#
# Poissons Ratio (x) = 0.09114 0.34363
# Poissons Ratio (y) = 0.05828 0.53529
# Poissons Ratio (z) = 0.22042 0.53692
#
# Static dielectric constant tensor:
#      x y z
#    x 3.701490 0.000000 0.000000 
#    y 0.000000 3.929000 0.000000 
#    z 0.000000 0.000000 3.971460 
# 
# 
# High freq. dielectric constant tensor:
#      x y z
#    x 1.836920 0.000000 0.000000 
#    y 0.000000 1.845450 0.000000 
#    z 0.000000 0.000000 1.838870 
# 
# From -- ./inp_files/27774.got.cif
#   From: 2010.03.12/outbox.cif.g09.slc.cpg/sg20_14_cif.got.tgz:27774.got - 2010.04.14 01:38:04.
