data_PCOD8158845
_publ_section_title
;
Structure prediction by ZEFSAII (Michael W. Deem and Ramdas Pophale) SiO2 
 PCOD8158845
Probable space group: C 2 2 21
;
_chemical_formula_sum "Si O2"
_cell_formula_units_Z 36
_cell_length_a 7.328914
_cell_length_b 12.158883
_cell_length_c 20.696662
_cell_angle_alpha 90.000000
_cell_angle_beta 90.000000
_cell_angle_gamma 90.000000
_cell_volume 1844.308688
_symmetry_space_group_name_H-M "C 2 2 21"
_symmetry_group_IT_number 20
_symmetry_cell_setting 'orthorhombic'
loop_
_space_group_symop_operation_xyz
x,y,z
-x,-y,1/2+z
x,-y,-z
-x,y,1/2-z
1/2+x,1/2+y,z
1/2-x,1/2-y,1/2+z
1/2+x,1/2-y,-z
1/2-x,1/2+y,1/2-z
loop_
_atom_site_type_symbol
_atom_site_label
_atom_site_fract_x
_atom_site_fract_y
_atom_site_fract_z
Si Si1 0.485094 0.222433 0.422663
Si Si2 0.736432 0.160329 0.850373
Si Si3 0.000000 0.778741 0.750000
Si Si4 0.161151 0.913432 0.634407
Si Si5 0.366847 0.674916 0.449311
O O1 0.558513 0.290512 0.360101
O O2 0.308664 0.155315 0.404943
O O3 0.437217 0.310396 0.478311
O O4 0.651141 0.142840 0.447606
O O5 0.649344 0.200389 0.783375
O O6 0.612473 0.208464 0.909629
O O7 0.748063 0.029696 0.850667
O O8 0.891146 0.857031 0.798584
O O9 0.984227 0.919325 0.587360
#
# Coordination Sequence:
#
# PCOD8158845 Si02
#       5
#     8   8   4   8   8
#     4  10  20  38  65  88 125 156 192 252 306 353
#     4   9  23  40  60  92 118 162 207 241 303 361
#     4  10  24  42  60  88 124 156 216 256 280 362
#     4  11  21  43  62  84 128 156 205 251 299 354
#     4   9  20  39  59  96 120 153 199 248 297 372
#
# _framework density 19.519507999999998
#
# number of rings (size 3 to 8) (size 9 to 14) (size 15 to 20)
#    1.333    0.889    2.222    0.000    0.000    8.000 
#    8.000    2.222    0.000    0.000    0.000    0.000 
#    0.000    0.000    0.000    0.000    0.000    0.000 
#
# Total GULP energy -223007.186251 kJ/mol
# GULP energy per Si atom -12389.288125 kJ/mol
# Density = 1.947508 g / cm^3
# Si number density = 19.519508 Si / 1000 Ang^3
#
#
#
# Elastic Constant Matrix: (Units=GPa)
#
#
# Indices 1 2 3 4 5 6 
#
# 1 75.1559 -1.8310 37.4921 0.0000 0.0000 0.0000
# 2 -1.8310 77.4333 20.9800 0.0000 0.0000 0.0000
# 3 37.4921 20.9800 58.3479 0.0000 0.0000 0.0000
# 4 0.0000 0.0000 0.0000 14.8512 0.0000 0.0000
# 5 0.0000 0.0000 0.0000 0.0000 46.8657 0.0000
# 6 0.0000 0.0000 0.0000 0.0000 0.0000 22.4312
#
#
#
# Elastic Compliance Matrix: (Units=1/GPa)
#
#
# Indices 1 2 3 4 5 6 
#
# 1 0.020960 0.004592 -0.015119 0.000000 0.000000 0.000000
# 2 0.004592 0.015314 -0.008457 0.000000 0.000000 0.000000
# 3 -0.015119 -0.008457 0.029894 0.000000 0.000000 0.000000
# 4 0.000000 0.000000 0.000000 0.067335 0.000000 0.000000
# 5 0.000000 0.000000 0.000000 0.000000 0.021338 0.000000
# 6 0.000000 0.000000 0.000000 0.000000 0.000000 0.044581
#
#
# Mechanical properties :
#
#
# Convention : Reuss Voigt Hill
#
# Bulk Modulus (GPa) = 35.46089 36.02436 35.74263
# Shear Modulus (GPa) = 20.26013 27.11601 23.68807
#
# Velocity S-wave (km/s) = 3.22521 3.73121 3.48740
# Velocity P-wave (km/s) = 5.66353 6.08754 5.87936
#
# Compressibility (1/GPa) = 0.02820008
#
# Stress axis : x y z
#
# Youngs Moduli (GPa) = 47.71038 65.29827 33.45106
#
# Poissons Ratio (x) = -0.29985 0.50575
# Poissons Ratio (y) = -0.21909 0.28290
# Poissons Ratio (z) = 0.72134 0.55224
#
# Static dielectric constant tensor:
#      x y z
#    x 3.634370 0.000000 0.000000 
#    y 0.000000 3.140890 0.000000 
#    z 0.000000 0.000000 3.521550 
# 
# 
# High freq. dielectric constant tensor:
#      x y z
#    x 1.768580 0.000000 0.000000 
#    y 0.000000 1.726640 0.000000 
#    z 0.000000 0.000000 1.762610 
# 
# From -- ./inp_files/26436.got.cif
#   From: 2010.03.12/outbox.cif.g09.slc.cpg/sg20_14_cif.got.tgz:26436.got - 2010.04.14 01:38:04.
