data_PCOD8158609
_publ_section_title
;
Structure prediction by ZEFSAII (Michael W. Deem and Ramdas Pophale) SiO2 
 PCOD8158609
Probable space group: C 2 2 21
;
_chemical_formula_sum "Si O2"
_cell_formula_units_Z 36
_cell_length_a 9.758748
_cell_length_b 8.900735
_cell_length_c 20.076846
_cell_angle_alpha 90.000000
_cell_angle_beta 90.000000
_cell_angle_gamma 90.000000
_cell_volume 1743.875443
_symmetry_space_group_name_H-M "C 2 2 21"
_symmetry_group_IT_number 20
_symmetry_cell_setting 'orthorhombic'
loop_
_space_group_symop_operation_xyz
x,y,z
-x,-y,1/2+z
x,-y,-z
-x,y,1/2-z
1/2+x,1/2+y,z
1/2-x,1/2-y,1/2+z
1/2+x,1/2-y,-z
1/2-x,1/2+y,1/2-z
loop_
_atom_site_type_symbol
_atom_site_label
_atom_site_fract_x
_atom_site_fract_y
_atom_site_fract_z
Si Si1 0.324271 0.475964 0.923004
Si Si2 0.355231 0.500000 0.500000
Si Si3 0.413504 0.742901 0.603235
Si Si4 0.287361 0.807386 0.890963
Si Si5 0.063962 0.967361 0.821466
O O1 0.211931 0.346519 0.915822
O O2 0.260333 0.629402 0.894876
O O3 0.454999 0.422175 0.879533
O O4 0.365637 0.500000 0.000000
O O5 0.443380 0.618573 0.544561
O O6 0.257596 0.601657 0.455425
O O7 0.550304 0.840124 0.615748
O O8 0.388555 0.641824 0.669604
O O9 0.199436 0.864060 0.827694
O O10 0.000000 0.939669 0.750000
#
# Coordination Sequence:
#
# PCOD8158609 Si02
#       5
#     8   4   8   8   8
#     4  11  23  39  65  96 132 159 212 273 324 382
#     4  10  20  34  60  92 132 158 194 256 320 376
#     4  10  23  39  64  93 126 165 211 259 318 378
#     4  10  23  36  64  93 124 167 205 258 319 377
#     4  10  25  46  64  89 131 177 216 259 316 382
#
# _framework density 20.643675000000002
#
# number of rings (size 3 to 8) (size 9 to 14) (size 15 to 20)
#    0.000    1.778    2.222    0.000   15.556    7.111 
#    0.000    1.111    0.000    0.000    0.000    0.000 
#    0.000    0.000    0.000    0.000    0.000    0.000 
#
# Total GULP energy -223040.145574 kJ/mol
# GULP energy per Si atom -12391.119199 kJ/mol
# Density = 2.059669 g / cm^3
# Si number density = 20.643675 Si / 1000 Ang^3
#
#
#
# Elastic Constant Matrix: (Units=GPa)
#
#
# Indices 1 2 3 4 5 6 
#
# 1 129.5027 56.1073 39.6694 0.0000 0.0000 0.0000
# 2 56.1073 75.3144 9.5241 0.0000 0.0000 0.0000
# 3 39.6694 9.5241 78.2175 0.0000 0.0000 0.0000
# 4 0.0000 0.0000 0.0000 19.1244 0.0000 0.0000
# 5 0.0000 0.0000 0.0000 0.0000 23.1120 0.0000
# 6 0.0000 0.0000 0.0000 0.0000 0.0000 45.6556
#
#
#
# Elastic Compliance Matrix: (Units=1/GPa)
#
#
# Indices 1 2 3 4 5 6 
#
# 1 0.013527 -0.009354 -0.005722 0.000000 0.000000 0.000000
# 2 -0.009354 0.019953 0.002314 0.000000 0.000000 0.000000
# 3 -0.005722 0.002314 0.015405 0.000000 0.000000 0.000000
# 4 0.000000 0.000000 0.000000 0.052289 0.000000 0.000000
# 5 0.000000 0.000000 0.000000 0.000000 0.043268 0.000000
# 6 0.000000 0.000000 0.000000 0.000000 0.000000 0.021903
#
#
# Mechanical properties :
#
#
# Convention : Reuss Voigt Hill
#
# Bulk Modulus (GPa) = 42.80222 54.84849 48.82535
# Shear Modulus (GPa) = 25.04323 29.42730 27.23527
#
# Velocity S-wave (km/s) = 3.48676 3.77966 3.63616
# Velocity P-wave (km/s) = 6.08185 6.75830 6.42898
#
# Compressibility (1/GPa) = 0.02336327
#
# Stress axis : x y z
#
# Youngs Moduli (GPa) = 73.92627 50.11695 64.91469
#
# Poissons Ratio (x) = 0.46878 0.37141
# Poissons Ratio (y) = 0.69149 -0.15023
# Poissons Ratio (z) = 0.42297 -0.11599
#
# Static dielectric constant tensor:
#      x y z
#    x 3.765890 0.000000 0.000000 
#    y 0.000000 3.867310 0.000000 
#    z 0.000000 0.000000 3.663160 
# 
# 
# High freq. dielectric constant tensor:
#      x y z
#    x 1.820460 0.000000 0.000000 
#    y 0.000000 1.807940 0.000000 
#    z 0.000000 0.000000 1.790830 
# 
# From -- ./inp_files/26393.got.cif
#   From: 2010.03.12/outbox.cif.g09.slc.cpg/sg20_14_cif.got.tgz:26393.got - 2010.04.14 01:38:04.
