data_PCOD8158000
_publ_section_title
;
Structure prediction by ZEFSAII (Michael W. Deem and Ramdas Pophale) SiO2 
 PCOD8158000
Probable space group: C 2 2 21
;
_chemical_formula_sum "Si O2"
_cell_formula_units_Z 48
_cell_length_a 7.667739
_cell_length_b 17.094131
_cell_length_c 22.252439
_cell_angle_alpha 90.000000
_cell_angle_beta 90.000000
_cell_angle_gamma 90.000000
_cell_volume 2916.701390
_symmetry_space_group_name_H-M "C 2 2 21"
_symmetry_group_IT_number 20
_symmetry_cell_setting 'orthorhombic'
loop_
_space_group_symop_operation_xyz
x,y,z
-x,-y,1/2+z
x,-y,-z
-x,y,1/2-z
1/2+x,1/2+y,z
1/2-x,1/2-y,1/2+z
1/2+x,1/2-y,-z
1/2-x,1/2+y,1/2-z
loop_
_atom_site_type_symbol
_atom_site_label
_atom_site_fract_x
_atom_site_fract_y
_atom_site_fract_z
Si Si1 0.500000 0.675840 0.750000
Si Si2 0.500000 0.015190 0.250000
Si Si3 0.819445 0.481822 0.069478
Si Si4 0.846508 0.743274 0.702360
Si Si5 0.623628 0.085859 0.861769
Si Si6 0.988629 0.944202 0.355538
Si Si7 0.780508 0.914585 0.669955
O O1 0.665303 0.730071 0.737018
O O2 0.546436 0.622759 0.806956
O O3 0.345019 0.070313 0.226794
O O4 0.430723 0.958542 0.301587
O O5 0.649050 0.431510 0.089729
O O6 0.822283 0.562870 0.108080
O O7 0.993495 0.432208 0.083560
O O8 0.810242 0.500000 0.000000
O O9 0.878618 0.678165 0.651594
O O10 0.841247 0.825542 0.667676
O O11 0.000000 0.743657 0.750000
O O12 0.816298 0.058376 0.881430
O O13 0.950124 0.028756 0.324682
#
# Coordination Sequence:
#
# PCOD8158000 Si02
#       7
#     4   4   8   8   8   8   8
#     4  10  19  34  51  78 112 140 164 208 267 328
#     4  10  17  32  49  80 106 140 168 202 257 318
#     4   9  20  38  57  72 100 139 186 217 251 302
#     4  11  20  30  49  81 112 134 163 209 273 315
#     4  10  19  33  55  75 104 140 173 206 262 319
#     4   9  19  32  55  77  99 139 178 210 253 310
#     4   9  20  31  51  78 106 133 171 217 255 300
#
# _framework density 16.456948000000001
#
# number of rings (size 3 to 8) (size 9 to 14) (size 15 to 20)
#    1.000    1.333    0.833    3.500    3.500    0.667 
#    0.000    0.000    7.333    0.000    0.000    0.000 
#    0.000    0.000    0.000    0.000    0.000    0.000 
#
# Total GULP energy -297479.752545 kJ/mol
# GULP energy per Si atom -12394.989689 kJ/mol
# Density = 1.641949 g / cm^3
# Si number density = 16.456948 Si / 1000 Ang^3
#
#
#
# Elastic Constant Matrix: (Units=GPa)
#
#
# Indices 1 2 3 4 5 6 
#
# 1 116.6908 46.0515 28.9883 0.0000 0.0000 0.0000
# 2 46.0515 107.3983 20.4493 0.0000 0.0000 0.0000
# 3 28.9883 20.4493 65.2922 0.0000 0.0000 0.0000
# 4 0.0000 0.0000 0.0000 4.8602 0.0000 0.0000
# 5 0.0000 0.0000 0.0000 0.0000 21.5463 0.0000
# 6 0.0000 0.0000 0.0000 0.0000 0.0000 9.2015
#
#
#
# Elastic Compliance Matrix: (Units=1/GPa)
#
#
# Indices 1 2 3 4 5 6 
#
# 1 0.011076 -0.004055 -0.003648 0.000000 0.000000 0.000000
# 2 -0.004055 0.011386 -0.001766 0.000000 0.000000 0.000000
# 3 -0.003648 -0.001766 0.017488 0.000000 0.000000 0.000000
# 4 0.000000 0.000000 0.000000 0.205752 0.000000 0.000000
# 5 0.000000 0.000000 0.000000 0.000000 0.046412 0.000000
# 6 0.000000 0.000000 0.000000 0.000000 0.000000 0.108678
#
#
# Mechanical properties :
#
#
# Convention : Reuss Voigt Hill
#
# Bulk Modulus (GPa) = 47.58746 53.37327 50.48036
# Shear Modulus (GPa) = 11.71694 20.04776 15.88235
#
# Velocity S-wave (km/s) = 2.67118 3.49405 3.10995
# Velocity P-wave (km/s) = 6.20425 6.98429 6.60579
#
# Compressibility (1/GPa) = 0.02101394
#
# Stress axis : x y z
#
# Youngs Moduli (GPa) = 90.28544 87.82705 57.18128
#
# Poissons Ratio (x) = 0.35612 0.20857
# Poissons Ratio (y) = 0.36609 0.10097
# Poissons Ratio (z) = 0.32932 0.15509
#
# Static dielectric constant tensor:
#      x y z
#    x 3.449240 0.000000 0.000000 
#    y 0.000000 3.012050 0.000000 
#    z 0.000000 0.000000 2.737150 
# 
# 
# High freq. dielectric constant tensor:
#      x y z
#    x 1.649500 0.000000 0.000000 
#    y 0.000000 1.623630 0.000000 
#    z 0.000000 0.000000 1.599420 
# 
# From -- ./inp_files/26799.got.cif
#   From: 2010.03.12/outbox.cif.g09.slc.cpg/sg20_14_cif.got.tgz:26799.got - 2010.04.14 01:38:04.
