data_PCOD8158103
_publ_section_title
;
Structure prediction by ZEFSAII (Michael W. Deem and Ramdas Pophale) SiO2 
 PCOD8158103
Probable space group: C 2 2 21
;
_chemical_formula_sum "Si O2"
_cell_formula_units_Z 52
_cell_length_a 23.806226
_cell_length_b 5.263932
_cell_length_c 18.140386
_cell_angle_alpha 90.000000
_cell_angle_beta 90.000000
_cell_angle_gamma 90.000000
_cell_volume 2273.250768
_symmetry_space_group_name_H-M "C 2 2 21"
_symmetry_group_IT_number 20
_symmetry_cell_setting 'orthorhombic'
loop_
_space_group_symop_operation_xyz
x,y,z
-x,-y,1/2+z
x,-y,-z
-x,y,1/2-z
1/2+x,1/2+y,z
1/2-x,1/2-y,1/2+z
1/2+x,1/2-y,-z
1/2-x,1/2+y,1/2-z
loop_
_atom_site_type_symbol
_atom_site_label
_atom_site_fract_x
_atom_site_fract_y
_atom_site_fract_z
Si Si1 0.794411 0.500000 0.500000
Si Si2 0.352542 0.825007 0.642538
Si Si3 0.699452 0.317642 0.793920
Si Si4 0.969939 0.776571 0.829388
Si Si5 0.707549 0.234813 0.403544
Si Si6 0.841838 0.771107 0.860315
Si Si7 0.482550 0.222169 0.335803
O O1 0.833063 0.349802 0.557838
O O2 0.755873 0.278203 0.464356
O O3 0.320068 0.595485 0.680931
O O4 0.417174 0.752848 0.649913
O O5 0.343011 0.096609 0.680249
O O6 0.762129 0.268792 0.823698
O O7 0.703113 0.294942 0.705709
O O8 0.903027 0.749575 0.823925
O O9 0.000000 0.794667 0.750000
O O10 0.993873 0.534087 0.873956
O O11 0.986790 0.034171 0.872381
O O12 0.663970 0.471002 0.407934
O O13 0.673648 0.969264 0.412816
O O14 0.500000 0.203506 0.250000
#
# Coordination Sequence:
#
# PCOD8158103 Si02
#       7
#     4   8   8   8   8   8   8
#     4  10  26  46  64  94 128 184 240 268 326 402
#     4  11  22  38  65  92 129 175 219 276 330 401
#     4  11  21  37  59  94 129 162 207 270 341 401
#     4  10  20  34  56  88 126 158 198 251 323 405
#     4  11  24  39  61  88 128 170 219 272 315 399
#     4  12  22  38  62  95 129 169 206 266 345 398
#     4  10  18  33  56  90 124 162 206 266 335 393
#
# _framework density 22.874732000000002
#
# number of rings (size 3 to 8) (size 9 to 14) (size 15 to 20)
#    0.000    1.231    0.000    9.231    0.000    5.538 
#    0.000    0.000    0.000    3.692    0.000    0.000 
#    0.000    0.000    0.000    0.000    0.000    0.000 
#
# Total GULP energy -322279.423413 kJ/mol
# GULP energy per Si atom -12395.362439 kJ/mol
# Density = 2.282267 g / cm^3
# Si number density = 22.874732 Si / 1000 Ang^3
#
#
#
# Elastic Constant Matrix: (Units=GPa)
#
#
# Indices 1 2 3 4 5 6 
#
# 1 122.5447 42.1219 17.4719 0.0000 0.0000 0.0000
# 2 42.1219 197.0275 26.0885 0.0000 0.0000 0.0000
# 3 17.4719 26.0885 61.9352 0.0000 0.0000 0.0000
# 4 0.0000 0.0000 0.0000 23.6368 0.0000 0.0000
# 5 0.0000 0.0000 0.0000 0.0000 34.2017 0.0000
# 6 0.0000 0.0000 0.0000 0.0000 0.0000 43.0866
#
#
#
# Elastic Compliance Matrix: (Units=1/GPa)
#
#
# Indices 1 2 3 4 5 6 
#
# 1 0.008999 -0.001682 -0.001830 0.000000 0.000000 0.000000
# 2 -0.001682 0.005689 -0.001922 0.000000 0.000000 0.000000
# 3 -0.001830 -0.001922 0.017472 0.000000 0.000000 0.000000
# 4 0.000000 0.000000 0.000000 0.042307 0.000000 0.000000
# 5 0.000000 0.000000 0.000000 0.000000 0.029238 0.000000
# 6 0.000000 0.000000 0.000000 0.000000 0.000000 0.023209
#
#
# Mechanical properties :
#
#
# Convention : Reuss Voigt Hill
#
# Bulk Modulus (GPa) = 46.96502 61.43020 54.19761
# Shear Modulus (GPa) = 34.51117 39.90669 37.20893
#
# Velocity S-wave (km/s) = 3.88842 4.18134 4.03754
# Velocity P-wave (km/s) = 6.38245 7.08695 6.74391
#
# Compressibility (1/GPa) = 0.02129244
#
# Stress axis : x y z
#
# Youngs Moduli (GPa) = 111.12041 175.76417 57.23470
#
# Poissons Ratio (x) = 0.29556 0.10476
# Poissons Ratio (y) = 0.18686 0.11001
# Poissons Ratio (z) = 0.20339 0.33785
#
# Static dielectric constant tensor:
#      x y z
#    x 3.784710 0.000000 0.000000 
#    y 0.000000 5.834080 0.000000 
#    z 0.000000 0.000000 3.668550 
# 
# 
# High freq. dielectric constant tensor:
#      x y z
#    x 1.898450 0.000000 0.000000 
#    y 0.000000 1.943740 0.000000 
#    z 0.000000 0.000000 1.851660 
# 
# From -- ./inp_files/27912.got.cif
#   From: 2010.03.12/outbox.cif.g09.slc.cpg/sg20_14_cif.got.tgz:27912.got - 2010.04.14 01:38:04.
