data_PCOD8158958
_publ_section_title
;
Structure prediction by ZEFSAII (Michael W. Deem and Ramdas Pophale) SiO2 
 PCOD8158958
Probable space group: C 2 2 21
;
_chemical_formula_sum "Si O2"
_cell_formula_units_Z 48
_cell_length_a 30.039689
_cell_length_b 8.526929
_cell_length_c 8.963825
_cell_angle_alpha 90.000000
_cell_angle_beta 90.000000
_cell_angle_gamma 90.000000
_cell_volume 2296.050565
_symmetry_space_group_name_H-M "C 2 2 21"
_symmetry_group_IT_number 20
_symmetry_cell_setting 'orthorhombic'
loop_
_space_group_symop_operation_xyz
x,y,z
-x,-y,1/2+z
x,-y,-z
-x,y,1/2-z
1/2+x,1/2+y,z
1/2-x,1/2-y,1/2+z
1/2+x,1/2-y,-z
1/2-x,1/2+y,1/2-z
loop_
_atom_site_type_symbol
_atom_site_label
_atom_site_fract_x
_atom_site_fract_y
_atom_site_fract_z
Si Si1 0.114386 0.175551 0.468740
Si Si2 0.450201 0.762207 0.293129
Si Si3 0.367983 0.739935 0.704533
Si Si4 0.780942 0.085213 0.640045
Si Si5 0.215836 0.861131 0.610360
Si Si6 0.599048 0.000000 0.000000
Si Si7 0.079272 0.000000 0.000000
O O1 0.080267 0.254466 0.354415
O O2 0.112791 0.266193 0.628403
O O3 0.163123 0.173719 0.393280
O O4 0.098178 0.000000 0.500000
O O5 0.500000 0.805354 0.250000
O O6 0.451184 0.603853 0.391104
O O7 0.432731 0.899449 0.396810
O O8 0.316794 0.690077 0.728517
O O9 0.391820 0.603508 0.612497
O O10 0.369488 0.898517 0.608464
O O11 0.740096 0.194662 0.587085
O O12 0.803684 0.000000 0.500000
O O13 0.766612 0.934404 0.735623
O O14 0.229936 0.000000 0.500000
#
# Coordination Sequence:
#
# PCOD8158958 Si02
#       7
#     8   8   8   8   8   4   4
#     4  11  22  44  68  95 130 177 222 278 333 393
#     4  11  25  44  71 101 136 171 222 278 342 408
#     4  11  22  43  68  95 137 177 226 270 333 400
#     4  12  24  39  65  96 134 179 227 285 324 399
#     4  11  24  43  61  95 135 177 229 278 339 389
#     4  10  28  44  64 104 134 180 214 278 348 400
#     4  10  20  40  68 100 130 170 224 272 326 404
#
# _framework density 20.905463000000001
#
# number of rings (size 3 to 8) (size 9 to 14) (size 15 to 20)
#    0.000    1.000    5.833    1.000    4.667    3.333 
#    0.000    3.333    0.000    0.000    0.000    0.000 
#    0.000    0.000    0.000    0.000    0.000    0.000 
#
# Total GULP energy -297516.248497 kJ/mol
# GULP energy per Si atom -12396.510354 kJ/mol
# Density = 2.085788 g / cm^3
# Si number density = 20.905463 Si / 1000 Ang^3
#
#
#
# Elastic Constant Matrix: (Units=GPa)
#
#
# Indices 1 2 3 4 5 6 
#
# 1 82.9124 29.3201 42.0215 0.0000 0.0000 0.0000
# 2 29.3201 94.4763 46.4977 0.0000 0.0000 0.0000
# 3 42.0215 46.4977 152.2449 0.0000 0.0000 0.0000
# 4 0.0000 0.0000 0.0000 30.0562 0.0000 0.0000
# 5 0.0000 0.0000 0.0000 0.0000 31.9291 0.0000
# 6 0.0000 0.0000 0.0000 0.0000 0.0000 19.5284
#
#
#
# Elastic Compliance Matrix: (Units=1/GPa)
#
#
# Indices 1 2 3 4 5 6 
#
# 1 0.014721 -0.003023 -0.003140 0.000000 0.000000 0.000000
# 2 -0.003023 0.013078 -0.003160 0.000000 0.000000 0.000000
# 3 -0.003140 -0.003160 0.008400 0.000000 0.000000 0.000000
# 4 0.000000 0.000000 0.000000 0.033271 0.000000 0.000000
# 5 0.000000 0.000000 0.000000 0.000000 0.031319 0.000000
# 6 0.000000 0.000000 0.000000 0.000000 0.000000 0.051207
#
#
# Mechanical properties :
#
#
# Convention : Reuss Voigt Hill
#
# Bulk Modulus (GPa) = 56.96865 62.81247 59.89056
# Shear Modulus (GPa) = 28.32947 30.42235 29.37591
#
# Velocity S-wave (km/s) = 3.68519 3.81889 3.75264
# Velocity P-wave (km/s) = 6.73924 7.03963 6.89107
#
# Compressibility (1/GPa) = 0.01755351
#
# Stress axis : x y z
#
# Youngs Moduli (GPa) = 67.92821 76.46404 119.04693
#
# Poissons Ratio (x) = 0.23118 0.37380
# Poissons Ratio (y) = 0.20537 0.37616
# Poissons Ratio (z) = 0.21329 0.24161
#
# Static dielectric constant tensor:
#      x y z
#    x 3.415630 0.000000 0.000000 
#    y 0.000000 3.877810 0.000000 
#    z 0.000000 0.000000 3.443070 
# 
# 
# High freq. dielectric constant tensor:
#      x y z
#    x 1.794790 0.000000 0.000000 
#    y 0.000000 1.819180 0.000000 
#    z 0.000000 0.000000 1.844780 
# 
# From -- ./inp_files/11515.got.cif
#   From: 2010.03.12/outbox.cif.g09.slc.cpg/sg20_6_cif.got.tgz:11515.got - 2010.04.14 01:38:04.
