data_PCOD8158128
_publ_section_title
;
Structure prediction by ZEFSAII (Michael W. Deem and Ramdas Pophale) SiO2 
 PCOD8158128
Probable space group: C 2 2 21
;
_chemical_formula_sum "Si O2"
_cell_formula_units_Z 40
_cell_length_a 8.249140
_cell_length_b 21.735109
_cell_length_c 10.548229
_cell_angle_alpha 90.000000
_cell_angle_beta 90.000000
_cell_angle_gamma 90.000000
_cell_volume 1891.254814
_symmetry_space_group_name_H-M "C 2 2 21"
_symmetry_group_IT_number 20
_symmetry_cell_setting 'orthorhombic'
loop_
_space_group_symop_operation_xyz
x,y,z
-x,-y,1/2+z
x,-y,-z
-x,y,1/2-z
1/2+x,1/2+y,z
1/2-x,1/2-y,1/2+z
1/2+x,1/2-y,-z
1/2-x,1/2+y,1/2-z
loop_
_atom_site_type_symbol
_atom_site_label
_atom_site_fract_x
_atom_site_fract_y
_atom_site_fract_z
Si Si1 0.726578 0.164173 0.495662
Si Si2 0.928289 0.729285 0.389346
Si Si3 0.841740 0.991940 0.867130
Si Si4 0.331096 0.643827 0.222259
Si Si5 0.795422 0.959979 0.385769
O O1 0.867777 0.210468 0.538065
O O2 0.555208 0.199061 0.487301
O O3 0.748028 0.133474 0.357851
O O4 0.735016 0.109785 0.598265
O O5 0.779539 0.682502 0.372549
O O6 0.000000 0.746046 0.250000
O O7 0.731535 0.018359 0.752643
O O8 0.009599 0.030280 0.881745
O O9 0.877560 0.920368 0.843606
O O10 0.745251 0.000000 0.000000
O O11 0.500000 0.679466 0.250000
O O12 0.719592 0.000000 0.500000
#
# Coordination Sequence:
#
# PCOD8158128 Si02
#       5
#     8   8   8   8   8
#     4  11  22  41  63  92 133 174 228 279 334 406
#     4  10  25  41  65  99 131 182 223 280 341 397
#     4  10  19  33  60 100 125 167 219 273 339 403
#     4  11  19  40  67  93 130 169 217 277 337 409
#     4  10  18  34  61  95 123 167 223 272 340 399
#
# _framework density 21.149978000000001
#
# number of rings (size 3 to 8) (size 9 to 14) (size 15 to 20)
#    0.000    1.600    4.000    2.400    2.800    0.000 
#    3.600    1.000    0.000    0.000    0.000    0.000 
#    0.000    0.000    0.000    0.000    0.000    0.000 
#
# Total GULP energy -247845.579988 kJ/mol
# GULP energy per Si atom -12392.278999 kJ/mol
# Density = 2.110184 g / cm^3
# Si number density = 21.149978 Si / 1000 Ang^3
#
#
#
# Elastic Constant Matrix: (Units=GPa)
#
#
# Indices 1 2 3 4 5 6 
#
# 1 80.5294 45.1381 22.3148 0.0000 0.0000 0.0000
# 2 45.1381 128.3487 62.1180 0.0000 0.0000 0.0000
# 3 22.3148 62.1180 160.2876 0.0000 0.0000 0.0000
# 4 0.0000 0.0000 0.0000 28.5932 0.0000 0.0000
# 5 0.0000 0.0000 0.0000 0.0000 22.5945 0.0000
# 6 0.0000 0.0000 0.0000 0.0000 0.0000 16.0545
#
#
#
# Elastic Compliance Matrix: (Units=1/GPa)
#
#
# Indices 1 2 3 4 5 6 
#
# 1 0.015467 -0.005413 -0.000056 0.000000 0.000000 0.000000
# 2 -0.005413 0.011484 -0.003697 0.000000 0.000000 0.000000
# 3 -0.000056 -0.003697 0.007679 0.000000 0.000000 0.000000
# 4 0.000000 0.000000 0.000000 0.034973 0.000000 0.000000
# 5 0.000000 0.000000 0.000000 0.000000 0.044258 0.000000
# 6 0.000000 0.000000 0.000000 0.000000 0.000000 0.062288
#
#
# Mechanical properties :
#
#
# Convention : Reuss Voigt Hill
#
# Bulk Modulus (GPa) = 61.35014 69.81195 65.58105
# Shear Modulus (GPa) = 25.01077 29.42144 27.21611
#
# Velocity S-wave (km/s) = 3.44254 3.73377 3.59111
# Velocity P-wave (km/s) = 6.69863 7.18803 6.94764
#
# Compressibility (1/GPa) = 0.01629988
#
# Stress axis : x y z
#
# Youngs Moduli (GPa) = 64.65335 87.07711 130.22041
#
# Poissons Ratio (x) = 0.47131 0.00725
# Poissons Ratio (y) = 0.34994 0.48143
# Poissons Ratio (z) = 0.00360 0.32193
#
# Static dielectric constant tensor:
#      x y z
#    x 3.527180 0.000000 0.000000 
#    y 0.000000 3.696190 0.000000 
#    z 0.000000 0.000000 4.602700 
# 
# 
# High freq. dielectric constant tensor:
#      x y z
#    x 1.792880 0.000000 0.000000 
#    y 0.000000 1.823460 0.000000 
#    z 0.000000 0.000000 1.845510 
# 
# From -- ./inp_files/12893.got.cif
#   From: 2010.03.12/outbox.cif.g09.slc.cpg/sg20_7_cif.got.tgz:12893.got - 2010.04.14 01:38:04.
