data_PCOD8158033
_publ_section_title
;
Structure prediction by ZEFSAII (Michael W. Deem and Ramdas Pophale) SiO2 
 PCOD8158033
Probable space group: C 2 2 21
;
_chemical_formula_sum "Si O2"
_cell_formula_units_Z 56
_cell_length_a 18.958318
_cell_length_b 22.285239
_cell_length_c 8.179962
_cell_angle_alpha 90.000000
_cell_angle_beta 90.000000
_cell_angle_gamma 90.000000
_cell_volume 3455.957443
_symmetry_space_group_name_H-M "C 2 2 21"
_symmetry_group_IT_number 20
_symmetry_cell_setting 'orthorhombic'
loop_
_space_group_symop_operation_xyz
x,y,z
-x,-y,1/2+z
x,-y,-z
-x,y,1/2-z
1/2+x,1/2+y,z
1/2-x,1/2-y,1/2+z
1/2+x,1/2-y,-z
1/2-x,1/2+y,1/2-z
loop_
_atom_site_type_symbol
_atom_site_label
_atom_site_fract_x
_atom_site_fract_y
_atom_site_fract_z
Si Si1 0.184064 0.269975 0.067347
Si Si2 0.589921 0.000000 0.500000
Si Si3 0.291887 0.323870 0.298775
Si Si4 0.073617 0.275460 0.331264
Si Si5 0.832679 0.383465 0.043352
Si Si6 0.500000 0.925871 0.750000
Si Si7 0.427850 0.286275 0.166876
Si Si8 0.876131 0.341215 0.706315
O O1 0.254739 0.282237 0.165923
O O2 0.121975 0.249538 0.188060
O O3 0.199738 0.211789 0.964732
O O4 0.167309 0.329996 0.960451
O O5 0.640201 0.049797 0.582563
O O6 0.538753 0.031530 0.374459
O O7 0.241192 0.378848 0.355274
O O8 0.368569 0.337096 0.216061
O O9 0.108725 0.336256 0.397288
O O10 0.064766 0.224425 0.471844
O O11 0.000000 0.292865 0.250000
O O12 0.826829 0.371475 0.846999
O O13 0.442364 0.883551 0.662048
O O14 0.500000 0.308625 0.250000
O O15 0.405128 0.223806 0.246154
#
# Coordination Sequence:
#
# PCOD8158033 Si02
#       8
#     8   4   8   8   8   4   8   8
#     4  10  18  27  45  68  90 125 156 191 235 301
#     4  10  22  32  46  66  94 126 180 208 240 272
#     4  10  18  30  45  63  93 120 157 199 238 291
#     4  10  19  27  45  69  96 125 160 191 236 296
#     4   9  20  32  44  63  90 129 168 204 238 276
#     4  10  20  32  48  66  94 132 160 218 234 274
#     4  10  18  30  46  67  94 122 152 190 242 296
#     4   9  17  30  46  63  92 124 159 190 242 279
#
# _framework density 16.203904000000001
#
# number of rings (size 3 to 8) (size 9 to 14) (size 15 to 20)
#    0.000    2.286    0.714    5.143    5.000    1.143 
#    0.000    0.000    0.000    0.000    0.000    0.000 
#    0.000    8.000    0.000    0.000    0.000    0.429 
#
# Total GULP energy -346948.992032 kJ/mol
# GULP energy per Si atom -12391.035430 kJ/mol
# Density = 1.616702 g / cm^3
# Si number density = 16.203904 Si / 1000 Ang^3
#
#
#
# Elastic Constant Matrix: (Units=GPa)
#
#
# Indices 1 2 3 4 5 6 
#
# 1 106.1505 22.2686 32.5842 0.0000 0.0000 0.0000
# 2 22.2686 45.3452 12.0321 0.0000 0.0000 0.0000
# 3 32.5842 12.0321 82.6124 0.0000 0.0000 0.0000
# 4 0.0000 0.0000 0.0000 16.5490 0.0000 0.0000
# 5 0.0000 0.0000 0.0000 0.0000 29.1019 0.0000
# 6 0.0000 0.0000 0.0000 0.0000 0.0000 30.3962
#
#
#
# Elastic Compliance Matrix: (Units=1/GPa)
#
#
# Indices 1 2 3 4 5 6 
#
# 1 0.011594 -0.004660 -0.003894 0.000000 0.000000 0.000000
# 2 -0.004660 0.024813 -0.001776 0.000000 0.000000 0.000000
# 3 -0.003894 -0.001776 0.013899 0.000000 0.000000 0.000000
# 4 0.000000 0.000000 0.000000 0.060427 0.000000 0.000000
# 5 0.000000 0.000000 0.000000 0.000000 0.034362 0.000000
# 6 0.000000 0.000000 0.000000 0.000000 0.000000 0.032899
#
#
# Mechanical properties :
#
#
# Convention : Reuss Voigt Hill
#
# Bulk Modulus (GPa) = 33.73184 40.87532 37.30358
# Shear Modulus (GPa) = 23.97679 26.35763 25.16721
#
# Velocity S-wave (km/s) = 3.85085 4.03752 3.94529
# Velocity P-wave (km/s) = 6.37451 6.85680 6.62005
#
# Compressibility (1/GPa) = 0.02964558
#
# Stress axis : x y z
#
# Youngs Moduli (GPa) = 86.25492 40.30171 71.94639
#
# Poissons Ratio (x) = 0.18782 0.28016
# Poissons Ratio (y) = 0.40197 0.12776
# Poissons Ratio (z) = 0.33588 0.07157
#
# Static dielectric constant tensor:
#      x y z
#    x 3.413930 0.000000 0.000000 
#    y 0.000000 2.831920 0.000000 
#    z 0.000000 0.000000 3.068910 
# 
# 
# High freq. dielectric constant tensor:
#      x y z
#    x 1.629880 0.000000 0.000000 
#    y 0.000000 1.561380 0.000000 
#    z 0.000000 0.000000 1.639270 
# 
# From -- ./inp_files/9691.got.cif
#   From: 2010.03.12/outbox.cif.g09.slc.cpg/sg20_5_cif.got.tgz:9691.got - 2010.04.14 01:38:04.
