data_PCOD8158492
_publ_section_title
;
Structure prediction by ZEFSAII (Michael W. Deem and Ramdas Pophale) SiO2 
 PCOD8158492
Probable space group: C 2 2 21
;
_chemical_formula_sum "Si O2"
_cell_formula_units_Z 60
_cell_length_a 29.719685
_cell_length_b 9.056639
_cell_length_c 10.968552
_cell_angle_alpha 90.000000
_cell_angle_beta 90.000000
_cell_angle_gamma 90.000000
_cell_volume 2952.300483
_symmetry_space_group_name_H-M "C 2 2 21"
_symmetry_group_IT_number 20
_symmetry_cell_setting 'orthorhombic'
loop_
_space_group_symop_operation_xyz
x,y,z
-x,-y,1/2+z
x,-y,-z
-x,y,1/2-z
1/2+x,1/2+y,z
1/2-x,1/2-y,1/2+z
1/2+x,1/2-y,-z
1/2-x,1/2+y,1/2-z
loop_
_atom_site_type_symbol
_atom_site_label
_atom_site_fract_x
_atom_site_fract_y
_atom_site_fract_z
Si Si1 0.152207 0.744743 0.198770
Si Si2 0.962830 0.704254 0.653007
Si Si3 0.221123 0.416095 0.673860
Si Si4 0.882503 0.839598 0.546895
Si Si5 0.595215 0.995443 0.322181
Si Si6 0.676130 0.820610 0.421157
Si Si7 0.822288 0.075108 0.254717
Si Si8 0.520158 0.000000 0.500000
O O1 0.202159 0.672565 0.208237
O O2 0.121128 0.643430 0.284418
O O3 0.155330 0.912416 0.250371
O O4 0.132520 0.730429 0.062244
O O5 0.934789 0.833518 0.586879
O O6 0.924575 0.596428 0.708115
O O7 0.000000 0.763186 0.750000
O O8 0.988932 0.632498 0.541673
O O9 0.199284 0.337342 0.553541
O O10 0.205352 0.586022 0.676659
O O11 0.274496 0.422436 0.677582
O O12 0.852367 0.811830 0.666108
O O13 0.870572 0.000000 0.500000
O O14 0.625352 0.889197 0.411486
O O15 0.551335 0.056537 0.390606
O O16 0.678292 0.648327 0.380425
#
# Coordination Sequence:
#
# PCOD8158492 Si02
#       8
#     8   8   8   8   8   8   8   4
#     4  10  22  37  59  87 122 156 201 248 296 355
#     4  10  20  37  63  91 115 151 206 247 299 369
#     4  10  22  36  58  86 116 162 208 246 287 339
#     4  10  22  39  59  85 123 161 189 244 310 357
#     4  10  19  39  59  90 116 153 200 244 305 352
#     4  10  21  38  61  80 123 159 200 245 291 359
#     4  11  22  37  60  83 121 162 200 243 302 352
#     4  10  20  34  66  86 116 146 192 260 298 354
#
# _framework density 20.323135000000001
#
# number of rings (size 3 to 8) (size 9 to 14) (size 15 to 20)
#    0.000    1.867    1.333    3.200    7.467    0.533 
#    0.000    2.667    0.000    0.000    0.000    0.000 
#    0.000    0.000    0.000    0.000    0.000    0.000 
#
# Total GULP energy -371689.334631 kJ/mol
# GULP energy per Si atom -12389.644488 kJ/mol
# Density = 2.027688 g / cm^3
# Si number density = 20.323135 Si / 1000 Ang^3
#
#
#
# Elastic Constant Matrix: (Units=GPa)
#
#
# Indices 1 2 3 4 5 6 
#
# 1 121.1556 22.7318 22.6009 0.0000 0.0000 0.0000
# 2 22.7318 58.6577 16.3265 0.0000 0.0000 0.0000
# 3 22.6009 16.3265 50.6184 0.0000 0.0000 0.0000
# 4 0.0000 0.0000 0.0000 25.0307 0.0000 0.0000
# 5 0.0000 0.0000 0.0000 0.0000 34.7161 0.0000
# 6 0.0000 0.0000 0.0000 0.0000 0.0000 27.2249
#
#
#
# Elastic Compliance Matrix: (Units=1/GPa)
#
#
# Indices 1 2 3 4 5 6 
#
# 1 0.009381 -0.002713 -0.003313 0.000000 0.000000 0.000000
# 2 -0.002713 0.019514 -0.005083 0.000000 0.000000 0.000000
# 3 -0.003313 -0.005083 0.022875 0.000000 0.000000 0.000000
# 4 0.000000 0.000000 0.000000 0.039951 0.000000 0.000000
# 5 0.000000 0.000000 0.000000 0.000000 0.028805 0.000000
# 6 0.000000 0.000000 0.000000 0.000000 0.000000 0.036731
#
#
# Mechanical properties :
#
#
# Convention : Reuss Voigt Hill
#
# Bulk Modulus (GPa) = 33.83982 39.30556 36.57269
# Shear Modulus (GPa) = 26.40947 28.64582 27.52764
#
# Velocity S-wave (km/s) = 3.60874 3.75843 3.68434
# Velocity P-wave (km/s) = 5.83533 6.18196 6.01114
#
# Compressibility (1/GPa) = 0.02955099
#
# Stress axis : x y z
#
# Youngs Moduli (GPa) = 106.59822 51.24471 43.71677
#
# Poissons Ratio (x) = 0.13904 0.14485
# Poissons Ratio (y) = 0.28922 0.22220
# Poissons Ratio (z) = 0.35321 0.26046
#
# Static dielectric constant tensor:
#      x y z
#    x 3.915310 0.000000 0.000000 
#    y 0.000000 3.510010 0.000000 
#    z 0.000000 0.000000 3.819790 
# 
# 
# High freq. dielectric constant tensor:
#      x y z
#    x 1.807920 0.000000 0.000000 
#    y 0.000000 1.771110 0.000000 
#    z 0.000000 0.000000 1.792890 
# 
# From -- ./inp_files/17204.got.cif
#   From: 2010.03.12/outbox.cif.g09.slc.cpg/sg20_9_cif.got.tgz:17204.got - 2010.04.14 01:38:04.
