data_PCOD8158264
_publ_section_title
;
Structure prediction by ZEFSAII (Michael W. Deem and Ramdas Pophale) SiO2 
 PCOD8158264
Probable space group: C 2 2 21
;
_chemical_formula_sum "Si O2"
_cell_formula_units_Z 64
_cell_length_a 5.191691
_cell_length_b 17.399690
_cell_length_c 37.094123
_cell_angle_alpha 90.000000
_cell_angle_beta 90.000000
_cell_angle_gamma 90.000000
_cell_volume 3350.853607
_symmetry_space_group_name_H-M "C 2 2 21"
_symmetry_group_IT_number 20
_symmetry_cell_setting 'orthorhombic'
loop_
_space_group_symop_operation_xyz
x,y,z
-x,-y,1/2+z
x,-y,-z
-x,y,1/2-z
1/2+x,1/2+y,z
1/2-x,1/2-y,1/2+z
1/2+x,1/2-y,-z
1/2-x,1/2+y,1/2-z
loop_
_atom_site_type_symbol
_atom_site_label
_atom_site_fract_x
_atom_site_fract_y
_atom_site_fract_z
Si Si1 0.977051 0.158773 0.898107
Si Si2 0.982759 0.158290 0.979223
Si Si3 0.483924 0.049050 0.708890
Si Si4 0.982760 0.341728 0.979233
Si Si5 0.016076 0.951068 0.791111
Si Si6 0.976692 0.658927 0.855500
Si Si7 0.522956 0.158681 0.398116
Si Si8 0.523315 0.341191 0.644493
O O1 0.721828 0.129472 0.878066
O O2 0.979421 0.250046 0.899760
O O3 0.225835 0.128934 0.876639
O O4 0.981497 0.125430 0.938609
O O5 0.733543 0.126900 0.000187
O O6 0.233538 0.126901 0.999799
O O7 0.982372 0.250009 0.978632
O O8 0.500000 0.078052 0.750000
O O9 0.706550 0.987586 0.700729
O O10 0.206552 0.012533 0.700730
O O11 0.519655 0.123447 0.684188
O O12 0.981499 0.374625 0.938625
O O13 0.000000 0.922065 0.750000
O O14 0.980347 0.876682 0.815821
O O15 0.976621 0.750060 0.850779
O O16 0.274186 0.128829 0.376648
O O17 0.778188 0.129369 0.378080
#
# Coordination Sequence:
#
# PCOD8158264 Si02
#       8
#     8   8   8   8   8   8   8   8
#     4   9  17  28  43  68 101 132 163 203 248 289
#     4   9  15  23  37  59  92 132 164 192 237 293
#     4  10  21  37  55  75 101 131 164 205 248 292
#     4   9  15  23  37  59  92 132 164 192 237 293
#     4  10  21  37  55  75 101 131 164 205 248 292
#     4  10  19  32  51  74 102 133 164 203 249 296
#     4   9  17  28  43  68 101 132 163 203 248 289
#     4  10  19  32  51  74 102 133 164 203 249 296
#
# _framework density 19.099612
#
# number of rings (size 3 to 8) (size 9 to 14) (size 15 to 20)
#    0.000    2.500    0.000    3.000    0.000    6.500 
#    0.000    0.000    0.000    9.000    0.000    0.000 
#    0.000   70.000    0.000    0.000    0.000    0.000 
#
# Total GULP energy -396839.383382 kJ/mol
# GULP energy per Si atom -12401.230731 kJ/mol
# Density = 1.905614 g / cm^3
# Si number density = 19.099612 Si / 1000 Ang^3
#
#
#
# Elastic Constant Matrix: (Units=GPa)
#
#
# Indices 1 2 3 4 5 6 
#
# 1 164.3303 16.3883 73.0353 0.0000 0.0000 0.0000
# 2 16.3883 20.1368 40.7069 0.0000 0.0000 0.0000
# 3 73.0353 40.7069 169.4141 0.0000 0.0000 0.0000
# 4 0.0000 0.0000 0.0000 9.8907 0.0000 0.0000
# 5 0.0000 0.0000 0.0000 0.0000 33.8311 0.0000
# 6 0.0000 0.0000 0.0000 0.0000 0.0000 8.0197
#
#
#
# Elastic Compliance Matrix: (Units=1/GPa)
#
#
# Indices 1 2 3 4 5 6 
#
# 1 0.007535 0.000845 -0.003451 0.000000 0.000000 0.000000
# 2 0.000845 0.096659 -0.023589 0.000000 0.000000 0.000000
# 3 -0.003451 -0.023589 0.013059 0.000000 0.000000 0.000000
# 4 0.000000 0.000000 0.000000 0.101105 0.000000 0.000000
# 5 0.000000 0.000000 0.000000 0.000000 0.029559 0.000000
# 6 0.000000 0.000000 0.000000 0.000000 0.000000 0.124692
#
#
# Mechanical properties :
#
#
# Convention : Reuss Voigt Hill
#
# Bulk Modulus (GPa) = 15.41770 68.23804 41.82787
# Shear Modulus (GPa) = 11.19517 25.26502 18.23010
#
# Velocity S-wave (km/s) = 2.42367 3.64098 3.09281
# Velocity P-wave (km/s) = 3.99024 7.31305 5.89079
#
# Compressibility (1/GPa) = 0.06486052
#
# Stress axis : x y z
#
# Youngs Moduli (GPa) = 132.71428 10.34561 76.57759
#
# Poissons Ratio (x) = -0.00874 0.26429
# Poissons Ratio (y) = -0.11208 1.80642
# Poissons Ratio (z) = 0.45804 0.24405
#
# Static dielectric constant tensor:
#      x y z
#    x 3.844520 0.000000 0.000000 
#    y 0.000000 2.774600 0.000000 
#    z 0.000000 0.000000 3.684690 
# 
# 
# High freq. dielectric constant tensor:
#      x y z
#    x 1.766300 0.000000 0.000000 
#    y 0.000000 1.677390 0.000000 
#    z 0.000000 0.000000 1.758070 
# 
# From -- ./inp_files/30847.got.cif
#   From: 2010.03.12/outbox.cif.g09.slc.cpg/sg20_16_cif.got.tgz:30847.got - 2010.04.14 01:38:04.
