data_PCOD8158539
_publ_section_title
;
Structure prediction by ZEFSAII (Michael W. Deem and Ramdas Pophale) SiO2 
 PCOD8158539
Probable space group: C 2 2 21
;
_chemical_formula_sum "Si O2"
_cell_formula_units_Z 44
_cell_length_a 9.265143
_cell_length_b 15.468608
_cell_length_c 16.062932
_cell_angle_alpha 90.000000
_cell_angle_beta 90.000000
_cell_angle_gamma 90.000000
_cell_volume 2302.121185
_symmetry_space_group_name_H-M "C 2 2 21"
_symmetry_group_IT_number 20
_symmetry_cell_setting 'orthorhombic'
loop_
_space_group_symop_operation_xyz
x,y,z
-x,-y,1/2+z
x,-y,-z
-x,y,1/2-z
1/2+x,1/2+y,z
1/2-x,1/2-y,1/2+z
1/2+x,1/2-y,-z
1/2-x,1/2+y,1/2-z
loop_
_atom_site_type_symbol
_atom_site_label
_atom_site_fract_x
_atom_site_fract_y
_atom_site_fract_z
Si Si1 0.164790 0.546600 0.587056
Si Si2 0.500000 0.309258 0.750000
Si Si3 0.429705 0.230547 0.926105
Si Si4 0.146317 0.496285 0.125606
Si Si5 0.846720 0.975556 0.724842
Si Si6 0.799296 0.356144 0.504248
O O1 0.146216 0.500000 0.500000
O O2 0.179362 0.649163 0.573479
O O3 0.304466 0.508499 0.633219
O O4 0.019435 0.529601 0.639570
O O5 0.463902 0.251556 0.829869
O O6 0.363736 0.371113 0.726119
O O7 0.349740 0.308002 0.974190
O O8 0.576131 0.210696 0.976621
O O9 0.221826 0.494122 0.214125
O O10 0.152097 0.592039 0.086488
O O11 0.228315 0.425614 0.068591
O O12 0.000000 0.018847 0.750000
#
# Coordination Sequence:
#
# PCOD8158539 Si02
#       6
#     8   4   8   8   8   8
#     4  11  23  41  65  91 120 166 214 248 302 376
#     4  10  24  40  58  88 124 162 196 260 316 352
#     4  11  23  39  63  90 125 158 208 259 304 357
#     4  10  19  43  63  88 119 166 204 246 307 378
#     4  10  23  41  62  88 124 161 206 249 316 363
#     4  10  21  38  63  89 121 157 205 250 306 359
#
# _framework density 19.112808999999999
#
# number of rings (size 3 to 8) (size 9 to 14) (size 15 to 20)
#    0.545    1.091    5.455    0.545    7.636    1.455 
#    3.273    0.000    4.000    0.000    0.000    0.000 
#    0.000    0.000    0.000    0.000    0.000    0.000 
#
# Total GULP energy -272743.143080 kJ/mol
# GULP energy per Si atom -12397.415595 kJ/mol
# Density = 1.906931 g / cm^3
# Si number density = 19.112809 Si / 1000 Ang^3
#
#
#
# Elastic Constant Matrix: (Units=GPa)
#
#
# Indices 1 2 3 4 5 6 
#
# 1 83.7940 34.1036 44.8689 0.0000 0.0000 0.0000
# 2 34.1036 92.7288 32.1388 0.0000 0.0000 0.0000
# 3 44.8689 32.1388 72.2874 0.0000 0.0000 0.0000
# 4 0.0000 0.0000 0.0000 21.0141 0.0000 0.0000
# 5 0.0000 0.0000 0.0000 0.0000 40.4294 0.0000
# 6 0.0000 0.0000 0.0000 0.0000 0.0000 30.9653
#
#
#
# Elastic Compliance Matrix: (Units=1/GPa)
#
#
# Indices 1 2 3 4 5 6 
#
# 1 0.018730 -0.003380 -0.010123 0.000000 0.000000 0.000000
# 2 -0.003380 0.013359 -0.003841 0.000000 0.000000 0.000000
# 3 -0.010123 -0.003841 0.021825 0.000000 0.000000 0.000000
# 4 0.000000 0.000000 0.000000 0.047587 0.000000 0.000000
# 5 0.000000 0.000000 0.000000 0.000000 0.024734 0.000000
# 6 0.000000 0.000000 0.000000 0.000000 0.000000 0.032294
#
#
# Mechanical properties :
#
#
# Convention : Reuss Voigt Hill
#
# Bulk Modulus (GPa) = 52.01560 52.33696 52.17628
# Shear Modulus (GPa) = 25.04673 27.66167 26.35420
#
# Velocity S-wave (km/s) = 3.62397 3.80845 3.71735
# Velocity P-wave (km/s) = 6.69216 6.83971 6.76634
#
# Compressibility (1/GPa) = 0.01922500
#
# Stress axis : x y z
#
# Youngs Moduli (GPa) = 53.38939 74.85845 45.81914
#
# Poissons Ratio (x) = 0.25302 0.46384
# Poissons Ratio (y) = 0.18046 0.17600
# Poissons Ratio (z) = 0.54047 0.28755
#
# Static dielectric constant tensor:
#      x y z
#    x 3.353660 0.000000 0.000000 
#    y 0.000000 3.526010 0.000000 
#    z 0.000000 0.000000 3.381830 
# 
# 
# High freq. dielectric constant tensor:
#      x y z
#    x 1.729870 0.000000 0.000000 
#    y 0.000000 1.744790 0.000000 
#    z 0.000000 0.000000 1.745170 
# 
# From -- ./inp_files/23352.got.cif
#   From: 2010.03.12/outbox.cif.g09.slc.cpg/sg20_12_cif.got.tgz:23352.got - 2010.04.14 01:38:04.
