data_PCOD8158799
_publ_section_title
;
Structure prediction by ZEFSAII (Michael W. Deem and Ramdas Pophale) SiO2 
 PCOD8158799
Probable space group: C 2 2 21
;
_chemical_formula_sum "Si O2"
_cell_formula_units_Z 48
_cell_length_a 8.344908
_cell_length_b 10.353237
_cell_length_c 27.332552
_cell_angle_alpha 90.000000
_cell_angle_beta 90.000000
_cell_angle_gamma 90.000000
_cell_volume 2361.445309
_symmetry_space_group_name_H-M "C 2 2 21"
_symmetry_group_IT_number 20
_symmetry_cell_setting 'orthorhombic'
loop_
_space_group_symop_operation_xyz
x,y,z
-x,-y,1/2+z
x,-y,-z
-x,y,1/2-z
1/2+x,1/2+y,z
1/2-x,1/2-y,1/2+z
1/2+x,1/2-y,-z
1/2-x,1/2+y,1/2-z
loop_
_atom_site_type_symbol
_atom_site_label
_atom_site_fract_x
_atom_site_fract_y
_atom_site_fract_z
Si Si1 0.147699 0.195319 0.057656
Si Si2 0.144656 0.389877 0.643977
Si Si3 0.550037 0.602882 0.194839
Si Si4 0.923209 0.669497 0.868620
Si Si5 0.404647 0.617985 0.976653
Si Si6 0.947753 0.135661 0.625328
O O1 0.227634 0.099516 0.097999
O O2 0.293190 0.259075 0.027884
O O3 0.036168 0.300300 0.085101
O O4 0.046681 0.127245 0.016182
O O5 0.257724 0.374396 0.691752
O O6 0.039579 0.521071 0.647414
O O7 0.032123 0.268135 0.640542
O O8 0.500000 0.580329 0.250000
O O9 0.456666 0.728302 0.174458
O O10 0.510885 0.470919 0.165899
O O11 0.736472 0.674180 0.881848
O O12 0.479885 0.580669 0.924664
O O13 0.300714 0.500000 0.000000
#
# Coordination Sequence:
#
# PCOD8158799 Si02
#       6
#     8   8   8   8   8   8
#     4  10  22  35  54  84 116 150 192 232 273 329
#     4   9  21  39  58  85 114 147 190 235 283 338
#     4  10  22  40  60  84 114 146 186 238 293 347
#     4  10  20  38  59  81 113 150 188 236 284 331
#     4  11  21  35  56  83 115 153 190 226 274 332
#     4  10  22  39  60  85 117 152 190 235 284 337
#
# _framework density 20.326536000000001
#
# number of rings (size 3 to 8) (size 9 to 14) (size 15 to 20)
#    0.000    2.000    0.000    4.000    0.000   10.667 
#    0.000    1.667    0.000    0.000    0.000    0.000 
#    0.000    0.000    0.000    0.000    0.000    0.000 
#
# Total GULP energy -297446.368655 kJ/mol
# GULP energy per Si atom -12393.598694 kJ/mol
# Density = 2.028027 g / cm^3
# Si number density = 20.326536 Si / 1000 Ang^3
#
#
#
# Elastic Constant Matrix: (Units=GPa)
#
#
# Indices 1 2 3 4 5 6 
#
# 1 61.1805 39.2910 22.3076 0.0000 0.0000 0.0000
# 2 39.2910 128.7232 54.7117 0.0000 0.0000 0.0000
# 3 22.3076 54.7117 85.9048 0.0000 0.0000 0.0000
# 4 0.0000 0.0000 0.0000 23.2063 0.0000 0.0000
# 5 0.0000 0.0000 0.0000 0.0000 20.6995 0.0000
# 6 0.0000 0.0000 0.0000 0.0000 0.0000 29.6082
#
#
#
# Elastic Compliance Matrix: (Units=1/GPa)
#
#
# Indices 1 2 3 4 5 6 
#
# 1 0.020540 -0.005488 -0.001838 0.000000 0.000000 0.000000
# 2 -0.005488 0.012119 -0.006293 0.000000 0.000000 0.000000
# 3 -0.001838 -0.006293 0.016126 0.000000 0.000000 0.000000
# 4 0.000000 0.000000 0.000000 0.043092 0.000000 0.000000
# 5 0.000000 0.000000 0.000000 0.000000 0.048310 0.000000
# 6 0.000000 0.000000 0.000000 0.000000 0.000000 0.033774
#
#
# Mechanical properties :
#
#
# Convention : Reuss Voigt Hill
#
# Bulk Modulus (GPa) = 46.41351 56.49213 51.45282
# Shear Modulus (GPa) = 23.99439 25.33602 24.66521
#
# Velocity S-wave (km/s) = 3.43949 3.53434 3.48724
# Velocity P-wave (km/s) = 6.21747 6.67144 6.44845
#
# Compressibility (1/GPa) = 0.02154545
#
# Stress axis : x y z
#
# Youngs Moduli (GPa) = 48.68560 82.51831 62.01118
#
# Poissons Ratio (x) = 0.45287 0.11400
# Poissons Ratio (y) = 0.26719 0.39024
# Poissons Ratio (z) = 0.08951 0.51929
#
# Static dielectric constant tensor:
#      x y z
#    x 3.728040 0.000000 0.000000 
#    y 0.000000 3.865450 0.000000 
#    z 0.000000 0.000000 3.585340 
# 
# 
# High freq. dielectric constant tensor:
#      x y z
#    x 1.793120 0.000000 0.000000 
#    y 0.000000 1.813360 0.000000 
#    z 0.000000 0.000000 1.781650 
# 
# From -- ./inp_files/30087.got.cif
#   From: 2010.03.12/outbox.cif.g09.slc.cpg/sg20_16_cif.got.tgz:30087.got - 2010.04.14 01:38:04.
