data_PCOD8158637
_publ_section_title
;
Structure prediction by ZEFSAII (Michael W. Deem and Ramdas Pophale) SiO2 
 PCOD8158637
Probable space group: C 2 2 21
;
_chemical_formula_sum "Si O2"
_cell_formula_units_Z 40
_cell_length_a 26.182761
_cell_length_b 4.979038
_cell_length_c 15.081187
_cell_angle_alpha 90.000000
_cell_angle_beta 90.000000
_cell_angle_gamma 90.000000
_cell_volume 1966.058370
_symmetry_space_group_name_H-M "C 2 2 21"
_symmetry_group_IT_number 20
_symmetry_cell_setting 'orthorhombic'
loop_
_space_group_symop_operation_xyz
x,y,z
-x,-y,1/2+z
x,-y,-z
-x,y,1/2-z
1/2+x,1/2+y,z
1/2-x,1/2-y,1/2+z
1/2+x,1/2-y,-z
1/2-x,1/2+y,1/2-z
loop_
_atom_site_type_symbol
_atom_site_label
_atom_site_fract_x
_atom_site_fract_y
_atom_site_fract_z
Si Si1 0.073126 0.855695 0.089965
Si Si2 0.289563 0.761890 0.059607
Si Si3 0.339529 0.869066 0.241596
Si Si4 0.949877 0.362303 0.305873
Si Si5 0.816177 0.858005 0.349638
O O1 0.048438 0.562619 0.108432
O O2 0.133881 0.805245 0.090721
O O3 0.053772 0.051946 0.167332
O O4 0.055442 0.000000 0.000000
O O5 0.325341 0.753948 0.145818
O O6 0.231431 0.818431 0.086377
O O7 0.294581 0.500000 0.000000
O O8 0.310940 0.000000 0.000000
O O9 0.400218 0.922007 0.245637
O O10 0.318824 0.660340 0.314348
O O11 0.312235 0.151114 0.266337
O O12 0.000000 0.415947 0.250000
#
# Coordination Sequence:
#
# PCOD8158637 Si02
#       5
#     8   8   8   8   8
#     4  10  20  35  58  87 111 135 181 241 283 317
#     4  12  23  35  54  83 115 146 180 222 269 327
#     4  10  21  38  57  78 109 149 187 223 270 333
#     4  10  21  38  59  80 110 149 187 225 277 337
#     4  10  20  36  58  80 109 145 181 223 275 332
#
# _framework density 20.345275999999998
#
# number of rings (size 3 to 8) (size 9 to 14) (size 15 to 20)
#    0.000    1.600    0.000    5.400    0.000    3.200 
#    0.000    3.000    0.000    0.000    0.000    0.000 
#    0.000    0.000    0.000    0.000    0.000    0.000 
#
# Total GULP energy -247995.017193 kJ/mol
# GULP energy per Si atom -12399.750860 kJ/mol
# Density = 2.029897 g / cm^3
# Si number density = 20.345276 Si / 1000 Ang^3
#
#
#
# Elastic Constant Matrix: (Units=GPa)
#
#
# Indices 1 2 3 4 5 6 
#
# 1 73.8351 21.4256 28.3413 0.0000 0.0000 0.0000
# 2 21.4256 107.3490 14.3232 0.0000 0.0000 0.0000
# 3 28.3413 14.3232 76.1173 0.0000 0.0000 0.0000
# 4 0.0000 0.0000 0.0000 44.3102 0.0000 0.0000
# 5 0.0000 0.0000 0.0000 0.0000 25.0376 0.0000
# 6 0.0000 0.0000 0.0000 0.0000 0.0000 23.1782
#
#
#
# Elastic Compliance Matrix: (Units=1/GPa)
#
#
# Indices 1 2 3 4 5 6 
#
# 1 0.016445 -0.002529 -0.005647 0.000000 0.000000 0.000000
# 2 -0.002529 0.009944 -0.000930 0.000000 0.000000 0.000000
# 3 -0.005647 -0.000930 0.015415 0.000000 0.000000 0.000000
# 4 0.000000 0.000000 0.000000 0.022568 0.000000 0.000000
# 5 0.000000 0.000000 0.000000 0.000000 0.039940 0.000000
# 6 0.000000 0.000000 0.000000 0.000000 0.000000 0.043144
#
#
# Mechanical properties :
#
#
# Convention : Reuss Voigt Hill
#
# Bulk Modulus (GPa) = 42.38520 42.83127 42.60824
# Shear Modulus (GPa) = 28.81304 31.38596 30.09950
#
# Velocity S-wave (km/s) = 3.76733 3.93194 3.85051
# Velocity P-wave (km/s) = 6.30887 6.45844 6.38409
#
# Compressibility (1/GPa) = 0.02359314
#
# Stress axis : x y z
#
# Youngs Moduli (GPa) = 60.80802 100.56150 64.87079
#
# Poissons Ratio (x) = 0.25430 0.36635
# Poissons Ratio (y) = 0.15377 0.06031
# Poissons Ratio (z) = 0.34340 0.09349
#
# Static dielectric constant tensor:
#      x y z
#    x 3.521990 0.000000 0.000000 
#    y 0.000000 3.959060 0.000000 
#    z 0.000000 0.000000 3.503500 
# 
# 
# High freq. dielectric constant tensor:
#      x y z
#    x 1.773230 0.000000 0.000000 
#    y 0.000000 1.819710 0.000000 
#    z 0.000000 0.000000 1.783350 
# 
# From -- ./inp_files/16850.got.cif
#   From: 2010.03.12/outbox.cif.g09.slc.cpg/sg20_9_cif.got.tgz:16850.got - 2010.04.14 01:38:04.
