data_PCOD8158965
_publ_section_title
;
Structure prediction by ZEFSAII (Michael W. Deem and Ramdas Pophale) SiO2 
 PCOD8158965
Probable space group: C 2 2 21
;
_chemical_formula_sum "Si O2"
_cell_formula_units_Z 52
_cell_length_a 19.623333
_cell_length_b 14.544056
_cell_length_c 8.880445
_cell_angle_alpha 90.000000
_cell_angle_beta 90.000000
_cell_angle_gamma 90.000000
_cell_volume 2534.504348
_symmetry_space_group_name_H-M "C 2 2 21"
_symmetry_group_IT_number 20
_symmetry_cell_setting 'orthorhombic'
loop_
_space_group_symop_operation_xyz
x,y,z
-x,-y,1/2+z
x,-y,-z
-x,y,1/2-z
1/2+x,1/2+y,z
1/2-x,1/2-y,1/2+z
1/2+x,1/2-y,-z
1/2-x,1/2+y,1/2-z
loop_
_atom_site_type_symbol
_atom_site_label
_atom_site_fract_x
_atom_site_fract_y
_atom_site_fract_z
Si Si1 0.177174 0.658859 0.619081
Si Si2 0.813202 0.101248 0.538347
Si Si3 0.854934 0.660048 0.215477
Si Si4 0.141280 0.000000 0.500000
Si Si5 0.420161 0.358933 0.227940
Si Si6 0.929740 0.515227 0.822703
Si Si7 0.706380 0.648159 0.294040
O O1 0.256870 0.639375 0.658438
O O2 0.171351 0.628620 0.446742
O O3 0.124787 0.596485 0.713692
O O4 0.163553 0.767350 0.636119
O O5 0.886363 0.103209 0.618868
O O6 0.815678 0.154988 0.380443
O O7 0.789660 0.000000 0.500000
O O8 0.894275 0.755589 0.204361
O O9 0.905993 0.578009 0.263946
O O10 0.787696 0.663687 0.320693
O O11 0.095749 0.075093 0.586677
O O12 0.186847 0.053039 0.376020
O O13 0.500000 0.357557 0.250000
O O14 0.000000 0.548508 0.750000
O O15 0.940788 0.500000 0.000000
#
# Coordination Sequence:
#
# PCOD8158965 Si02
#       7
#     8   8   8   4   8   8   8
#     4  10  20  40  68  96 124 165 207 260 318 371
#     4  11  22  42  66  93 126 167 215 262 318 375
#     4  10  21  42  67  93 127 165 207 263 319 378
#     4  12  26  42  66  96 130 166 218 268 310 384
#     4  12  26  43  64  90 132 174 212 262 323 382
#     4  10  22  43  64  92 131 168 205 252 320 382
#     4  11  22  41  70  99 124 161 216 271 313 370
#
# _framework density 20.516829999999999
#
# number of rings (size 3 to 8) (size 9 to 14) (size 15 to 20)
#    0.000    1.231    4.615    2.769    1.077    0.000 
#    9.692    0.769    0.000    0.000    0.000    0.000 
#    0.000    0.000    0.000    0.000    0.000    0.000 
#
# Total GULP energy -322330.136105 kJ/mol
# GULP energy per Si atom -12397.312927 kJ/mol
# Density = 2.047013 g / cm^3
# Si number density = 20.516830 Si / 1000 Ang^3
#
#
#
# Elastic Constant Matrix: (Units=GPa)
#
#
# Indices 1 2 3 4 5 6 
#
# 1 153.2649 60.7400 48.3559 0.0000 0.0000 0.0000
# 2 60.7400 145.7751 20.5861 0.0000 0.0000 0.0000
# 3 48.3559 20.5861 58.0956 0.0000 0.0000 0.0000
# 4 0.0000 0.0000 0.0000 24.4641 0.0000 0.0000
# 5 0.0000 0.0000 0.0000 0.0000 28.5180 0.0000
# 6 0.0000 0.0000 0.0000 0.0000 0.0000 31.8490
#
#
#
# Elastic Compliance Matrix: (Units=1/GPa)
#
#
# Indices 1 2 3 4 5 6 
#
# 1 0.010072 -0.003171 -0.007260 0.000000 0.000000 0.000000
# 2 -0.003171 0.008220 -0.000273 0.000000 0.000000 0.000000
# 3 -0.007260 -0.000273 0.023352 0.000000 0.000000 0.000000
# 4 0.000000 0.000000 0.000000 0.040876 0.000000 0.000000
# 5 0.000000 0.000000 0.000000 0.000000 0.035066 0.000000
# 6 0.000000 0.000000 0.000000 0.000000 0.000000 0.031398
#
#
# Mechanical properties :
#
#
# Convention : Reuss Voigt Hill
#
# Bulk Modulus (GPa) = 49.41667 68.49997 58.95832
# Shear Modulus (GPa) = 28.22668 32.12980 30.17824
#
# Velocity S-wave (km/s) = 3.71318 3.96159 3.83939
# Velocity P-wave (km/s) = 6.52087 7.37464 6.96086
#
# Compressibility (1/GPa) = 0.02023609
#
# Stress axis : x y z
#
# Youngs Moduli (GPa) = 99.28538 121.65622 42.82244
#
# Poissons Ratio (x) = 0.38583 0.31087
# Poissons Ratio (y) = 0.31488 0.01169
# Poissons Ratio (z) = 0.72077 0.03320
#
# Static dielectric constant tensor:
#      x y z
#    x 3.689700 0.000000 0.000000 
#    y 0.000000 3.783130 0.000000 
#    z 0.000000 0.000000 3.696580 
# 
# 
# High freq. dielectric constant tensor:
#      x y z
#    x 1.795750 0.000000 0.000000 
#    y 0.000000 1.821230 0.000000 
#    z 0.000000 0.000000 1.781410 
# 
# From -- ./inp_files/10114.got.cif
#   From: 2010.03.12/outbox.cif.g09.slc.cpg/sg20_6_cif.got.tgz:10114.got - 2010.04.14 01:38:04.
