data_PCOD8158949
_publ_section_title
;
Structure prediction by ZEFSAII (Michael W. Deem and Ramdas Pophale) SiO2 
 PCOD8158949
Probable space group: C 2 2 21
;
_chemical_formula_sum "Si O2"
_cell_formula_units_Z 48
_cell_length_a 10.136188
_cell_length_b 25.648330
_cell_length_c 8.753604
_cell_angle_alpha 90.000000
_cell_angle_beta 90.000000
_cell_angle_gamma 90.000000
_cell_volume 2275.729534
_symmetry_space_group_name_H-M "C 2 2 21"
_symmetry_group_IT_number 20
_symmetry_cell_setting 'orthorhombic'
loop_
_space_group_symop_operation_xyz
x,y,z
-x,-y,1/2+z
x,-y,-z
-x,y,1/2-z
1/2+x,1/2+y,z
1/2-x,1/2-y,1/2+z
1/2+x,1/2-y,-z
1/2-x,1/2+y,1/2-z
loop_
_atom_site_type_symbol
_atom_site_label
_atom_site_fract_x
_atom_site_fract_y
_atom_site_fract_z
Si Si1 0.454709 0.137005 0.911433
Si Si2 0.699815 0.696442 0.817043
Si Si3 0.291552 0.804465 0.523533
Si Si4 0.783205 0.555381 0.065322
Si Si5 0.640692 0.392006 0.671119
Si Si6 0.035517 0.901666 0.094292
O O1 0.500000 0.111410 0.750000
O O2 0.340879 0.178473 0.878765
O O3 0.573961 0.165689 0.991549
O O4 0.404480 0.093107 0.027891
O O5 0.705614 0.701720 0.632226
O O6 0.583165 0.657629 0.870925
O O7 0.668404 0.750469 0.899208
O O8 0.214387 0.836833 0.654421
O O9 0.734841 0.565374 0.242058
O O10 0.831434 0.500000 0.000000
O O11 0.654071 0.566207 0.970508
O O12 0.500000 0.381140 0.750000
O O13 0.600065 0.409088 0.500837
O O14 0.000000 0.930554 0.250000
#
# Coordination Sequence:
#
# PCOD8158949 Si02
#       6
#     8   8   8   8   8   8
#     4   9  22  44  63  90 132 169 223 276 325 404
#     4  10  23  37  62  97 131 183 214 269 323 400
#     4  11  23  39  65  95 135 179 226 263 333 392
#     4  10  23  45  67  92 128 169 221 287 348 402
#     4  10  23  40  65  94 131 166 222 283 328 403
#     4  10  20  40  65  94 135 170 220 275 336 401
#
# _framework density 21.092137000000001
#
# number of rings (size 3 to 8) (size 9 to 14) (size 15 to 20)
#    0.000    2.000    1.667    0.000    9.333    3.333 
#    3.000    0.000    0.000    0.000    0.000    0.000 
#    0.000    0.000    0.000    0.000    0.000    0.000 
#
# Total GULP energy -297326.142279 kJ/mol
# GULP energy per Si atom -12388.589262 kJ/mol
# Density = 2.104413 g / cm^3
# Si number density = 21.092137 Si / 1000 Ang^3
#
#
#
# Elastic Constant Matrix: (Units=GPa)
#
#
# Indices 1 2 3 4 5 6 
#
# 1 80.6945 20.4522 33.2535 0.0000 0.0000 0.0000
# 2 20.4522 82.8593 42.2736 0.0000 0.0000 0.0000
# 3 33.2535 42.2736 127.3556 0.0000 0.0000 0.0000
# 4 0.0000 0.0000 0.0000 28.8397 0.0000 0.0000
# 5 0.0000 0.0000 0.0000 0.0000 27.7219 0.0000
# 6 0.0000 0.0000 0.0000 0.0000 0.0000 -20.1477
#
#
#
# Elastic Compliance Matrix: (Units=1/GPa)
#
#
# Indices 1 2 3 4 5 6 
#
# 1 0.014139 -0.001934 -0.003050 0.000000 0.000000 0.000000
# 2 -0.001934 0.014794 -0.004406 0.000000 0.000000 0.000000
# 3 -0.003050 -0.004406 0.010111 0.000000 0.000000 0.000000
# 4 0.000000 0.000000 0.000000 0.034674 0.000000 0.000000
# 5 0.000000 0.000000 0.000000 0.000000 0.036073 0.000000
# 6 0.000000 0.000000 0.000000 0.000000 0.000000 -0.049633
#
#
# Mechanical properties :
#
#
# Convention : Reuss Voigt Hill
#
# Bulk Modulus (GPa) = 49.34648 53.65202 51.49925
# Shear Modulus (GPa) = 58.34884 20.27810 39.31347
#
# Velocity S-wave (km/s) = 5.26534 3.10402 4.32197
# Velocity P-wave (km/s) = 7.77249 6.19183 7.02675
#
# Compressibility (1/GPa) = 0.02026487
#
# Stress axis : x y z
#
# Youngs Moduli (GPa) = 70.72405 67.59647 98.90469
#
# Poissons Ratio (x) = 0.13073 0.30166
# Poissons Ratio (y) = 0.13678 0.43573
# Poissons Ratio (z) = 0.21571 0.29780
#
# Static dielectric constant tensor:
#      x y z
#    x 3.986450 0.000000 0.000000 
#    y 0.000000 3.619950 0.000000 
#    z 0.000000 0.000000 4.413100 
# 
# 
# High freq. dielectric constant tensor:
#      x y z
#    x 1.835920 0.000000 0.000000 
#    y 0.000000 1.796990 0.000000 
#    z 0.000000 0.000000 1.840680 
# 
# From -- ./inp_files/7384.got.cif
#   From: 2010.03.12/outbox.cif.g09.slc.cpg/sg20_4_cif.got.tgz:7384.got - 2010.04.14 01:38:04.
