data_PCOD8158339
_publ_section_title
;
Structure prediction by ZEFSAII (Michael W. Deem and Ramdas Pophale) SiO2 
 PCOD8158339
Probable space group: C 2 2 21
;
_chemical_formula_sum "Si O2"
_cell_formula_units_Z 40
_cell_length_a 8.675534
_cell_length_b 22.875133
_cell_length_c 9.739099
_cell_angle_alpha 90.000000
_cell_angle_beta 90.000000
_cell_angle_gamma 90.000000
_cell_volume 1932.763095
_symmetry_space_group_name_H-M "C 2 2 21"
_symmetry_group_IT_number 20
_symmetry_cell_setting 'orthorhombic'
loop_
_space_group_symop_operation_xyz
x,y,z
-x,-y,1/2+z
x,-y,-z
-x,y,1/2-z
1/2+x,1/2+y,z
1/2-x,1/2-y,1/2+z
1/2+x,1/2-y,-z
1/2-x,1/2+y,1/2-z
loop_
_atom_site_type_symbol
_atom_site_label
_atom_site_fract_x
_atom_site_fract_y
_atom_site_fract_z
Si Si1 0.303645 0.417063 0.513264
Si Si2 0.106960 0.072837 0.619142
Si Si3 0.678332 0.998354 0.283441
Si Si4 0.662680 0.288809 0.075535
Si Si5 0.693239 0.697884 0.619763
O O1 0.483424 0.438284 0.502535
O O2 0.201750 0.446704 0.393528
O O3 0.240333 0.439699 0.659267
O O4 0.286991 0.347439 0.505569
O O5 0.218921 0.017483 0.648304
O O6 0.215425 0.128773 0.589783
O O7 0.000000 0.090224 0.750000
O O8 0.500000 0.004681 0.250000
O O9 0.481933 0.285079 0.095171
O O10 0.745041 0.287067 0.224383
O O11 0.702880 0.232564 0.986674
#
# Coordination Sequence:
#
# PCOD8158339 Si02
#       5
#     8   8   8   8   8
#     4   9  19  39  61  82 120 161 198 250 300 382
#     4   9  16  38  65  80 116 163 203 236 303 382
#     4  10  19  34  62  92 119 151 202 258 310 356
#     4  10  20  38  62  89 125 154 206 247 305 365
#     4  10  19  37  62  91 116 162 201 249 297 369
#
# _framework density 20.69576
#
# number of rings (size 3 to 8) (size 9 to 14) (size 15 to 20)
#    0.000    2.400    6.000    0.000    0.000    2.400 
#    3.600   12.000   48.400    0.000    0.000    0.000 
#    0.000    0.000    0.000    0.000    0.000    0.000 
#
# Total GULP energy -247928.887300 kJ/mol
# GULP energy per Si atom -12396.444365 kJ/mol
# Density = 2.064866 g / cm^3
# Si number density = 20.695760 Si / 1000 Ang^3
#
#
#
# Elastic Constant Matrix: (Units=GPa)
#
#
# Indices 1 2 3 4 5 6 
#
# 1 96.0002 50.5219 53.0720 0.0000 0.0000 0.0000
# 2 50.5219 110.8557 52.3492 0.0000 0.0000 0.0000
# 3 53.0720 52.3492 77.0700 0.0000 0.0000 0.0000
# 4 0.0000 0.0000 0.0000 34.2270 0.0000 0.0000
# 5 0.0000 0.0000 0.0000 0.0000 33.0530 0.0000
# 6 0.0000 0.0000 0.0000 0.0000 0.0000 31.2510
#
#
#
# Elastic Compliance Matrix: (Units=1/GPa)
#
#
# Indices 1 2 3 4 5 6 
#
# 1 0.017645 -0.003392 -0.009847 0.000000 0.000000 0.000000
# 2 -0.003392 0.013932 -0.007128 0.000000 0.000000 0.000000
# 3 -0.009847 -0.007128 0.024598 0.000000 0.000000 0.000000
# 4 0.000000 0.000000 0.000000 0.029217 0.000000 0.000000
# 5 0.000000 0.000000 0.000000 0.000000 0.030254 0.000000
# 6 0.000000 0.000000 0.000000 0.000000 0.000000 0.031999
#
#
# Mechanical properties :
#
#
# Convention : Reuss Voigt Hill
#
# Bulk Modulus (GPa) = 64.75837 66.20135 65.47986
# Shear Modulus (GPa) = 25.83619 28.23838 27.03728
#
# Velocity S-wave (km/s) = 3.53708 3.69786 3.61836
# Velocity P-wave (km/s) = 6.93107 7.09151 7.01175
#
# Compressibility (1/GPa) = 0.01544202
#
# Stress axis : x y z
#
# Youngs Moduli (GPa) = 56.67184 71.77467 40.65402
#
# Poissons Ratio (x) = 0.24344 0.40033
# Poissons Ratio (y) = 0.19221 0.28978
# Poissons Ratio (z) = 0.55806 0.51161
#
# Static dielectric constant tensor:
#      x y z
#    x 3.565920 0.000000 0.000000 
#    y 0.000000 3.726980 0.000000 
#    z 0.000000 0.000000 3.841620 
# 
# 
# High freq. dielectric constant tensor:
#      x y z
#    x 1.792750 0.000000 0.000000 
#    y 0.000000 1.807180 0.000000 
#    z 0.000000 0.000000 1.793470 
# 
# From -- ./inp_files/10964.got.cif
#   From: 2010.03.12/outbox.cif.g09.slc.cpg/sg20_6_cif.got.tgz:10964.got - 2010.04.14 01:38:04.
