data_PCOD8158290
_publ_section_title
;
Structure prediction by ZEFSAII (Michael W. Deem and Ramdas Pophale) SiO2 
 PCOD8158290
Probable space group: C 2 2 21
;
_chemical_formula_sum "Si O2"
_cell_formula_units_Z 56
_cell_length_a 13.739834
_cell_length_b 7.563493
_cell_length_c 25.877262
_cell_angle_alpha 90.000000
_cell_angle_beta 90.000000
_cell_angle_gamma 90.000000
_cell_volume 2689.194523
_symmetry_space_group_name_H-M "C 2 2 21"
_symmetry_group_IT_number 20
_symmetry_cell_setting 'orthorhombic'
loop_
_space_group_symop_operation_xyz
x,y,z
-x,-y,1/2+z
x,-y,-z
-x,y,1/2-z
1/2+x,1/2+y,z
1/2-x,1/2-y,1/2+z
1/2+x,1/2-y,-z
1/2-x,1/2+y,1/2-z
loop_
_atom_site_type_symbol
_atom_site_label
_atom_site_fract_x
_atom_site_fract_y
_atom_site_fract_z
Si Si1 0.729975 0.191734 0.682225
Si Si2 0.419992 0.207594 0.367332
Si Si3 0.937082 0.042212 0.441141
Si Si4 0.369111 0.572577 0.110146
Si Si5 0.327291 0.861687 0.391093
Si Si6 0.766025 0.201987 0.289174
Si Si7 0.435456 0.362280 0.201467
O O1 0.838146 0.266378 0.676071
O O2 0.676008 0.239516 0.628070
O O3 0.682637 0.293600 0.732571
O O4 0.730060 0.984240 0.690012
O O5 0.415631 0.367095 0.408288
O O6 0.518032 0.201282 0.332700
O O7 0.403736 0.022760 0.397332
O O8 0.862919 0.201705 0.427159
O O9 0.915509 0.000000 0.500000
O O10 0.051805 0.096867 0.435419
O O11 0.283355 0.429880 0.095605
O O12 0.431522 0.520252 0.160463
O O13 0.332987 0.794883 0.331887
O O14 0.670884 0.318808 0.278408
O O15 0.500000 0.421933 0.250000
#
# Coordination Sequence:
#
# PCOD8158290 Si02
#       7
#     8   8   8   8   8   8   8
#     4  11  20  36  57  92 128 173 201 256 311 387
#     4  10  21  39  62  90 126 160 211 263 320 381
#     4  11  24  46  68  92 121 168 221 279 335 387
#     4   9  23  40  60  90 130 164 213 269 319 383
#     4  10  22  43  65  93 131 168 207 271 324 386
#     4  11  21  34  59  91 132 171 215 240 320 395
#     4  10  19  33  55  86 125 166 203 256 297 384
#
# _framework density 20.824079000000001
#
# number of rings (size 3 to 8) (size 9 to 14) (size 15 to 20)
#    0.000    1.714    2.857    2.571    2.000    0.571 
#    5.143    0.714    0.000    0.000    0.000    0.000 
#    0.000    0.000    0.000    0.000    0.000    0.000 
#
# Total GULP energy -346929.796693 kJ/mol
# GULP energy per Si atom -12390.349882 kJ/mol
# Density = 2.077668 g / cm^3
# Si number density = 20.824079 Si / 1000 Ang^3
#
#
#
# Elastic Constant Matrix: (Units=GPa)
#
#
# Indices 1 2 3 4 5 6 
#
# 1 58.2617 7.6055 13.4598 0.0000 0.0000 0.0000
# 2 7.6055 96.4587 20.4505 0.0000 0.0000 0.0000
# 3 13.4598 20.4505 62.1018 0.0000 0.0000 0.0000
# 4 0.0000 0.0000 0.0000 17.9219 0.0000 0.0000
# 5 0.0000 0.0000 0.0000 0.0000 26.9653 0.0000
# 6 0.0000 0.0000 0.0000 0.0000 0.0000 23.2317
#
#
#
# Elastic Compliance Matrix: (Units=1/GPa)
#
#
# Indices 1 2 3 4 5 6 
#
# 1 0.018105 -0.000640 -0.003713 0.000000 0.000000 0.000000
# 2 -0.000640 0.011168 -0.003539 0.000000 0.000000 0.000000
# 3 -0.003713 -0.003539 0.018073 0.000000 0.000000 0.000000
# 4 0.000000 0.000000 0.000000 0.055798 0.000000 0.000000
# 5 0.000000 0.000000 0.000000 0.000000 0.037085 0.000000
# 6 0.000000 0.000000 0.000000 0.000000 0.000000 0.043045
#
#
# Mechanical properties :
#
#
# Convention : Reuss Voigt Hill
#
# Bulk Modulus (GPa) = 31.68452 33.31710 32.50081
# Shear Modulus (GPa) = 23.85742 25.31087 24.58414
#
# Velocity S-wave (km/s) = 3.38844 3.49013 3.43966
# Velocity P-wave (km/s) = 5.52784 5.68114 5.60502
#
# Compressibility (1/GPa) = 0.03156116
#
# Stress axis : x y z
#
# Youngs Moduli (GPa) = 55.23224 89.54232 55.33188
#
# Poissons Ratio (x) = 0.05733 0.20546
# Poissons Ratio (y) = 0.03537 0.19581
# Poissons Ratio (z) = 0.20509 0.31688
#
# Static dielectric constant tensor:
#      x y z
#    x 3.982650 0.000000 0.000000 
#    y 0.000000 3.912750 0.000000 
#    z 0.000000 0.000000 3.600960 
# 
# 
# High freq. dielectric constant tensor:
#      x y z
#    x 1.811290 0.000000 0.000000 
#    y 0.000000 1.813140 0.000000 
#    z 0.000000 0.000000 1.793660 
# 
# From -- ./inp_files/27564.got.cif
#   From: 2010.03.12/outbox.cif.g09.slc.cpg/sg20_14_cif.got.tgz:27564.got - 2010.04.14 01:38:04.
