data_PCOD8158662
_publ_section_title
;
Structure prediction by ZEFSAII (Michael W. Deem and Ramdas Pophale) SiO2 
 PCOD8158662
Probable space group: C 2 2 21
;
_chemical_formula_sum "Si O2"
_cell_formula_units_Z 32
_cell_length_a 28.537518
_cell_length_b 4.854849
_cell_length_c 9.034121
_cell_angle_alpha 90.000000
_cell_angle_beta 90.000000
_cell_angle_gamma 90.000000
_cell_volume 1251.635372
_symmetry_space_group_name_H-M "C 2 2 21"
_symmetry_group_IT_number 20
_symmetry_cell_setting 'orthorhombic'
loop_
_space_group_symop_operation_xyz
x,y,z
-x,-y,1/2+z
x,-y,-z
-x,y,1/2-z
1/2+x,1/2+y,z
1/2-x,1/2-y,1/2+z
1/2+x,1/2-y,-z
1/2-x,1/2+y,1/2-z
loop_
_atom_site_type_symbol
_atom_site_label
_atom_site_fract_x
_atom_site_fract_y
_atom_site_fract_z
Si Si1 0.189526 0.200806 0.293848
Si Si2 0.411148 0.506679 0.163868
Si Si3 0.548618 0.986028 0.822234
Si Si4 0.291055 0.808530 0.623764
O O1 0.141528 0.109710 0.368267
O O2 0.235110 0.139700 0.392900
O O3 0.189934 0.530347 0.269476
O O4 0.195489 0.015488 0.139318
O O5 0.440287 0.710068 0.266942
O O6 0.412022 0.219238 0.254415
O O7 0.434713 0.500000 0.000000
O O8 0.500000 0.884026 0.750000
O O9 0.547462 0.000000 0.000000
O O10 0.316025 0.000000 0.500000
#
# Coordination Sequence:
#
# PCOD8158662 Si02
#       4
#     8   8   8   8
#     4  10  22  36  57  88 121 166 214 260 316 376
#     4  12  25  44  70 100 135 174 220 271 327 393
#     4  12  27  48  72 100 133 170 214 268 333 398
#     4  10  20  36  56  82 123 168 214 265 315 369
#
# _framework density 25.566552000000001
#
# number of rings (size 3 to 8) (size 9 to 14) (size 15 to 20)
#    0.000    1.000    0.000    6.750    0.000    6.000 
#    0.000    7.500    0.000    0.000    0.000    0.000 
#    0.000    0.000    0.000    0.000    0.000    0.000 
#
# Total GULP energy -198222.984331 kJ/mol
# GULP energy per Si atom -12388.936521 kJ/mol
# Density = 2.550836 g / cm^3
# Si number density = 25.566552 Si / 1000 Ang^3
#
#
#
# Elastic Constant Matrix: (Units=GPa)
#
#
# Indices 1 2 3 4 5 6 
#
# 1 83.0829 14.9449 18.3365 0.0000 0.0000 0.0000
# 2 14.9449 106.1123 6.9744 0.0000 0.0000 0.0000
# 3 18.3365 6.9744 141.5964 0.0000 0.0000 0.0000
# 4 0.0000 0.0000 0.0000 16.2342 0.0000 0.0000
# 5 0.0000 0.0000 0.0000 0.0000 17.2633 0.0000
# 6 0.0000 0.0000 0.0000 0.0000 0.0000 32.4158
#
#
#
# Elastic Compliance Matrix: (Units=1/GPa)
#
#
# Indices 1 2 3 4 5 6 
#
# 1 0.012683 -0.001684 -0.001560 0.000000 0.000000 0.000000
# 2 -0.001684 0.009678 -0.000259 0.000000 0.000000 0.000000
# 3 -0.001560 -0.000259 0.007277 0.000000 0.000000 0.000000
# 4 0.000000 0.000000 0.000000 0.061598 0.000000 0.000000
# 5 0.000000 0.000000 0.000000 0.000000 0.057926 0.000000
# 6 0.000000 0.000000 0.000000 0.000000 0.000000 0.030849
#
#
# Mechanical properties :
#
#
# Convention : Reuss Voigt Hill
#
# Bulk Modulus (GPa) = 44.18048 45.70035 44.94041
# Shear Modulus (GPa) = 25.69890 32.55173 29.12531
#
# Velocity S-wave (km/s) = 3.17389 3.57209 3.37886
# Velocity P-wave (km/s) = 5.54523 5.90990 5.73047
#
# Compressibility (1/GPa) = 0.02263443
#
# Stress axis : x y z
#
# Youngs Moduli (GPa) = 78.84420 103.32575 137.41885
#
# Poissons Ratio (x) = 0.17398 0.21431
# Poissons Ratio (y) = 0.13276 0.03554
# Poissons Ratio (z) = 0.12296 0.02673
#
# Static dielectric constant tensor:
#      x y z
#    x 4.339570 0.000000 0.000000 
#    y 0.000000 4.757270 0.000000 
#    z 0.000000 0.000000 4.311610 
# 
# 
# High freq. dielectric constant tensor:
#      x y z
#    x 2.002040 0.000000 0.000000 
#    y 0.000000 2.041590 0.000000 
#    z 0.000000 0.000000 2.018750 
# 
# From -- ./inp_files/11248.got.cif
#   From: 2010.03.12/outbox.cif.g09.slc.cpg/sg20_6_cif.got.tgz:11248.got - 2010.04.14 01:38:04.
