data_PCOD8158366
_publ_section_title
;
Structure prediction by ZEFSAII (Michael W. Deem and Ramdas Pophale) SiO2 
 PCOD8158366
Probable space group: C 2 2 21
;
_chemical_formula_sum "Si O2"
_cell_formula_units_Z 56
_cell_length_a 5.057154
_cell_length_b 36.609988
_cell_length_c 15.555697
_cell_angle_alpha 90.000000
_cell_angle_beta 90.000000
_cell_angle_gamma 90.000000
_cell_volume 2880.018256
_symmetry_space_group_name_H-M "C 2 2 21"
_symmetry_group_IT_number 20
_symmetry_cell_setting 'orthorhombic'
loop_
_space_group_symop_operation_xyz
x,y,z
-x,-y,1/2+z
x,-y,-z
-x,y,1/2-z
1/2+x,1/2+y,z
1/2-x,1/2-y,1/2+z
1/2+x,1/2-y,-z
1/2-x,1/2+y,1/2-z
loop_
_atom_site_type_symbol
_atom_site_label
_atom_site_fract_x
_atom_site_fract_y
_atom_site_fract_z
Si Si1 0.488946 0.580635 0.427082
Si Si2 0.500000 0.620558 0.250000
Si Si3 0.458293 0.909158 0.346120
Si Si4 0.500000 0.828989 0.750000
Si Si5 0.414946 0.295585 0.030335
Si Si6 0.003835 0.457636 0.993815
Si Si7 0.414111 0.215170 0.078712
Si Si8 0.452466 0.628357 0.589695
O O1 0.447571 0.594655 0.331037
O O2 0.274963 0.549240 0.447235
O O3 0.450726 0.614928 0.490882
O O4 0.777034 0.563243 0.437938
O O5 0.249130 0.645649 0.230956
O O6 0.500000 0.923670 0.250000
O O7 0.507110 0.943163 0.408787
O O8 0.162073 0.894379 0.354863
O O9 0.664628 0.876850 0.368436
O O10 0.545172 0.802634 0.670273
O O11 0.622703 0.295342 0.952391
O O12 0.124332 0.300130 0.990115
O O13 0.442960 0.258936 0.086903
O O14 0.472824 0.329145 0.093618
O O15 0.069015 0.500000 0.000000
#
# Coordination Sequence:
#
# PCOD8158366 Si02
#       8
#     8   4   8   4   8   8   8   8
#     4  10  21  37  58  89 115 149 193 230 279 342
#     4  12  24  38  60  90 122 149 194 247 280 348
#     4  10  21  37  55  86 111 142 192 229 273 336
#     4  12  22  36  56  84 120 155 184 247 304 332
#     4  10  20  37  57  79 106 153 195 235 279 348
#     4  10  21  40  63  82 119 153 185 228 284 339
#     4  10  21  35  55  80 112 145 199 232 286 351
#     4  10  19  35  60  77 112 150 184 236 282 326
#
# _framework density 19.444323000000001
#
# number of rings (size 3 to 8) (size 9 to 14) (size 15 to 20)
#    0.000    1.714    0.000    5.143    0.000    2.286 
#    5.143    0.000    0.000    0.000    0.000    0.000 
#    0.000    0.000    0.000    0.000    0.000    0.000 
#
# Total GULP energy -347362.932977 kJ/mol
# GULP energy per Si atom -12405.819035 kJ/mol
# Density = 1.940007 g / cm^3
# Si number density = 19.444323 Si / 1000 Ang^3
#
#
#
# Elastic Constant Matrix: (Units=GPa)
#
#
# Indices 1 2 3 4 5 6 
#
# 1 73.9385 1.4128 8.2664 0.0000 0.0000 0.0000
# 2 1.4128 87.0445 32.7183 0.0000 0.0000 0.0000
# 3 8.2664 32.7183 114.1476 0.0000 0.0000 0.0000
# 4 0.0000 0.0000 0.0000 17.9279 0.0000 0.0000
# 5 0.0000 0.0000 0.0000 0.0000 19.5499 0.0000
# 6 0.0000 0.0000 0.0000 0.0000 0.0000 22.5469
#
#
#
# Elastic Compliance Matrix: (Units=1/GPa)
#
#
# Indices 1 2 3 4 5 6 
#
# 1 0.013637 0.000168 -0.001036 0.000000 0.000000 0.000000
# 2 0.000168 0.012878 -0.003703 0.000000 0.000000 0.000000
# 3 -0.001036 -0.003703 0.009897 0.000000 0.000000 0.000000
# 4 0.000000 0.000000 0.000000 0.055779 0.000000 0.000000
# 5 0.000000 0.000000 0.000000 0.000000 0.051151 0.000000
# 6 0.000000 0.000000 0.000000 0.000000 0.000000 0.044352
#
#
# Mechanical properties :
#
#
# Convention : Reuss Voigt Hill
#
# Bulk Modulus (GPa) = 36.67047 39.99176 38.33112
# Shear Modulus (GPa) = 24.28055 27.52049 25.90052
#
# Velocity S-wave (km/s) = 3.53756 3.76619 3.65366
# Velocity P-wave (km/s) = 5.96539 6.28683 6.12822
#
# Compressibility (1/GPa) = 0.02726990
#
# Stress axis : x y z
#
# Youngs Moduli (GPa) = 73.32810 77.65391 101.03986
#
# Poissons Ratio (x) = -0.01304 0.10465
# Poissons Ratio (y) = -0.01232 0.37418
# Poissons Ratio (z) = 0.07595 0.28758
#
# Static dielectric constant tensor:
#      x y z
#    x 3.809360 0.000000 0.000000 
#    y 0.000000 3.444400 0.000000 
#    z 0.000000 0.000000 3.358420 
# 
# 
# High freq. dielectric constant tensor:
#      x y z
#    x 1.779980 0.000000 0.000000 
#    y 0.000000 1.751950 0.000000 
#    z 0.000000 0.000000 1.743290 
# 
# From -- ./inp_files/17993.got.cif
#   From: 2010.03.12/outbox.cif.g09.slc.cpg/sg20_9_cif.got.tgz:17993.got - 2010.04.14 01:38:04.
