data_PCOD8158930
_publ_section_title
;
Structure prediction by ZEFSAII (Michael W. Deem and Ramdas Pophale) SiO2 
 PCOD8158930
Probable space group: C 2 2 21
;
_chemical_formula_sum "Si O2"
_cell_formula_units_Z 28
_cell_length_a 22.684023
_cell_length_b 11.052094
_cell_length_c 5.170702
_cell_angle_alpha 90.000000
_cell_angle_beta 90.000000
_cell_angle_gamma 90.000000
_cell_volume 1296.325780
_symmetry_space_group_name_H-M "C 2 2 21"
_symmetry_group_IT_number 20
_symmetry_cell_setting 'orthorhombic'
loop_
_space_group_symop_operation_xyz
x,y,z
-x,-y,1/2+z
x,-y,-z
-x,y,1/2-z
1/2+x,1/2+y,z
1/2-x,1/2-y,1/2+z
1/2+x,1/2-y,-z
1/2-x,1/2+y,1/2-z
loop_
_atom_site_type_symbol
_atom_site_label
_atom_site_fract_x
_atom_site_fract_y
_atom_site_fract_z
Si Si1 0.374154 0.670108 0.160557
Si Si2 0.309618 0.640040 0.653249
Si Si3 0.000000 0.078904 0.250000
Si Si4 0.811027 0.378540 0.384582
O O1 0.336967 0.591546 0.378237
O O2 0.443724 0.662999 0.200013
O O3 0.356989 0.812023 0.191392
O O4 0.358301 0.620425 0.877682
O O5 0.295568 0.784437 0.617094
O O6 0.247945 0.579467 0.731869
O O7 0.986568 0.000000 0.500000
O O8 0.840235 0.500000 0.500000
#
# Coordination Sequence:
#
# PCOD8158930 Si02
#       4
#     8   8   4   8
#     4  10  22  42  58  91 128 157 217 260 297 387
#     4  10  20  40  60  95 129 156 206 260 304 390
#     4  12  26  44  70  90 124 174 212 266 324 366
#     4  10  21  39  64  91 128 166 199 258 325 367
#
# _framework density 21.599506999999999
#
# number of rings (size 3 to 8) (size 9 to 14) (size 15 to 20)
#    1.714    0.000    2.857    1.714    0.000    4.571 
#    0.000    0.000    6.286    0.000    0.000    0.000 
#    0.000    0.000    0.000    0.000    0.000    0.000 
#
# Total GULP energy -173550.712742 kJ/mol
# GULP energy per Si atom -12396.479482 kJ/mol
# Density = 2.155035 g / cm^3
# Si number density = 21.599507 Si / 1000 Ang^3
#
#
#
# Elastic Constant Matrix: (Units=GPa)
#
#
# Indices 1 2 3 4 5 6 
#
# 1 160.9943 21.2159 45.8522 0.0000 0.0000 0.0000
# 2 21.2159 40.5576 33.1797 0.0000 0.0000 0.0000
# 3 45.8522 33.1797 150.0810 0.0000 0.0000 0.0000
# 4 0.0000 0.0000 0.0000 34.8333 0.0000 0.0000
# 5 0.0000 0.0000 0.0000 0.0000 32.3432 0.0000
# 6 0.0000 0.0000 0.0000 0.0000 0.0000 26.0040
#
#
#
# Elastic Compliance Matrix: (Units=1/GPa)
#
#
# Indices 1 2 3 4 5 6 
#
# 1 0.006979 -0.002327 -0.001618 0.000000 0.000000 0.000000
# 2 -0.002327 0.030876 -0.006115 0.000000 0.000000 0.000000
# 3 -0.001618 -0.006115 0.008509 0.000000 0.000000 0.000000
# 4 0.000000 0.000000 0.000000 0.028708 0.000000 0.000000
# 5 0.000000 0.000000 0.000000 0.000000 0.030918 0.000000
# 6 0.000000 0.000000 0.000000 0.000000 0.000000 0.038456
#
#
# Mechanical properties :
#
#
# Convention : Reuss Voigt Hill
#
# Bulk Modulus (GPa) = 38.10337 61.34762 49.72549
# Shear Modulus (GPa) = 28.84923 35.39509 32.12216
#
# Velocity S-wave (km/s) = 3.65861 4.05248 3.86057
# Velocity P-wave (km/s) = 5.96040 7.09653 6.55313
#
# Compressibility (1/GPa) = 0.02624440
#
# Stress axis : x y z
#
# Youngs Moduli (GPa) = 143.29102 32.38716 117.51995
#
# Poissons Ratio (x) = 0.07537 0.19010
# Poissons Ratio (y) = 0.33348 0.71865
# Poissons Ratio (z) = 0.23179 0.19805
#
# Static dielectric constant tensor:
#      x y z
#    x 3.544220 0.000000 0.000000 
#    y 0.000000 3.756330 0.000000 
#    z 0.000000 0.000000 4.055530 
# 
# 
# High freq. dielectric constant tensor:
#      x y z
#    x 1.817520 0.000000 0.000000 
#    y 0.000000 1.843730 0.000000 
#    z 0.000000 0.000000 1.865110 
# 
# From -- ./inp_files/1106.got.cif
#   From: 2010.03.12/outbox.cif.g09.slc.cpg/sg20_1_cif.got.tgz:1106.got - 2010.04.14 01:38:04.
