data_PCOD8158729
_publ_section_title
;
Structure prediction by ZEFSAII (Michael W. Deem and Ramdas Pophale) SiO2 
 PCOD8158729
Probable space group: C 2 2 21
;
_chemical_formula_sum "Si O2"
_cell_formula_units_Z 60
_cell_length_a 30.144047
_cell_length_b 10.171485
_cell_length_c 10.150575
_cell_angle_alpha 90.000000
_cell_angle_beta 90.000000
_cell_angle_gamma 90.000000
_cell_volume 3112.264978
_symmetry_space_group_name_H-M "C 2 2 21"
_symmetry_group_IT_number 20
_symmetry_cell_setting 'orthorhombic'
loop_
_space_group_symop_operation_xyz
x,y,z
-x,-y,1/2+z
x,-y,-z
-x,y,1/2-z
1/2+x,1/2+y,z
1/2-x,1/2-y,1/2+z
1/2+x,1/2-y,-z
1/2-x,1/2+y,1/2-z
loop_
_atom_site_type_symbol
_atom_site_label
_atom_site_fract_x
_atom_site_fract_y
_atom_site_fract_z
Si Si1 0.568374 0.109598 0.889342
Si Si2 0.800539 0.319599 0.182837
Si Si3 0.500000 0.284834 0.750000
Si Si4 0.328054 0.538704 0.151577
Si Si5 0.336364 0.848139 0.462179
Si Si6 0.795163 0.110723 0.607041
Si Si7 0.895921 0.603618 0.892785
Si Si8 0.578500 0.609566 0.391807
O O1 0.524266 0.197265 0.864117
O O2 0.612078 0.192571 0.935094
O O3 0.582679 0.054081 0.745363
O O4 0.556796 0.000000 0.000000
O O5 0.803365 0.337846 0.339188
O O6 0.757783 0.383870 0.116622
O O7 0.842842 0.386258 0.114662
O O8 0.796179 0.163517 0.162516
O O9 0.465005 0.388573 0.804563
O O10 0.312548 0.423141 0.247180
O O11 0.378102 0.576469 0.195356
O O12 0.328337 0.500000 0.000000
O O13 0.317138 0.750994 0.573135
O O14 0.335793 0.000000 0.500000
O O15 0.808610 0.000000 0.500000
O O16 0.915349 0.741888 0.945267
O O17 0.910729 0.500000 0.000000
O O18 0.570913 0.500000 0.500000
#
# Coordination Sequence:
#
# PCOD8158729 Si02
#       8
#     8   8   4   8   8   8   8   8
#     4   9  20  41  61  91 127 157 196 251 325 369
#     4  10  22  38  59  88 127 160 215 258 296 359
#     4  10  20  36  70  84 120 162 198 258 302 380
#     4  10  23  43  62  84 128 166 199 262 313 359
#     4  10  23  43  61  88 132 166 201 262 320 363
#     4  12  25  37  64  93 119 171 221 252 302 368
#     4   9  18  38  65  86 119 166 202 254 302 357
#     4   9  20  42  57  86 122 156 201 245 317 364
#
# _framework density 19.278562999999998
#
# number of rings (size 3 to 8) (size 9 to 14) (size 15 to 20)
#    0.000    2.133    1.333    1.200    3.733    2.133 
#   24.000    0.000    0.000    0.000    0.000    0.000 
#    0.000    0.000    0.000    0.000    0.000    0.000 
#
# Total GULP energy -371782.301016 kJ/mol
# GULP energy per Si atom -12392.743367 kJ/mol
# Density = 1.923468 g / cm^3
# Si number density = 19.278563 Si / 1000 Ang^3
#
#
#
# Elastic Constant Matrix: (Units=GPa)
#
#
# Indices 1 2 3 4 5 6 
#
# 1 105.0482 39.8550 39.4037 0.0000 0.0000 0.0000
# 2 39.8550 110.0172 59.8426 0.0000 0.0000 0.0000
# 3 39.4037 59.8426 109.0623 0.0000 0.0000 0.0000
# 4 0.0000 0.0000 0.0000 40.3796 0.0000 0.0000
# 5 0.0000 0.0000 0.0000 0.0000 35.0582 0.0000
# 6 0.0000 0.0000 0.0000 0.0000 0.0000 25.5947
#
#
#
# Elastic Compliance Matrix: (Units=1/GPa)
#
#
# Indices 1 2 3 4 5 6 
#
# 1 0.011560 -0.002731 -0.002678 0.000000 0.000000 0.000000
# 2 -0.002731 0.013602 -0.006477 0.000000 0.000000 0.000000
# 3 -0.002678 -0.006477 0.013690 0.000000 0.000000 0.000000
# 4 0.000000 0.000000 0.000000 0.024765 0.000000 0.000000
# 5 0.000000 0.000000 0.000000 0.000000 0.028524 0.000000
# 6 0.000000 0.000000 0.000000 0.000000 0.000000 0.039071
#
#
# Mechanical properties :
#
#
# Convention : Reuss Voigt Hill
#
# Bulk Modulus (GPa) = 66.30958 66.92559 66.61758
# Shear Modulus (GPa) = 31.24804 32.54160 31.89482
#
# Velocity S-wave (km/s) = 4.03037 4.11295 4.07187
# Velocity P-wave (km/s) = 7.49191 7.57268 7.53240
#
# Compressibility (1/GPa) = 0.01508078
#
# Stress axis : x y z
#
# Youngs Moduli (GPa) = 86.50396 73.52022 73.04423
#
# Poissons Ratio (x) = 0.20079 0.19562
# Poissons Ratio (y) = 0.23625 0.47307
# Poissons Ratio (z) = 0.23167 0.47616
#
# Static dielectric constant tensor:
#      x y z
#    x 3.736840 0.000000 0.000000 
#    y 0.000000 3.397670 0.000000 
#    z 0.000000 0.000000 3.415870 
# 
# 
# High freq. dielectric constant tensor:
#      x y z
#    x 1.759730 0.000000 0.000000 
#    y 0.000000 1.742040 0.000000 
#    z 0.000000 0.000000 1.741530 
# 
# From -- ./inp_files/7640.got.cif
#   From: 2010.03.12/outbox.cif.g09.slc.cpg/sg20_4_cif.got.tgz:7640.got - 2010.04.14 01:38:04.
