data_PCOD8158507
_publ_section_title
;
Structure prediction by ZEFSAII (Michael W. Deem and Ramdas Pophale) SiO2 
 PCOD8158507
Probable space group: C 2 2 21
;
_chemical_formula_sum "Si O2"
_cell_formula_units_Z 60
_cell_length_a 11.146397
_cell_length_b 19.911591
_cell_length_c 13.462598
_cell_angle_alpha 90.000000
_cell_angle_beta 90.000000
_cell_angle_gamma 90.000000
_cell_volume 2987.922632
_symmetry_space_group_name_H-M "C 2 2 21"
_symmetry_group_IT_number 20
_symmetry_cell_setting 'orthorhombic'
loop_
_space_group_symop_operation_xyz
x,y,z
-x,-y,1/2+z
x,-y,-z
-x,y,1/2-z
1/2+x,1/2+y,z
1/2-x,1/2-y,1/2+z
1/2+x,1/2-y,-z
1/2-x,1/2+y,1/2-z
loop_
_atom_site_type_symbol
_atom_site_label
_atom_site_fract_x
_atom_site_fract_y
_atom_site_fract_z
Si Si1 0.476834 0.357584 0.608943
Si Si2 0.522242 0.357143 0.385142
Si Si3 0.301381 0.680687 0.240236
Si Si4 0.898824 0.436500 0.180279
Si Si5 0.526066 0.000000 0.000000
Si Si6 0.928357 0.996250 0.889186
Si Si7 0.796896 0.172302 0.733175
Si Si8 0.818165 0.550020 0.318467
O O1 0.506983 0.335524 0.498012
O O2 0.585153 0.328056 0.670777
O O3 0.347184 0.331503 0.646255
O O4 0.472601 0.438140 0.621492
O O5 0.502406 0.435943 0.362109
O O6 0.657943 0.340810 0.346654
O O7 0.418210 0.318632 0.328573
O O8 0.266906 0.757117 0.228096
O O9 0.194285 0.629182 0.209765
O O10 0.784815 0.386903 0.186371
O O11 0.878625 0.510367 0.227710
O O12 0.000000 0.401316 0.250000
O O13 0.943439 0.448672 0.066089
O O14 0.608687 0.042004 0.077775
O O15 0.813877 0.981984 0.821779
O O16 0.876315 0.000000 0.000000
#
# Coordination Sequence:
#
# PCOD8158507 Si02
#       8
#     8   8   8   8   4   8   8   8
#     4   9  21  38  62  95 117 157 205 256 318 380
#     4  10  22  40  64  95 120 154 210 259 325 377
#     4  10  23  39  61  89 127 164 205 256 314 375
#     4  10  23  39  64  89 121 166 209 258 308 372
#     4  10  22  42  60  96 118 166 224 250 308 382
#     4   9  16  33  66  94 114 143 197 262 312 365
#     4  11  24  41  60  91 129 164 203 258 316 377
#     4  10  19  39  66  87 123 163 206 259 308 366
#
# _framework density 20.080840999999999
#
# number of rings (size 3 to 8) (size 9 to 14) (size 15 to 20)
#    0.000    2.133    2.000    0.000    3.733    3.200 
#   10.800    0.000    0.000    0.000    0.000    0.000 
#    0.000    0.000    0.000    0.000    0.000    0.000 
#
# Total GULP energy -371737.024337 kJ/mol
# GULP energy per Si atom -12391.234145 kJ/mol
# Density = 2.003514 g / cm^3
# Si number density = 20.080841 Si / 1000 Ang^3
#
#
#
# Elastic Constant Matrix: (Units=GPa)
#
#
# Indices 1 2 3 4 5 6 
#
# 1 71.0593 36.8872 34.4715 0.0000 0.0000 0.0000
# 2 36.8872 120.8871 38.7111 0.0000 0.0000 0.0000
# 3 34.4715 38.7111 119.9311 0.0000 0.0000 0.0000
# 4 0.0000 0.0000 0.0000 15.4265 0.0000 0.0000
# 5 0.0000 0.0000 0.0000 0.0000 34.3316 0.0000
# 6 0.0000 0.0000 0.0000 0.0000 0.0000 34.4057
#
#
#
# Elastic Compliance Matrix: (Units=1/GPa)
#
#
# Indices 1 2 3 4 5 6 
#
# 1 0.018172 -0.004319 -0.003829 0.000000 0.000000 0.000000
# 2 -0.004319 0.010252 -0.002068 0.000000 0.000000 0.000000
# 3 -0.003829 -0.002068 0.010106 0.000000 0.000000 0.000000
# 4 0.000000 0.000000 0.000000 0.064824 0.000000 0.000000
# 5 0.000000 0.000000 0.000000 0.000000 0.029128 0.000000
# 6 0.000000 0.000000 0.000000 0.000000 0.000000 0.029065
#
#
# Mechanical properties :
#
#
# Convention : Reuss Voigt Hill
#
# Bulk Modulus (GPa) = 55.25185 59.11299 57.18242
# Shear Modulus (GPa) = 26.59412 30.28660 28.44036
#
# Velocity S-wave (km/s) = 3.64311 3.88781 3.76745
# Velocity P-wave (km/s) = 6.72836 7.04662 6.88933
#
# Compressibility (1/GPa) = 0.01809894
#
# Stress axis : x y z
#
# Youngs Moduli (GPa) = 55.02892 97.54012 98.94933
#
# Poissons Ratio (x) = 0.42126 0.37890
# Poissons Ratio (y) = 0.23766 0.20461
# Poissons Ratio (z) = 0.21072 0.20170
#
# Static dielectric constant tensor:
#      x y z
#    x 3.758820 0.000000 0.000000 
#    y 0.000000 3.504060 0.000000 
#    z 0.000000 0.000000 3.874440 
# 
# 
# High freq. dielectric constant tensor:
#      x y z
#    x 1.781580 0.000000 0.000000 
#    y 0.000000 1.765860 0.000000 
#    z 0.000000 0.000000 1.789990 
# 
# From -- ./inp_files/20225.got.cif
#   From: 2010.03.12/outbox.cif.g09.slc.cpg/sg20_11_cif.got.tgz:20225.got - 2010.04.14 01:38:04.
