data_PCOD8158225
_publ_section_title
;
Structure prediction by ZEFSAII (Michael W. Deem and Ramdas Pophale) SiO2 
 PCOD8158225
Probable space group: C 2 2 21
;
_chemical_formula_sum "Si O2"
_cell_formula_units_Z 44
_cell_length_a 23.523926
_cell_length_b 9.554960
_cell_length_c 10.298144
_cell_angle_alpha 90.000000
_cell_angle_beta 90.000000
_cell_angle_gamma 90.000000
_cell_volume 2314.715598
_symmetry_space_group_name_H-M "C 2 2 21"
_symmetry_group_IT_number 20
_symmetry_cell_setting 'orthorhombic'
loop_
_space_group_symop_operation_xyz
x,y,z
-x,-y,1/2+z
x,-y,-z
-x,y,1/2-z
1/2+x,1/2+y,z
1/2-x,1/2-y,1/2+z
1/2+x,1/2-y,-z
1/2-x,1/2+y,1/2-z
loop_
_atom_site_type_symbol
_atom_site_label
_atom_site_fract_x
_atom_site_fract_y
_atom_site_fract_z
Si Si1 0.910162 0.071375 0.362006
Si Si2 0.592374 0.152715 0.551417
Si Si3 0.888157 0.896337 0.115215
Si Si4 0.500000 0.235880 0.750000
Si Si5 0.685135 0.262848 0.742112
Si Si6 0.239147 0.970083 0.359774
O O1 0.854326 0.169455 0.353558
O O2 0.964761 0.169117 0.349034
O O3 0.910804 0.000000 0.500000
O O4 0.912881 0.952767 0.250554
O O5 0.582564 0.248196 0.422666
O O6 0.540425 0.144038 0.654983
O O7 0.646620 0.226613 0.617872
O O8 0.606869 0.000000 0.500000
O O9 0.819949 0.885809 0.128842
O O10 0.905603 0.000000 0.000000
O O11 0.715083 0.120798 0.783567
O O12 0.731880 0.379727 0.708557
O O13 0.265674 0.000000 0.500000
#
# Coordination Sequence:
#
# PCOD8158225 Si02
#       6
#     8   8   8   4   8   8
#     4  10  22  39  63  94 123 155 211 264 303 368
#     4  11  23  43  64  90 128 167 209 265 323 378
#     4  10  18  42  64  87 120 163 209 252 304 372
#     4  10  22  42  64  90 124 156 214 268 310 374
#     4  10  22  38  59  92 124 162 209 257 305 368
#     4  10  20  36  59  88 124 160 206 252 302 375
#
# _framework density 19.008814000000001
#
# number of rings (size 3 to 8) (size 9 to 14) (size 15 to 20)
#    0.000    1.818    7.273    0.000    5.091    2.909 
#    3.273    1.818    0.000    0.000    0.000    0.000 
#    0.000    0.000    0.000    0.000    0.000    0.000 
#
# Total GULP energy -272724.429687 kJ/mol
# GULP energy per Si atom -12396.564986 kJ/mol
# Density = 1.896555 g / cm^3
# Si number density = 19.008814 Si / 1000 Ang^3
#
#
#
# Elastic Constant Matrix: (Units=GPa)
#
#
# Indices 1 2 3 4 5 6 
#
# 1 49.8195 32.3711 23.9612 0.0000 0.0000 0.0000
# 2 32.3711 121.1560 43.6583 0.0000 0.0000 0.0000
# 3 23.9612 43.6583 110.0774 0.0000 0.0000 0.0000
# 4 0.0000 0.0000 0.0000 33.9440 0.0000 0.0000
# 5 0.0000 0.0000 0.0000 0.0000 1.6049 0.0000
# 6 0.0000 0.0000 0.0000 0.0000 0.0000 36.9764
#
#
#
# Elastic Compliance Matrix: (Units=1/GPa)
#
#
# Indices 1 2 3 4 5 6 
#
# 1 0.025273 -0.005566 -0.003294 0.000000 0.000000 0.000000
# 2 -0.005566 0.010856 -0.003094 0.000000 0.000000 0.000000
# 3 -0.003294 -0.003094 0.011029 0.000000 0.000000 0.000000
# 4 0.000000 0.000000 0.000000 0.029460 0.000000 0.000000
# 5 0.000000 0.000000 0.000000 0.000000 0.623085 0.000000
# 6 0.000000 0.000000 0.000000 0.000000 0.000000 0.027044
#
#
# Mechanical properties :
#
#
# Convention : Reuss Voigt Hill
#
# Bulk Modulus (GPa) = 43.01018 53.44823 48.22920
# Shear Modulus (GPa) = 6.59279 26.57590 16.58435
#
# Velocity S-wave (km/s) = 1.86435 3.74315 2.95694
# Velocity P-wave (km/s) = 5.22589 6.84545 6.08975
#
# Compressibility (1/GPa) = 0.02325031
#
# Stress axis : x y z
#
# Youngs Moduli (GPa) = 39.56779 92.11659 90.67267
#
# Poissons Ratio (x) = 0.51269 0.29867
# Poissons Ratio (y) = 0.22022 0.28055
# Poissons Ratio (z) = 0.13033 0.28501
#
# Static dielectric constant tensor:
#      x y z
#    x 3.386340 0.000000 0.000000 
#    y 0.000000 3.471360 0.000000 
#    z 0.000000 0.000000 2.914450 
# 
# 
# High freq. dielectric constant tensor:
#      x y z
#    x 1.727940 0.000000 0.000000 
#    y 0.000000 1.733470 0.000000 
#    z 0.000000 0.000000 1.736800 
# 
# From -- ./inp_files/13012.got.cif
#   From: 2010.03.12/outbox.cif.g09.slc.cpg/sg20_7_cif.got.tgz:13012.got - 2010.04.14 01:38:04.
