data_PCOD8158116
_publ_section_title
;
Structure prediction by ZEFSAII (Michael W. Deem and Ramdas Pophale) SiO2 
 PCOD8158116
Probable space group: C 2 2 21
;
_chemical_formula_sum "Si O2"
_cell_formula_units_Z 64
_cell_length_a 17.554725
_cell_length_b 16.653631
_cell_length_c 12.172006
_cell_angle_alpha 90.000000
_cell_angle_beta 90.000000
_cell_angle_gamma 90.000000
_cell_volume 3558.484889
_symmetry_space_group_name_H-M "C 2 2 21"
_symmetry_group_IT_number 20
_symmetry_cell_setting 'orthorhombic'
loop_
_space_group_symop_operation_xyz
x,y,z
-x,-y,1/2+z
x,-y,-z
-x,y,1/2-z
1/2+x,1/2+y,z
1/2-x,1/2-y,1/2+z
1/2+x,1/2-y,-z
1/2-x,1/2+y,1/2-z
loop_
_atom_site_type_symbol
_atom_site_label
_atom_site_fract_x
_atom_site_fract_y
_atom_site_fract_z
Si Si1 0.757724 0.909955 0.965200
Si Si2 0.026928 0.795566 0.125520
Si Si3 0.756598 0.656576 0.027418
Si Si4 0.141550 0.938614 0.099566
Si Si5 0.085352 0.216459 0.236384
Si Si6 0.197447 0.076832 0.222362
Si Si7 0.377501 0.275298 0.982824
Si Si8 0.863489 0.293836 0.471055
O O1 0.758578 0.908411 0.833982
O O2 0.824360 0.851969 0.008872
O O3 0.674204 0.881317 0.007483
O O4 0.775096 0.000000 0.000000
O O5 0.000000 0.775428 0.250000
O O6 0.068498 0.882127 0.121122
O O7 0.955357 0.795064 0.044263
O O8 0.085035 0.728831 0.077254
O O9 0.718656 0.612309 0.922856
O O10 0.842356 0.689666 0.018650
O O11 0.759223 0.593305 0.127268
O O12 0.706550 0.734954 0.047994
O O13 0.160977 0.987998 0.210632
O O14 0.122383 0.000000 0.000000
O O15 0.129359 0.138103 0.195570
O O16 0.116025 0.242660 0.353912
O O17 0.090219 0.288163 0.144690
O O18 0.000000 0.187605 0.250000
#
# Coordination Sequence:
#
# PCOD8158116 Si02
#       8
#     8   8   8   8   8   8   8   8
#     4  10  22  36  54  80 109 142 182 234 274 330
#     4  11  23  34  54  85 114 147 177 229 279 330
#     4   8  17  35  55  77 105 142 188 225 259 324
#     4   9  19  36  54  79 113 149 182 215 276 340
#     4  10  18  34  56  80 108 146 184 221 272 334
#     4   9  19  33  55  78 111 150 175 217 280 337
#     4  10  21  35  55  85 107 138 189 230 272 323
#     4   9  19  38  55  76 107 147 187 224 275 321
#
# _framework density 17.985182999999999
#
# number of rings (size 3 to 8) (size 9 to 14) (size 15 to 20)
#    0.000    2.500    1.250    0.750    3.500    2.000 
#    4.500    0.000    0.000    3.000    0.000    0.000 
#    0.000    0.000    0.000    0.000    0.000    0.000 
#
# Total GULP energy -396455.048331 kJ/mol
# GULP energy per Si atom -12389.220260 kJ/mol
# Density = 1.794425 g / cm^3
# Si number density = 17.985183 Si / 1000 Ang^3
#
#
#
# Elastic Constant Matrix: (Units=GPa)
#
#
# Indices 1 2 3 4 5 6 
#
# 1 76.6219 59.0832 27.8618 0.0000 0.0000 0.0000
# 2 59.0832 59.3888 36.7585 0.0000 0.0000 0.0000
# 3 27.8618 36.7585 77.0586 0.0000 0.0000 0.0000
# 4 0.0000 0.0000 0.0000 17.2178 0.0000 0.0000
# 5 0.0000 0.0000 0.0000 0.0000 22.4516 0.0000
# 6 0.0000 0.0000 0.0000 0.0000 0.0000 25.1185
#
#
#
# Elastic Compliance Matrix: (Units=1/GPa)
#
#
# Indices 1 2 3 4 5 6 
#
# 1 0.060803 -0.066525 0.009749 0.000000 0.000000 0.000000
# 2 -0.066525 0.096677 -0.022064 0.000000 0.000000 0.000000
# 3 0.009749 -0.022064 0.019977 0.000000 0.000000 0.000000
# 4 0.000000 0.000000 0.000000 0.058079 0.000000 0.000000
# 5 0.000000 0.000000 0.000000 0.000000 0.044540 0.000000
# 6 0.000000 0.000000 0.000000 0.000000 0.000000 0.039811
#
#
# Mechanical properties :
#
#
# Convention : Reuss Voigt Hill
#
# Bulk Modulus (GPa) = 50.55939 51.16405 50.86172
# Shear Modulus (GPa) = 10.32719 18.91531 14.62125
#
# Velocity S-wave (km/s) = 2.39886 3.24654 2.85434
# Velocity P-wave (km/s) = 5.98710 6.52403 6.26133
#
# Compressibility (1/GPa) = 0.01977872
#
# Stress axis : x y z
#
# Youngs Moduli (GPa) = 16.44647 10.34375 50.05769
#
# Poissons Ratio (x) = 0.68811 -0.48802
# Poissons Ratio (y) = 1.09410 1.10445
# Poissons Ratio (z) = -0.16034 0.22822
#
# Static dielectric constant tensor:
#      x y z
#    x 3.358780 0.000000 0.000000 
#    y 0.000000 3.319270 0.000000 
#    z 0.000000 0.000000 3.668980 
# 
# 
# High freq. dielectric constant tensor:
#      x y z
#    x 1.683410 0.000000 0.000000 
#    y 0.000000 1.675370 0.000000 
#    z 0.000000 0.000000 1.702240 
# 
# From -- ./inp_files/15917.got.cif
#   From: 2010.03.12/outbox.cif.g09.slc.cpg/sg20_8_cif.got.tgz:15917.got - 2010.04.14 01:38:04.
