data_PCOD8158016
_publ_section_title
;
Structure prediction by ZEFSAII (Michael W. Deem and Ramdas Pophale) SiO2 
 PCOD8158016
Probable space group: C 2 2 21
;
_chemical_formula_sum "Si O2"
_cell_formula_units_Z 64
_cell_length_a 18.409910
_cell_length_b 9.352188
_cell_length_c 18.979458
_cell_angle_alpha 90.000000
_cell_angle_beta 90.000000
_cell_angle_gamma 90.000000
_cell_volume 3267.749072
_symmetry_space_group_name_H-M "C 2 2 21"
_symmetry_group_IT_number 20
_symmetry_cell_setting 'orthorhombic'
loop_
_space_group_symop_operation_xyz
x,y,z
-x,-y,1/2+z
x,-y,-z
-x,y,1/2-z
1/2+x,1/2+y,z
1/2-x,1/2-y,1/2+z
1/2+x,1/2-y,-z
1/2-x,1/2+y,1/2-z
loop_
_atom_site_type_symbol
_atom_site_label
_atom_site_fract_x
_atom_site_fract_y
_atom_site_fract_z
Si Si1 0.044896 0.351214 0.181808
Si Si2 0.019551 0.581629 0.071449
Si Si3 0.635553 0.683967 0.937522
Si Si4 0.642048 0.173456 0.445284
Si Si5 0.301158 0.860335 0.086696
Si Si6 0.232327 0.282287 0.676618
Si Si7 0.684202 0.072221 0.737923
Si Si8 0.123640 0.129613 0.097892
O O1 0.005317 0.471060 0.134846
O O2 0.120436 0.417855 0.206135
O O3 0.056366 0.210229 0.134538
O O4 0.000000 0.307006 0.250000
O O5 0.084975 0.688752 0.091824
O O6 0.944179 0.665073 0.062085
O O7 0.040609 0.500000 0.000000
O O8 0.717742 0.689842 0.909523
O O9 0.601163 0.535588 0.910210
O O10 0.638139 0.697068 0.021645
O O11 0.657985 0.229856 0.525105
O O12 0.676655 0.273663 0.384575
O O13 0.687256 0.026414 0.433624
O O14 0.334212 0.841049 0.165134
O O15 0.245788 0.145353 0.725795
O O16 0.196826 0.405798 0.724123
O O17 0.305325 0.350537 0.645069
#
# Coordination Sequence:
#
# PCOD8158016 Si02
#       8
#     8   8   8   8   8   8   8   8
#     4  11  24  40  56  89 129 171 199 255 333 391
#     4  12  24  38  61  97 130 156 212 276 322 367
#     4  11  20  36  63  97 115 154 215 271 308 367
#     4  10  18  36  66  84 111 163 216 246 297 384
#     4  10  17  34  63  85 111 157 207 247 298 377
#     4  10  19  37  56  87 110 157 204 252 298 373
#     4  10  22  33  59  83 119 149 199 253 304 369
#     4  10  19  37  62  86 113 159 210 254 307 385
#
# _framework density 19.585346999999999
#
# number of rings (size 3 to 8) (size 9 to 14) (size 15 to 20)
#    0.000    1.500    6.250    2.250    1.750    0.000 
#    0.000    3.125    0.000    0.000    0.000    0.000 
#    0.000    0.000    0.000    0.000    0.000    0.000 
#
# Total GULP energy -396618.639178 kJ/mol
# GULP energy per Si atom -12394.332474 kJ/mol
# Density = 1.954077 g / cm^3
# Si number density = 19.585347 Si / 1000 Ang^3
#
#
#
# Elastic Constant Matrix: (Units=GPa)
#
#
# Indices 1 2 3 4 5 6 
#
# 1 77.0062 15.0704 4.0155 0.0000 0.0000 0.0000
# 2 15.0704 29.1019 7.1402 0.0000 0.0000 0.0000
# 3 4.0155 7.1402 88.2408 0.0000 0.0000 0.0000
# 4 0.0000 0.0000 0.0000 26.9851 0.0000 0.0000
# 5 0.0000 0.0000 0.0000 0.0000 34.6228 0.0000
# 6 0.0000 0.0000 0.0000 0.0000 0.0000 23.7612
#
#
#
# Elastic Compliance Matrix: (Units=1/GPa)
#
#
# Indices 1 2 3 4 5 6 
#
# 1 0.014451 -0.007470 -0.000053 0.000000 0.000000 0.000000
# 2 -0.007470 0.038920 -0.002809 0.000000 0.000000 0.000000
# 3 -0.000053 -0.002809 0.011562 0.000000 0.000000 0.000000
# 4 0.000000 0.000000 0.000000 0.037057 0.000000 0.000000
# 5 0.000000 0.000000 0.000000 0.000000 0.028883 0.000000
# 6 0.000000 0.000000 0.000000 0.000000 0.000000 0.042085
#
#
# Mechanical properties :
#
#
# Convention : Reuss Voigt Hill
#
# Bulk Modulus (GPa) = 22.58997 27.42233 25.00615
# Shear Modulus (GPa) = 23.99467 28.28201 26.13834
#
# Velocity S-wave (km/s) = 3.50399 3.80417 3.65716
# Velocity P-wave (km/s) = 5.28486 5.77300 5.53431
#
# Compressibility (1/GPa) = 0.04426743
#
# Stress axis : x y z
#
# Youngs Moduli (GPa) = 69.20085 25.69387 86.48743
#
# Poissons Ratio (x) = 0.19194 0.00459
# Poissons Ratio (y) = 0.51695 0.24297
# Poissons Ratio (z) = 0.00368 0.07218
#
# Static dielectric constant tensor:
#      x y z
#    x 3.491170 0.000000 0.000000 
#    y 0.000000 3.286440 0.000000 
#    z 0.000000 0.000000 4.205360 
# 
# 
# High freq. dielectric constant tensor:
#      x y z
#    x 1.756170 0.000000 0.000000 
#    y 0.000000 1.716710 0.000000 
#    z 0.000000 0.000000 1.785370 
# 
# From -- ./inp_files/27784.got.cif
#   From: 2010.03.12/outbox.cif.g09.slc.cpg/sg20_14_cif.got.tgz:27784.got - 2010.04.14 01:38:04.
