data_PCOD8158787
_publ_section_title
;
Structure prediction by ZEFSAII (Michael W. Deem and Ramdas Pophale) SiO2 
 PCOD8158787
Probable space group: C 2 2 21
;
_chemical_formula_sum "Si O2"
_cell_formula_units_Z 28
_cell_length_a 10.818314
_cell_length_b 23.813486
_cell_length_c 5.149470
_cell_angle_alpha 90.000000
_cell_angle_beta 90.000000
_cell_angle_gamma 90.000000
_cell_volume 1326.615571
_symmetry_space_group_name_H-M "C 2 2 21"
_symmetry_group_IT_number 20
_symmetry_cell_setting 'orthorhombic'
loop_
_space_group_symop_operation_xyz
x,y,z
-x,-y,1/2+z
x,-y,-z
-x,y,1/2-z
1/2+x,1/2+y,z
1/2-x,1/2-y,1/2+z
1/2+x,1/2-y,-z
1/2-x,1/2+y,1/2-z
loop_
_atom_site_type_symbol
_atom_site_label
_atom_site_fract_x
_atom_site_fract_y
_atom_site_fract_z
Si Si1 0.862945 0.201304 0.886848
Si Si2 0.877268 0.685015 0.876507
Si Si3 0.347869 0.635437 0.396130
Si Si4 0.000000 0.034321 0.250000
O O1 0.713740 0.208779 0.849882
O O2 0.917715 0.173740 0.618109
O O3 0.918507 0.262808 0.942414
O O4 0.887725 0.158773 0.119538
O O5 0.000000 0.657575 0.750000
O O6 0.800214 0.638485 0.043806
O O7 0.390438 0.570953 0.383619
O O8 0.052196 0.000000 0.500000
#
# Coordination Sequence:
#
# PCOD8158787 Si02
#       4
#     8   8   8   4
#     4  10  20  38  55  98 134 172 216 245 315 403
#     4  10  21  38  60  94 140 183 214 250 312 412
#     4  10  22  41  58  95 126 166 221 274 325 380
#     4  12  26  46  70  92 120 174 222 304 338 376
#
# _framework density 21.106338000000001
#
# number of rings (size 3 to 8) (size 9 to 14) (size 15 to 20)
#    1.714    0.000    2.857    1.714    2.000    1.143 
#    5.143    0.000    0.000    0.000    7.429    0.000 
#    0.000    0.000    0.000    0.000    0.000    0.000 
#
# Total GULP energy -173476.089901 kJ/mol
# GULP energy per Si atom -12391.149279 kJ/mol
# Density = 2.105830 g / cm^3
# Si number density = 21.106338 Si / 1000 Ang^3
#
#
#
# Elastic Constant Matrix: (Units=GPa)
#
#
# Indices 1 2 3 4 5 6 
#
# 1 103.7484 37.8900 47.7225 0.0000 0.0000 0.0000
# 2 37.8900 107.7414 46.3689 0.0000 0.0000 0.0000
# 3 47.7225 46.3689 147.6921 0.0000 0.0000 0.0000
# 4 0.0000 0.0000 0.0000 36.5341 0.0000 0.0000
# 5 0.0000 0.0000 0.0000 0.0000 50.2996 0.0000
# 6 0.0000 0.0000 0.0000 0.0000 0.0000 19.3937
#
#
#
# Elastic Compliance Matrix: (Units=1/GPa)
#
#
# Indices 1 2 3 4 5 6 
#
# 1 0.012092 -0.002973 -0.002974 0.000000 0.000000 0.000000
# 2 -0.002973 0.011462 -0.002638 0.000000 0.000000 0.000000
# 3 -0.002974 -0.002638 0.008560 0.000000 0.000000 0.000000
# 4 0.000000 0.000000 0.000000 0.027372 0.000000 0.000000
# 5 0.000000 0.000000 0.000000 0.000000 0.019881 0.000000
# 6 0.000000 0.000000 0.000000 0.000000 0.000000 0.051563
#
#
# Mechanical properties :
#
#
# Convention : Reuss Voigt Hill
#
# Bulk Modulus (GPa) = 66.91155 69.23829 68.07492
# Shear Modulus (GPa) = 32.66232 36.39218 34.52725
#
# Velocity S-wave (km/s) = 3.93811 4.15689 4.04898
# Velocity P-wave (km/s) = 7.24218 7.47766 7.36086
#
# Compressibility (1/GPa) = 0.01494510
#
# Stress axis : x y z
#
# Youngs Moduli (GPa) = 82.69698 87.24272 116.82147
#
# Poissons Ratio (x) = 0.25934 0.34743
# Poissons Ratio (y) = 0.24583 0.30819
# Poissons Ratio (z) = 0.24594 0.23016
#
# Static dielectric constant tensor:
#      x y z
#    x 3.912050 0.000000 0.000000 
#    y 0.000000 3.345140 0.000000 
#    z 0.000000 0.000000 3.992810 
# 
# 
# High freq. dielectric constant tensor:
#      x y z
#    x 1.838290 0.000000 0.000000 
#    y 0.000000 1.767410 0.000000 
#    z 0.000000 0.000000 1.854510 
# 
# From -- ./inp_files/1306.got.cif
#   From: 2010.03.12/outbox.cif.g09.slc.cpg/sg20_1_cif.got.tgz:1306.got - 2010.04.14 01:38:04.
