data_PCOD8158564
_publ_section_title
;
Structure prediction by ZEFSAII (Michael W. Deem and Ramdas Pophale) SiO2 
 PCOD8158564
Probable space group: C 2 2 21
;
_chemical_formula_sum "Si O2"
_cell_formula_units_Z 48
_cell_length_a 14.775196
_cell_length_b 15.810289
_cell_length_c 8.401902
_cell_angle_alpha 90.000000
_cell_angle_beta 90.000000
_cell_angle_gamma 90.000000
_cell_volume 1962.685305
_symmetry_space_group_name_H-M "C 2 2 21"
_symmetry_group_IT_number 20
_symmetry_cell_setting 'orthorhombic'
loop_
_space_group_symop_operation_xyz
x,y,z
-x,-y,1/2+z
x,-y,-z
-x,y,1/2-z
1/2+x,1/2+y,z
1/2-x,1/2-y,1/2+z
1/2+x,1/2-y,-z
1/2-x,1/2+y,1/2-z
loop_
_atom_site_type_symbol
_atom_site_label
_atom_site_fract_x
_atom_site_fract_y
_atom_site_fract_z
Si Si1 0.871379 0.871265 0.500666
Si Si2 0.408123 0.947945 0.661254
Si Si3 0.500000 0.641079 0.250000
Si Si4 0.799299 0.689491 0.516608
Si Si5 0.691764 0.909551 0.336591
Si Si6 0.892799 0.256877 0.021717
Si Si7 0.000000 0.808841 0.250000
O O1 0.854026 0.774356 0.554335
O O2 0.779436 0.919740 0.451513
O O3 0.921247 0.913523 0.657855
O O4 0.941426 0.873221 0.355721
O O5 0.500000 0.923101 0.750000
O O6 0.353760 0.863814 0.614779
O O7 0.428101 0.000000 0.500000
O O8 0.347440 0.999423 0.789574
O O9 0.465192 0.703613 0.115872
O O10 0.779672 0.638846 0.677092
O O11 0.703525 0.714196 0.442950
O O12 0.613220 0.855480 0.426463
O O13 0.928226 0.252222 0.840726
#
# Coordination Sequence:
#
# PCOD8158564 Si02
#       7
#     8   8   4   8   8   8   4
#     4  10  20  35  59  92 129 163 218 273 334 386
#     4  10  24  43  63  89 131 182 227 267 325 402
#     4  10  20  34  58  96 118 164 206 286 318 388
#     4  10  20  38  58  90 129 178 219 264 334 388
#     4  10  20  38  61  89 128 180 213 267 331 392
#     4  10  20  35  60  91 132 162 219 269 334 389
#     4  10  20  32  58  94 120 160 208 280 322 392
#
# _framework density 24.456288000000001
#
# number of rings (size 3 to 8) (size 9 to 14) (size 15 to 20)
#    0.000    2.000    3.333    0.000    2.333    1.333 
#    3.000    0.000    0.000    1.000    0.000    0.000 
#    0.000    0.000    0.333    0.000    0.000    0.000 
#
# Total GULP energy -297519.371366 kJ/mol
# GULP energy per Si atom -12396.640474 kJ/mol
# Density = 2.440062 g / cm^3
# Si number density = 24.456288 Si / 1000 Ang^3
#
#
#
# Elastic Constant Matrix: (Units=GPa)
#
#
# Indices 1 2 3 4 5 6 
#
# 1 127.6855 21.1720 59.3550 0.0000 0.0000 0.0000
# 2 21.1720 61.3986 28.9944 0.0000 0.0000 0.0000
# 3 59.3550 28.9944 109.0848 0.0000 0.0000 0.0000
# 4 0.0000 0.0000 0.0000 22.5750 0.0000 0.0000
# 5 0.0000 0.0000 0.0000 0.0000 64.7538 0.0000
# 6 0.0000 0.0000 0.0000 0.0000 0.0000 13.0961
#
#
#
# Elastic Compliance Matrix: (Units=1/GPa)
#
#
# Indices 1 2 3 4 5 6 
#
# 1 0.010543 -0.001060 -0.005455 0.000000 0.000000 0.000000
# 2 -0.001060 0.018731 -0.004402 0.000000 0.000000 0.000000
# 3 -0.005455 -0.004402 0.013306 0.000000 0.000000 0.000000
# 4 0.000000 0.000000 0.000000 0.044297 0.000000 0.000000
# 5 0.000000 0.000000 0.000000 0.000000 0.015443 0.000000
# 6 0.000000 0.000000 0.000000 0.000000 0.000000 0.076359
#
#
# Mechanical properties :
#
#
# Convention : Reuss Voigt Hill
#
# Bulk Modulus (GPa) = 48.20148 57.46799 52.83474
# Shear Modulus (GPa) = 24.10474 32.66145 28.38310
#
# Velocity S-wave (km/s) = 3.14287 3.65842 3.41040
# Velocity P-wave (km/s) = 5.73779 6.43387 6.09577
#
# Compressibility (1/GPa) = 0.02074625
#
# Stress axis : x y z
#
# Youngs Moduli (GPa) = 94.84713 53.38676 75.15669
#
# Poissons Ratio (x) = 0.05656 0.40999
# Poissons Ratio (y) = 0.10049 0.33086
# Poissons Ratio (z) = 0.51741 0.23502
#
# Static dielectric constant tensor:
#      x y z
#    x 4.596150 0.000000 0.000000 
#    y 0.000000 3.949650 0.000000 
#    z 0.000000 0.000000 4.738270 
# 
# 
# High freq. dielectric constant tensor:
#      x y z
#    x 1.986780 0.000000 0.000000 
#    y 0.000000 1.936490 0.000000 
#    z 0.000000 0.000000 1.990580 
# 
# From -- ./inp_files/8471.got.cif
#   From: 2010.03.12/outbox.cif.g09.slc.cpg/sg20_5_cif.got.tgz:8471.got - 2010.04.14 01:38:04.
