data_PCOD8158706
_publ_section_title
;
Structure prediction by ZEFSAII (Michael W. Deem and Ramdas Pophale) SiO2 
 PCOD8158706
Probable space group: C 2 2 21
;
_chemical_formula_sum "Si O2"
_cell_formula_units_Z 60
_cell_length_a 28.842240
_cell_length_b 12.710881
_cell_length_c 7.821237
_cell_angle_alpha 90.000000
_cell_angle_beta 90.000000
_cell_angle_gamma 90.000000
_cell_volume 2867.345890
_symmetry_space_group_name_H-M "C 2 2 21"
_symmetry_group_IT_number 20
_symmetry_cell_setting 'orthorhombic'
loop_
_space_group_symop_operation_xyz
x,y,z
-x,-y,1/2+z
x,-y,-z
-x,y,1/2-z
1/2+x,1/2+y,z
1/2-x,1/2-y,1/2+z
1/2+x,1/2-y,-z
1/2-x,1/2+y,1/2-z
loop_
_atom_site_type_symbol
_atom_site_label
_atom_site_fract_x
_atom_site_fract_y
_atom_site_fract_z
Si Si1 0.215492 0.879076 0.995845
Si Si2 0.112891 0.114432 0.031702
Si Si3 0.456112 0.787157 0.466600
Si Si4 0.903308 0.500000 0.500000
Si Si5 0.294132 0.748213 0.161977
Si Si6 0.370331 0.617810 0.065722
Si Si7 0.557702 0.779601 0.427309
Si Si8 0.364200 0.931392 0.154068
O O1 0.162449 0.874198 0.066262
O O2 0.220105 0.832996 0.807527
O O3 0.247007 0.803577 0.109005
O O4 0.233120 0.000000 0.000000
O O5 0.076731 0.197572 0.950146
O O6 0.124269 0.127863 0.230654
O O7 0.091007 0.000000 0.000000
O O8 0.435880 0.899538 0.512482
O O9 0.509484 0.787749 0.533321
O O10 0.455297 0.758613 0.268033
O O11 0.872739 0.498144 0.326882
O O12 0.321304 0.676014 0.019830
O O13 0.330696 0.838244 0.217379
O O14 0.413640 0.682781 0.988000
O O15 0.370744 0.500000 0.000000
O O16 0.588236 0.886144 0.429738
O O17 0.341383 0.000000 0.000000
#
# Coordination Sequence:
#
# PCOD8158706 Si02
#       8
#     8   8   8   4   8   8   8   8
#     4  10  21  40  60  87 120 158 203 258 315 384
#     4   9  19  36  56  77 115 152 195 250 304 359
#     4   9  17  34  56  87 114 162 204 242 304 374
#     4  10  20  36  62  88 120 170 210 244 318 380
#     4  10  22  41  60  89 122 156 206 253 320 379
#     4   9  18  35  58  80 112 156 193 241 308 362
#     4   8  17  33  57  81 122 156 197 251 296 356
#     4  10  21  41  61  91 127 166 203 260 312 376
#
# _framework density 20.925276
#
# number of rings (size 3 to 8) (size 9 to 14) (size 15 to 20)
#    0.000    2.667    0.000    2.800    0.933    3.733 
#   14.400    0.000    1.467    0.000    0.000    0.000 
#    0.000    0.000    0.000    0.000    0.000    0.000 
#
# Total GULP energy -371688.045230 kJ/mol
# GULP energy per Si atom -12389.601508 kJ/mol
# Density = 2.087765 g / cm^3
# Si number density = 20.925276 Si / 1000 Ang^3
#
#
#
# Elastic Constant Matrix: (Units=GPa)
#
#
# Indices 1 2 3 4 5 6 
#
# 1 103.2593 64.6378 33.0405 0.0000 0.0000 0.0000
# 2 64.6378 169.7727 42.0812 0.0000 0.0000 0.0000
# 3 33.0405 42.0812 50.9670 0.0000 0.0000 0.0000
# 4 0.0000 0.0000 0.0000 36.0854 0.0000 0.0000
# 5 0.0000 0.0000 0.0000 0.0000 15.1958 0.0000
# 6 0.0000 0.0000 0.0000 0.0000 0.0000 48.3481
#
#
#
# Elastic Compliance Matrix: (Units=1/GPa)
#
#
# Indices 1 2 3 4 5 6 
#
# 1 0.013985 -0.003869 -0.005872 0.000000 0.000000 0.000000
# 2 -0.003869 0.008476 -0.004490 0.000000 0.000000 0.000000
# 3 -0.005872 -0.004490 0.027134 0.000000 0.000000 0.000000
# 4 0.000000 0.000000 0.000000 0.027712 0.000000 0.000000
# 5 0.000000 0.000000 0.000000 0.000000 0.065808 0.000000
# 6 0.000000 0.000000 0.000000 0.000000 0.000000 0.020683
#
#
# Mechanical properties :
#
#
# Convention : Reuss Voigt Hill
#
# Bulk Modulus (GPa) = 47.31760 67.05755 57.18758
# Shear Modulus (GPa) = 25.08711 32.20849 28.64780
#
# Velocity S-wave (km/s) = 3.46626 3.92754 3.70408
# Velocity P-wave (km/s) = 6.21946 7.25832 6.75888
#
# Compressibility (1/GPa) = 0.02113379
#
# Stress axis : x y z
#
# Youngs Moduli (GPa) = 71.50447 117.97539 36.85373
#
# Poissons Ratio (x) = 0.45647 0.21639
# Poissons Ratio (y) = 0.27667 0.16548
# Poissons Ratio (z) = 0.41984 0.52974
#
# Static dielectric constant tensor:
#      x y z
#    x 4.345640 0.000000 0.000000 
#    y 0.000000 4.079320 0.000000 
#    z 0.000000 0.000000 3.356240 
# 
# 
# High freq. dielectric constant tensor:
#      x y z
#    x 1.826390 0.000000 0.000000 
#    y 0.000000 1.831160 0.000000 
#    z 0.000000 0.000000 1.777780 
# 
# From -- ./inp_files/11145.got.cif
#   From: 2010.03.12/outbox.cif.g09.slc.cpg/sg20_6_cif.got.tgz:11145.got - 2010.04.14 01:38:04.
