data_PCOD8158853
_publ_section_title
;
Structure prediction by ZEFSAII (Michael W. Deem and Ramdas Pophale) SiO2 
 PCOD8158853
Probable space group: C 2 2 21
;
_chemical_formula_sum "Si O2"
_cell_formula_units_Z 48
_cell_length_a 31.304836
_cell_length_b 8.806905
_cell_length_c 8.544039
_cell_angle_alpha 90.000000
_cell_angle_beta 90.000000
_cell_angle_gamma 90.000000
_cell_volume 2355.580588
_symmetry_space_group_name_H-M "C 2 2 21"
_symmetry_group_IT_number 20
_symmetry_cell_setting 'orthorhombic'
loop_
_space_group_symop_operation_xyz
x,y,z
-x,-y,1/2+z
x,-y,-z
-x,y,1/2-z
1/2+x,1/2+y,z
1/2-x,1/2-y,1/2+z
1/2+x,1/2-y,-z
1/2-x,1/2+y,1/2-z
loop_
_atom_site_type_symbol
_atom_site_label
_atom_site_fract_x
_atom_site_fract_y
_atom_site_fract_z
Si Si1 0.582405 0.000000 0.500000
Si Si2 0.905687 0.000000 0.000000
Si Si3 0.277347 0.122543 0.278097
Si Si4 0.951383 0.239936 0.208211
Si Si5 0.866270 0.736725 0.192472
Si Si6 0.114528 0.679234 0.967183
Si Si7 0.793504 0.699838 0.630422
O O1 0.552221 0.883356 0.407453
O O2 0.612056 0.913679 0.623066
O O3 0.934952 0.912286 0.875202
O O4 0.875115 0.116461 0.911045
O O5 0.315392 0.214059 0.193482
O O6 0.231777 0.157613 0.200188
O O7 0.276371 0.167267 0.458453
O O8 0.284668 0.943599 0.257471
O O9 0.926797 0.273190 0.370066
O O10 0.000000 0.211778 0.250000
O O11 0.885670 0.763625 0.365723
O O12 0.155897 0.733260 0.868482
O O13 0.118211 0.500000 0.000000
#
# Coordination Sequence:
#
# PCOD8158853 Si02
#       7
#     4   4   8   8   8   8   8
#     4  10  20  38  66  96 124 162 214 264 308 378
#     4  10  26  44  58  98 134 164 204 262 336 388
#     4  10  21  37  58  87 121 161 209 259 303 378
#     4  11  25  41  67  97 128 167 211 265 326 383
#     4  10  21  41  66  90 128 168 211 255 319 379
#     4  11  20  43  68  89 125 171 214 263 318 379
#     4  10  21  38  58  87 124 159 209 259 317 366
#
# _framework density 20.377143
#
# number of rings (size 3 to 8) (size 9 to 14) (size 15 to 20)
#    0.000    1.667    5.000    0.000    1.167    9.333 
#    0.000    6.667    0.000    0.000    0.000    0.000 
#    0.000    0.000    0.000    0.000    0.000    0.000 
#
# Total GULP energy -297688.820490 kJ/mol
# GULP energy per Si atom -12403.700854 kJ/mol
# Density = 2.033076 g / cm^3
# Si number density = 20.377143 Si / 1000 Ang^3
#
#
#
# Elastic Constant Matrix: (Units=GPa)
#
#
# Indices 1 2 3 4 5 6 
#
# 1 138.4576 40.4967 60.0599 0.0000 0.0000 0.0000
# 2 40.4967 79.2036 34.1328 0.0000 0.0000 0.0000
# 3 60.0599 34.1328 75.5205 0.0000 0.0000 0.0000
# 4 0.0000 0.0000 0.0000 32.4399 0.0000 0.0000
# 5 0.0000 0.0000 0.0000 0.0000 37.0414 0.0000
# 6 0.0000 0.0000 0.0000 0.0000 0.0000 17.3362
#
#
#
# Elastic Compliance Matrix: (Units=1/GPa)
#
#
# Indices 1 2 3 4 5 6 
#
# 1 0.011377 -0.002382 -0.007971 0.000000 0.000000 0.000000
# 2 -0.002382 0.016178 -0.005418 0.000000 0.000000 0.000000
# 3 -0.007971 -0.005418 0.022030 0.000000 0.000000 0.000000
# 4 0.000000 0.000000 0.000000 0.030826 0.000000 0.000000
# 5 0.000000 0.000000 0.000000 0.000000 0.026997 0.000000
# 6 0.000000 0.000000 0.000000 0.000000 0.000000 0.057683
#
#
# Mechanical properties :
#
#
# Convention : Reuss Voigt Hill
#
# Bulk Modulus (GPa) = 55.42372 62.50671 58.96521
# Shear Modulus (GPa) = 24.67346 27.92963 26.30154
#
# Velocity S-wave (km/s) = 3.48349 3.70623 3.59658
# Velocity P-wave (km/s) = 6.59072 7.00402 6.80051
#
# Compressibility (1/GPa) = 0.01804282
#
# Stress axis : x y z
#
# Youngs Moduli (GPa) = 87.89802 61.81104 45.39350
#
# Poissons Ratio (x) = 0.14722 0.36184
# Poissons Ratio (y) = 0.20935 0.24594
# Poissons Ratio (z) = 0.70066 0.33489
#
# Static dielectric constant tensor:
#      x y z
#    x 3.514120 0.000000 0.000000 
#    y 0.000000 3.670420 0.000000 
#    z 0.000000 0.000000 3.838070 
# 
# 
# High freq. dielectric constant tensor:
#      x y z
#    x 1.788480 0.000000 0.000000 
#    y 0.000000 1.791660 0.000000 
#    z 0.000000 0.000000 1.808070 
# 
# From -- ./inp_files/11497.got.cif
#   From: 2010.03.12/outbox.cif.g09.slc.cpg/sg20_6_cif.got.tgz:11497.got - 2010.04.14 01:38:04.
