data_PCOD8158813
_publ_section_title
;
Structure prediction by ZEFSAII (Michael W. Deem and Ramdas Pophale) SiO2 
 PCOD8158813
Probable space group: C 2 2 21
;
_chemical_formula_sum "Si O2"
_cell_formula_units_Z 56
_cell_length_a 6.918686
_cell_length_b 19.035129
_cell_length_c 20.698215
_cell_angle_alpha 90.000000
_cell_angle_beta 90.000000
_cell_angle_gamma 90.000000
_cell_volume 2725.915186
_symmetry_space_group_name_H-M "C 2 2 21"
_symmetry_group_IT_number 20
_symmetry_cell_setting 'orthorhombic'
loop_
_space_group_symop_operation_xyz
x,y,z
-x,-y,1/2+z
x,-y,-z
-x,y,1/2-z
1/2+x,1/2+y,z
1/2-x,1/2-y,1/2+z
1/2+x,1/2-y,-z
1/2-x,1/2+y,1/2-z
loop_
_atom_site_type_symbol
_atom_site_label
_atom_site_fract_x
_atom_site_fract_y
_atom_site_fract_z
Si Si1 0.460749 0.586075 0.319802
Si Si2 0.605103 0.837159 0.384511
Si Si3 0.624190 0.978963 0.314210
Si Si4 0.301024 0.900939 0.469902
Si Si5 0.655212 0.284229 0.905344
Si Si6 0.489896 0.712153 0.551137
Si Si7 0.688034 0.959644 0.900169
O O1 0.500000 0.622145 0.250000
O O2 0.330332 0.516835 0.308612
O O3 0.371464 0.640838 0.371030
O O4 0.666140 0.559355 0.343882
O O5 0.645713 0.895492 0.329119
O O6 0.511251 0.878040 0.444745
O O7 0.453078 0.776027 0.362100
O O8 0.802912 0.800217 0.405355
O O9 0.500000 0.986815 0.250000
O O10 0.519132 0.021943 0.370970
O O11 0.323293 0.896676 0.547641
O O12 0.129199 0.853759 0.444483
O O13 0.236002 0.975175 0.441695
O O14 0.886296 0.274704 0.914879
O O15 0.560635 0.274369 0.976483
#
# Coordination Sequence:
#
# PCOD8158813 Si02
#       7
#     8   8   8   8   8   8   8
#     4  12  25  42  65  94 132 174 215 269 329 388
#     4  10  23  41  63  93 126 169 212 265 319 390
#     4  11  24  43  66  88 124 174 223 264 319 385
#     4   9  20  35  63  94 126 159 207 266 324 387
#     4  11  24  38  66  96 132 168 209 263 333 393
#     4  11  20  39  61  95 126 167 208 263 331 386
#     4  10  20  38  60  95 127 160 210 266 322 388
#
# _framework density 20.543558000000001
#
# number of rings (size 3 to 8) (size 9 to 14) (size 15 to 20)
#    0.000    1.429    4.286    0.857    2.000    1.714 
#    0.000    0.000    0.000    0.000    0.000    0.000 
#    0.000    0.000    0.000    0.000    0.000    0.000 
#
# Total GULP energy -347022.023135 kJ/mol
# GULP energy per Si atom -12393.643683 kJ/mol
# Density = 2.049680 g / cm^3
# Si number density = 20.543558 Si / 1000 Ang^3
#
#
#
# Elastic Constant Matrix: (Units=GPa)
#
#
# Indices 1 2 3 4 5 6 
#
# 1 98.7617 21.5346 17.9107 0.0000 0.0000 0.0000
# 2 21.5346 69.4328 14.2626 0.0000 0.0000 0.0000
# 3 17.9107 14.2626 71.5379 0.0000 0.0000 0.0000
# 4 0.0000 0.0000 0.0000 27.8834 0.0000 0.0000
# 5 0.0000 0.0000 0.0000 0.0000 26.4251 0.0000
# 6 0.0000 0.0000 0.0000 0.0000 0.0000 32.2052
#
#
#
# Elastic Compliance Matrix: (Units=1/GPa)
#
#
# Indices 1 2 3 4 5 6 
#
# 1 0.011182 -0.003016 -0.002198 0.000000 0.000000 0.000000
# 2 -0.003016 0.015831 -0.002401 0.000000 0.000000 0.000000
# 3 -0.002198 -0.002401 0.015008 0.000000 0.000000 0.000000
# 4 0.000000 0.000000 0.000000 0.035864 0.000000 0.000000
# 5 0.000000 0.000000 0.000000 0.000000 0.037843 0.000000
# 6 0.000000 0.000000 0.000000 0.000000 0.000000 0.031051
#
#
# Mechanical properties :
#
#
# Convention : Reuss Voigt Hill
#
# Bulk Modulus (GPa) = 37.32846 38.57204 37.95025
# Shear Modulus (GPa) = 29.25022 29.70440 29.47731
#
# Velocity S-wave (km/s) = 3.77744 3.80665 3.79208
# Velocity P-wave (km/s) = 6.10207 6.17554 6.13892
#
# Compressibility (1/GPa) = 0.02678921
#
# Stress axis : x y z
#
# Youngs Moduli (GPa) = 89.43141 63.16646 66.63270
#
# Poissons Ratio (x) = 0.19054 0.14647
# Poissons Ratio (y) = 0.26977 0.15999
# Poissons Ratio (z) = 0.19658 0.15167
#
# Static dielectric constant tensor:
#      x y z
#    x 3.796720 0.000000 0.000000 
#    y 0.000000 3.863550 0.000000 
#    z 0.000000 0.000000 3.701430 
# 
# 
# High freq. dielectric constant tensor:
#      x y z
#    x 1.808070 0.000000 0.000000 
#    y 0.000000 1.808670 0.000000 
#    z 0.000000 0.000000 1.787960 
# 
# From -- ./inp_files/26183.got.cif
#   From: 2010.03.12/outbox.cif.g09.slc.cpg/sg20_14_cif.got.tgz:26183.got - 2010.04.14 01:38:04.
