data_PCOD8158895
_publ_section_title
;
Structure prediction by ZEFSAII (Michael W. Deem and Ramdas Pophale) SiO2 
 PCOD8158895
Probable space group: C 2 2 21
;
_chemical_formula_sum "Si O2"
_cell_formula_units_Z 64
_cell_length_a 14.583065
_cell_length_b 11.906927
_cell_length_c 18.563115
_cell_angle_alpha 90.000000
_cell_angle_beta 90.000000
_cell_angle_gamma 90.000000
_cell_volume 3223.289829
_symmetry_space_group_name_H-M "C 2 2 21"
_symmetry_group_IT_number 20
_symmetry_cell_setting 'orthorhombic'
loop_
_space_group_symop_operation_xyz
x,y,z
-x,-y,1/2+z
x,-y,-z
-x,y,1/2-z
1/2+x,1/2+y,z
1/2-x,1/2-y,1/2+z
1/2+x,1/2-y,-z
1/2-x,1/2+y,1/2-z
loop_
_atom_site_type_symbol
_atom_site_label
_atom_site_fract_x
_atom_site_fract_y
_atom_site_fract_z
Si Si1 0.302787 0.181913 0.613029
Si Si2 0.513448 0.669559 0.507266
Si Si3 0.527953 0.096148 0.949728
Si Si4 0.284705 0.692629 0.035903
Si Si5 0.823093 0.440733 0.074207
Si Si6 0.691865 0.524531 0.341642
Si Si7 0.199437 0.924856 0.818376
Si Si8 0.484558 0.508186 0.381541
O O1 0.404475 0.126757 0.616586
O O2 0.290548 0.198769 0.526832
O O3 0.299385 0.297166 0.655781
O O4 0.226942 0.102262 0.648640
O O5 0.488540 0.799407 0.503555
O O6 0.622502 0.653988 0.503419
O O7 0.466623 0.603686 0.441358
O O8 0.480650 0.615515 0.582440
O O9 0.432639 0.054037 0.915000
O O10 0.571403 0.000000 0.000000
O O11 0.290919 0.812276 0.074879
O O12 0.261261 0.600459 0.096404
O O13 0.776163 0.505094 0.139608
O O14 0.793285 0.500000 0.000000
O O15 0.725333 0.572575 0.265397
O O16 0.581476 0.528964 0.343053
O O17 0.099245 0.981689 0.826234
#
# Coordination Sequence:
#
# PCOD8158895 Si02
#       8
#     8   8   8   8   8   8   8   8
#     4  12  23  43  67  97 121 167 222 265 312 385
#     4   9  18  34  62 100 119 157 206 269 309 364
#     4  10  21  37  62  96 128 159 209 266 316 372
#     4  10  20  39  67  91 125 164 211 263 315 369
#     4  10  22  40  62  97 129 165 209 263 320 378
#     4  11  25  42  63  94 131 170 207 268 327 381
#     4  12  26  40  64  95 131 169 212 262 327 389
#     4  10  20  39  64  92 128 160 212 260 317 376
#
# _framework density 19.855491000000001
#
# number of rings (size 3 to 8) (size 9 to 14) (size 15 to 20)
#    0.000    1.500    3.750    1.500    5.250    0.000 
#    0.000    0.625    0.000    0.000    0.000    0.000 
#    0.000    0.000    0.000    0.000    0.000    0.000 
#
# Total GULP energy -396882.218927 kJ/mol
# GULP energy per Si atom -12402.569341 kJ/mol
# Density = 1.981030 g / cm^3
# Si number density = 19.855491 Si / 1000 Ang^3
#
#
#
# Elastic Constant Matrix: (Units=GPa)
#
#
# Indices 1 2 3 4 5 6 
#
# 1 74.6847 32.2759 34.0099 0.0000 0.0000 0.0000
# 2 32.2759 123.6807 44.0184 0.0000 0.0000 0.0000
# 3 34.0099 44.0184 114.0261 0.0000 0.0000 0.0000
# 4 0.0000 0.0000 0.0000 19.0210 0.0000 0.0000
# 5 0.0000 0.0000 0.0000 0.0000 12.8149 0.0000
# 6 0.0000 0.0000 0.0000 0.0000 0.0000 29.0203
#
#
#
# Elastic Compliance Matrix: (Units=1/GPa)
#
#
# Indices 1 2 3 4 5 6 
#
# 1 0.016365 -0.002937 -0.003747 0.000000 0.000000 0.000000
# 2 -0.002937 0.009900 -0.002946 0.000000 0.000000 0.000000
# 3 -0.003747 -0.002946 0.011025 0.000000 0.000000 0.000000
# 4 0.000000 0.000000 0.000000 0.052573 0.000000 0.000000
# 5 0.000000 0.000000 0.000000 0.000000 0.078034 0.000000
# 6 0.000000 0.000000 0.000000 0.000000 0.000000 0.034459
#
#
# Mechanical properties :
#
#
# Convention : Reuss Voigt Hill
#
# Bulk Modulus (GPa) = 55.46345 59.22222 57.34284
# Shear Modulus (GPa) = 21.96572 25.64372 23.80472
#
# Velocity S-wave (km/s) = 3.32969 3.59767 3.46627
# Velocity P-wave (km/s) = 6.54038 6.86651 6.70543
#
# Compressibility (1/GPa) = 0.01802989
#
# Stress axis : x y z
#
# Youngs Moduli (GPa) = 61.10459 101.00775 90.70423
#
# Poissons Ratio (x) = 0.29666 0.33991
# Poissons Ratio (y) = 0.17947 0.26720
# Poissons Ratio (z) = 0.22898 0.29755
#
# Static dielectric constant tensor:
#      x y z
#    x 3.676340 0.000000 0.000000 
#    y 0.000000 3.702970 0.000000 
#    z 0.000000 0.000000 3.324070 
# 
# 
# High freq. dielectric constant tensor:
#      x y z
#    x 1.779130 0.000000 0.000000 
#    y 0.000000 1.787340 0.000000 
#    z 0.000000 0.000000 1.742310 
# 
# From -- ./inp_files/24441.got.cif
#   From: 2010.03.12/outbox.cif.g09.slc.cpg/sg20_13_cif.got.tgz:24441.got - 2010.04.14 01:38:04.
