data_PCOD8158767
_publ_section_title
;
Structure prediction by ZEFSAII (Michael W. Deem and Ramdas Pophale) SiO2 
 PCOD8158767
Probable space group: C 2 2 21
;
_chemical_formula_sum "Si O2"
_cell_formula_units_Z 60
_cell_length_a 16.732175
_cell_length_b 8.668708
_cell_length_c 21.878410
_cell_angle_alpha 90.000000
_cell_angle_beta 90.000000
_cell_angle_gamma 90.000000
_cell_volume 3173.383280
_symmetry_space_group_name_H-M "C 2 2 21"
_symmetry_group_IT_number 20
_symmetry_cell_setting 'orthorhombic'
loop_
_space_group_symop_operation_xyz
x,y,z
-x,-y,1/2+z
x,-y,-z
-x,y,1/2-z
1/2+x,1/2+y,z
1/2-x,1/2-y,1/2+z
1/2+x,1/2-y,-z
1/2-x,1/2+y,1/2-z
loop_
_atom_site_type_symbol
_atom_site_label
_atom_site_fract_x
_atom_site_fract_y
_atom_site_fract_z
Si Si1 0.918821 0.715724 0.284714
Si Si2 0.956265 0.000000 0.000000
Si Si3 0.123879 0.416737 0.592724
Si Si4 0.846766 0.727152 0.966775
Si Si5 0.191832 0.534063 0.812727
Si Si6 0.778073 0.326322 0.790019
Si Si7 0.037576 0.763364 0.087640
Si Si8 0.304726 0.895399 0.557754
O O1 0.897667 0.533907 0.300818
O O2 0.847813 0.780142 0.241580
O O3 0.923695 0.814840 0.347431
O O4 0.000000 0.723885 0.250000
O O5 0.901880 0.120432 0.037458
O O6 0.012163 0.911634 0.048635
O O7 0.162717 0.324254 0.536838
O O8 0.112667 0.595955 0.574974
O O9 0.183247 0.404175 0.650092
O O10 0.036206 0.347788 0.605061
O O11 0.757745 0.754689 0.942017
O O12 0.248448 0.453740 0.760392
O O13 0.202120 0.718491 0.806246
O O14 0.215705 0.491095 0.881423
O O15 0.105072 0.667641 0.051264
O O16 0.285170 0.000000 0.500000
#
# Coordination Sequence:
#
# PCOD8158767 Si02
#       8
#     8   4   8   8   8   8   8   8
#     4   9  18  36  61  81 114 154 195 228 294 350
#     4  10  22  38  58  84 124 144 200 242 282 348
#     4  10  21  37  64  82 118 155 202 229 295 356
#     4  10  22  37  58  90 110 158 195 239 286 349
#     4   9  22  35  59  88 109 155 194 237 290 347
#     4  10  20  37  62  84 117 150 196 244 283 349
#     4  10  21  38  57  88 113 159 190 237 297 347
#     4  11  22  36  59  83 120 148 195 240 295 340
#
# _framework density 18.907266
#
# number of rings (size 3 to 8) (size 9 to 14) (size 15 to 20)
#    0.800    1.333    2.000    0.800    7.467    1.067 
#    0.000    1.333    0.000    0.800    0.000    0.000 
#    0.000    0.000    0.000    0.000    0.000    0.000 
#
# Total GULP energy -371654.207595 kJ/mol
# GULP energy per Si atom -12388.473587 kJ/mol
# Density = 1.886423 g / cm^3
# Si number density = 18.907266 Si / 1000 Ang^3
#
#
#
# Elastic Constant Matrix: (Units=GPa)
#
#
# Indices 1 2 3 4 5 6 
#
# 1 34.1090 13.3331 4.0855 0.0000 0.0000 0.0000
# 2 13.3331 88.0500 31.8852 0.0000 0.0000 0.0000
# 3 4.0855 31.8852 112.1620 0.0000 0.0000 0.0000
# 4 0.0000 0.0000 0.0000 18.6118 0.0000 0.0000
# 5 0.0000 0.0000 0.0000 0.0000 5.9349 0.0000
# 6 0.0000 0.0000 0.0000 0.0000 0.0000 17.4594
#
#
#
# Elastic Compliance Matrix: (Units=1/GPa)
#
#
# Indices 1 2 3 4 5 6 
#
# 1 0.031168 -0.004803 0.000230 0.000000 0.000000 0.000000
# 2 -0.004803 0.013401 -0.003635 0.000000 0.000000 0.000000
# 3 0.000230 -0.003635 0.009941 0.000000 0.000000 0.000000
# 4 0.000000 0.000000 0.000000 0.053729 0.000000 0.000000
# 5 0.000000 0.000000 0.000000 0.000000 0.168496 0.000000
# 6 0.000000 0.000000 0.000000 0.000000 0.000000 0.057276
#
#
# Mechanical properties :
#
#
# Convention : Reuss Voigt Hill
#
# Bulk Modulus (GPa) = 26.25085 36.99206 31.62146
# Shear Modulus (GPa) = 13.76947 20.73570 17.25258
#
# Velocity S-wave (km/s) = 2.70156 3.31525 3.02401
# Velocity P-wave (km/s) = 4.86265 5.85337 5.38086
#
# Compressibility (1/GPa) = 0.03809400
#
# Stress axis : x y z
#
# Youngs Moduli (GPa) = 32.08457 74.62327 100.59832
#
# Poissons Ratio (x) = 0.35841 -0.02315
# Poissons Ratio (y) = 0.15410 0.36563
# Poissons Ratio (z) = -0.00738 0.27122
#
# Static dielectric constant tensor:
#      x y z
#    x 3.351070 0.000000 0.000000 
#    y 0.000000 3.240030 0.000000 
#    z 0.000000 0.000000 3.716700 
# 
# 
# High freq. dielectric constant tensor:
#      x y z
#    x 1.722320 0.000000 0.000000 
#    y 0.000000 1.708320 0.000000 
#    z 0.000000 0.000000 1.752880 
# 
# From -- ./inp_files/29330.got.cif
#   From: 2010.03.12/outbox.cif.g09.slc.cpg/sg20_15_cif.got.tgz:29330.got - 2010.04.14 01:38:04.
