data_PCOD8158883
_publ_section_title
;
Structure prediction by ZEFSAII (Michael W. Deem and Ramdas Pophale) SiO2 
 PCOD8158883
Probable space group: C 2 2 21
;
_chemical_formula_sum "Si O2"
_cell_formula_units_Z 64
_cell_length_a 21.089718
_cell_length_b 8.546663
_cell_length_c 16.657489
_cell_angle_alpha 90.000000
_cell_angle_beta 90.000000
_cell_angle_gamma 90.000000
_cell_volume 3002.457631
_symmetry_space_group_name_H-M "C 2 2 21"
_symmetry_group_IT_number 20
_symmetry_cell_setting 'orthorhombic'
loop_
_space_group_symop_operation_xyz
x,y,z
-x,-y,1/2+z
x,-y,-z
-x,y,1/2-z
1/2+x,1/2+y,z
1/2-x,1/2-y,1/2+z
1/2+x,1/2-y,-z
1/2-x,1/2+y,1/2-z
loop_
_atom_site_type_symbol
_atom_site_label
_atom_site_fract_x
_atom_site_fract_y
_atom_site_fract_z
Si Si1 0.123524 0.777865 0.309862
Si Si2 0.841456 0.433503 0.671959
Si Si3 0.229652 0.912913 0.416642
Si Si4 0.542948 0.852318 0.179451
Si Si5 0.961914 0.432469 0.923508
Si Si6 0.320752 0.368979 0.563592
Si Si7 0.077274 0.765809 0.050288
Si Si8 0.911723 0.013696 0.323936
O O1 0.167195 0.671161 0.252030
O O2 0.163486 0.877400 0.373366
O O3 0.078015 0.655564 0.355621
O O4 0.084895 0.903195 0.255166
O O5 0.771928 0.481602 0.642372
O O6 0.884875 0.585379 0.688210
O O7 0.874444 0.333834 0.603455
O O8 0.263063 0.748854 0.433276
O O9 0.215426 0.000000 0.500000
O O10 0.500000 0.921677 0.250000
O O11 0.544280 0.664729 0.187338
O O12 0.505340 0.921722 0.104087
O O13 0.009997 0.310537 0.963799
O O14 0.920872 0.500000 0.000000
O O15 0.299859 0.500000 0.500000
O O16 0.386976 0.286287 0.535017
O O17 0.338410 0.439051 0.651759
O O18 0.062514 0.926593 0.096726
#
# Coordination Sequence:
#
# PCOD8158883 Si02
#       8
#     8   8   8   8   8   8   8   8
#     4  11  27  46  60  99 141 184 221 273 356 413
#     4  10  21  41  68  94 132 173 230 280 333 397
#     4  12  25  44  69  93 132 185 232 284 328 410
#     4  11  21  38  70 104 127 169 222 276 340 411
#     4  11  24  43  67  95 135 184 220 276 345 415
#     4  10  20  39  63 102 125 162 226 288 336 371
#     4   9  20  37  69  99 137 160 217 283 345 387
#     4  10  22  38  65 101 135 166 211 285 339 408
#
# _framework density 21.31587
#
# number of rings (size 3 to 8) (size 9 to 14) (size 15 to 20)
#    0.000    1.500    3.750    0.750    5.250    0.500 
#    2.250    4.375    0.000    0.000    0.000    0.000 
#    0.000    0.000    0.000    0.000    0.000    0.000 
#
# Total GULP energy -396568.092572 kJ/mol
# GULP energy per Si atom -12392.752893 kJ/mol
# Density = 2.126735 g / cm^3
# Si number density = 21.315870 Si / 1000 Ang^3
#
#
#
# Elastic Constant Matrix: (Units=GPa)
#
#
# Indices 1 2 3 4 5 6 
#
# 1 59.5153 23.6419 31.0568 0.0000 0.0000 0.0000
# 2 23.6419 111.3197 34.1723 0.0000 0.0000 0.0000
# 3 31.0568 34.1723 92.1044 0.0000 0.0000 0.0000
# 4 0.0000 0.0000 0.0000 23.8293 0.0000 0.0000
# 5 0.0000 0.0000 0.0000 0.0000 25.1124 0.0000
# 6 0.0000 0.0000 0.0000 0.0000 0.0000 23.1486
#
#
#
# Elastic Compliance Matrix: (Units=1/GPa)
#
#
# Indices 1 2 3 4 5 6 
#
# 1 0.021029 -0.002584 -0.006132 0.000000 0.000000 0.000000
# 2 -0.002584 0.010455 -0.003008 0.000000 0.000000 0.000000
# 3 -0.006132 -0.003008 0.014041 0.000000 0.000000 0.000000
# 4 0.000000 0.000000 0.000000 0.041965 0.000000 0.000000
# 5 0.000000 0.000000 0.000000 0.000000 0.039821 0.000000
# 6 0.000000 0.000000 0.000000 0.000000 0.000000 0.043199
#
#
# Mechanical properties :
#
#
# Convention : Reuss Voigt Hill
#
# Bulk Modulus (GPa) = 45.29496 48.96459 47.12977
# Shear Modulus (GPa) = 24.83653 26.02262 25.42958
#
# Velocity S-wave (km/s) = 3.41716 3.49780 3.45771
# Velocity P-wave (km/s) = 6.07164 6.27165 6.17246
#
# Compressibility (1/GPa) = 0.02207751
#
# Stress axis : x y z
#
# Youngs Moduli (GPa) = 47.55425 95.64632 71.22047
#
# Poissons Ratio (x) = 0.24711 0.43673
# Poissons Ratio (y) = 0.12286 0.21422
# Poissons Ratio (z) = 0.29161 0.28769
#
# Static dielectric constant tensor:
#      x y z
#    x 3.387380 0.000000 0.000000 
#    y 0.000000 4.103720 0.000000 
#    z 0.000000 0.000000 4.035680 
# 
# 
# High freq. dielectric constant tensor:
#      x y z
#    x 1.793590 0.000000 0.000000 
#    y 0.000000 1.855140 0.000000 
#    z 0.000000 0.000000 1.847980 
# 
# From -- ./inp_files/25516.got.cif
#   From: 2010.03.12/outbox.cif.g09.slc.cpg/sg20_13_cif.got.tgz:25516.got - 2010.04.14 01:38:04.
