data_PCOD8158671
_publ_section_title
;
Structure prediction by ZEFSAII (Michael W. Deem and Ramdas Pophale) SiO2 
 PCOD8158671
Probable space group: C 2 2 21
;
_chemical_formula_sum "Si O2"
_cell_formula_units_Z 56
_cell_length_a 6.117655
_cell_length_b 31.384300
_cell_length_c 14.118481
_cell_angle_alpha 90.000000
_cell_angle_beta 90.000000
_cell_angle_gamma 90.000000
_cell_volume 2710.724630
_symmetry_space_group_name_H-M "C 2 2 21"
_symmetry_group_IT_number 20
_symmetry_cell_setting 'orthorhombic'
loop_
_space_group_symop_operation_xyz
x,y,z
-x,-y,1/2+z
x,-y,-z
-x,y,1/2-z
1/2+x,1/2+y,z
1/2-x,1/2-y,1/2+z
1/2+x,1/2-y,-z
1/2-x,1/2+y,1/2-z
loop_
_atom_site_type_symbol
_atom_site_label
_atom_site_fract_x
_atom_site_fract_y
_atom_site_fract_z
Si Si1 0.266830 0.344666 0.918241
Si Si2 0.948464 0.701341 0.948215
Si Si3 0.881850 0.379595 0.154181
Si Si4 0.500000 0.814835 0.750000
Si Si5 0.647297 0.282381 0.880450
Si Si6 0.923042 0.957229 0.352767
Si Si7 0.699405 0.927847 0.017888
Si Si8 0.115016 0.500000 0.500000
O O1 0.088040 0.344444 0.834283
O O2 0.494590 0.324215 0.885081
O O3 0.169185 0.318333 0.006663
O O4 0.307166 0.394395 0.944124
O O5 0.008496 0.738884 0.874419
O O6 0.809745 0.664733 0.894449
O O7 0.793073 0.721687 0.026280
O O8 0.674008 0.410189 0.167209
O O9 0.000000 0.367322 0.250000
O O10 0.062561 0.402040 0.092619
O O11 0.300694 0.785483 0.787800
O O12 0.000000 0.975832 0.250000
O O13 0.119763 0.954515 0.426416
O O14 0.751352 0.988431 0.405007
O O15 0.537072 0.960799 0.965706
#
# Coordination Sequence:
#
# PCOD8158671 Si02
#       8
#     8   8   8   4   8   8   8   4
#     4  10  21  40  62  84 122 167 209 258 315 372
#     4  10  21  35  59  86 125 162 212 256 313 371
#     4  10  20  36  57  93 125 160 202 262 309 373
#     4  10  24  38  60  86 118 170 214 264 318 366
#     4  11  20  40  59  87 121 167 212 263 315 369
#     4  11  21  40  68  95 133 171 204 260 331 389
#     4  10  21  41  64  91 126 165 204 251 319 386
#     4  10  24  40  66 100 130 162 210 262 316 396
#
# _framework density 20.658681999999999
#
# number of rings (size 3 to 8) (size 9 to 14) (size 15 to 20)
#    0.000    1.714    2.857    1.714    0.000    2.286 
#    0.000    2.857    1.571    0.000    0.000    0.000 
#    0.000    0.000    0.000    0.000    0.000    0.000 
#
# Total GULP energy -347179.497254 kJ/mol
# GULP energy per Si atom -12399.267759 kJ/mol
# Density = 2.061166 g / cm^3
# Si number density = 20.658682 Si / 1000 Ang^3
#
#
#
# Elastic Constant Matrix: (Units=GPa)
#
#
# Indices 1 2 3 4 5 6 
#
# 1 91.3722 45.4948 30.3262 0.0000 0.0000 0.0000
# 2 45.4948 107.9285 51.5564 0.0000 0.0000 0.0000
# 3 30.3262 51.5564 94.0483 0.0000 0.0000 0.0000
# 4 0.0000 0.0000 0.0000 30.3855 0.0000 0.0000
# 5 0.0000 0.0000 0.0000 0.0000 19.6532 0.0000
# 6 0.0000 0.0000 0.0000 0.0000 0.0000 32.4721
#
#
#
# Elastic Compliance Matrix: (Units=1/GPa)
#
#
# Indices 1 2 3 4 5 6 
#
# 1 0.014059 -0.005095 -0.001740 0.000000 0.000000 0.000000
# 2 -0.005095 0.014399 -0.006250 0.000000 0.000000 0.000000
# 3 -0.001740 -0.006250 0.014620 0.000000 0.000000 0.000000
# 4 0.000000 0.000000 0.000000 0.032910 0.000000 0.000000
# 5 0.000000 0.000000 0.000000 0.000000 0.050882 0.000000
# 6 0.000000 0.000000 0.000000 0.000000 0.000000 0.030796
#
#
# Mechanical properties :
#
#
# Convention : Reuss Voigt Hill
#
# Bulk Modulus (GPa) = 59.14810 60.90042 60.02426
# Shear Modulus (GPa) = 26.38903 27.56693 26.97798
#
# Velocity S-wave (km/s) = 3.57793 3.65691 3.61763
# Velocity P-wave (km/s) = 6.76476 6.88287 6.82407
#
# Compressibility (1/GPa) = 0.01690671
#
# Stress axis : x y z
#
# Youngs Moduli (GPa) = 71.13107 69.45063 68.39740
#
# Poissons Ratio (x) = 0.35383 0.11904
# Poissons Ratio (y) = 0.36239 0.42751
# Poissons Ratio (z) = 0.12379 0.43410
#
# Static dielectric constant tensor:
#      x y z
#    x 3.770550 0.000000 0.000000 
#    y 0.000000 3.917790 0.000000 
#    z 0.000000 0.000000 3.680220 
# 
# 
# High freq. dielectric constant tensor:
#      x y z
#    x 1.813040 0.000000 0.000000 
#    y 0.000000 1.798100 0.000000 
#    z 0.000000 0.000000 1.801490 
# 
# From -- ./inp_files/18028.got.cif
#   From: 2010.03.12/outbox.cif.g09.slc.cpg/sg20_10_cif.got.tgz:18028.got - 2010.04.14 01:38:04.
