data_PCOD8158615
_publ_section_title
;
Structure prediction by ZEFSAII (Michael W. Deem and Ramdas Pophale) SiO2 
 PCOD8158615
Probable space group: C 2 2 21
;
_chemical_formula_sum "Si O2"
_cell_formula_units_Z 48
_cell_length_a 23.002721
_cell_length_b 5.112367
_cell_length_c 24.331136
_cell_angle_alpha 90.000000
_cell_angle_beta 90.000000
_cell_angle_gamma 90.000000
_cell_volume 2861.301490
_symmetry_space_group_name_H-M "C 2 2 21"
_symmetry_group_IT_number 20
_symmetry_cell_setting 'orthorhombic'
loop_
_space_group_symop_operation_xyz
x,y,z
-x,-y,1/2+z
x,-y,-z
-x,y,1/2-z
1/2+x,1/2+y,z
1/2-x,1/2-y,1/2+z
1/2+x,1/2-y,-z
1/2-x,1/2+y,1/2-z
loop_
_atom_site_type_symbol
_atom_site_label
_atom_site_fract_x
_atom_site_fract_y
_atom_site_fract_z
Si Si1 0.453373 0.973464 0.388011
Si Si2 0.044795 0.500757 0.703025
Si Si3 0.117354 0.006947 0.276439
Si Si4 0.351214 0.704654 0.340625
Si Si5 0.910126 0.013737 0.562100
Si Si6 0.240612 0.144020 0.714560
O O1 0.512997 0.013969 0.355481
O O2 0.399126 0.937919 0.345197
O O3 0.457456 0.715256 0.426318
O O4 0.442398 0.215295 0.427886
O O5 0.069363 0.214909 0.715972
O O6 0.000000 0.588591 0.750000
O O7 0.095047 0.718165 0.699624
O O8 0.176992 0.933535 0.308565
O O9 0.133230 0.029089 0.212188
O O10 0.355642 0.525813 0.395822
O O11 0.286256 0.821177 0.335553
O O12 0.886549 0.000000 0.500000
O O13 0.233899 0.417183 0.746668
#
# Coordination Sequence:
#
# PCOD8158615 Si02
#       6
#     8   8   8   8   8   8
#     4  10  21  33  52  77 106 134 171 220 266 307
#     4  12  20  32  49  73 109 142 173 206 248 316
#     4  11  21  32  49  76 108 149 172 196 255 322
#     4   9  21  33  52  75 109 135 174 214 261 307
#     4  10  20  35  54  78 105 129 178 224 278 309
#     4  10  21  33  49  72 108 144 174 205 250 316
#
# _framework density 16.775582
#
# number of rings (size 3 to 8) (size 9 to 14) (size 15 to 20)
#    1.000    0.667    1.667    5.000    4.667    0.000 
#    0.000    0.000    0.000    0.000    0.000    4.667 
#    0.000    0.000    0.000    0.000    0.000    0.000 
#
# Total GULP energy -297472.931805 kJ/mol
# GULP energy per Si atom -12394.705492 kJ/mol
# Density = 1.673740 g / cm^3
# Si number density = 16.775582 Si / 1000 Ang^3
#
#
#
# Elastic Constant Matrix: (Units=GPa)
#
#
# Indices 1 2 3 4 5 6 
#
# 1 83.4361 18.7463 36.8230 0.0000 0.0000 0.0000
# 2 18.7463 95.6036 24.9322 0.0000 0.0000 0.0000
# 3 36.8230 24.9322 84.0385 0.0000 0.0000 0.0000
# 4 0.0000 0.0000 0.0000 18.6176 0.0000 0.0000
# 5 0.0000 0.0000 0.0000 0.0000 14.2003 0.0000
# 6 0.0000 0.0000 0.0000 0.0000 0.0000 26.2564
#
#
#
# Elastic Compliance Matrix: (Units=1/GPa)
#
#
# Indices 1 2 3 4 5 6 
#
# 1 0.015013 -0.001331 -0.006183 0.000000 0.000000 0.000000
# 2 -0.001331 0.011455 -0.002815 0.000000 0.000000 0.000000
# 3 -0.006183 -0.002815 0.015444 0.000000 0.000000 0.000000
# 4 0.000000 0.000000 0.000000 0.053712 0.000000 0.000000
# 5 0.000000 0.000000 0.000000 0.000000 0.070421 0.000000
# 6 0.000000 0.000000 0.000000 0.000000 0.000000 0.038086
#
#
# Mechanical properties :
#
#
# Convention : Reuss Voigt Hill
#
# Bulk Modulus (GPa) = 47.05310 47.12014 47.08662
# Shear Modulus (GPa) = 21.56331 23.98665 22.77498
#
# Velocity S-wave (km/s) = 3.58914 3.78544 3.68860
# Velocity P-wave (km/s) = 6.72944 6.87427 6.80224
#
# Compressibility (1/GPa) = 0.02125259
#
# Stress axis : x y z
#
# Youngs Moduli (GPa) = 66.60784 87.29776 64.75075
#
# Poissons Ratio (x) = 0.11622 0.40038
# Poissons Ratio (y) = 0.08868 0.18228
# Poissons Ratio (z) = 0.41186 0.24575
#
# Static dielectric constant tensor:
#      x y z
#    x 3.214320 0.000000 0.000000 
#    y 0.000000 3.246250 0.000000 
#    z 0.000000 0.000000 2.803850 
# 
# 
# High freq. dielectric constant tensor:
#      x y z
#    x 1.632510 0.000000 0.000000 
#    y 0.000000 1.668370 0.000000 
#    z 0.000000 0.000000 1.603250 
# 
# From -- ./inp_files/29498.got.cif
#   From: 2010.03.12/outbox.cif.g09.slc.cpg/sg20_15_cif.got.tgz:29498.got - 2010.04.14 01:38:04.
