data_PCOD8158135
_publ_section_title
;
Structure prediction by ZEFSAII (Michael W. Deem and Ramdas Pophale) SiO2 
 PCOD8158135
Probable space group: C 2 2 21
;
_chemical_formula_sum "Si O2"
_cell_formula_units_Z 60
_cell_length_a 10.637397
_cell_length_b 19.774847
_cell_length_c 11.727513
_cell_angle_alpha 90.000000
_cell_angle_beta 90.000000
_cell_angle_gamma 90.000000
_cell_volume 2466.916348
_symmetry_space_group_name_H-M "C 2 2 21"
_symmetry_group_IT_number 20
_symmetry_cell_setting 'orthorhombic'
loop_
_space_group_symop_operation_xyz
x,y,z
-x,-y,1/2+z
x,-y,-z
-x,y,1/2-z
1/2+x,1/2+y,z
1/2-x,1/2-y,1/2+z
1/2+x,1/2-y,-z
1/2-x,1/2+y,1/2-z
loop_
_atom_site_type_symbol
_atom_site_label
_atom_site_fract_x
_atom_site_fract_y
_atom_site_fract_z
Si Si1 0.954172 0.660678 0.073074
Si Si2 0.445857 0.301275 0.506658
Si Si3 0.931391 0.548713 0.907564
Si Si4 0.247679 0.782174 0.176123
Si Si5 0.302662 0.015491 0.685455
Si Si6 0.399847 0.378818 0.160814
Si Si7 0.189682 0.365903 0.782901
Si Si8 0.500000 0.748648 0.250000
O O1 0.829137 0.649676 0.148435
O O2 0.985201 0.737738 0.050038
O O3 0.061300 0.625962 0.148072
O O4 0.942325 0.625016 0.951155
O O5 0.304895 0.305599 0.448823
O O6 0.532023 0.362183 0.459213
O O7 0.444124 0.297750 0.644855
O O8 0.832043 0.550463 0.805986
O O9 0.067094 0.515917 0.882399
O O10 0.867707 0.500000 0.000000
O O11 0.160875 0.812089 0.277373
O O12 0.262320 0.699730 0.170044
O O13 0.393174 0.800163 0.202161
O O14 0.200539 0.063937 0.626255
O O15 0.245344 0.939498 0.699432
O O16 0.500000 0.409667 0.250000
#
# Coordination Sequence:
#
# PCOD8158135 Si02
#       8
#     8   8   8   8   8   8   8   4
#     4  10  18  34  64  93 134 176 224 282 365 419
#     4  10  24  44  71  98 142 190 240 304 361 441
#     4  11  20  35  58 104 141 166 223 304 362 412
#     4  10  24  44  68  99 141 183 240 300 360 434
#     4  11  23  36  65 100 137 177 240 289 357 446
#     4  10  23  47  67  97 143 197 238 298 376 430
#     4  10  18  38  62  94 131 187 229 278 351 435
#     4  12  28  42  70 114 132 186 252 302 374 434
#
# _framework density 24.321863
#
# number of rings (size 3 to 8) (size 9 to 14) (size 15 to 20)
#    0.000    1.600    4.000    0.800    5.600    1.067 
#    3.600    0.000    0.000    0.800    0.000    0.000 
#    0.000    0.000    0.000    0.000    0.000    0.000 
#
# Total GULP energy -371728.371945 kJ/mol
# GULP energy per Si atom -12390.945731 kJ/mol
# Density = 2.426651 g / cm^3
# Si number density = 24.321863 Si / 1000 Ang^3
#
#
#
# Elastic Constant Matrix: (Units=GPa)
#
#
# Indices 1 2 3 4 5 6 
#
# 1 91.9317 18.4808 30.4858 0.0000 0.0000 0.0000
# 2 18.4808 99.3301 13.6088 0.0000 0.0000 0.0000
# 3 30.4858 13.6088 141.1288 0.0000 0.0000 0.0000
# 4 0.0000 0.0000 0.0000 29.1651 0.0000 0.0000
# 5 0.0000 0.0000 0.0000 0.0000 13.7327 0.0000
# 6 0.0000 0.0000 0.0000 0.0000 0.0000 6.9834
#
#
#
# Elastic Compliance Matrix: (Units=1/GPa)
#
#
# Indices 1 2 3 4 5 6 
#
# 1 0.012065 -0.001913 -0.002422 0.000000 0.000000 0.000000
# 2 -0.001913 0.010506 -0.000600 0.000000 0.000000 0.000000
# 3 -0.002422 -0.000600 0.007667 0.000000 0.000000 0.000000
# 4 0.000000 0.000000 0.000000 0.034288 0.000000 0.000000
# 5 0.000000 0.000000 0.000000 0.000000 0.072819 0.000000
# 6 0.000000 0.000000 0.000000 0.000000 0.000000 0.143197
#
#
# Mechanical properties :
#
#
# Convention : Reuss Voigt Hill
#
# Bulk Modulus (GPa) = 49.09580 50.83795 49.96688
# Shear Modulus (GPa) = 16.82371 27.96392 22.39382
#
# Velocity S-wave (km/s) = 2.63289 3.39447 3.03764
# Velocity P-wave (km/s) = 5.42886 6.02584 5.73512
#
# Compressibility (1/GPa) = 0.02036834
#
# Stress axis : x y z
#
# Youngs Moduli (GPa) = 82.88227 95.18788 130.43408
#
# Poissons Ratio (x) = 0.18209 0.31589
# Poissons Ratio (y) = 0.15855 0.07823
# Poissons Ratio (z) = 0.20073 0.05709
#
# Static dielectric constant tensor:
#      x y z
#    x 4.278760 0.000000 0.000000 
#    y 0.000000 4.087070 0.000000 
#    z 0.000000 0.000000 4.571610 
# 
# 
# High freq. dielectric constant tensor:
#      x y z
#    x 1.941450 0.000000 0.000000 
#    y 0.000000 1.954140 0.000000 
#    z 0.000000 0.000000 1.973140 
# 
# From -- ./inp_files/14373.got.cif
#   From: 2010.03.12/outbox.cif.g09.slc.cpg/sg20_8_cif.got.tgz:14373.got - 2010.04.14 01:38:04.
