data_PCOD8158160
_publ_section_title
;
Structure prediction by ZEFSAII (Michael W. Deem and Ramdas Pophale) SiO2 
 PCOD8158160
Probable space group: C 2 2 21
;
_chemical_formula_sum "Si O2"
_cell_formula_units_Z 44
_cell_length_a 30.571240
_cell_length_b 8.290692
_cell_length_c 7.887444
_cell_angle_alpha 90.000000
_cell_angle_beta 90.000000
_cell_angle_gamma 90.000000
_cell_volume 1999.125803
_symmetry_space_group_name_H-M "C 2 2 21"
_symmetry_group_IT_number 20
_symmetry_cell_setting 'orthorhombic'
loop_
_space_group_symop_operation_xyz
x,y,z
-x,-y,1/2+z
x,-y,-z
-x,y,1/2-z
1/2+x,1/2+y,z
1/2-x,1/2-y,1/2+z
1/2+x,1/2-y,-z
1/2-x,1/2+y,1/2-z
loop_
_atom_site_type_symbol
_atom_site_label
_atom_site_fract_x
_atom_site_fract_y
_atom_site_fract_z
Si Si1 0.148311 0.314999 0.006213
Si Si2 0.500000 0.101419 0.250000
Si Si3 0.201351 0.693050 0.307303
Si Si4 0.532339 0.682050 0.476688
Si Si5 0.946009 0.686490 0.642233
Si Si6 0.294759 0.189853 0.812780
O O1 0.163930 0.241886 0.824548
O O2 0.162348 0.500000 0.000000
O O3 0.096385 0.297415 0.026041
O O4 0.172559 0.236309 0.169685
O O5 0.534157 0.212781 0.352811
O O6 0.531840 0.992186 0.133678
O O7 0.246318 0.758107 0.233456
O O8 0.202295 0.501499 0.314649
O O9 0.192906 0.758316 0.499097
O O10 0.548600 0.500000 0.500000
O O11 0.563734 0.769620 0.338936
O O12 0.481260 0.682694 0.421158
#
# Coordination Sequence:
#
# PCOD8158160 Si02
#       6
#     8   4   8   8   8   8
#     4  10  20  37  58  87 123 148 197 258 293 345
#     4  10  18  36  60  90 110 160 206 242 300 364
#     4  10  20  36  60  85 115 158 197 242 297 357
#     4  10  20  37  61  84 120 159 194 245 311 371
#     4  10  20  37  59  84 119 154 203 253 296 366
#     4  10  20  36  60  85 116 157 199 239 300 358
#
# _framework density 22.009618
#
# number of rings (size 3 to 8) (size 9 to 14) (size 15 to 20)
#    0.000    2.182    1.818    4.364    0.000    0.000 
#   16.364    1.818    4.000    2.182    0.000    0.000 
#    0.000    0.000    0.000    0.000    0.000    0.000 
#
# Total GULP energy -272586.791814 kJ/mol
# GULP energy per Si atom -12390.308719 kJ/mol
# Density = 2.195952 g / cm^3
# Si number density = 22.009618 Si / 1000 Ang^3
#
#
#
# Elastic Constant Matrix: (Units=GPa)
#
#
# Indices 1 2 3 4 5 6 
#
# 1 115.5115 0.4536 59.1516 0.0000 0.0000 0.0000
# 2 0.4536 63.9623 22.3674 0.0000 0.0000 0.0000
# 3 59.1516 22.3674 193.9984 0.0000 0.0000 0.0000
# 4 0.0000 0.0000 0.0000 -3.2269 0.0000 0.0000
# 5 0.0000 0.0000 0.0000 0.0000 27.3321 0.0000
# 6 0.0000 0.0000 0.0000 0.0000 0.0000 -75.0103
#
#
#
# Elastic Compliance Matrix: (Units=1/GPa)
#
#
# Indices 1 2 3 4 5 6 
#
# 1 0.010329 0.001071 -0.003273 0.000000 0.000000 0.000000
# 2 0.001071 0.016402 -0.002218 0.000000 0.000000 0.000000
# 3 -0.003273 -0.002218 0.006408 0.000000 0.000000 0.000000
# 4 0.000000 0.000000 0.000000 -0.309894 0.000000 0.000000
# 5 0.000000 0.000000 0.000000 0.000000 0.036587 0.000000
# 6 0.000000 0.000000 0.000000 0.000000 0.000000 -0.013331
#
#
# Mechanical properties :
#
#
# Convention : Reuss Voigt Hill
#
# Bulk Modulus (GPa) = 41.15115 59.71304 50.43210
# Shear Modulus (GPa) = -21.13626 9.25229 -5.94199
#
# Velocity S-wave (km/s) = -3.10226 2.05253 -1.64487
# Velocity P-wave (km/s) = 2.43011 5.72770 4.39954
#
# Compressibility (1/GPa) = 0.02430066
#
# Stress axis : x y z
#
# Youngs Moduli (GPa) = 96.81544 60.96763 156.04737
#
# Poissons Ratio (x) = -0.06531 0.51073
# Poissons Ratio (y) = -0.10372 0.34607
# Poissons Ratio (z) = 0.31687 0.13521
#
# Static dielectric constant tensor:
#      x y z
#    x 3.877670 0.000000 0.000000 
#    y 0.000000 3.624220 0.000000 
#    z 0.000000 0.000000 4.879780 
# 
# 
# High freq. dielectric constant tensor:
#      x y z
#    x 1.832840 0.000000 0.000000 
#    y 0.000000 1.829300 0.000000 
#    z 0.000000 0.000000 1.903300 
# 
# From -- ./inp_files/11367.got.cif
#   From: 2010.03.12/outbox.cif.g09.slc.cpg/sg20_6_cif.got.tgz:11367.got - 2010.04.14 01:38:04.
