data_PCOD8158981
_publ_section_title
;
Structure prediction by ZEFSAII (Michael W. Deem and Ramdas Pophale) SiO2 
 PCOD8158981
Probable space group: C 2 2 21
;
_chemical_formula_sum "Si O2"
_cell_formula_units_Z 48
_cell_length_a 8.784209
_cell_length_b 21.197460
_cell_length_c 12.735855
_cell_angle_alpha 90.000000
_cell_angle_beta 90.000000
_cell_angle_gamma 90.000000
_cell_volume 2371.453376
_symmetry_space_group_name_H-M "C 2 2 21"
_symmetry_group_IT_number 20
_symmetry_cell_setting 'orthorhombic'
loop_
_space_group_symop_operation_xyz
x,y,z
-x,-y,1/2+z
x,-y,-z
-x,y,1/2-z
1/2+x,1/2+y,z
1/2-x,1/2-y,1/2+z
1/2+x,1/2-y,-z
1/2-x,1/2+y,1/2-z
loop_
_atom_site_type_symbol
_atom_site_label
_atom_site_fract_x
_atom_site_fract_y
_atom_site_fract_z
Si Si1 0.255775 0.507588 0.874913
Si Si2 0.916626 0.247584 0.956435
Si Si3 0.500000 0.574390 0.250000
Si Si4 0.500000 0.944587 0.750000
Si Si5 0.263108 0.251539 0.352476
Si Si6 0.266297 0.849265 0.826034
Si Si7 0.659181 0.641807 0.700690
O O1 0.393062 0.468258 0.823060
O O2 0.092864 0.484900 0.834619
O O3 0.255261 0.579888 0.837338
O O4 0.268589 0.500000 0.000000
O O5 0.807769 0.306939 0.926243
O O6 0.858350 0.184636 0.901401
O O7 0.093344 0.255577 0.930795
O O8 0.892546 0.242406 0.081829
O O9 0.401204 0.619118 0.328337
O O10 0.388646 0.904441 0.822299
O O11 0.284561 0.193378 0.276195
O O12 0.253155 0.317841 0.290429
O O13 0.500000 0.620752 0.750000
#
# Coordination Sequence:
#
# PCOD8158981 Si02
#       7
#     8   8   4   4   8   8   8
#     4  11  24  44  67  92 125 177 211 265 323 384
#     4  10  21  36  63  88 120 166 202 257 330 380
#     4  10  24  38  66  92 122 164 220 264 308 400
#     4  10  22  44  62  86 128 164 216 258 322 378
#     4  10  21  38  62  89 126 163 202 270 321 374
#     4  10  20  41  59  88 124 160 207 268 316 380
#     4   9  20  41  59  88 128 157 204 260 312 377
#
# _framework density 20.240750999999999
#
# number of rings (size 3 to 8) (size 9 to 14) (size 15 to 20)
#    0.000    2.000    2.500    1.000    7.000    1.333 
#    6.000    1.667    0.000    0.000    0.000    0.000 
#    0.000    0.000    0.000    0.000    0.000    0.000 
#
# Total GULP energy -297510.940695 kJ/mol
# GULP energy per Si atom -12396.289196 kJ/mol
# Density = 2.019468 g / cm^3
# Si number density = 20.240751 Si / 1000 Ang^3
#
#
#
# Elastic Constant Matrix: (Units=GPa)
#
#
# Indices 1 2 3 4 5 6 
#
# 1 86.1029 48.0574 29.7698 0.0000 0.0000 0.0000
# 2 48.0574 125.8884 35.0038 0.0000 0.0000 0.0000
# 3 29.7698 35.0038 99.5757 0.0000 0.0000 0.0000
# 4 0.0000 0.0000 0.0000 6.5470 0.0000 0.0000
# 5 0.0000 0.0000 0.0000 0.0000 34.6868 0.0000
# 6 0.0000 0.0000 0.0000 0.0000 0.0000 12.9985
#
#
#
# Elastic Compliance Matrix: (Units=1/GPa)
#
#
# Indices 1 2 3 4 5 6 
#
# 1 0.015441 -0.005111 -0.002820 0.000000 0.000000 0.000000
# 2 -0.005111 0.010496 -0.002162 0.000000 0.000000 0.000000
# 3 -0.002820 -0.002162 0.011646 0.000000 0.000000 0.000000
# 4 0.000000 0.000000 0.000000 0.152743 0.000000 0.000000
# 5 0.000000 0.000000 0.000000 0.000000 0.028829 0.000000
# 6 0.000000 0.000000 0.000000 0.000000 0.000000 0.076932
#
#
# Mechanical properties :
#
#
# Convention : Reuss Voigt Hill
#
# Bulk Modulus (GPa) = 57.47712 59.69212 58.58462
# Shear Modulus (GPa) = 15.52458 24.09553 19.81005
#
# Velocity S-wave (km/s) = 2.77247 3.45403 3.13185
# Velocity P-wave (km/s) = 6.22151 6.74256 6.48727
#
# Compressibility (1/GPa) = 0.01739823
#
# Stress axis : x y z
#
# Youngs Moduli (GPa) = 64.76084 95.27860 85.86979
#
# Poissons Ratio (x) = 0.48693 0.24215
# Poissons Ratio (y) = 0.33097 0.18562
# Poissons Ratio (z) = 0.18262 0.20595
#
# Static dielectric constant tensor:
#      x y z
#    x 3.887580 0.000000 0.000000 
#    y 0.000000 3.818220 0.000000 
#    z 0.000000 0.000000 3.526930 
# 
# 
# High freq. dielectric constant tensor:
#      x y z
#    x 1.789800 0.000000 0.000000 
#    y 0.000000 1.800880 0.000000 
#    z 0.000000 0.000000 1.781480 
# 
# From -- ./inp_files/19075.got.cif
#   From: 2010.03.12/outbox.cif.g09.slc.cpg/sg20_10_cif.got.tgz:19075.got - 2010.04.14 01:38:04.
