data_PCOD8158011
_publ_section_title
;
Structure prediction by ZEFSAII (Michael W. Deem and Ramdas Pophale) SiO2 
 PCOD8158011
Probable space group: C 2 2 21
;
_chemical_formula_sum "Si O2"
_cell_formula_units_Z 60
_cell_length_a 32.571562
_cell_length_b 10.287304
_cell_length_c 8.949157
_cell_angle_alpha 90.000000
_cell_angle_beta 90.000000
_cell_angle_gamma 90.000000
_cell_volume 2998.625895
_symmetry_space_group_name_H-M "C 2 2 21"
_symmetry_group_IT_number 20
_symmetry_cell_setting 'orthorhombic'
loop_
_space_group_symop_operation_xyz
x,y,z
-x,-y,1/2+z
x,-y,-z
-x,y,1/2-z
1/2+x,1/2+y,z
1/2-x,1/2-y,1/2+z
1/2+x,1/2-y,-z
1/2-x,1/2+y,1/2-z
loop_
_atom_site_type_symbol
_atom_site_label
_atom_site_fract_x
_atom_site_fract_y
_atom_site_fract_z
Si Si1 0.387583 0.719894 0.426519
Si Si2 0.540303 0.442540 0.839458
Si Si3 0.237652 0.000000 0.000000
Si Si4 0.377320 0.885467 0.907796
Si Si5 0.393568 0.365246 0.237081
Si Si6 0.838626 0.453200 0.345355
Si Si7 0.676632 0.552548 0.255971
Si Si8 0.698642 0.197217 0.599254
O O1 0.432739 0.686693 0.364237
O O2 0.383270 0.684462 0.598607
O O3 0.378852 0.869679 0.392471
O O4 0.353579 0.635590 0.344946
O O5 0.500000 0.402368 0.750000
O O6 0.566329 0.544484 0.739668
O O7 0.528049 0.500000 0.000000
O O8 0.264341 0.134282 0.996695
O O9 0.211680 0.006661 0.848828
O O10 0.404538 0.758579 0.868762
O O11 0.355349 0.929294 0.755185
O O12 0.343714 0.841447 0.025189
O O13 0.401818 0.000000 0.000000
O O14 0.352306 0.438420 0.173840
O O15 0.817906 0.500000 0.500000
O O16 0.802964 0.371382 0.262621
O O17 0.699202 0.645353 0.380184
#
# Coordination Sequence:
#
# PCOD8158011 Si02
#       8
#     8   8   4   8   8   8   8   8
#     4   9  17  34  61  88 109 146 197 238 272 353
#     4   9  19  37  57  90 122 146 187 237 294 344
#     4  12  20  40  56  80 122 158 190 252 308 338
#     4  10  20  37  56  84 123 147 195 252 282 342
#     4  10  18  36  64  84 114 156 193 235 288 350
#     4  10  17  33  61  84 105 153 205 230 288 343
#     4  10  21  37  58  83 111 152 203 238 293 356
#     4  10  23  39  51  83 123 146 195 261 296 343
#
# _framework density 20.009166
#
# number of rings (size 3 to 8) (size 9 to 14) (size 15 to 20)
#    0.000    2.133    4.667    0.800    0.000    1.600 
#   14.400    0.000    0.000    0.800    0.000    0.000 
#    0.000    0.000    0.000    0.000    0.000    0.000 
#
# Total GULP energy -371733.549963 kJ/mol
# GULP energy per Si atom -12391.118332 kJ/mol
# Density = 1.996362 g / cm^3
# Si number density = 20.009166 Si / 1000 Ang^3
#
#
#
# Elastic Constant Matrix: (Units=GPa)
#
#
# Indices 1 2 3 4 5 6 
#
# 1 69.0285 17.9406 2.9932 0.0000 0.0000 0.0000
# 2 17.9406 92.6910 17.1118 0.0000 0.0000 0.0000
# 3 2.9932 17.1118 47.5297 0.0000 0.0000 0.0000
# 4 0.0000 0.0000 0.0000 29.9840 0.0000 0.0000
# 5 0.0000 0.0000 0.0000 0.0000 20.8594 0.0000
# 6 0.0000 0.0000 0.0000 0.0000 0.0000 13.8797
#
#
#
# Elastic Compliance Matrix: (Units=1/GPa)
#
#
# Indices 1 2 3 4 5 6 
#
# 1 0.015255 -0.002973 0.000110 0.000000 0.000000 0.000000
# 2 -0.002973 0.012136 -0.004182 0.000000 0.000000 0.000000
# 3 0.000110 -0.004182 0.022538 0.000000 0.000000 0.000000
# 4 0.000000 0.000000 0.000000 0.033351 0.000000 0.000000
# 5 0.000000 0.000000 0.000000 0.000000 0.047940 0.000000
# 6 0.000000 0.000000 0.000000 0.000000 0.000000 0.072047
#
#
# Mechanical properties :
#
#
# Convention : Reuss Voigt Hill
#
# Bulk Modulus (GPa) = 27.90303 31.70447 29.80375
# Shear Modulus (GPa) = 21.80511 24.35820 23.08166
#
# Velocity S-wave (km/s) = 3.30473 3.49284 3.40009
# Velocity P-wave (km/s) = 5.34201 5.66974 5.50831
#
# Compressibility (1/GPa) = 0.03583841
#
# Stress axis : x y z
#
# Youngs Moduli (GPa) = 65.55374 82.39968 44.36908
#
# Poissons Ratio (x) = 0.24496 -0.00486
# Poissons Ratio (y) = 0.19488 0.18555
# Poissons Ratio (z) = -0.00719 0.34460
#
# Static dielectric constant tensor:
#      x y z
#    x 3.258400 0.000000 0.000000 
#    y 0.000000 4.243160 0.000000 
#    z 0.000000 0.000000 3.798920 
# 
# 
# High freq. dielectric constant tensor:
#      x y z
#    x 1.731330 0.000000 0.000000 
#    y 0.000000 1.784010 0.000000 
#    z 0.000000 0.000000 1.787420 
# 
# From -- ./inp_files/11581.got.cif
#   From: 2010.03.12/outbox.cif.g09.slc.cpg/sg20_6_cif.got.tgz:11581.got - 2010.04.14 01:38:04.
