data_PCOD8158710
_publ_section_title
;
Structure prediction by ZEFSAII (Michael W. Deem and Ramdas Pophale) SiO2 
 PCOD8158710
Probable space group: C 2 2 21
;
_chemical_formula_sum "Si O2"
_cell_formula_units_Z 36
_cell_length_a 25.042947
_cell_length_b 12.417974
_cell_length_c 5.054584
_cell_angle_alpha 90.000000
_cell_angle_beta 90.000000
_cell_angle_gamma 90.000000
_cell_volume 1571.888001
_symmetry_space_group_name_H-M "C 2 2 21"
_symmetry_group_IT_number 20
_symmetry_cell_setting 'orthorhombic'
loop_
_space_group_symop_operation_xyz
x,y,z
-x,-y,1/2+z
x,-y,-z
-x,y,1/2-z
1/2+x,1/2+y,z
1/2-x,1/2-y,1/2+z
1/2+x,1/2-y,-z
1/2-x,1/2+y,1/2-z
loop_
_atom_site_type_symbol
_atom_site_label
_atom_site_fract_x
_atom_site_fract_y
_atom_site_fract_z
Si Si1 0.464876 0.500000 0.500000
Si Si2 0.318661 0.298387 0.855316
Si Si3 0.398336 0.934776 0.738587
Si Si4 0.781919 0.596505 0.157615
Si Si5 0.111598 0.192573 0.835872
O O1 0.500000 0.535365 0.250000
O O2 0.431051 0.395611 0.420824
O O3 0.262755 0.361768 0.858573
O O4 0.344523 0.293846 0.565557
O O5 0.303905 0.179159 0.940223
O O6 0.358680 0.350646 0.071462
O O7 0.334623 0.941133 0.688737
O O8 0.416262 0.808326 0.731440
O O9 0.426208 0.000000 0.500000
O O10 0.415931 0.000000 0.000000
O O11 0.753972 0.500000 0.000000
#
# Coordination Sequence:
#
# PCOD8158710 Si02
#       5
#     4   8   8   8   8
#     4  12  28  52  76  98 128 176 228 300 384 434
#     4  11  23  39  59  93 136 176 236 274 320 383
#     4  10  20  36  62  93 132 176 220 258 320 392
#     4  10  21  37  57  86 134 187 218 264 303 365
#     4  11  24  44  65  97 129 171 230 287 342 419
#
# _framework density 22.902394000000001
#
# number of rings (size 3 to 8) (size 9 to 14) (size 15 to 20)
#    0.000    1.333    0.000    8.000    1.556    3.556 
#    4.000    0.000    0.000    2.667    0.000    0.000 
#    0.000    0.000    0.000    0.000    0.000    0.000 
#
# Total GULP energy -223126.015712 kJ/mol
# GULP energy per Si atom -12395.889762 kJ/mol
# Density = 2.285027 g / cm^3
# Si number density = 22.902394 Si / 1000 Ang^3
#
#
#
# Elastic Constant Matrix: (Units=GPa)
#
#
# Indices 1 2 3 4 5 6 
#
# 1 55.4558 44.1841 16.3429 0.0000 0.0000 0.0000
# 2 44.1841 140.7642 38.7178 0.0000 0.0000 0.0000
# 3 16.3429 38.7178 114.6444 0.0000 0.0000 0.0000
# 4 0.0000 0.0000 0.0000 41.6142 0.0000 0.0000
# 5 0.0000 0.0000 0.0000 0.0000 35.5754 0.0000
# 6 0.0000 0.0000 0.0000 0.0000 0.0000 4.1218
#
#
#
# Elastic Compliance Matrix: (Units=1/GPa)
#
#
# Indices 1 2 3 4 5 6 
#
# 1 0.024144 -0.007311 -0.000973 0.000000 0.000000 0.000000
# 2 -0.007311 0.010045 -0.002350 0.000000 0.000000 0.000000
# 3 -0.000973 -0.002350 0.009655 0.000000 0.000000 0.000000
# 4 0.000000 0.000000 0.000000 0.024030 0.000000 0.000000
# 5 0.000000 0.000000 0.000000 0.000000 0.028109 0.000000
# 6 0.000000 0.000000 0.000000 0.000000 0.000000 0.242613
#
#
# Mechanical properties :
#
#
# Convention : Reuss Voigt Hill
#
# Bulk Modulus (GPa) = 44.29408 56.59487 50.44448
# Shear Modulus (GPa) = 13.60951 30.37027 21.98989
#
# Velocity S-wave (km/s) = 2.44035 3.64548 3.10200
# Velocity P-wave (km/s) = 5.22712 6.51800 5.90792
#
# Compressibility (1/GPa) = 0.02257638
#
# Stress axis : x y z
#
# Youngs Moduli (GPa) = 41.41821 99.54857 103.57282
#
# Poissons Ratio (x) = 0.72779 0.10075
# Poissons Ratio (y) = 0.30281 0.24343
# Poissons Ratio (z) = 0.04029 0.23397
#
# Static dielectric constant tensor:
#      x y z
#    x 3.735570 0.000000 0.000000 
#    y 0.000000 4.412350 0.000000 
#    z 0.000000 0.000000 -5.046800 
# 
# 
# High freq. dielectric constant tensor:
#      x y z
#    x 1.860560 0.000000 0.000000 
#    y 0.000000 1.918340 0.000000 
#    z 0.000000 0.000000 1.922720 
# 
# From -- ./inp_files/3551.got.cif
#   From: 2010.03.12/outbox.cif.g09.slc.cpg/sg20_2_cif.got.tgz:3551.got - 2010.04.14 01:38:04.
