data_PCOD8158352
_publ_section_title
;
Structure prediction by ZEFSAII (Michael W. Deem and Ramdas Pophale) SiO2 
 PCOD8158352
Probable space group: C 2 2 21
;
_chemical_formula_sum "Si O2"
_cell_formula_units_Z 56
_cell_length_a 6.719558
_cell_length_b 21.150305
_cell_length_c 18.982125
_cell_angle_alpha 90.000000
_cell_angle_beta 90.000000
_cell_angle_gamma 90.000000
_cell_volume 2697.752915
_symmetry_space_group_name_H-M "C 2 2 21"
_symmetry_group_IT_number 20
_symmetry_cell_setting 'orthorhombic'
loop_
_space_group_symop_operation_xyz
x,y,z
-x,-y,1/2+z
x,-y,-z
-x,y,1/2-z
1/2+x,1/2+y,z
1/2-x,1/2-y,1/2+z
1/2+x,1/2-y,-z
1/2-x,1/2+y,1/2-z
loop_
_atom_site_type_symbol
_atom_site_label
_atom_site_fract_x
_atom_site_fract_y
_atom_site_fract_z
Si Si1 0.615430 0.491527 0.180930
Si Si2 0.500000 0.299861 0.250000
Si Si3 0.322474 0.602498 0.150256
Si Si4 0.813575 0.654932 0.495937
Si Si5 0.128786 0.759070 0.688197
Si Si6 0.692997 0.792492 0.454853
Si Si7 0.531887 0.628493 0.611924
Si Si8 0.500000 0.040526 0.250000
O O1 0.500000 0.468668 0.250000
O O2 0.508952 0.554735 0.151417
O O3 0.588982 0.436849 0.122757
O O4 0.850030 0.499955 0.199985
O O5 0.645323 0.252880 0.209501
O O6 0.406619 0.343134 0.188073
O O7 0.243040 0.613160 0.071469
O O8 0.412172 0.666917 0.180526
O O9 0.138083 0.581600 0.198640
O O10 0.733576 0.726891 0.494582
O O11 0.730921 0.618967 0.565466
O O12 0.053814 0.660668 0.499477
O O13 0.073079 0.722644 0.617035
O O14 0.000000 0.728957 0.750000
O O15 0.898413 0.826501 0.437086
#
# Coordination Sequence:
#
# PCOD8158352 Si02
#       8
#     8   4   8   8   8   8   8   4
#     4  10  22  42  64  91 123 167 214 264 322 367
#     4  10  21  36  60  94 118 161 210 264 326 370
#     4  10  23  39  62  90 125 172 209 263 321 377
#     4  11  22  41  61  90 131 166 209 256 321 390
#     4  10  19  35  57  91 120 150 209 258 317 381
#     4  10  22  37  59  89 123 167 199 251 325 374
#     4  11  22  40  63  90 127 165 212 266 320 390
#     4  10  21  42  64  90 124 161 224 268 310 374
#
# _framework density 20.758016000000001
#
# number of rings (size 3 to 8) (size 9 to 14) (size 15 to 20)
#    0.000    1.714    2.143    2.571    0.000    4.000 
#    7.714    0.000    0.000    0.000    0.000    0.000 
#    0.000    0.000    0.000    0.000    0.000    0.000 
#
# Total GULP energy -347058.303865 kJ/mol
# GULP energy per Si atom -12394.939424 kJ/mol
# Density = 2.071077 g / cm^3
# Si number density = 20.758016 Si / 1000 Ang^3
#
#
#
# Elastic Constant Matrix: (Units=GPa)
#
#
# Indices 1 2 3 4 5 6 
#
# 1 70.8097 16.1942 15.2652 0.0000 0.0000 0.0000
# 2 16.1942 83.6300 15.0399 0.0000 0.0000 0.0000
# 3 15.2652 15.0399 87.6099 0.0000 0.0000 0.0000
# 4 0.0000 0.0000 0.0000 26.7933 0.0000 0.0000
# 5 0.0000 0.0000 0.0000 0.0000 40.0334 0.0000
# 6 0.0000 0.0000 0.0000 0.0000 0.0000 20.5859
#
#
#
# Elastic Compliance Matrix: (Units=1/GPa)
#
#
# Indices 1 2 3 4 5 6 
#
# 1 0.015180 -0.002542 -0.002209 0.000000 0.000000 0.000000
# 2 -0.002542 0.012764 -0.001748 0.000000 0.000000 0.000000
# 3 -0.002209 -0.001748 0.012099 0.000000 0.000000 0.000000
# 4 0.000000 0.000000 0.000000 0.037323 0.000000 0.000000
# 5 0.000000 0.000000 0.000000 0.000000 0.024979 0.000000
# 6 0.000000 0.000000 0.000000 0.000000 0.000000 0.048577
#
#
# Mechanical properties :
#
#
# Convention : Reuss Voigt Hill
#
# Bulk Modulus (GPa) = 36.97525 37.22757 37.10141
# Shear Modulus (GPa) = 28.91256 30.51920 29.71588
#
# Velocity S-wave (km/s) = 3.73612 3.83853 3.78767
# Velocity P-wave (km/s) = 6.03843 6.13341 6.08611
#
# Compressibility (1/GPa) = 0.02704512
#
# Stress axis : x y z
#
# Youngs Moduli (GPa) = 65.87661 78.34463 82.65035
#
# Poissons Ratio (x) = 0.19917 0.18253
# Poissons Ratio (y) = 0.16748 0.14449
# Poissons Ratio (z) = 0.14549 0.13697
#
# Static dielectric constant tensor:
#      x y z
#    x 3.640240 0.000000 0.000000 
#    y 0.000000 3.578640 0.000000 
#    z 0.000000 0.000000 3.865760 
# 
# 
# High freq. dielectric constant tensor:
#      x y z
#    x 1.806100 0.000000 0.000000 
#    y 0.000000 1.799100 0.000000 
#    z 0.000000 0.000000 1.820690 
# 
# From -- ./inp_files/26200.got.cif
#   From: 2010.03.12/outbox.cif.g09.slc.cpg/sg20_14_cif.got.tgz:26200.got - 2010.04.14 01:38:04.
