data_PCOD8158818
_publ_section_title
;
Structure prediction by ZEFSAII (Michael W. Deem and Ramdas Pophale) SiO2 
 PCOD8158818
Probable space group: C 2 2 21
;
_chemical_formula_sum "Si O2"
_cell_formula_units_Z 36
_cell_length_a 7.508344
_cell_length_b 12.129904
_cell_length_c 21.077031
_cell_angle_alpha 90.000000
_cell_angle_beta 90.000000
_cell_angle_gamma 90.000000
_cell_volume 1919.600967
_symmetry_space_group_name_H-M "C 2 2 21"
_symmetry_group_IT_number 20
_symmetry_cell_setting 'orthorhombic'
loop_
_space_group_symop_operation_xyz
x,y,z
-x,-y,1/2+z
x,-y,-z
-x,y,1/2-z
1/2+x,1/2+y,z
1/2-x,1/2-y,1/2+z
1/2+x,1/2-y,-z
1/2-x,1/2+y,1/2-z
loop_
_atom_site_type_symbol
_atom_site_label
_atom_site_fract_x
_atom_site_fract_y
_atom_site_fract_z
Si Si1 0.242118 0.690940 0.426163
Si Si2 0.611990 0.675689 0.938977
Si Si3 0.757615 0.013121 0.653830
Si Si4 0.418475 0.768892 0.143442
Si Si5 0.500000 0.603041 0.250000
O O1 0.324986 0.643171 0.490718
O O2 0.172092 0.591777 0.381738
O O3 0.388961 0.762225 0.388875
O O4 0.078124 0.768212 0.442360
O O5 0.597936 0.565792 0.895407
O O6 0.761350 0.756472 0.907367
O O7 0.853890 0.975827 0.718083
O O8 0.607273 0.105294 0.669840
O O9 0.399600 0.680289 0.199440
#
# Coordination Sequence:
#
# PCOD8158818 Si02
#       5
#     8   8   8   8   4
#     4  11  19  40  62  87 125 145 189 254 295 355
#     4  10  20  38  61  88 115 153 192 237 306 354
#     4   9  22  39  58  86 119 151 199 240 287 352
#     4   9  22  40  58  88 117 156 197 244 292 349
#     4  10  20  42  60  80 124 158 200 250 282 342
#
# _framework density 18.753898
#
# number of rings (size 3 to 8) (size 9 to 14) (size 15 to 20)
#    1.333    0.889    2.222    0.667    0.000    3.556 
#   12.000    0.000    0.000    0.000    0.000    0.000 
#    0.000    0.000    0.000    0.000    0.000    0.000 
#
# Total GULP energy -223056.808851 kJ/mol
# GULP energy per Si atom -12392.044936 kJ/mol
# Density = 1.871121 g / cm^3
# Si number density = 18.753898 Si / 1000 Ang^3
#
#
#
# Elastic Constant Matrix: (Units=GPa)
#
#
# Indices 1 2 3 4 5 6 
#
# 1 73.5317 25.1072 13.1929 0.0000 0.0000 0.0000
# 2 25.1072 74.8285 17.7875 0.0000 0.0000 0.0000
# 3 13.1929 17.7875 70.9691 0.0000 0.0000 0.0000
# 4 0.0000 0.0000 0.0000 33.9795 0.0000 0.0000
# 5 0.0000 0.0000 0.0000 0.0000 27.3613 0.0000
# 6 0.0000 0.0000 0.0000 0.0000 0.0000 27.2094
#
#
#
# Elastic Compliance Matrix: (Units=1/GPa)
#
#
# Indices 1 2 3 4 5 6 
#
# 1 0.015546 -0.004816 -0.001683 0.000000 0.000000 0.000000
# 2 -0.004816 0.015703 -0.003040 0.000000 0.000000 0.000000
# 3 -0.001683 -0.003040 0.015165 0.000000 0.000000 0.000000
# 4 0.000000 0.000000 0.000000 0.029429 0.000000 0.000000
# 5 0.000000 0.000000 0.000000 0.000000 0.036548 0.000000
# 6 0.000000 0.000000 0.000000 0.000000 0.000000 0.036752
#
#
# Mechanical properties :
#
#
# Convention : Reuss Voigt Hill
#
# Bulk Modulus (GPa) = 36.58256 36.83383 36.70820
# Shear Modulus (GPa) = 28.19539 28.59281 28.39410
#
# Velocity S-wave (km/s) = 3.88163 3.90889 3.89528
# Velocity P-wave (km/s) = 6.29590 6.32897 6.31246
#
# Compressibility (1/GPa) = 0.02733543
#
# Stress axis : x y z
#
# Youngs Moduli (GPa) = 64.32544 63.68386 65.93916
#
# Poissons Ratio (x) = 0.30671 0.11096
# Poissons Ratio (y) = 0.30980 0.20048
# Poissons Ratio (z) = 0.10825 0.19362
#
# Static dielectric constant tensor:
#      x y z
#    x 3.143920 0.000000 0.000000 
#    y 0.000000 3.367690 0.000000 
#    z 0.000000 0.000000 3.531290 
# 
# 
# High freq. dielectric constant tensor:
#      x y z
#    x 1.705920 0.000000 0.000000 
#    y 0.000000 1.721780 0.000000 
#    z 0.000000 0.000000 1.740950 
# 
# From -- ./inp_files/25934.got.cif
#   From: 2010.03.12/outbox.cif.g09.slc.cpg/sg20_13_cif.got.tgz:25934.got - 2010.04.14 01:38:04.
