data_PCOD8158850
_publ_section_title
;
Structure prediction by ZEFSAII (Michael W. Deem and Ramdas Pophale) SiO2 
 PCOD8158850
Probable space group: C 2 2 21
;
_chemical_formula_sum "Si O2"
_cell_formula_units_Z 60
_cell_length_a 8.106398
_cell_length_b 27.031497
_cell_length_c 12.081562
_cell_angle_alpha 90.000000
_cell_angle_beta 90.000000
_cell_angle_gamma 90.000000
_cell_volume 2647.409403
_symmetry_space_group_name_H-M "C 2 2 21"
_symmetry_group_IT_number 20
_symmetry_cell_setting 'orthorhombic'
loop_
_space_group_symop_operation_xyz
x,y,z
-x,-y,1/2+z
x,-y,-z
-x,y,1/2-z
1/2+x,1/2+y,z
1/2-x,1/2-y,1/2+z
1/2+x,1/2-y,-z
1/2-x,1/2+y,1/2-z
loop_
_atom_site_type_symbol
_atom_site_label
_atom_site_fract_x
_atom_site_fract_y
_atom_site_fract_z
Si Si1 0.461507 0.597103 0.072469
Si Si2 0.979610 0.727238 0.120575
Si Si3 0.169515 0.371120 0.306091
Si Si4 0.595049 0.123616 0.135191
Si Si5 0.536515 0.051949 0.538562
Si Si6 0.500000 0.477487 0.750000
Si Si7 0.691010 0.560324 0.641455
Si Si8 0.668378 0.311059 0.001419
O O1 0.284985 0.606631 0.132436
O O2 0.557091 0.557377 0.148131
O O3 0.443721 0.572741 0.951742
O O4 0.571666 0.645976 0.063430
O O5 0.000000 0.741936 0.250000
O O6 0.094208 0.680073 0.092510
O O7 0.034854 0.771571 0.041794
O O8 0.791221 0.713560 0.088018
O O9 0.294254 0.387523 0.208382
O O10 0.237076 0.329413 0.387943
O O11 0.000000 0.351595 0.250000
O O12 0.149126 0.423467 0.368480
O O13 0.500000 0.121289 0.250000
O O14 0.476573 0.090932 0.059805
O O15 0.357544 0.041599 0.587111
O O16 0.615291 0.000000 0.500000
O O17 0.647883 0.513456 0.716139
#
# Coordination Sequence:
#
# PCOD8158850 Si02
#       8
#     8   8   8   8   8   4   8   8
#     4  11  26  41  72  99 145 192 238 302 367 434
#     4  11  27  47  76 103 141 184 243 309 380 444
#     4  10  23  40  68 103 141 185 245 301 360 434
#     4  10  22  45  68 100 143 184 232 298 361 442
#     4  10  20  38  65  99 140 189 232 286 351 427
#     4  12  24  40  64 100 144 196 238 300 350 442
#     4  10  22  42  62 100 142 190 245 282 361 433
#     4  12  26  49  71 108 138 190 245 308 377 454
#
# _framework density 22.663665000000002
#
# number of rings (size 3 to 8) (size 9 to 14) (size 15 to 20)
#    0.000    1.333    1.333    3.600    5.600    4.800 
#    0.000    0.000    0.000    0.000    0.000    0.000 
#    0.000    0.000    0.000    0.000    0.000    0.000 
#
# Total GULP energy -371953.170709 kJ/mol
# GULP energy per Si atom -12398.439024 kJ/mol
# Density = 2.261208 g / cm^3
# Si number density = 22.663665 Si / 1000 Ang^3
#
#
#
# Elastic Constant Matrix: (Units=GPa)
#
#
# Indices 1 2 3 4 5 6 
#
# 1 78.8622 35.0899 54.2626 0.0000 0.0000 0.0000
# 2 35.0899 94.8711 52.2816 0.0000 0.0000 0.0000
# 3 54.2626 52.2816 115.9511 0.0000 0.0000 0.0000
# 4 0.0000 0.0000 0.0000 17.1952 0.0000 0.0000
# 5 0.0000 0.0000 0.0000 0.0000 28.2177 0.0000
# 6 0.0000 0.0000 0.0000 0.0000 0.0000 -5.7019
#
#
#
# Elastic Compliance Matrix: (Units=1/GPa)
#
#
# Indices 1 2 3 4 5 6 
#
# 1 0.019273 -0.002872 -0.007725 0.000000 0.000000 0.000000
# 2 -0.002872 0.014454 -0.005173 0.000000 0.000000 0.000000
# 3 -0.007725 -0.005173 0.014572 0.000000 0.000000 0.000000
# 4 0.000000 0.000000 0.000000 0.058156 0.000000 0.000000
# 5 0.000000 0.000000 0.000000 0.000000 0.035439 0.000000
# 6 0.000000 0.000000 0.000000 0.000000 0.000000 -0.175381
#
#
# Mechanical properties :
#
#
# Convention : Reuss Voigt Hill
#
# Bulk Modulus (GPa) = 59.66690 63.66140 61.66415
# Shear Modulus (GPa) = 1374.48824 17.81222 696.15023
#
# Velocity S-wave (km/s) = 24.65337 2.80650 17.54516
# Velocity P-wave (km/s) = 28.92697 6.21712 20.92154
#
# Compressibility (1/GPa) = 0.01675971
#
# Stress axis : x y z
#
# Youngs Moduli (GPa) = 51.88558 69.18704 68.62559
#
# Poissons Ratio (x) = 0.19868 0.53011
# Poissons Ratio (y) = 0.14900 0.35501
# Poissons Ratio (z) = 0.40080 0.35791
#
# Static dielectric constant tensor:
#      x y z
#    x 7.851470 0.000000 0.000000 
#    y 0.000000 4.194780 0.000000 
#    z 0.000000 0.000000 4.474540 
# 
# 
# High freq. dielectric constant tensor:
#      x y z
#    x 1.884620 0.000000 0.000000 
#    y 0.000000 1.896160 0.000000 
#    z 0.000000 0.000000 1.908700 
# 
# From -- ./inp_files/13280.got.cif
#   From: 2010.03.12/outbox.cif.g09.slc.cpg/sg20_7_cif.got.tgz:13280.got - 2010.04.14 01:38:04.
