data_PCOD8158816
_publ_section_title
;
Structure prediction by ZEFSAII (Michael W. Deem and Ramdas Pophale) SiO2 
 PCOD8158816
Probable space group: C 2 2 21
;
_chemical_formula_sum "Si O2"
_cell_formula_units_Z 36
_cell_length_a 15.759256
_cell_length_b 21.990956
_cell_length_c 5.128501
_cell_angle_alpha 90.000000
_cell_angle_beta 90.000000
_cell_angle_gamma 90.000000
_cell_volume 1777.338975
_symmetry_space_group_name_H-M "C 2 2 21"
_symmetry_group_IT_number 20
_symmetry_cell_setting 'orthorhombic'
loop_
_space_group_symop_operation_xyz
x,y,z
-x,-y,1/2+z
x,-y,-z
-x,y,1/2-z
1/2+x,1/2+y,z
1/2-x,1/2-y,1/2+z
1/2+x,1/2-y,-z
1/2-x,1/2+y,1/2-z
loop_
_atom_site_type_symbol
_atom_site_label
_atom_site_fract_x
_atom_site_fract_y
_atom_site_fract_z
Si Si1 0.000000 0.842792 0.250000
Si Si2 0.179672 0.687203 0.934823
Si Si3 0.262510 0.431812 0.978582
Si Si4 0.136406 0.753508 0.431662
Si Si5 0.124839 0.931637 0.024806
O O1 0.061466 0.802334 0.429779
O O2 0.047855 0.883808 0.031307
O O3 0.130235 0.707595 0.675466
O O4 0.275615 0.710782 0.937990
O O5 0.184544 0.614156 0.968095
O O6 0.126473 0.713730 0.172811
O O7 0.306386 0.417441 0.699760
O O8 0.225043 0.500000 0.000000
O O9 0.333252 0.423114 0.195390
O O10 0.088339 0.000000 0.000000
#
# Coordination Sequence:
#
# PCOD8158816 Si02
#       5
#     4   8   8   8   8
#     4  12  24  40  56  90 120 166 194 234 286 360
#     4  10  20  40  54  82 110 156 193 246 278 338
#     4  10  20  38  61  85 113 154 198 240 288 346
#     4  10  23  34  59  77 116 157 195 231 291 329
#     4  10  23  36  55  84 121 159 193 231 279 348
#
# _framework density 20.254998000000001
#
# number of rings (size 3 to 8) (size 9 to 14) (size 15 to 20)
#    0.000    1.778    2.222    1.333    6.222    6.222 
#    0.000    0.000    0.000    0.000    0.000    3.111 
#    0.000    0.000    0.000    0.000    0.000    0.000 
#
# Total GULP energy -223203.117645 kJ/mol
# GULP energy per Si atom -12400.173202 kJ/mol
# Density = 2.020890 g / cm^3
# Si number density = 20.254998 Si / 1000 Ang^3
#
#
#
# Elastic Constant Matrix: (Units=GPa)
#
#
# Indices 1 2 3 4 5 6 
#
# 1 42.0119 54.9828 23.3303 0.0000 0.0000 0.0000
# 2 54.9828 160.9279 56.9831 0.0000 0.0000 0.0000
# 3 23.3303 56.9831 116.7464 0.0000 0.0000 0.0000
# 4 0.0000 0.0000 0.0000 31.0297 0.0000 0.0000
# 5 0.0000 0.0000 0.0000 0.0000 16.2263 0.0000
# 6 0.0000 0.0000 0.0000 0.0000 0.0000 45.8268
#
#
#
# Elastic Compliance Matrix: (Units=1/GPa)
#
#
# Indices 1 2 3 4 5 6 
#
# 1 0.043343 -0.014195 -0.001733 0.000000 0.000000 0.000000
# 2 -0.014195 0.012161 -0.003099 0.000000 0.000000 0.000000
# 3 -0.001733 -0.003099 0.010425 0.000000 0.000000 0.000000
# 4 0.000000 0.000000 0.000000 0.032227 0.000000 0.000000
# 5 0.000000 0.000000 0.000000 0.000000 0.061628 0.000000
# 6 0.000000 0.000000 0.000000 0.000000 0.000000 0.021821
#
#
# Mechanical properties :
#
#
# Convention : Reuss Voigt Hill
#
# Bulk Modulus (GPa) = 35.87535 65.58651 50.73093
# Shear Modulus (GPa) = 21.83878 30.90924 26.37401
#
# Velocity S-wave (km/s) = 3.28715 3.91065 3.61238
# Velocity P-wave (km/s) = 5.67075 7.26922 6.51916
#
# Compressibility (1/GPa) = 0.02787429
#
# Stress axis : x y z
#
# Youngs Moduli (GPa) = 23.07200 82.22907 95.92726
#
# Poissons Ratio (x) = 1.16723 0.16625
# Poissons Ratio (y) = 0.32750 0.29729
# Poissons Ratio (z) = 0.03999 0.25484
#
# Static dielectric constant tensor:
#      x y z
#    x 3.184380 0.000000 0.000000 
#    y 0.000000 4.274880 0.000000 
#    z 0.000000 0.000000 3.877670 
# 
# 
# High freq. dielectric constant tensor:
#      x y z
#    x 1.734050 0.000000 0.000000 
#    y 0.000000 1.802630 0.000000 
#    z 0.000000 0.000000 1.809020 
# 
# From -- ./inp_files/1764.got.cif
#   From: 2010.03.12/outbox.cif.g09.slc.cpg/sg20_1_cif.got.tgz:1764.got - 2010.04.14 01:38:04.
