data_PCOD8158244
_publ_section_title
;
Structure prediction by ZEFSAII (Michael W. Deem and Ramdas Pophale) SiO2 
 PCOD8158244
Probable space group: C 2 2 21
;
_chemical_formula_sum "Si O2"
_cell_formula_units_Z 48
_cell_length_a 5.154835
_cell_length_b 28.670420
_cell_length_c 18.347091
_cell_angle_alpha 90.000000
_cell_angle_beta 90.000000
_cell_angle_gamma 90.000000
_cell_volume 2711.540145
_symmetry_space_group_name_H-M "C 2 2 21"
_symmetry_group_IT_number 20
_symmetry_cell_setting 'orthorhombic'
loop_
_space_group_symop_operation_xyz
x,y,z
-x,-y,1/2+z
x,-y,-z
-x,y,1/2-z
1/2+x,1/2+y,z
1/2-x,1/2-y,1/2+z
1/2+x,1/2-y,-z
1/2-x,1/2+y,1/2-z
loop_
_atom_site_type_symbol
_atom_site_label
_atom_site_fract_x
_atom_site_fract_y
_atom_site_fract_z
Si Si1 0.440165 0.607299 0.011187
Si Si2 0.456752 0.295110 0.932601
Si Si3 0.042951 0.756248 0.404261
Si Si4 0.075282 0.447077 0.480910
Si Si5 0.071395 0.854605 0.354454
Si Si6 0.084089 0.592395 0.675240
O O1 0.665579 0.568928 0.023799
O O2 0.512778 0.631054 0.935325
O O3 0.159898 0.583676 0.011175
O O4 0.446129 0.648403 0.071281
O O5 0.713205 0.277599 0.891730
O O6 0.211780 0.274279 0.889703
O O7 0.447482 0.277314 0.015088
O O8 0.050608 0.798728 0.346369
O O9 0.016025 0.500000 0.500000
O O10 0.104358 0.442972 0.392772
O O11 0.366298 0.868770 0.339999
O O12 0.853091 0.880576 0.305552
O O13 0.000000 0.565310 0.750000
#
# Coordination Sequence:
#
# PCOD8158244 Si02
#       6
#     8   8   8   8   8   8
#     4   9  17  28  42  62  89 119 147 179 227 274
#     4   9  15  23  37  58  85 115 144 172 204 246
#     4   9  15  23  37  58  85 115 142 168 201 246
#     4  10  19  31  46  64  89 120 152 191 240 285
#     4   9  17  28  42  62  89 119 146 175 214 264
#     4  10  19  31  46  64  89 118 149 185 226 275
#
# _framework density 17.702117999999999
#
# number of rings (size 3 to 8) (size 9 to 14) (size 15 to 20)
#    0.000    2.667    0.000    3.000    0.000    8.000 
#    0.000    0.000    0.000    0.000    0.000    0.000 
#    0.000   26.667    0.000    0.000    0.000    0.000 
#
# Total GULP energy -297479.719395 kJ/mol
# GULP energy per Si atom -12394.988308 kJ/mol
# Density = 1.766183 g / cm^3
# Si number density = 17.702118 Si / 1000 Ang^3
#
#
#
# Elastic Constant Matrix: (Units=GPa)
#
#
# Indices 1 2 3 4 5 6 
#
# 1 118.5168 26.4726 12.9165 0.0000 0.0000 0.0000
# 2 26.4726 94.3364 24.5332 0.0000 0.0000 0.0000
# 3 12.9165 24.5332 30.4912 0.0000 0.0000 0.0000
# 4 0.0000 0.0000 0.0000 8.8469 0.0000 0.0000
# 5 0.0000 0.0000 0.0000 0.0000 13.7113 0.0000
# 6 0.0000 0.0000 0.0000 0.0000 0.0000 26.5167
#
#
#
# Elastic Compliance Matrix: (Units=1/GPa)
#
#
# Indices 1 2 3 4 5 6 
#
# 1 0.009126 -0.001967 -0.002283 0.000000 0.000000 0.000000
# 2 -0.001967 0.013829 -0.010294 0.000000 0.000000 0.000000
# 3 -0.002283 -0.010294 0.042046 0.000000 0.000000 0.000000
# 4 0.000000 0.000000 0.000000 0.113033 0.000000 0.000000
# 5 0.000000 0.000000 0.000000 0.000000 0.072932 0.000000
# 6 0.000000 0.000000 0.000000 0.000000 0.000000 0.037712
#
#
# Mechanical properties :
#
#
# Convention : Reuss Voigt Hill
#
# Bulk Modulus (GPa) = 27.84503 41.24321 34.54412
# Shear Modulus (GPa) = 15.16356 21.77648 18.47002
#
# Velocity S-wave (km/s) = 2.92994 3.51117 3.23364
# Velocity P-wave (km/s) = 5.21632 6.30768 5.78778
#
# Compressibility (1/GPa) = 0.03591305
#
# Stress axis : x y z
#
# Youngs Moduli (GPa) = 109.57909 72.30982 23.78359
#
# Poissons Ratio (x) = 0.14224 0.05430
# Poissons Ratio (y) = 0.21556 0.24482
# Poissons Ratio (z) = 0.25018 0.74434
#
# Static dielectric constant tensor:
#      x y z
#    x 3.448480 0.000000 0.000000 
#    y 0.000000 3.178030 0.000000 
#    z 0.000000 0.000000 2.932590 
# 
# 
# High freq. dielectric constant tensor:
#      x y z
#    x 1.710270 0.000000 0.000000 
#    y 0.000000 1.665490 0.000000 
#    z 0.000000 0.000000 1.626140 
# 
# From -- ./inp_files/26162.got.cif
#   From: 2010.03.12/outbox.cif.g09.slc.cpg/sg20_14_cif.got.tgz:26162.got - 2010.04.14 01:38:04.
