data_PCOD8158152
_publ_section_title
;
Structure prediction by ZEFSAII (Michael W. Deem and Ramdas Pophale) SiO2 
 PCOD8158152
Probable space group: C 2 2 21
;
_chemical_formula_sum "Si O2"
_cell_formula_units_Z 56
_cell_length_a 20.288492
_cell_length_b 19.376460
_cell_length_c 8.217309
_cell_angle_alpha 90.000000
_cell_angle_beta 90.000000
_cell_angle_gamma 90.000000
_cell_volume 3230.381560
_symmetry_space_group_name_H-M "C 2 2 21"
_symmetry_group_IT_number 20
_symmetry_cell_setting 'orthorhombic'
loop_
_space_group_symop_operation_xyz
x,y,z
-x,-y,1/2+z
x,-y,-z
-x,y,1/2-z
1/2+x,1/2+y,z
1/2-x,1/2-y,1/2+z
1/2+x,1/2-y,-z
1/2-x,1/2+y,1/2-z
loop_
_atom_site_type_symbol
_atom_site_label
_atom_site_fract_x
_atom_site_fract_y
_atom_site_fract_z
Si Si1 0.000000 0.902920 0.750000
Si Si2 0.882142 0.818052 0.892929
Si Si3 0.429507 0.500000 0.500000
Si Si4 0.773834 0.080783 0.967004
Si Si5 0.577688 0.261965 0.274970
Si Si6 0.313163 0.181209 0.370468
Si Si7 0.156768 0.890889 0.148683
Si Si8 0.791833 0.799671 0.614622
O O1 0.053328 0.853126 0.674359
O O2 0.025379 0.948399 0.899016
O O3 0.846987 0.776468 0.746477
O O4 0.832522 0.879439 0.942374
O O5 0.902129 0.764002 0.034530
O O6 0.383987 0.539076 0.630371
O O7 0.783518 0.096858 0.775766
O O8 0.702991 0.109047 0.036518
O O9 0.778098 0.000000 0.000000
O O10 0.500000 0.255739 0.250000
O O11 0.610586 0.197251 0.175398
O O12 0.604684 0.332719 0.200848
O O13 0.277807 0.185675 0.196826
O O14 0.281493 0.239506 0.485027
O O15 0.187586 0.870299 0.975607
#
# Coordination Sequence:
#
# PCOD8158152 Si02
#       8
#     4   8   4   8   8   8   8   8
#     4  12  24  32  46  76 114 164 196 212 254 318
#     4  10  21  34  52  75 110 150 183 230 261 319
#     4  12  24  32  46  76 114 164 196 212 254 318
#     4  10  21  36  54  77 107 141 183 229 277 329
#     4  10  21  36  54  77 107 141 183 229 277 329
#     4  10  20  34  56  78 100 140 178 234 288 330
#     4  10  21  34  52  75 110 150 183 230 261 319
#     4  10  18  36  52  78 102 138 188 228 282 316
#
# _framework density 17.335412999999999
#
# number of rings (size 3 to 8) (size 9 to 14) (size 15 to 20)
#    0.000    1.714    1.429    5.143   10.000    0.000 
#    0.000    0.000    0.000    0.000    0.000    4.000 
#    0.000    0.000    0.000    0.000    0.000    0.000 
#
# Total GULP energy -347080.731774 kJ/mol
# GULP energy per Si atom -12395.740421 kJ/mol
# Density = 1.729596 g / cm^3
# Si number density = 17.335413 Si / 1000 Ang^3
#
#
#
# Elastic Constant Matrix: (Units=GPa)
#
#
# Indices 1 2 3 4 5 6 
#
# 1 94.3013 39.3187 40.3045 0.0000 0.0000 0.0000
# 2 39.3187 42.8102 12.6647 0.0000 0.0000 0.0000
# 3 40.3045 12.6647 89.9430 0.0000 0.0000 0.0000
# 4 0.0000 0.0000 0.0000 21.9187 0.0000 0.0000
# 5 0.0000 0.0000 0.0000 0.0000 23.0695 0.0000
# 6 0.0000 0.0000 0.0000 0.0000 0.0000 5.0435
#
#
#
# Elastic Compliance Matrix: (Units=1/GPa)
#
#
# Indices 1 2 3 4 5 6 
#
# 1 0.020554 -0.016855 -0.006837 0.000000 0.000000 0.000000
# 2 -0.016855 0.038196 0.002175 0.000000 0.000000 0.000000
# 3 -0.006837 0.002175 0.013876 0.000000 0.000000 0.000000
# 4 0.000000 0.000000 0.000000 0.045623 0.000000 0.000000
# 5 0.000000 0.000000 0.000000 0.000000 0.043347 0.000000
# 6 0.000000 0.000000 0.000000 0.000000 0.000000 0.198274
#
#
# Mechanical properties :
#
#
# Convention : Reuss Voigt Hill
#
# Bulk Modulus (GPa) = 33.79448 45.73669 39.76558
# Shear Modulus (GPa) = 12.11330 18.99080 15.55205
#
# Velocity S-wave (km/s) = 2.64628 3.31341 2.99846
# Velocity P-wave (km/s) = 5.37344 6.40928 5.91408
#
# Compressibility (1/GPa) = 0.02959064
#
# Stress axis : x y z
#
# Youngs Moduli (GPa) = 48.65162 26.18064 72.06797
#
# Poissons Ratio (x) = 0.44128 0.49275
# Poissons Ratio (y) = 0.82004 -0.15673
# Poissons Ratio (z) = 0.33264 -0.05694
#
# Static dielectric constant tensor:
#      x y z
#    x 3.231430 0.000000 0.000000 
#    y 0.000000 3.102740 0.000000 
#    z 0.000000 0.000000 3.655440 
# 
# 
# High freq. dielectric constant tensor:
#      x y z
#    x 1.653410 0.000000 0.000000 
#    y 0.000000 1.636430 0.000000 
#    z 0.000000 0.000000 1.695160 
# 
# From -- ./inp_files/10327.got.cif
#   From: 2010.03.12/outbox.cif.g09.slc.cpg/sg20_6_cif.got.tgz:10327.got - 2010.04.14 01:38:04.
