data_PCOD8158439
_publ_section_title
;
Structure prediction by ZEFSAII (Michael W. Deem and Ramdas Pophale) SiO2 
 PCOD8158439
Probable space group: C 2 2 21
;
_chemical_formula_sum "Si O2"
_cell_formula_units_Z 52
_cell_length_a 12.670307
_cell_length_b 13.625676
_cell_length_c 16.272448
_cell_angle_alpha 90.000000
_cell_angle_beta 90.000000
_cell_angle_gamma 90.000000
_cell_volume 2809.299799
_symmetry_space_group_name_H-M "C 2 2 21"
_symmetry_group_IT_number 20
_symmetry_cell_setting 'orthorhombic'
loop_
_space_group_symop_operation_xyz
x,y,z
-x,-y,1/2+z
x,-y,-z
-x,y,1/2-z
1/2+x,1/2+y,z
1/2-x,1/2-y,1/2+z
1/2+x,1/2-y,-z
1/2-x,1/2+y,1/2-z
loop_
_atom_site_type_symbol
_atom_site_label
_atom_site_fract_x
_atom_site_fract_y
_atom_site_fract_z
Si Si1 0.836664 0.990767 0.406547
Si Si2 0.000000 0.317964 0.250000
Si Si3 0.033795 0.204992 0.921460
Si Si4 0.905539 0.794834 0.602792
Si Si5 0.699617 0.952930 0.252322
Si Si6 0.693267 0.707514 0.656593
Si Si7 0.887953 0.347619 0.709979
O O1 0.900468 0.088588 0.383496
O O2 0.791731 0.000000 0.500000
O O3 0.915246 0.899176 0.398336
O O4 0.740813 0.980394 0.342954
O O5 0.980309 0.248968 0.327749
O O6 0.899693 0.384137 0.231016
O O7 0.097066 0.291929 0.876025
O O8 0.911602 0.202225 0.897078
O O9 0.039129 0.229298 0.016936
O O10 0.789971 0.744676 0.600798
O O11 0.786239 0.899125 0.196104
O O12 0.669140 0.048322 0.198830
O O13 0.684566 0.782302 0.731738
O O14 0.000000 0.368279 0.750000
#
# Coordination Sequence:
#
# PCOD8158439 Si02
#       7
#     8   4   8   8   8   8   8
#     4  10  21  37  59  87 115 154 200 240 290 355
#     4  10  24  40  56  88 120 152 192 254 298 344
#     4  10  22  40  59  89 118 155 199 243 291 361
#     4  10  22  41  60  85 121 154 196 243 299 348
#     4  11  20  38  59  88 116 152 200 242 292 356
#     4  10  21  38  61  85 116 155 195 238 294 352
#     4  10  19  37  61  83 114 156 194 241 292 346
#
# _framework density 18.509951000000001
#
# number of rings (size 3 to 8) (size 9 to 14) (size 15 to 20)
#    0.000    1.846    3.846    0.000    0.000    3.692 
#    0.000    6.154    0.000    0.000    0.000    0.000 
#    0.000    0.000    0.000    0.000    0.000    0.000 
#
# Total GULP energy -322448.207670 kJ/mol
# GULP energy per Si atom -12401.854141 kJ/mol
# Density = 1.846782 g / cm^3
# Si number density = 18.509951 Si / 1000 Ang^3
#
#
#
# Elastic Constant Matrix: (Units=GPa)
#
#
# Indices 1 2 3 4 5 6 
#
# 1 91.5502 49.9209 68.7494 0.0000 0.0000 0.0000
# 2 49.9209 149.4871 77.8374 0.0000 0.0000 0.0000
# 3 68.7494 77.8374 141.7815 0.0000 0.0000 0.0000
# 4 0.0000 0.0000 0.0000 29.3132 0.0000 0.0000
# 5 0.0000 0.0000 0.0000 0.0000 32.3719 0.0000
# 6 0.0000 0.0000 0.0000 0.0000 0.0000 28.6821
#
#
#
# Elastic Compliance Matrix: (Units=1/GPa)
#
#
# Indices 1 2 3 4 5 6 
#
# 1 0.017598 -0.002007 -0.007431 0.000000 0.000000 0.000000
# 2 -0.002007 0.009596 -0.004295 0.000000 0.000000 0.000000
# 3 -0.007431 -0.004295 0.013014 0.000000 0.000000 0.000000
# 4 0.000000 0.000000 0.000000 0.034114 0.000000 0.000000
# 5 0.000000 0.000000 0.000000 0.000000 0.030891 0.000000
# 6 0.000000 0.000000 0.000000 0.000000 0.000000 0.034865
#
#
# Mechanical properties :
#
#
# Convention : Reuss Voigt Hill
#
# Bulk Modulus (GPa) = 78.48301 86.20382 82.34341
# Shear Modulus (GPa) = 29.10482 30.49420 29.79951
#
# Velocity S-wave (km/s) = 3.96964 4.06328 4.01673
# Velocity P-wave (km/s) = 7.96889 8.28772 8.12987
#
# Compressibility (1/GPa) = 0.01274161
#
# Stress axis : x y z
#
# Youngs Moduli (GPa) = 56.82471 104.20722 76.83848
#
# Poissons Ratio (x) = 0.20919 0.57100
# Poissons Ratio (y) = 0.11407 0.33001
# Poissons Ratio (z) = 0.42227 0.44756
#
# Static dielectric constant tensor:
#      x y z
#    x 3.342930 0.000000 0.000000 
#    y 0.000000 3.645640 0.000000 
#    z 0.000000 0.000000 3.385900 
# 
# 
# High freq. dielectric constant tensor:
#      x y z
#    x 1.716320 0.000000 0.000000 
#    y 0.000000 1.734920 0.000000 
#    z 0.000000 0.000000 1.713540 
# 
# From -- ./inp_files/24367.got.cif
#   From: 2010.03.12/outbox.cif.g09.slc.cpg/sg20_13_cif.got.tgz:24367.got - 2010.04.14 01:38:04.
