data_PCOD8158986
_publ_section_title
;
Structure prediction by ZEFSAII (Michael W. Deem and Ramdas Pophale) SiO2 
 PCOD8158986
Probable space group: C 2 2 21
;
_chemical_formula_sum "Si O2"
_cell_formula_units_Z 48
_cell_length_a 6.598071
_cell_length_b 26.904696
_cell_length_c 13.466974
_cell_angle_alpha 90.000000
_cell_angle_beta 90.000000
_cell_angle_gamma 90.000000
_cell_volume 2390.645029
_symmetry_space_group_name_H-M "C 2 2 21"
_symmetry_group_IT_number 20
_symmetry_cell_setting 'orthorhombic'
loop_
_space_group_symop_operation_xyz
x,y,z
-x,-y,1/2+z
x,-y,-z
-x,y,1/2-z
1/2+x,1/2+y,z
1/2-x,1/2-y,1/2+z
1/2+x,1/2-y,-z
1/2-x,1/2+y,1/2-z
loop_
_atom_site_type_symbol
_atom_site_label
_atom_site_fract_x
_atom_site_fract_y
_atom_site_fract_z
Si Si1 0.996752 0.721012 0.859785
Si Si2 0.229530 0.557117 0.481283
Si Si3 0.998286 0.628670 0.134924
Si Si4 0.457575 0.893209 0.359668
Si Si5 0.694090 0.303313 0.987930
Si Si6 0.377749 0.388829 0.994014
O O1 0.081713 0.665427 0.855135
O O2 0.000000 0.744632 0.750000
O O3 0.138107 0.755104 0.926042
O O4 0.772076 0.717696 0.906522
O O5 0.180845 0.500000 0.500000
O O6 0.148767 0.590772 0.573315
O O7 0.468647 0.566537 0.466748
O O8 0.112209 0.575242 0.382028
O O9 0.228482 0.624081 0.096938
O O10 0.000000 0.643152 0.250000
O O11 0.875755 0.669417 0.071308
O O12 0.500000 0.915349 0.250000
O O13 0.247067 0.910450 0.411019
O O14 0.505242 0.338728 0.012177
#
# Coordination Sequence:
#
# PCOD8158986 Si02
#       6
#     8   8   8   8   8   8
#     4  11  23  39  62  93 129 170 214 260 311 377
#     4  10  22  41  64  93 124 163 209 262 323 381
#     4  10  23  41  65  91 126 171 210 266 319 375
#     4  10  21  42  60  90 126 161 205 258 313 372
#     4  11  23  40  61  91 130 169 220 258 307 377
#     4  10  20  41  62  86 124 164 202 266 308 374
#
# _framework density 20.078264000000001
#
# number of rings (size 3 to 8) (size 9 to 14) (size 15 to 20)
#    0.000    1.667    5.000    1.000    2.333    6.000 
#    0.000    3.333    0.000    0.000    0.000    0.000 
#    0.000    0.000    0.000    0.000    0.000    0.000 
#
# Total GULP energy -297447.942942 kJ/mol
# GULP energy per Si atom -12393.664289 kJ/mol
# Density = 2.003256 g / cm^3
# Si number density = 20.078264 Si / 1000 Ang^3
#
#
#
# Elastic Constant Matrix: (Units=GPa)
#
#
# Indices 1 2 3 4 5 6 
#
# 1 137.1379 27.3027 58.8039 0.0000 0.0000 0.0000
# 2 27.3027 75.6825 13.3359 0.0000 0.0000 0.0000
# 3 58.8039 13.3359 149.1997 0.0000 0.0000 0.0000
# 4 0.0000 0.0000 0.0000 21.4810 0.0000 0.0000
# 5 0.0000 0.0000 0.0000 0.0000 20.3438 0.0000
# 6 0.0000 0.0000 0.0000 0.0000 0.0000 20.0293
#
#
#
# Elastic Compliance Matrix: (Units=1/GPa)
#
#
# Indices 1 2 3 4 5 6 
#
# 1 0.009308 -0.002755 -0.003422 0.000000 0.000000 0.000000
# 2 -0.002755 0.014240 -0.000187 0.000000 0.000000 0.000000
# 3 -0.003422 -0.000187 0.008068 0.000000 0.000000 0.000000
# 4 0.000000 0.000000 0.000000 0.046553 0.000000 0.000000
# 5 0.000000 0.000000 0.000000 0.000000 0.049155 0.000000
# 6 0.000000 0.000000 0.000000 0.000000 0.000000 0.049927
#
#
# Mechanical properties :
#
#
# Convention : Reuss Voigt Hill
#
# Bulk Modulus (GPa) = 52.94528 62.32280 57.63404
# Shear Modulus (GPa) = 25.47457 29.87600 27.67529
#
# Velocity S-wave (km/s) = 3.56584 3.86162 3.71667
# Velocity P-wave (km/s) = 6.58637 7.14073 6.86915
#
# Compressibility (1/GPa) = 0.01888742
#
# Stress axis : x y z
#
# Youngs Moduli (GPa) = 107.43657 70.22544 123.94721
#
# Poissons Ratio (x) = 0.19346 0.42418
# Poissons Ratio (y) = 0.29597 0.02319
# Poissons Ratio (z) = 0.36767 0.01314
#
# Static dielectric constant tensor:
#      x y z
#    x 3.708330 0.000000 0.000000 
#    y 0.000000 3.573590 0.000000 
#    z 0.000000 0.000000 3.814130 
# 
# 
# High freq. dielectric constant tensor:
#      x y z
#    x 1.791210 0.000000 0.000000 
#    y 0.000000 1.771910 0.000000 
#    z 0.000000 0.000000 1.775730 
# 
# From -- ./inp_files/17905.got.cif
#   From: 2010.03.12/outbox.cif.g09.slc.cpg/sg20_9_cif.got.tgz:17905.got - 2010.04.14 01:38:04.
