data_PCOD8158102
_publ_section_title
;
Structure prediction by ZEFSAII (Michael W. Deem and Ramdas Pophale) SiO2 
 PCOD8158102
Probable space group: C 2 2 21
;
_chemical_formula_sum "Si O2"
_cell_formula_units_Z 44
_cell_length_a 19.108289
_cell_length_b 12.450657
_cell_length_c 9.695599
_cell_angle_alpha 90.000000
_cell_angle_beta 90.000000
_cell_angle_gamma 90.000000
_cell_volume 2306.687251
_symmetry_space_group_name_H-M "C 2 2 21"
_symmetry_group_IT_number 20
_symmetry_cell_setting 'orthorhombic'
loop_
_space_group_symop_operation_xyz
x,y,z
-x,-y,1/2+z
x,-y,-z
-x,y,1/2-z
1/2+x,1/2+y,z
1/2-x,1/2-y,1/2+z
1/2+x,1/2-y,-z
1/2-x,1/2+y,1/2-z
loop_
_atom_site_type_symbol
_atom_site_label
_atom_site_fract_x
_atom_site_fract_y
_atom_site_fract_z
Si Si1 0.875354 0.611743 0.052003
Si Si2 0.850675 0.947938 0.289404
Si Si3 0.039200 0.000000 0.000000
Si Si4 0.259596 0.874257 0.745377
Si Si5 0.451813 0.318609 0.118985
Si Si6 0.738758 0.702002 0.971911
O O1 0.837974 0.594416 0.202513
O O2 0.935151 0.702537 0.054081
O O3 0.909254 0.500000 0.000000
O O4 0.814549 0.647294 0.944019
O O5 0.878848 0.875021 0.163844
O O6 0.820972 0.873259 0.410164
O O7 0.914984 0.012163 0.360252
O O8 0.790811 0.023901 0.228851
O O9 0.990762 0.106368 0.992356
O O10 0.264315 0.819053 0.596421
O O11 0.227191 0.792163 0.861736
O O12 0.500000 0.298511 0.250000
#
# Coordination Sequence:
#
# PCOD8158102 Si02
#       6
#     8   8   4   8   8   8
#     4  10  19  36  58  80 111 155 194 229 294 349
#     4  11  17  37  57  81 117 147 193 240 298 346
#     4  10  20  36  54  84 110 156 196 232 292 334
#     4  10  19  31  59  84 115 146 183 244 300 337
#     4  10  23  34  57  83 116 154 198 239 278 352
#     4  10  18  33  56  88 110 150 182 244 298 346
#
# _framework density 19.074974999999998
#
# number of rings (size 3 to 8) (size 9 to 14) (size 15 to 20)
#    1.091    0.727    5.455    0.000    2.545    0.000 
#    0.000    0.000    4.000    0.000    0.000    0.000 
#    0.000    0.000    0.000    0.000    0.000    0.000 
#
# Total GULP energy -272634.071572 kJ/mol
# GULP energy per Si atom -12392.457799 kJ/mol
# Density = 1.903156 g / cm^3
# Si number density = 19.074975 Si / 1000 Ang^3
#
#
#
# Elastic Constant Matrix: (Units=GPa)
#
#
# Indices 1 2 3 4 5 6 
#
# 1 68.6207 43.1361 -0.0882 0.0000 0.0000 0.0000
# 2 43.1361 121.3865 19.8571 0.0000 0.0000 0.0000
# 3 -0.0882 19.8571 29.7774 0.0000 0.0000 0.0000
# 4 0.0000 0.0000 0.0000 27.7750 0.0000 0.0000
# 5 0.0000 0.0000 0.0000 0.0000 17.5075 0.0000
# 6 0.0000 0.0000 0.0000 0.0000 0.0000 37.8180
#
#
#
# Elastic Compliance Matrix: (Units=1/GPa)
#
#
# Indices 1 2 3 4 5 6 
#
# 1 0.019468 -0.007776 0.005243 0.000000 0.000000 0.000000
# 2 -0.007776 0.012353 -0.008260 0.000000 0.000000 0.000000
# 3 0.005243 -0.008260 0.039107 0.000000 0.000000 0.000000
# 4 0.000000 0.000000 0.000000 0.036004 0.000000 0.000000
# 5 0.000000 0.000000 0.000000 0.000000 0.057118 0.000000
# 6 0.000000 0.000000 0.000000 0.000000 0.000000 0.026442
#
#
# Mechanical properties :
#
#
# Convention : Reuss Voigt Hill
#
# Bulk Modulus (GPa) = 20.26740 38.39939 29.33340
# Shear Modulus (GPa) = 21.87953 27.07875 24.47914
#
# Velocity S-wave (km/s) = 3.39045 3.77184 3.58622
# Velocity P-wave (km/s) = 5.09658 6.25648 5.70608
#
# Compressibility (1/GPa) = 0.04934032
#
# Stress axis : x y z
#
# Youngs Moduli (GPa) = 51.36760 80.95450 25.57119
#
# Poissons Ratio (x) = 0.62948 -0.13407
# Poissons Ratio (y) = 0.39942 0.21123
# Poissons Ratio (z) = -0.26932 0.66872
#
# Static dielectric constant tensor:
#      x y z
#    x 3.408310 0.000000 0.000000 
#    y 0.000000 3.349190 0.000000 
#    z 0.000000 0.000000 3.212840 
# 
# 
# High freq. dielectric constant tensor:
#      x y z
#    x 1.728960 0.000000 0.000000 
#    y 0.000000 1.729480 0.000000 
#    z 0.000000 0.000000 1.714180 
# 
# From -- ./inp_files/16242.got.cif
#   From: 2010.03.12/outbox.cif.g09.slc.cpg/sg20_9_cif.got.tgz:16242.got - 2010.04.14 01:38:04.
