data_PCOD8158730
_publ_section_title
;
Structure prediction by ZEFSAII (Michael W. Deem and Ramdas Pophale) SiO2 
 PCOD8158730
Probable space group: C 2 2 21
;
_chemical_formula_sum "Si O2"
_cell_formula_units_Z 64
_cell_length_a 13.091297
_cell_length_b 14.490667
_cell_length_c 16.670809
_cell_angle_alpha 90.000000
_cell_angle_beta 90.000000
_cell_angle_gamma 90.000000
_cell_volume 3162.479564
_symmetry_space_group_name_H-M "C 2 2 21"
_symmetry_group_IT_number 20
_symmetry_cell_setting 'orthorhombic'
loop_
_space_group_symop_operation_xyz
x,y,z
-x,-y,1/2+z
x,-y,-z
-x,y,1/2-z
1/2+x,1/2+y,z
1/2-x,1/2-y,1/2+z
1/2+x,1/2-y,-z
1/2-x,1/2+y,1/2-z
loop_
_atom_site_type_symbol
_atom_site_label
_atom_site_fract_x
_atom_site_fract_y
_atom_site_fract_z
Si Si1 0.701728 0.111404 0.285910
Si Si2 0.612499 0.766042 0.411080
Si Si3 0.330941 0.560394 0.073189
Si Si4 0.389945 0.944036 0.622829
Si Si5 0.879543 0.989004 0.239598
Si Si6 0.754353 0.810376 0.264693
Si Si7 0.407761 0.905512 0.950359
Si Si8 0.439087 0.133176 0.672433
O O1 0.630560 0.063073 0.218636
O O2 0.690051 0.219046 0.266353
O O3 0.667573 0.085461 0.374918
O O4 0.818812 0.075075 0.279728
O O5 0.610565 0.657227 0.426875
O O6 0.704022 0.794175 0.351443
O O7 0.627554 0.820821 0.494033
O O8 0.502726 0.787077 0.371725
O O9 0.209852 0.580973 0.071555
O O10 0.357918 0.493838 0.146012
O O11 0.368990 0.500000 0.000000
O O12 0.480733 0.881652 0.587080
O O13 0.426329 0.049700 0.609336
O O14 0.837144 0.892001 0.273539
O O15 0.000000 0.999322 0.250000
O O16 0.671785 0.831500 0.196588
O O17 0.403666 0.000000 0.000000
O O18 0.500000 0.097576 0.750000
#
# Coordination Sequence:
#
# PCOD8158730 Si02
#       8
#     8   8   8   8   8   8   8   8
#     4  11  24  43  70  97 135 180 232 276 340 417
#     4  11  24  42  67 105 139 169 230 287 341 411
#     4  11  25  45  65  96 141 183 220 277 339 416
#     4  11  21  43  68  98 132 180 225 278 343 417
#     4  11  25  45  70  93 132 182 228 274 338 414
#     4  11  22  44  69  99 129 182 231 282 332 414
#     4  12  24  39  67 106 139 168 223 301 350 392
#     4  10  20  36  71  98 128 166 225 276 340 398
#
# _framework density 20.237285
#
# number of rings (size 3 to 8) (size 9 to 14) (size 15 to 20)
#    0.000    1.000    6.250    2.250    3.500    1.000 
#    0.000    1.875    0.000    0.000    0.000    0.000 
#    0.000    0.000    0.000    0.000    0.000    0.000 
#
# Total GULP energy -396812.373011 kJ/mol
# GULP energy per Si atom -12400.386657 kJ/mol
# Density = 2.019122 g / cm^3
# Si number density = 20.237285 Si / 1000 Ang^3
#
#
#
# Elastic Constant Matrix: (Units=GPa)
#
#
# Indices 1 2 3 4 5 6 
#
# 1 97.4023 23.4109 25.3226 0.0000 0.0000 0.0000
# 2 23.4109 112.3547 23.4564 0.0000 0.0000 0.0000
# 3 25.3226 23.4564 99.0742 0.0000 0.0000 0.0000
# 4 0.0000 0.0000 0.0000 36.5121 0.0000 0.0000
# 5 0.0000 0.0000 0.0000 0.0000 17.3415 0.0000
# 6 0.0000 0.0000 0.0000 0.0000 0.0000 26.6984
#
#
#
# Elastic Compliance Matrix: (Units=1/GPa)
#
#
# Indices 1 2 3 4 5 6 
#
# 1 0.011352 -0.001851 -0.002463 0.000000 0.000000 0.000000
# 2 -0.001851 0.009665 -0.001815 0.000000 0.000000 0.000000
# 3 -0.002463 -0.001815 0.011153 0.000000 0.000000 0.000000
# 4 0.000000 0.000000 0.000000 0.027388 0.000000 0.000000
# 5 0.000000 0.000000 0.000000 0.000000 0.057665 0.000000
# 6 0.000000 0.000000 0.000000 0.000000 0.000000 0.037455
#
#
# Mechanical properties :
#
#
# Convention : Reuss Voigt Hill
#
# Bulk Modulus (GPa) = 50.22377 50.35676 50.29026
# Shear Modulus (GPa) = 28.80610 31.88650 30.34630
#
# Velocity S-wave (km/s) = 3.77691 3.97373 3.87657
# Velocity P-wave (km/s) = 6.62506 6.78168 6.70383
#
# Compressibility (1/GPa) = 0.01991089
#
# Stress axis : x y z
#
# Youngs Moduli (GPa) = 88.09011 103.46568 89.66383
#
# Poissons Ratio (x) = 0.19153 0.22086
# Poissons Ratio (y) = 0.16307 0.16275
# Poissons Ratio (z) = 0.21699 0.18780
#
# Static dielectric constant tensor:
#      x y z
#    x 3.779000 0.000000 0.000000 
#    y 0.000000 3.720620 0.000000 
#    z 0.000000 0.000000 3.824730 
# 
# 
# High freq. dielectric constant tensor:
#      x y z
#    x 1.784080 0.000000 0.000000 
#    y 0.000000 1.790420 0.000000 
#    z 0.000000 0.000000 1.792980 
# 
# From -- ./inp_files/24468.got.cif
#   From: 2010.03.12/outbox.cif.g09.slc.cpg/sg20_13_cif.got.tgz:24468.got - 2010.04.14 01:38:04.
