data_PCOD8158720
_publ_section_title
;
Structure prediction by ZEFSAII (Michael W. Deem and Ramdas Pophale) SiO2 
 PCOD8158720
Probable space group: C 2 2 21
;
_chemical_formula_sum "Si O2"
_cell_formula_units_Z 32
_cell_length_a 21.196002
_cell_length_b 13.948372
_cell_length_c 5.188049
_cell_angle_alpha 90.000000
_cell_angle_beta 90.000000
_cell_angle_gamma 90.000000
_cell_volume 1533.845238
_symmetry_space_group_name_H-M "C 2 2 21"
_symmetry_group_IT_number 20
_symmetry_cell_setting 'orthorhombic'
loop_
_space_group_symop_operation_xyz
x,y,z
-x,-y,1/2+z
x,-y,-z
-x,y,1/2-z
1/2+x,1/2+y,z
1/2-x,1/2-y,1/2+z
1/2+x,1/2-y,-z
1/2-x,1/2+y,1/2-z
loop_
_atom_site_type_symbol
_atom_site_label
_atom_site_fract_x
_atom_site_fract_y
_atom_site_fract_z
Si Si1 0.170338 0.620706 0.217628
Si Si2 0.367574 0.766203 0.205140
Si Si3 0.000000 0.339361 0.250000
Si Si4 0.186951 0.059027 0.255776
Si Si5 0.426378 0.000000 0.500000
O O1 0.167399 0.695307 0.451402
O O2 0.239239 0.576952 0.213029
O O3 0.120151 0.531803 0.237910
O O4 0.155632 0.672685 0.947808
O O5 0.442812 0.773279 0.150382
O O6 0.351503 0.656943 0.256308
O O7 0.028480 0.409222 0.034715
O O8 0.161878 0.000000 0.500000
O O9 0.171816 0.000000 0.000000
#
# Coordination Sequence:
#
# PCOD8158720 Si02
#       5
#     8   8   4   8   4
#     4  11  22  39  64  93 129 160 202 261 322 368
#     4  11  24  41  62  91 128 168 205 253 312 371
#     4  10  22  38  62  92 130 162 204 246 308 382
#     4  12  24  41  64  92 123 165 214 259 305 364
#     4  10  20  36  64  98 124 168 192 264 310 384
#
# _framework density 20.862598999999999
#
# number of rings (size 3 to 8) (size 9 to 14) (size 15 to 20)
#    0.000    1.000    1.250    6.000    3.500    3.000 
#    0.000    1.250    0.000    0.000    0.000    0.000 
#    0.000    0.000    0.000    0.000    0.000    0.000 
#
# Total GULP energy -198347.114602 kJ/mol
# GULP energy per Si atom -12396.694663 kJ/mol
# Density = 2.081512 g / cm^3
# Si number density = 20.862599 Si / 1000 Ang^3
#
#
#
# Elastic Constant Matrix: (Units=GPa)
#
#
# Indices 1 2 3 4 5 6 
#
# 1 99.7341 54.0353 22.5124 0.0000 0.0000 0.0000
# 2 54.0353 130.5365 55.9196 0.0000 0.0000 0.0000
# 3 22.5124 55.9196 131.8559 0.0000 0.0000 0.0000
# 4 0.0000 0.0000 0.0000 37.7890 0.0000 0.0000
# 5 0.0000 0.0000 0.0000 0.0000 -6.4291 0.0000
# 6 0.0000 0.0000 0.0000 0.0000 0.0000 -1.3550
#
#
#
# Elastic Compliance Matrix: (Units=1/GPa)
#
#
# Indices 1 2 3 4 5 6 
#
# 1 0.012926 -0.005383 0.000076 0.000000 0.000000 0.000000
# 2 -0.005383 0.011603 -0.004002 0.000000 0.000000 0.000000
# 3 0.000076 -0.004002 0.009268 0.000000 0.000000 0.000000
# 4 0.000000 0.000000 0.000000 0.026463 0.000000 0.000000
# 5 0.000000 0.000000 0.000000 0.000000 -0.155543 0.000000
# 6 0.000000 0.000000 0.000000 0.000000 0.000000 -0.738014
#
#
# Mechanical properties :
#
#
# Convention : Reuss Voigt Hill
#
# Bulk Modulus (GPa) = 65.87783 69.67348 67.77565
# Shear Modulus (GPa) = -6.17575 21.31160 7.56793
#
# Velocity S-wave (km/s) = -1.72239 3.19959 1.90667
# Velocity P-wave (km/s) = 5.26213 6.86431 6.11591
#
# Compressibility (1/GPa) = 0.01517961
#
# Stress axis : x y z
#
# Youngs Moduli (GPa) = 77.36261 86.18126 107.89568
#
# Poissons Ratio (x) = 0.46394 -0.00821
# Poissons Ratio (y) = 0.41647 0.43178
# Poissons Ratio (z) = -0.00589 0.34488
#
# Static dielectric constant tensor:
#      x y z
#    x 4.137400 0.000000 0.000000 
#    y 0.000000 3.962360 0.000000 
#    z 0.000000 0.000000 3.921730 
# 
# 
# High freq. dielectric constant tensor:
#      x y z
#    x 1.818490 0.000000 0.000000 
#    y 0.000000 1.816920 0.000000 
#    z 0.000000 0.000000 1.819900 
# 
# From -- ./inp_files/1034.got.cif
#   From: 2010.03.12/outbox.cif.g09.slc.cpg/sg20_1_cif.got.tgz:1034.got - 2010.04.14 01:38:04.
