data_PCOD8158027
_publ_section_title
;
Structure prediction by ZEFSAII (Michael W. Deem and Ramdas Pophale) SiO2 
 PCOD8158027
Probable space group: C 2 2 21
;
_chemical_formula_sum "Si O2"
_cell_formula_units_Z 56
_cell_length_a 20.868285
_cell_length_b 13.565398
_cell_length_c 9.730097
_cell_angle_alpha 90.000000
_cell_angle_beta 90.000000
_cell_angle_gamma 90.000000
_cell_volume 2754.459996
_symmetry_space_group_name_H-M "C 2 2 21"
_symmetry_group_IT_number 20
_symmetry_cell_setting 'orthorhombic'
loop_
_space_group_symop_operation_xyz
x,y,z
-x,-y,1/2+z
x,-y,-z
-x,y,1/2-z
1/2+x,1/2+y,z
1/2-x,1/2-y,1/2+z
1/2+x,1/2-y,-z
1/2-x,1/2+y,1/2-z
loop_
_atom_site_type_symbol
_atom_site_label
_atom_site_fract_x
_atom_site_fract_y
_atom_site_fract_z
Si Si1 0.051281 0.782457 0.489380
Si Si2 0.331142 0.106876 0.360984
Si Si3 0.901332 0.267239 0.287439
Si Si4 0.655513 0.306960 0.269747
Si Si5 0.532735 0.891568 0.988454
Si Si6 0.077446 0.114169 0.986158
Si Si7 0.287360 0.894996 0.333534
O O1 0.065772 0.767992 0.649085
O O2 0.115498 0.809943 0.410219
O O3 0.021033 0.681479 0.426915
O O4 0.999062 0.869565 0.475139
O O5 0.317248 0.197322 0.258893
O O6 0.407013 0.100443 0.387078
O O7 0.293503 0.122688 0.503411
O O8 0.307719 0.005711 0.291050
O O9 0.945165 0.348701 0.363978
O O10 0.893037 0.171580 0.383998
O O11 0.832497 0.316224 0.255271
O O12 0.714656 0.380700 0.286600
O O13 0.610299 0.342488 0.148312
O O14 0.501780 0.000000 0.000000
O O15 0.093235 0.000000 0.000000
#
# Coordination Sequence:
#
# PCOD8158027 Si02
#       7
#     8   8   8   8   8   8   8
#     4  11  25  39  64 104 131 168 223 273 336 402
#     4  10  20  44  67  93 129 177 216 276 326 392
#     4  10  21  42  65  93 129 175 216 272 335 394
#     4  12  25  42  68  99 133 174 221 283 332 394
#     4  10  17  38  68  93 128 173 213 265 338 395
#     4  11  24  45  64  91 134 177 219 273 337 391
#     4  10  22  42  69  93 129 175 226 258 338 399
#
# _framework density 20.330663999999999
#
# number of rings (size 3 to 8) (size 9 to 14) (size 15 to 20)
#    0.000    1.429    7.143    2.143    2.000    4.571 
#    7.714    0.000    0.000    0.000    0.000    0.000 
#    0.000    0.000    0.000    0.000    0.000    0.000 
#
# Total GULP energy -347234.379212 kJ/mol
# GULP energy per Si atom -12401.227829 kJ/mol
# Density = 2.028439 g / cm^3
# Si number density = 20.330664 Si / 1000 Ang^3
#
#
#
# Elastic Constant Matrix: (Units=GPa)
#
#
# Indices 1 2 3 4 5 6 
#
# 1 95.7872 30.4861 34.0577 0.0000 0.0000 0.0000
# 2 30.4861 141.8025 40.0854 0.0000 0.0000 0.0000
# 3 34.0577 40.0854 71.3857 0.0000 0.0000 0.0000
# 4 0.0000 0.0000 0.0000 13.5498 0.0000 0.0000
# 5 0.0000 0.0000 0.0000 0.0000 22.0950 0.0000
# 6 0.0000 0.0000 0.0000 0.0000 0.0000 28.2275
#
#
#
# Elastic Compliance Matrix: (Units=1/GPa)
#
#
# Indices 1 2 3 4 5 6 
#
# 1 0.012746 -0.001214 -0.005399 0.000000 0.000000 0.000000
# 2 -0.001214 0.008498 -0.004193 0.000000 0.000000 0.000000
# 3 -0.005399 -0.004193 0.018939 0.000000 0.000000 0.000000
# 4 0.000000 0.000000 0.000000 0.073802 0.000000 0.000000
# 5 0.000000 0.000000 0.000000 0.000000 0.045259 0.000000
# 6 0.000000 0.000000 0.000000 0.000000 0.000000 0.035426
#
#
# Mechanical properties :
#
#
# Convention : Reuss Voigt Hill
#
# Bulk Modulus (GPa) = 53.84821 57.58153 55.71487
# Shear Modulus (GPa) = 22.47463 26.39755 24.43609
#
# Velocity S-wave (km/s) = 3.32844 3.60726 3.47065
# Velocity P-wave (km/s) = 6.42768 6.76267 6.59730
#
# Compressibility (1/GPa) = 0.01857072
#
# Stress axis : x y z
#
# Youngs Moduli (GPa) = 78.45641 117.67032 52.80145
#
# Poissons Ratio (x) = 0.14284 0.28509
# Poissons Ratio (y) = 0.09524 0.22139
# Poissons Ratio (z) = 0.42361 0.49338
#
# Static dielectric constant tensor:
#      x y z
#    x 3.685680 0.000000 0.000000 
#    y 0.000000 3.918110 0.000000 
#    z 0.000000 0.000000 3.440660 
# 
# 
# High freq. dielectric constant tensor:
#      x y z
#    x 1.788430 0.000000 0.000000 
#    y 0.000000 1.799100 0.000000 
#    z 0.000000 0.000000 1.775580 
# 
# From -- ./inp_files/10182.got.cif
#   From: 2010.03.12/outbox.cif.g09.slc.cpg/sg20_6_cif.got.tgz:10182.got - 2010.04.14 01:38:04.
