data_PCOD8158896
_publ_section_title
;
Structure prediction by ZEFSAII (Michael W. Deem and Ramdas Pophale) SiO2 
 PCOD8158896
Probable space group: C 2 2 21
;
_chemical_formula_sum "Si O2"
_cell_formula_units_Z 48
_cell_length_a 8.471418
_cell_length_b 28.933843
_cell_length_c 8.997741
_cell_angle_alpha 90.000000
_cell_angle_beta 90.000000
_cell_angle_gamma 90.000000
_cell_volume 2205.442401
_symmetry_space_group_name_H-M "C 2 2 21"
_symmetry_group_IT_number 20
_symmetry_cell_setting 'orthorhombic'
loop_
_space_group_symop_operation_xyz
x,y,z
-x,-y,1/2+z
x,-y,-z
-x,y,1/2-z
1/2+x,1/2+y,z
1/2-x,1/2-y,1/2+z
1/2+x,1/2-y,-z
1/2-x,1/2+y,1/2-z
loop_
_atom_site_type_symbol
_atom_site_label
_atom_site_fract_x
_atom_site_fract_y
_atom_site_fract_z
Si Si1 0.105856 0.354826 0.104535
Si Si2 0.165343 0.780217 0.547719
Si Si3 0.819347 0.924772 0.264379
Si Si4 0.322675 0.108374 0.069091
Si Si5 0.343167 0.988485 0.828823
Si Si6 0.184080 0.797377 0.884193
O O1 0.221044 0.397432 0.140711
O O2 0.000000 0.340162 0.250000
O O3 0.211626 0.312391 0.043379
O O4 0.997483 0.373375 0.970234
O O5 0.194704 0.775266 0.722290
O O6 0.185843 0.728248 0.485232
O O7 0.983479 0.795094 0.529563
O O8 0.764345 0.908446 0.423665
O O9 0.000000 0.912012 0.250000
O O10 0.795003 0.980561 0.253496
O O11 0.320404 0.066708 0.189871
O O12 0.223773 0.149289 0.141565
O O13 0.500000 0.005960 0.750000
O O14 0.362674 0.000000 0.000000
#
# Coordination Sequence:
#
# PCOD8158896 Si02
#       6
#     8   8   8   8   8   8
#     4  10  22  40  69  95 127 172 223 270 325 395
#     4  11  26  44  70  97 136 172 219 276 329 397
#     4  10  20  39  64  93 128 173 217 265 327 384
#     4  10  22  40  64  92 133 168 216 270 323 388
#     4  10  21  40  63  93 127 167 215 269 319 388
#     4  11  26  45  65 101 134 173 220 269 336 396
#
# _framework density 21.764341000000002
#
# number of rings (size 3 to 8) (size 9 to 14) (size 15 to 20)
#    0.000    1.667    0.000    4.500    9.333    2.000 
#    3.000    7.500    0.000    0.000    0.000    0.000 
#    0.000    0.000    0.000    0.000    0.000    0.000 
#
# Total GULP energy -297525.066126 kJ/mol
# GULP energy per Si atom -12396.877755 kJ/mol
# Density = 2.171480 g / cm^3
# Si number density = 21.764341 Si / 1000 Ang^3
#
#
#
# Elastic Constant Matrix: (Units=GPa)
#
#
# Indices 1 2 3 4 5 6 
#
# 1 123.0895 35.4673 27.3456 0.0000 0.0000 0.0000
# 2 35.4673 124.7082 23.4394 0.0000 0.0000 0.0000
# 3 27.3456 23.4394 34.9915 0.0000 0.0000 0.0000
# 4 0.0000 0.0000 0.0000 -53.7304 0.0000 0.0000
# 5 0.0000 0.0000 0.0000 0.0000 26.5911 0.0000
# 6 0.0000 0.0000 0.0000 0.0000 0.0000 32.9326
#
#
#
# Elastic Compliance Matrix: (Units=1/GPa)
#
#
# Indices 1 2 3 4 5 6 
#
# 1 0.010099 -0.001589 -0.006828 0.000000 0.000000 0.000000
# 2 -0.001589 0.009424 -0.005071 0.000000 0.000000 0.000000
# 3 -0.006828 -0.005071 0.037311 0.000000 0.000000 0.000000
# 4 0.000000 0.000000 0.000000 -0.018611 0.000000 0.000000
# 5 0.000000 0.000000 0.000000 0.000000 0.037607 0.000000
# 6 0.000000 0.000000 0.000000 0.000000 0.000000 0.030365
#
#
# Mechanical properties :
#
#
# Convention : Reuss Voigt Hill
#
# Bulk Modulus (GPa) = 33.49136 50.58823 42.03980
# Shear Modulus (GPa) = 34.93522 14.26111 24.59816
#
# Velocity S-wave (km/s) = 4.01079 2.56256 3.36550
# Velocity P-wave (km/s) = 6.07208 5.66125 5.87026
#
# Compressibility (1/GPa) = 0.02985844
#
# Stress axis : x y z
#
# Youngs Moduli (GPa) = 99.02102 106.11567 26.80160
#
# Poissons Ratio (x) = 0.16860 0.18300
# Poissons Ratio (y) = 0.15733 0.13591
# Poissons Ratio (z) = 0.67611 0.53810
#
# Static dielectric constant tensor:
#      x y z
#    x 4.278090 0.000000 0.000000 
#    y 0.000000 4.421380 0.000000 
#    z 0.000000 0.000000 3.773490 
# 
# 
# High freq. dielectric constant tensor:
#      x y z
#    x 1.854020 0.000000 0.000000 
#    y 0.000000 1.871180 0.000000 
#    z 0.000000 0.000000 1.844980 
# 
# From -- ./inp_files/6529.got.cif
#   From: 2010.03.12/outbox.cif.g09.slc.cpg/sg20_4_cif.got.tgz:6529.got - 2010.04.14 01:38:04.
