data_PCOD8158811
_publ_section_title
;
Structure prediction by ZEFSAII (Michael W. Deem and Ramdas Pophale) SiO2 
 PCOD8158811
Probable space group: C 2 2 21
;
_chemical_formula_sum "Si O2"
_cell_formula_units_Z 40
_cell_length_a 11.171563
_cell_length_b 19.999885
_cell_length_c 8.558516
_cell_angle_alpha 90.000000
_cell_angle_beta 90.000000
_cell_angle_gamma 90.000000
_cell_volume 1912.229018
_symmetry_space_group_name_H-M "C 2 2 21"
_symmetry_group_IT_number 20
_symmetry_cell_setting 'orthorhombic'
loop_
_space_group_symop_operation_xyz
x,y,z
-x,-y,1/2+z
x,-y,-z
-x,y,1/2-z
1/2+x,1/2+y,z
1/2-x,1/2-y,1/2+z
1/2+x,1/2-y,-z
1/2-x,1/2+y,1/2-z
loop_
_atom_site_type_symbol
_atom_site_label
_atom_site_fract_x
_atom_site_fract_y
_atom_site_fract_z
Si Si1 0.701356 0.857850 0.958025
Si Si2 0.000000 0.314194 0.750000
Si Si3 0.635192 0.102124 0.708408
Si Si4 0.700805 0.785379 0.526812
Si Si5 0.367650 0.385713 0.699751
Si Si6 0.722501 0.500000 0.000000
O O1 0.569986 0.860430 0.876497
O O2 0.790555 0.902016 0.853895
O O3 0.704992 0.888368 0.129455
O O4 0.749593 0.782129 0.955160
O O5 0.096973 0.269911 0.655294
O O6 0.500000 0.084162 0.750000
O O7 0.643360 0.170783 0.611615
O O8 0.691633 0.040712 0.615435
O O9 0.811262 0.823802 0.605941
O O10 0.500000 0.365356 0.750000
O O11 0.366459 0.451650 0.593621
#
# Coordination Sequence:
#
# PCOD8158811 Si02
#       6
#     8   4   8   8   8   4
#     4  11  23  38  68  96 129 168 207 256 334 380
#     4  10  20  38  60  90 134 158 204 254 304 382
#     4  11  22  42  66  92 130 168 214 269 316 370
#     4  10  22  40  64 100 129 166 206 257 323 393
#     4  10  24  44  65  91 132 167 216 262 315 379
#     4  10  26  44  62  94 122 170 230 264 310 372
#
# _framework density 20.917995999999999
#
# number of rings (size 3 to 8) (size 9 to 14) (size 15 to 20)
#    0.000    1.600    2.000    2.400    2.800    5.600 
#    3.600    0.000    0.000    0.000    0.000    0.000 
#    0.000    0.000    0.000    0.000    0.000    0.000 
#
# Total GULP energy -248032.381024 kJ/mol
# GULP energy per Si atom -12401.619051 kJ/mol
# Density = 2.087039 g / cm^3
# Si number density = 20.917996 Si / 1000 Ang^3
#
#
#
# Elastic Constant Matrix: (Units=GPa)
#
#
# Indices 1 2 3 4 5 6 
#
# 1 125.2743 26.1954 41.1957 0.0000 0.0000 0.0000
# 2 26.1954 72.8572 31.8030 0.0000 0.0000 0.0000
# 3 41.1957 31.8030 132.5090 0.0000 0.0000 0.0000
# 4 0.0000 0.0000 0.0000 30.2495 0.0000 0.0000
# 5 0.0000 0.0000 0.0000 0.0000 37.2140 0.0000
# 6 0.0000 0.0000 0.0000 0.0000 0.0000 7.0507
#
#
#
# Elastic Compliance Matrix: (Units=1/GPa)
#
#
# Indices 1 2 3 4 5 6 
#
# 1 0.009226 -0.002307 -0.002315 0.000000 0.000000 0.000000
# 2 -0.002307 0.015908 -0.003101 0.000000 0.000000 0.000000
# 3 -0.002315 -0.003101 0.009011 0.000000 0.000000 0.000000
# 4 0.000000 0.000000 0.000000 0.033058 0.000000 0.000000
# 5 0.000000 0.000000 0.000000 0.000000 0.026872 0.000000
# 6 0.000000 0.000000 0.000000 0.000000 0.000000 0.141830
#
#
# Mechanical properties :
#
#
# Convention : Reuss Voigt Hill
#
# Bulk Modulus (GPa) = 53.47539 58.78096 56.12818
# Shear Modulus (GPa) = 19.41122 30.33260 24.87191
#
# Velocity S-wave (km/s) = 3.04956 3.81211 3.45196
# Velocity P-wave (km/s) = 6.16600 6.89478 6.54055
#
# Compressibility (1/GPa) = 0.01870019
#
# Stress axis : x y z
#
# Youngs Moduli (GPa) = 108.38936 62.85955 110.98159
#
# Poissons Ratio (x) = 0.14500 0.25688
# Poissons Ratio (y) = 0.25003 0.34415
# Poissons Ratio (z) = 0.25088 0.19493
#
# Static dielectric constant tensor:
#      x y z
#    x 3.742900 0.000000 0.000000 
#    y 0.000000 3.459130 0.000000 
#    z 0.000000 0.000000 4.198360 
# 
# 
# High freq. dielectric constant tensor:
#      x y z
#    x 1.820350 0.000000 0.000000 
#    y 0.000000 1.790960 0.000000 
#    z 0.000000 0.000000 1.848670 
# 
# From -- ./inp_files/6168.got.cif
#   From: 2010.03.12/outbox.cif.g09.slc.cpg/sg20_4_cif.got.tgz:6168.got - 2010.04.14 01:38:04.
