data_PCOD8158041
_publ_section_title
;
Structure prediction by ZEFSAII (Michael W. Deem and Ramdas Pophale) SiO2 
 PCOD8158041
Probable space group: C 2 2 21
;
_chemical_formula_sum "Si O2"
_cell_formula_units_Z 40
_cell_length_a 14.140055
_cell_length_b 18.590552
_cell_length_c 8.323668
_cell_angle_alpha 90.000000
_cell_angle_beta 90.000000
_cell_angle_gamma 90.000000
_cell_volume 2188.054491
_symmetry_space_group_name_H-M "C 2 2 21"
_symmetry_group_IT_number 20
_symmetry_cell_setting 'orthorhombic'
loop_
_space_group_symop_operation_xyz
x,y,z
-x,-y,1/2+z
x,-y,-z
-x,y,1/2-z
1/2+x,1/2+y,z
1/2-x,1/2-y,1/2+z
1/2+x,1/2-y,-z
1/2-x,1/2+y,1/2-z
loop_
_atom_site_type_symbol
_atom_site_label
_atom_site_fract_x
_atom_site_fract_y
_atom_site_fract_z
Si Si1 0.939398 0.215770 0.905395
Si Si2 0.110057 0.837048 0.899959
Si Si3 0.101842 0.696813 0.695801
Si Si4 0.208657 0.125788 0.778191
Si Si5 0.099976 0.009884 0.186729
O O1 0.847726 0.171054 0.854421
O O2 0.000000 0.240927 0.750000
O O3 0.903037 0.285037 0.005416
O O4 0.004530 0.168153 0.025181
O O5 0.133192 0.767420 0.795248
O O6 0.116992 0.905646 0.778590
O O7 0.183786 0.845769 0.044193
O O8 0.178670 0.635683 0.736848
O O9 0.000000 0.666966 0.750000
O O10 0.183388 0.041766 0.747335
O O11 0.000000 0.980826 0.250000
O O12 0.095093 0.000000 0.000000
#
# Coordination Sequence:
#
# PCOD8158041 Si02
#       5
#     8   8   8   8   8
#     4   9  17  30  47  69  97 122 150 193 239 281
#     4   9  18  31  48  72  97 123 153 191 241 284
#     4  10  19  31  47  69  96 127 161 194 226 272
#     4  10  18  29  46  71  98 125 155 190 236 284
#     4  10  18  29  47  73  99 121 146 186 239 289
#
# _framework density 18.281081
#
# number of rings (size 3 to 8) (size 9 to 14) (size 15 to 20)
#    0.000    2.400    0.000    6.000    0.000    0.000 
#    0.000    0.000    0.000    0.000    0.000   64.400 
#    0.000    0.000    0.000    0.000    0.000    0.000 
#
# Total GULP energy -247885.606042 kJ/mol
# GULP energy per Si atom -12394.280302 kJ/mol
# Density = 1.823947 g / cm^3
# Si number density = 18.281081 Si / 1000 Ang^3
#
#
#
# Elastic Constant Matrix: (Units=GPa)
#
#
# Indices 1 2 3 4 5 6 
#
# 1 124.8019 64.2976 19.0634 0.0000 0.0000 0.0000
# 2 64.2976 82.6576 18.7594 0.0000 0.0000 0.0000
# 3 19.0634 18.7594 50.0363 0.0000 0.0000 0.0000
# 4 0.0000 0.0000 0.0000 16.4972 0.0000 0.0000
# 5 0.0000 0.0000 0.0000 0.0000 17.5358 0.0000
# 6 0.0000 0.0000 0.0000 0.0000 0.0000 19.1717
#
#
#
# Elastic Compliance Matrix: (Units=1/GPa)
#
#
# Indices 1 2 3 4 5 6 
#
# 1 0.013450 -0.010164 -0.001314 0.000000 0.000000 0.000000
# 2 -0.010164 0.020905 -0.003965 0.000000 0.000000 0.000000
# 3 -0.001314 -0.003965 0.021972 0.000000 0.000000 0.000000
# 4 0.000000 0.000000 0.000000 0.060616 0.000000 0.000000
# 5 0.000000 0.000000 0.000000 0.000000 0.057026 0.000000
# 6 0.000000 0.000000 0.000000 0.000000 0.000000 0.052160
#
#
# Mechanical properties :
#
#
# Convention : Reuss Voigt Hill
#
# Bulk Modulus (GPa) = 39.30606 51.30408 45.30507
# Shear Modulus (GPa) = 18.83267 20.99929 19.91598
#
# Velocity S-wave (km/s) = 3.21311 3.39291 3.30423
# Velocity P-wave (km/s) = 5.94248 6.59349 6.27643
#
# Compressibility (1/GPa) = 0.02544137
#
# Stress axis : x y z
#
# Youngs Moduli (GPa) = 74.34943 47.83635 45.51150
#
# Poissons Ratio (x) = 0.48623 0.05978
# Poissons Ratio (y) = 0.75571 0.18045
# Poissons Ratio (z) = 0.09766 0.18967
#
# Static dielectric constant tensor:
#      x y z
#    x 3.232400 0.000000 0.000000 
#    y 0.000000 3.635810 0.000000 
#    z 0.000000 0.000000 3.544090 
# 
# 
# High freq. dielectric constant tensor:
#      x y z
#    x 1.690690 0.000000 0.000000 
#    y 0.000000 1.675000 0.000000 
#    z 0.000000 0.000000 1.715410 
# 
# From -- ./inp_files/7233.got.cif
#   From: 2010.03.12/outbox.cif.g09.slc.cpg/sg20_4_cif.got.tgz:7233.got - 2010.04.14 01:38:04.
