data_PCOD8158673
_publ_section_title
;
Structure prediction by ZEFSAII (Michael W. Deem and Ramdas Pophale) SiO2 
 PCOD8158673
Probable space group: C 2 2 21
;
_chemical_formula_sum "Si O2"
_cell_formula_units_Z 32
_cell_length_a 19.036069
_cell_length_b 4.988617
_cell_length_c 16.585248
_cell_angle_alpha 90.000000
_cell_angle_beta 90.000000
_cell_angle_gamma 90.000000
_cell_volume 1574.995809
_symmetry_space_group_name_H-M "C 2 2 21"
_symmetry_group_IT_number 20
_symmetry_cell_setting 'orthorhombic'
loop_
_space_group_symop_operation_xyz
x,y,z
-x,-y,1/2+z
x,-y,-z
-x,y,1/2-z
1/2+x,1/2+y,z
1/2-x,1/2-y,1/2+z
1/2+x,1/2-y,-z
1/2-x,1/2+y,1/2-z
loop_
_atom_site_type_symbol
_atom_site_label
_atom_site_fract_x
_atom_site_fract_y
_atom_site_fract_z
Si Si1 0.375844 0.744567 0.555823
Si Si2 0.577921 0.404783 0.592426
Si Si3 0.004307 0.396497 0.657647
Si Si4 0.778063 0.746081 0.945694
O O1 0.401538 0.500000 0.500000
O O2 0.429075 0.785587 0.629158
O O3 0.298100 0.681742 0.594376
O O4 0.374406 0.000000 0.500000
O O5 0.572870 0.500000 0.500000
O O6 0.560061 0.655227 0.649351
O O7 0.657684 0.310899 0.615239
O O8 0.525726 0.155557 0.605513
O O9 0.000000 0.486165 0.750000
O O10 0.804354 0.500000 0.000000
O O11 0.763648 0.000000 0.000000
#
# Coordination Sequence:
#
# PCOD8158673 Si02
#       4
#     8   8   8   8
#     4  10  20  36  58  81 108 144 186 229 276 331
#     4  11  21  38  61  82 107 147 194 234 278 337
#     4  12  24  37  54  85 120 150 185 233 284 338
#     4   9  18  33  56  84 106 133 185 240 274 318
#
# _framework density 20.317516000000001
#
# number of rings (size 3 to 8) (size 9 to 14) (size 15 to 20)
#    0.000    1.500    0.000    8.250    0.000    0.000 
#    0.000    2.500    0.000    0.000    0.000    0.000 
#    0.000    0.000    0.000    0.000    0.000    0.000 
#
# Total GULP energy -198337.125521 kJ/mol
# GULP energy per Si atom -12396.070345 kJ/mol
# Density = 2.027127 g / cm^3
# Si number density = 20.317516 Si / 1000 Ang^3
#
#
#
# Elastic Constant Matrix: (Units=GPa)
#
#
# Indices 1 2 3 4 5 6 
#
# 1 142.6960 33.8477 57.8147 0.0000 0.0000 0.0000
# 2 33.8477 132.4085 27.0497 0.0000 0.0000 0.0000
# 3 57.8147 27.0497 73.2529 0.0000 0.0000 0.0000
# 4 0.0000 0.0000 0.0000 23.8402 0.0000 0.0000
# 5 0.0000 0.0000 0.0000 0.0000 9.6267 0.0000
# 6 0.0000 0.0000 0.0000 0.0000 0.0000 31.3164
#
#
#
# Elastic Compliance Matrix: (Units=1/GPa)
#
#
# Indices 1 2 3 4 5 6 
#
# 1 0.010440 -0.001066 -0.007846 0.000000 0.000000 0.000000
# 2 -0.001066 0.008277 -0.002215 0.000000 0.000000 0.000000
# 3 -0.007846 -0.002215 0.020662 0.000000 0.000000 0.000000
# 4 0.000000 0.000000 0.000000 0.041946 0.000000 0.000000
# 5 0.000000 0.000000 0.000000 0.000000 0.103878 0.000000
# 6 0.000000 0.000000 0.000000 0.000000 0.000000 0.031932
#
#
# Mechanical properties :
#
#
# Convention : Reuss Voigt Hill
#
# Bulk Modulus (GPa) = 58.39538 65.08685 61.74111
# Shear Modulus (GPa) = 20.40013 28.26635 24.33324
#
# Velocity S-wave (km/s) = 3.17214 3.73397 3.46446
# Velocity P-wave (km/s) = 6.49772 7.12000 6.81597
#
# Compressibility (1/GPa) = 0.01712464
#
# Stress axis : x y z
#
# Youngs Moduli (GPa) = 95.78966 120.81059 48.39881
#
# Poissons Ratio (x) = 0.12877 0.37973
# Poissons Ratio (y) = 0.10210 0.10722
# Poissons Ratio (z) = 0.75155 0.26764
#
# Static dielectric constant tensor:
#      x y z
#    x 4.487300 0.000000 0.000000 
#    y 0.000000 3.877150 0.000000 
#    z 0.000000 0.000000 3.069950 
# 
# 
# High freq. dielectric constant tensor:
#      x y z
#    x 1.819990 0.000000 0.000000 
#    y 0.000000 1.822740 0.000000 
#    z 0.000000 0.000000 1.725010 
# 
# From -- ./inp_files/17511.got.cif
#   From: 2010.03.12/outbox.cif.g09.slc.cpg/sg20_9_cif.got.tgz:17511.got - 2010.04.14 01:38:04.
