data_PCOD8158908
_publ_section_title
;
Structure prediction by ZEFSAII (Michael W. Deem and Ramdas Pophale) SiO2 
 PCOD8158908
Probable space group: C 2 2 21
;
_chemical_formula_sum "Si O2"
_cell_formula_units_Z 40
_cell_length_a 9.051699
_cell_length_b 23.204303
_cell_length_c 8.323158
_cell_angle_alpha 90.000000
_cell_angle_beta 90.000000
_cell_angle_gamma 90.000000
_cell_volume 1748.182508
_symmetry_space_group_name_H-M "C 2 2 21"
_symmetry_group_IT_number 20
_symmetry_cell_setting 'orthorhombic'
loop_
_space_group_symop_operation_xyz
x,y,z
-x,-y,1/2+z
x,-y,-z
-x,y,1/2-z
1/2+x,1/2+y,z
1/2-x,1/2-y,1/2+z
1/2+x,1/2-y,-z
1/2-x,1/2+y,1/2-z
loop_
_atom_site_type_symbol
_atom_site_label
_atom_site_fract_x
_atom_site_fract_y
_atom_site_fract_z
Si Si1 0.651819 0.976432 0.176780
Si Si2 0.325740 0.236038 0.733687
Si Si3 0.328281 0.424181 0.726682
Si Si4 0.149777 0.636058 0.990334
Si Si5 0.316890 0.167098 0.049758
O O1 0.500000 0.998719 0.250000
O O2 0.780443 0.008307 0.279560
O O3 0.656269 0.907016 0.165993
O O4 0.665358 0.000000 0.000000
O O5 0.500000 0.251476 0.750000
O O6 0.292631 0.196574 0.577540
O O7 0.225939 0.292884 0.705424
O O8 0.272057 0.201944 0.890908
O O9 0.500000 0.420997 0.750000
O O10 0.249818 0.389516 0.870556
O O11 0.282053 0.391195 0.562610
O O12 0.984588 0.645687 0.055969
#
# Coordination Sequence:
#
# PCOD8158908 Si02
#       5
#     8   8   8   8   8
#     4  10  20  39  66  92 122 165 218 270 325 394
#     4  10  22  39  63  96 132 168 216 272 326 389
#     4  11  23  40  62  91 128 168 216 275 334 388
#     4  10  22  43  64  92 129 171 218 268 325 395
#     4  11  21  39  67  95 128 172 218 267 329 396
#
# _framework density 22.880907000000001
#
# number of rings (size 3 to 8) (size 9 to 14) (size 15 to 20)
#    0.000    1.600    0.000    6.600    0.000    3.200 
#    0.000   20.000    0.000    0.000    0.000    0.000 
#    0.000    0.000    0.000    0.000    0.000    0.000 
#
# Total GULP energy -247879.726660 kJ/mol
# GULP energy per Si atom -12393.986333 kJ/mol
# Density = 2.282883 g / cm^3
# Si number density = 22.880907 Si / 1000 Ang^3
#
#
#
# Elastic Constant Matrix: (Units=GPa)
#
#
# Indices 1 2 3 4 5 6 
#
# 1 149.3828 70.5509 27.8833 0.0000 0.0000 0.0000
# 2 70.5509 138.8796 25.0411 0.0000 0.0000 0.0000
# 3 27.8833 25.0411 45.9003 0.0000 0.0000 0.0000
# 4 0.0000 0.0000 0.0000 30.3966 0.0000 0.0000
# 5 0.0000 0.0000 0.0000 0.0000 27.2364 0.0000
# 6 0.0000 0.0000 0.0000 0.0000 0.0000 19.2095
#
#
#
# Elastic Compliance Matrix: (Units=1/GPa)
#
#
# Indices 1 2 3 4 5 6 
#
# 1 0.009260 -0.004093 -0.003393 0.000000 0.000000 0.000000
# 2 -0.004093 0.009795 -0.002857 0.000000 0.000000 0.000000
# 3 -0.003393 -0.002857 0.025406 0.000000 0.000000 0.000000
# 4 0.000000 0.000000 0.000000 0.032898 0.000000 0.000000
# 5 0.000000 0.000000 0.000000 0.000000 0.036716 0.000000
# 6 0.000000 0.000000 0.000000 0.000000 0.000000 0.052058
#
#
# Mechanical properties :
#
#
# Convention : Reuss Voigt Hill
#
# Bulk Modulus (GPa) = 42.05944 64.56816 53.31380
# Shear Modulus (GPa) = 25.67483 29.41435 27.54459
#
# Velocity S-wave (km/s) = 3.35342 3.58933 3.47338
# Velocity P-wave (km/s) = 5.78063 6.74227 6.27989
#
# Compressibility (1/GPa) = 0.02377587
#
# Stress axis : x y z
#
# Youngs Moduli (GPa) = 107.98784 102.09610 39.36045
#
# Poissons Ratio (x) = 0.41783 0.13354
# Poissons Ratio (y) = 0.44194 0.11247
# Poissons Ratio (z) = 0.36637 0.29173
#
# Static dielectric constant tensor:
#      x y z
#    x 3.796740 0.000000 0.000000 
#    y 0.000000 5.218680 0.000000 
#    z 0.000000 0.000000 4.302010 
# 
# 
# High freq. dielectric constant tensor:
#      x y z
#    x 1.877810 0.000000 0.000000 
#    y 0.000000 1.928000 0.000000 
#    z 0.000000 0.000000 1.905040 
# 
# From -- ./inp_files/6041.got.cif
#   From: 2010.03.12/outbox.cif.g09.slc.cpg/sg20_4_cif.got.tgz:6041.got - 2010.04.14 01:38:04.
