data_PCOD8158427
_publ_section_title
;
Structure prediction by ZEFSAII (Michael W. Deem and Ramdas Pophale) SiO2 
 PCOD8158427
Probable space group: C 2 2 21
;
_chemical_formula_sum "Si O2"
_cell_formula_units_Z 32
_cell_length_a 7.513220
_cell_length_b 35.560017
_cell_length_c 5.229814
_cell_angle_alpha 90.000000
_cell_angle_beta 90.000000
_cell_angle_gamma 90.000000
_cell_volume 1397.250614
_symmetry_space_group_name_H-M "C 2 2 21"
_symmetry_group_IT_number 20
_symmetry_cell_setting 'orthorhombic'
loop_
_space_group_symop_operation_xyz
x,y,z
-x,-y,1/2+z
x,-y,-z
-x,y,1/2-z
1/2+x,1/2+y,z
1/2-x,1/2-y,1/2+z
1/2+x,1/2-y,-z
1/2-x,1/2+y,1/2-z
loop_
_atom_site_type_symbol
_atom_site_label
_atom_site_fract_x
_atom_site_fract_y
_atom_site_fract_z
Si Si1 0.884255 0.152964 0.993895
Si Si2 0.800739 0.270722 0.336961
Si Si3 0.186090 0.456114 0.497148
Si Si4 0.793849 0.576131 0.494969
O O1 0.736855 0.120612 0.025775
O O2 0.000000 0.157153 0.250000
O O3 0.786128 0.191750 0.943197
O O4 0.000000 0.141512 0.750000
O O5 0.804925 0.242525 0.581379
O O6 0.000000 0.278557 0.250000
O O7 0.141794 0.500000 0.500000
O O8 0.296271 0.444161 0.748895
O O9 0.003388 0.432496 0.500703
O O10 0.294900 0.442914 0.246640
#
# Coordination Sequence:
#
# PCOD8158427 Si02
#       4
#     8   8   8   8
#     4  12  26  45  67  95 142 179 220 278 338 399
#     4  12  26  47  75 102 136 177 229 276 340 409
#     4  10  19  36  65  94 129 166 225 289 329 397
#     4  10  20  35  61  91 127 163 224 262 343 375
#
# _framework density 22.90212
#
# number of rings (size 3 to 8) (size 9 to 14) (size 15 to 20)
#    0.000    1.000    0.000    9.750    3.500    0.000 
#    4.500    0.000    0.000   25.500    0.000    0.000 
#    0.000    0.000    0.000    0.000    0.000    0.000 
#
# Total GULP energy -198325.651272 kJ/mol
# GULP energy per Si atom -12395.353204 kJ/mol
# Density = 2.284999 g / cm^3
# Si number density = 22.902120 Si / 1000 Ang^3
#
#
#
# Elastic Constant Matrix: (Units=GPa)
#
#
# Indices 1 2 3 4 5 6 
#
# 1 70.9849 64.4898 38.2057 0.0000 0.0000 0.0000
# 2 64.4898 186.8941 79.4294 0.0000 0.0000 0.0000
# 3 38.2057 79.4294 260.2921 0.0000 0.0000 0.0000
# 4 0.0000 0.0000 0.0000 48.3891 0.0000 0.0000
# 5 0.0000 0.0000 0.0000 0.0000 22.7930 0.0000
# 6 0.0000 0.0000 0.0000 0.0000 0.0000 20.5290
#
#
#
# Elastic Compliance Matrix: (Units=1/GPa)
#
#
# Indices 1 2 3 4 5 6 
#
# 1 0.020739 -0.006736 -0.000989 0.000000 0.000000 0.000000
# 2 -0.006736 0.008336 -0.001555 0.000000 0.000000 0.000000
# 3 -0.000989 -0.001555 0.004461 0.000000 0.000000 0.000000
# 4 0.000000 0.000000 0.000000 0.020666 0.000000 0.000000
# 5 0.000000 0.000000 0.000000 0.000000 0.043873 0.000000
# 6 0.000000 0.000000 0.000000 0.000000 0.000000 0.048712
#
#
# Mechanical properties :
#
#
# Convention : Reuss Voigt Hill
#
# Bulk Modulus (GPa) = 66.76800 98.04677 82.40739
# Shear Modulus (GPa) = 29.35318 40.74529 35.04924
#
# Velocity S-wave (km/s) = 3.58394 4.22252 3.91627
# Velocity P-wave (km/s) = 6.80758 8.16560 7.51732
#
# Compressibility (1/GPa) = 0.01497723
#
# Stress axis : x y z
#
# Youngs Moduli (GPa) = 48.21736 119.96297 224.14232
#
# Poissons Ratio (x) = 0.80810 0.22157
# Poissons Ratio (y) = 0.32480 0.34854
# Poissons Ratio (z) = 0.04766 0.18654
#
# Static dielectric constant tensor:
#      x y z
#    x 3.711700 0.000000 0.000000 
#    y 0.000000 4.066080 0.000000 
#    z 0.000000 0.000000 10.315810 
# 
# 
# High freq. dielectric constant tensor:
#      x y z
#    x 1.871120 0.000000 0.000000 
#    y 0.000000 1.909330 0.000000 
#    z 0.000000 0.000000 1.952760 
# 
# From -- ./inp_files/680.got.cif
#   From: 2010.03.12/outbox.cif.g09.slc.cpg/sg20_1_cif.got.tgz:680.got - 2010.04.14 01:38:04.
