data_PCOD8158085
_publ_section_title
;
Structure prediction by ZEFSAII (Michael W. Deem and Ramdas Pophale) SiO2 
 PCOD8158085
Probable space group: C 2 2 21
;
_chemical_formula_sum "Si O2"
_cell_formula_units_Z 40
_cell_length_a 8.388517
_cell_length_b 26.930137
_cell_length_c 8.105145
_cell_angle_alpha 90.000000
_cell_angle_beta 90.000000
_cell_angle_gamma 90.000000
_cell_volume 1830.983963
_symmetry_space_group_name_H-M "C 2 2 21"
_symmetry_group_IT_number 20
_symmetry_cell_setting 'orthorhombic'
loop_
_space_group_symop_operation_xyz
x,y,z
-x,-y,1/2+z
x,-y,-z
-x,y,1/2-z
1/2+x,1/2+y,z
1/2-x,1/2-y,1/2+z
1/2+x,1/2-y,-z
1/2-x,1/2+y,1/2-z
loop_
_atom_site_type_symbol
_atom_site_label
_atom_site_fract_x
_atom_site_fract_y
_atom_site_fract_z
Si Si1 0.251494 0.600768 0.641895
Si Si2 0.777448 0.000000 0.500000
Si Si3 0.608101 0.383545 0.480553
Si Si4 0.269597 0.791086 0.627317
Si Si5 0.500000 0.548530 0.250000
Si Si6 0.377087 0.195761 0.009554
O O1 0.182242 0.549095 0.562213
O O2 0.267957 0.597733 0.840180
O O3 0.425171 0.615037 0.574477
O O4 0.129779 0.643033 0.583623
O O5 0.888859 0.988279 0.652344
O O6 0.650534 0.327774 0.532324
O O7 0.620989 0.418966 0.639035
O O8 0.440351 0.791829 0.541175
O O9 0.280142 0.805872 0.818927
O O10 0.198235 0.736077 0.613534
#
# Coordination Sequence:
#
# PCOD8158085 Si02
#       6
#     8   4   8   8   4   8
#     4  10  21  36  57  86 115 149 194 237 283 339
#     4  10  18  32  56  82 116 150 190 238 280 330
#     4  10  20  35  58  85 116 149 189 235 286 343
#     4  11  23  39  59  84 116 149 186 235 290 350
#     4  10  18  32  56  88 116 150 190 236 284 334
#     4  11  24  39  58  85 115 150 191 235 289 347
#
# _framework density 21.846177000000001
#
# number of rings (size 3 to 8) (size 9 to 14) (size 15 to 20)
#    0.000    1.600    0.000    7.200    0.000    8.000 
#    0.000    0.000    0.000   14.400    0.000    0.000 
#    0.000    0.000    0.000    0.000    0.000    0.000 
#
# Total GULP energy -247992.369938 kJ/mol
# GULP energy per Si atom -12399.618497 kJ/mol
# Density = 2.179645 g / cm^3
# Si number density = 21.846177 Si / 1000 Ang^3
#
#
#
# Elastic Constant Matrix: (Units=GPa)
#
#
# Indices 1 2 3 4 5 6 
#
# 1 36.3675 22.1972 16.6038 0.0000 0.0000 0.0000
# 2 22.1972 163.8293 44.1246 0.0000 0.0000 0.0000
# 3 16.6038 44.1246 116.7690 0.0000 0.0000 0.0000
# 4 0.0000 0.0000 0.0000 42.5594 0.0000 0.0000
# 5 0.0000 0.0000 0.0000 0.0000 19.2424 0.0000
# 6 0.0000 0.0000 0.0000 0.0000 0.0000 39.9631
#
#
#
# Elastic Compliance Matrix: (Units=1/GPa)
#
#
# Indices 1 2 3 4 5 6 
#
# 1 0.030975 -0.003352 -0.003138 0.000000 0.000000 0.000000
# 2 -0.003352 0.007158 -0.002228 0.000000 0.000000 0.000000
# 3 -0.003138 -0.002228 0.009852 0.000000 0.000000 0.000000
# 4 0.000000 0.000000 0.000000 0.023497 0.000000 0.000000
# 5 0.000000 0.000000 0.000000 0.000000 0.051968 0.000000
# 6 0.000000 0.000000 0.000000 0.000000 0.000000 0.025023
#
#
# Mechanical properties :
#
#
# Convention : Reuss Voigt Hill
#
# Bulk Modulus (GPa) = 32.73343 53.64633 43.18988
# Shear Modulus (GPa) = 28.39404 35.95566 32.17485
#
# Velocity S-wave (km/s) = 3.60908 4.06132 3.84186
# Velocity P-wave (km/s) = 5.69064 6.82657 6.28433
#
# Compressibility (1/GPa) = 0.03054981
#
# Stress axis : x y z
#
# Youngs Moduli (GPa) = 32.28358 139.69981 101.50051
#
# Poissons Ratio (x) = 0.46823 0.31851
# Poissons Ratio (y) = 0.10821 0.22618
# Poissons Ratio (z) = 0.10131 0.31130
#
# Static dielectric constant tensor:
#      x y z
#    x 3.530830 0.000000 0.000000 
#    y 0.000000 4.173330 0.000000 
#    z 0.000000 0.000000 4.174980 
# 
# 
# High freq. dielectric constant tensor:
#      x y z
#    x 1.821950 0.000000 0.000000 
#    y 0.000000 1.870070 0.000000 
#    z 0.000000 0.000000 1.879440 
# 
# From -- ./inp_files/6178.got.cif
#   From: 2010.03.12/outbox.cif.g09.slc.cpg/sg20_4_cif.got.tgz:6178.got - 2010.04.14 01:38:04.
