data_PCOD8158175
_publ_section_title
;
Structure prediction by ZEFSAII (Michael W. Deem and Ramdas Pophale) SiO2 
 PCOD8158175
Probable space group: C 2 2 21
;
_chemical_formula_sum "Si O2"
_cell_formula_units_Z 64
_cell_length_a 15.641171
_cell_length_b 10.697289
_cell_length_c 18.315870
_cell_angle_alpha 90.000000
_cell_angle_beta 90.000000
_cell_angle_gamma 90.000000
_cell_volume 3064.577053
_symmetry_space_group_name_H-M "C 2 2 21"
_symmetry_group_IT_number 20
_symmetry_cell_setting 'orthorhombic'
loop_
_space_group_symop_operation_xyz
x,y,z
-x,-y,1/2+z
x,-y,-z
-x,y,1/2-z
1/2+x,1/2+y,z
1/2-x,1/2-y,1/2+z
1/2+x,1/2-y,-z
1/2-x,1/2+y,1/2-z
loop_
_atom_site_type_symbol
_atom_site_label
_atom_site_fract_x
_atom_site_fract_y
_atom_site_fract_z
Si Si1 0.343217 0.998942 0.804563
Si Si2 0.863785 0.404329 0.346644
Si Si3 0.463987 0.079786 0.927927
Si Si4 0.314970 0.361063 0.711661
Si Si5 0.652118 0.310858 0.541898
Si Si6 0.737829 0.262580 0.162120
Si Si7 0.099397 0.889181 0.239698
Si Si8 0.178196 0.070853 0.606026
O O1 0.383170 0.004035 0.722456
O O2 0.417050 0.005155 0.863530
O O3 0.278628 0.114165 0.803875
O O4 0.279401 0.883889 0.824022
O O5 0.857868 0.259660 0.323023
O O6 0.779380 0.454024 0.386889
O O7 0.937595 0.411354 0.406577
O O8 0.425446 0.217999 0.938662
O O9 0.451900 0.000000 0.000000
O O10 0.289591 0.349552 0.797664
O O11 0.382889 0.474086 0.704734
O O12 0.741498 0.253956 0.576182
O O13 0.631629 0.444726 0.578671
O O14 0.663550 0.322430 0.455366
O O15 0.637847 0.280589 0.185117
O O16 0.141559 0.875574 0.318982
O O17 0.000000 0.863753 0.250000
#
# Coordination Sequence:
#
# PCOD8158175 Si02
#       8
#     8   8   8   8   8   8   8   8
#     4   9  19  38  62  89 124 159 213 269 322 380
#     4  11  22  40  67  97 124 169 230 268 324 391
#     4  11  26  41  62  98 131 167 221 276 321 399
#     4  10  18  36  67  86 124 165 218 256 328 388
#     4  10  23  42  66  84 132 184 218 258 344 399
#     4   9  17  38  59  90 120 166 213 262 318 394
#     4  11  22  36  64  99 129 158 219 285 326 383
#     4  11  22  42  66  92 129 177 218 273 331 405
#
# _framework density 20.883796
#
# number of rings (size 3 to 8) (size 9 to 14) (size 15 to 20)
#    0.000    1.750    5.000    0.375    5.250    0.000 
#    2.250    2.500    0.000    0.000    0.000    0.000 
#    0.000    0.000    0.000    0.000    0.000    0.000 
#
# Total GULP energy -396554.689655 kJ/mol
# GULP energy per Si atom -12392.334052 kJ/mol
# Density = 2.083626 g / cm^3
# Si number density = 20.883796 Si / 1000 Ang^3
#
#
#
# Elastic Constant Matrix: (Units=GPa)
#
#
# Indices 1 2 3 4 5 6 
#
# 1 123.3471 23.4608 32.3363 0.0000 0.0000 0.0000
# 2 23.4608 43.2383 22.4903 0.0000 0.0000 0.0000
# 3 32.3363 22.4903 78.4972 0.0000 0.0000 0.0000
# 4 0.0000 0.0000 0.0000 31.3252 0.0000 0.0000
# 5 0.0000 0.0000 0.0000 0.0000 24.3232 0.0000
# 6 0.0000 0.0000 0.0000 0.0000 0.0000 25.9262
#
#
#
# Elastic Compliance Matrix: (Units=1/GPa)
#
#
# Indices 1 2 3 4 5 6 
#
# 1 0.009565 -0.003690 -0.002883 0.000000 0.000000 0.000000
# 2 -0.003690 0.028602 -0.006674 0.000000 0.000000 0.000000
# 3 -0.002883 -0.006674 0.015839 0.000000 0.000000 0.000000
# 4 0.000000 0.000000 0.000000 0.031923 0.000000 0.000000
# 5 0.000000 0.000000 0.000000 0.000000 0.041113 0.000000
# 6 0.000000 0.000000 0.000000 0.000000 0.000000 0.038571
#
#
# Mechanical properties :
#
#
# Convention : Reuss Voigt Hill
#
# Bulk Modulus (GPa) = 36.34985 44.62860 40.48923
# Shear Modulus (GPa) = 24.84120 27.43460 26.13790
#
# Velocity S-wave (km/s) = 3.45265 3.62840 3.54162
# Velocity P-wave (km/s) = 5.77390 6.24260 6.01282
#
# Compressibility (1/GPa) = 0.02751043
#
# Stress axis : x y z
#
# Youngs Moduli (GPa) = 104.54928 34.96293 63.13456
#
# Poissons Ratio (x) = 0.12902 0.18201
# Poissons Ratio (y) = 0.38582 0.42139
# Poissons Ratio (z) = 0.30140 0.23336
#
# Static dielectric constant tensor:
#      x y z
#    x 3.605130 0.000000 0.000000 
#    y 0.000000 3.955550 0.000000 
#    z 0.000000 0.000000 3.746400 
# 
# 
# High freq. dielectric constant tensor:
#      x y z
#    x 1.797960 0.000000 0.000000 
#    y 0.000000 1.826160 0.000000 
#    z 0.000000 0.000000 1.809590 
# 
# From -- ./inp_files/24978.got.cif
#   From: 2010.03.12/outbox.cif.g09.slc.cpg/sg20_13_cif.got.tgz:24978.got - 2010.04.14 01:38:04.
