data_PCOD8158253
_publ_section_title
;
Structure prediction by ZEFSAII (Michael W. Deem and Ramdas Pophale) SiO2 
 PCOD8158253
Probable space group: C 2 2 21
;
_chemical_formula_sum "Si O2"
_cell_formula_units_Z 28
_cell_length_a 7.093460
_cell_length_b 30.757198
_cell_length_c 5.245330
_cell_angle_alpha 90.000000
_cell_angle_beta 90.000000
_cell_angle_gamma 90.000000
_cell_volume 1144.399630
_symmetry_space_group_name_H-M "C 2 2 21"
_symmetry_group_IT_number 20
_symmetry_cell_setting 'orthorhombic'
loop_
_space_group_symop_operation_xyz
x,y,z
-x,-y,1/2+z
x,-y,-z
-x,y,1/2-z
1/2+x,1/2+y,z
1/2-x,1/2-y,1/2+z
1/2+x,1/2-y,-z
1/2-x,1/2+y,1/2-z
loop_
_atom_site_type_symbol
_atom_site_label
_atom_site_fract_x
_atom_site_fract_y
_atom_site_fract_z
Si Si1 0.200889 0.631189 0.477323
Si Si2 0.779409 0.594319 0.520799
Si Si3 0.620559 0.000000 0.000000
Si Si4 0.207847 0.775142 0.838774
O O1 0.317406 0.610582 0.240311
O O2 0.178776 0.682735 0.437017
O O3 0.998243 0.608453 0.501217
O O4 0.313276 0.619101 0.736864
O O5 0.753442 0.542513 0.555075
O O6 0.500000 0.010719 0.250000
O O7 0.311718 0.755974 0.587488
O O8 0.000000 0.788345 0.750000
#
# Coordination Sequence:
#
# PCOD8158253 Si02
#       4
#     8   8   4   8
#     4  10  20  35  54  84 119 162 205 245 328 361
#     4  10  19  31  59  88 127 166 195 272 298 389
#     4  12  16  30  48  94 132 152 210 246 332 344
#     4  12  28  45  67  93 126 171 222 279 326 391
#
# _framework density 24.466977
#
# number of rings (size 3 to 8) (size 9 to 14) (size 15 to 20)
#    0.000    1.143    5.714    2.571   12.000    0.000 
#    0.000    0.000    0.000    0.000    0.000    6.000 
#    0.000    0.000    0.000    0.000    0.000    0.000 
#
# Total GULP energy -173495.282595 kJ/mol
# GULP energy per Si atom -12392.520185 kJ/mol
# Density = 2.441129 g / cm^3
# Si number density = 24.466977 Si / 1000 Ang^3
#
#
#
# Elastic Constant Matrix: (Units=GPa)
#
#
# Indices 1 2 3 4 5 6 
#
# 1 29.3478 10.9571 -1.7382 0.0000 0.0000 0.0000
# 2 10.9571 199.9114 74.6694 0.0000 0.0000 0.0000
# 3 -1.7382 74.6694 273.8559 0.0000 0.0000 0.0000
# 4 0.0000 0.0000 0.0000 56.5621 0.0000 0.0000
# 5 0.0000 0.0000 0.0000 0.0000 6.6872 0.0000
# 6 0.0000 0.0000 0.0000 0.0000 0.0000 0.2873
#
#
#
# Elastic Compliance Matrix: (Units=1/GPa)
#
#
# Indices 1 2 3 4 5 6 
#
# 1 0.034954 -0.002225 0.000829 0.000000 0.000000 0.000000
# 2 -0.002225 0.005711 -0.001571 0.000000 0.000000 0.000000
# 3 0.000829 -0.001571 0.004085 0.000000 0.000000 0.000000
# 4 0.000000 0.000000 0.000000 0.017680 0.000000 0.000000
# 5 0.000000 0.000000 0.000000 0.000000 0.149539 0.000000
# 6 0.000000 0.000000 0.000000 0.000000 0.000000 3.481140
#
#
# Mechanical properties :
#
#
# Convention : Reuss Voigt Hill
#
# Bulk Modulus (GPa) = 25.76366 74.54352 50.15359
# Shear Modulus (GPa) = 1.34699 40.65577 21.00138
#
# Velocity S-wave (km/s) = 0.74278 4.08077 2.93295
# Velocity P-wave (km/s) = 3.35983 7.26200 5.65797
#
# Compressibility (1/GPa) = 0.03881436
#
# Stress axis : x y z
#
# Youngs Moduli (GPa) = 28.60899 175.09803 244.78327
#
# Poissons Ratio (x) = 0.38965 -0.20283
# Poissons Ratio (y) = 0.06366 0.38463
# Poissons Ratio (z) = -0.02371 0.27513
#
# Static dielectric constant tensor:
#      x y z
#    x 3.572190 0.000000 0.000000 
#    y 0.000000 4.378860 0.000000 
#    z 0.000000 0.000000 9.112130 
# 
# 
# High freq. dielectric constant tensor:
#      x y z
#    x 1.912500 0.000000 0.000000 
#    y 0.000000 1.976180 0.000000 
#    z 0.000000 0.000000 2.019280 
# 
# From -- ./inp_files/452.got.cif
#   From: 2010.03.12/outbox.cif.g09.slc.cpg/sg20_1_cif.got.tgz:452.got - 2010.04.14 01:38:04.
