data_PCOD8158756
_publ_section_title
;
Structure prediction by ZEFSAII (Michael W. Deem and Ramdas Pophale) SiO2 
 PCOD8158756
Probable space group: C 2 2 21
;
_chemical_formula_sum "Si O2"
_cell_formula_units_Z 40
_cell_length_a 14.604312
_cell_length_b 11.652978
_cell_length_c 12.455958
_cell_angle_alpha 90.000000
_cell_angle_beta 90.000000
_cell_angle_gamma 90.000000
_cell_volume 2119.801349
_symmetry_space_group_name_H-M "C 2 2 21"
_symmetry_group_IT_number 20
_symmetry_cell_setting 'orthorhombic'
loop_
_space_group_symop_operation_xyz
x,y,z
-x,-y,1/2+z
x,-y,-z
-x,y,1/2-z
1/2+x,1/2+y,z
1/2-x,1/2-y,1/2+z
1/2+x,1/2-y,-z
1/2-x,1/2+y,1/2-z
loop_
_atom_site_type_symbol
_atom_site_label
_atom_site_fract_x
_atom_site_fract_y
_atom_site_fract_z
Si Si1 0.000000 0.875196 0.750000
Si Si2 0.398682 0.888149 0.565613
Si Si3 0.763573 0.815181 0.461610
Si Si4 0.943649 0.313572 0.086772
Si Si5 0.500000 0.001141 0.250000
Si Si6 0.853638 0.973852 0.610601
O O1 0.970911 0.800828 0.851022
O O2 0.915813 0.955821 0.714561
O O3 0.313179 0.802730 0.569356
O O4 0.485723 0.828790 0.509980
O O5 0.426469 0.920854 0.687164
O O6 0.367027 0.000000 0.500000
O O7 0.655697 0.795313 0.462966
O O8 0.792727 0.860051 0.581460
O O9 0.788785 0.913948 0.372817
O O10 0.944785 0.423217 0.165112
O O11 0.912305 0.000000 0.500000
#
# Coordination Sequence:
#
# PCOD8158756 Si02
#       6
#     4   8   8   8   4   8
#     4  11  18  39  64  82 114 163 195 242 300 356
#     4  10  20  39  56  86 121 145 204 247 290 358
#     4   9  20  38  54  85 118 151 190 247 288 350
#     4  10  20  37  61  84 119 155 194 246 299 349
#     4   9  22  31  58  86 110 163 191 240 308 348
#     4   8  20  35  60  81 117 149 203 225 295 349
#
# _framework density 18.869692000000001
#
# number of rings (size 3 to 8) (size 9 to 14) (size 15 to 20)
#    1.200    1.200    2.000    0.000    8.400    2.400 
#    0.000    3.000    0.000    0.000    0.000    0.000 
#    0.000    0.000    0.000    0.000    0.000    0.000 
#
# Total GULP energy -247818.940869 kJ/mol
# GULP energy per Si atom -12390.947043 kJ/mol
# Density = 1.882674 g / cm^3
# Si number density = 18.869692 Si / 1000 Ang^3
#
#
#
# Elastic Constant Matrix: (Units=GPa)
#
#
# Indices 1 2 3 4 5 6 
#
# 1 110.7619 27.7545 15.5148 0.0000 0.0000 0.0000
# 2 27.7545 73.2513 0.0559 0.0000 0.0000 0.0000
# 3 15.5148 0.0559 47.7913 0.0000 0.0000 0.0000
# 4 0.0000 0.0000 0.0000 20.4870 0.0000 0.0000
# 5 0.0000 0.0000 0.0000 0.0000 24.1050 0.0000
# 6 0.0000 0.0000 0.0000 0.0000 0.0000 9.0066
#
#
#
# Elastic Compliance Matrix: (Units=1/GPa)
#
#
# Indices 1 2 3 4 5 6 
#
# 1 0.010502 -0.003976 -0.003405 0.000000 0.000000 0.000000
# 2 -0.003976 0.015157 0.001273 0.000000 0.000000 0.000000
# 3 -0.003405 0.001273 0.022028 0.000000 0.000000 0.000000
# 4 0.000000 0.000000 0.000000 0.048811 0.000000 0.000000
# 5 0.000000 0.000000 0.000000 0.000000 0.041485 0.000000
# 6 0.000000 0.000000 0.000000 0.000000 0.000000 0.111029
#
#
# Mechanical properties :
#
#
# Convention : Reuss Voigt Hill
#
# Bulk Modulus (GPa) = 28.19174 35.38388 31.78781
# Shear Modulus (GPa) = 18.31149 23.28501 20.79825
#
# Velocity S-wave (km/s) = 3.11853 3.51663 3.32355
# Velocity P-wave (km/s) = 5.28580 5.93981 5.62232
#
# Compressibility (1/GPa) = 0.03547138
#
# Stress axis : x y z
#
# Youngs Moduli (GPa) = 95.22300 65.97480 45.39660
#
# Poissons Ratio (x) = 0.26234 0.15456
# Poissons Ratio (y) = 0.37865 -0.05780
# Poissons Ratio (z) = 0.32419 -0.08400
#
# Static dielectric constant tensor:
#      x y z
#    x 3.126760 0.000000 0.000000 
#    y 0.000000 3.506450 0.000000 
#    z 0.000000 0.000000 3.257230 
# 
# 
# High freq. dielectric constant tensor:
#      x y z
#    x 1.715750 0.000000 0.000000 
#    y 0.000000 1.736070 0.000000 
#    z 0.000000 0.000000 1.710570 
# 
# From -- ./inp_files/19723.got.cif
#   From: 2010.03.12/outbox.cif.g09.slc.cpg/sg20_10_cif.got.tgz:19723.got - 2010.04.14 01:38:04.
