data_PCOD8158144
_publ_section_title
;
Structure prediction by ZEFSAII (Michael W. Deem and Ramdas Pophale) SiO2 
 PCOD8158144
Probable space group: C 2 2 21
;
_chemical_formula_sum "Si O2"
_cell_formula_units_Z 32
_cell_length_a 13.599446
_cell_length_b 7.455241
_cell_length_c 13.922909
_cell_angle_alpha 90.000000
_cell_angle_beta 90.000000
_cell_angle_gamma 90.000000
_cell_volume 1411.604027
_symmetry_space_group_name_H-M "C 2 2 21"
_symmetry_group_IT_number 20
_symmetry_cell_setting 'orthorhombic'
loop_
_space_group_symop_operation_xyz
x,y,z
-x,-y,1/2+z
x,-y,-z
-x,y,1/2-z
1/2+x,1/2+y,z
1/2-x,1/2-y,1/2+z
1/2+x,1/2-y,-z
1/2-x,1/2+y,1/2-z
loop_
_atom_site_type_symbol
_atom_site_label
_atom_site_fract_x
_atom_site_fract_y
_atom_site_fract_z
Si Si1 0.544422 0.391832 0.853419
Si Si2 0.842364 0.570254 0.720320
Si Si3 0.106701 0.644943 0.577326
Si Si4 0.311831 0.309160 0.357224
O O1 0.500000 0.442840 0.750000
O O2 0.459706 0.325504 0.927698
O O3 0.598662 0.568264 0.895381
O O4 0.625154 0.233799 0.846970
O O5 0.911945 0.561058 0.815754
O O6 0.730017 0.607722 0.756415
O O7 0.850995 0.390487 0.658944
O O8 0.072055 0.500000 0.500000
O O9 0.222382 0.695322 0.564904
#
# Coordination Sequence:
#
# PCOD8158144 Si02
#       4
#     8   8   8   8
#     4  10  19  35  59  84 112 153 199 240 291 362
#     4   9  17  33  60  82 109 154 199 235 289 353
#     4   9  20  38  56  86 128 149 193 263 298 342
#     4  10  18  35  62  81 113 154 202 238 292 354
#
# _framework density 22.669248
#
# number of rings (size 3 to 8) (size 9 to 14) (size 15 to 20)
#    1.500    1.000    2.500    0.000    0.000    3.000 
#    4.500    0.000    0.000   16.500    0.000    0.000 
#    0.000    0.000    0.000    0.000    0.000    0.000 
#
# Total GULP energy -198288.013993 kJ/mol
# GULP energy per Si atom -12393.000875 kJ/mol
# Density = 2.261765 g / cm^3
# Si number density = 22.669248 Si / 1000 Ang^3
#
#
#
# Elastic Constant Matrix: (Units=GPa)
#
#
# Indices 1 2 3 4 5 6 
#
# 1 99.5106 35.8181 -6.8666 0.0000 0.0000 0.0000
# 2 35.8181 110.4674 -11.7365 0.0000 0.0000 0.0000
# 3 -6.8666 -11.7365 6.7075 0.0000 0.0000 0.0000
# 4 0.0000 0.0000 0.0000 10.5154 0.0000 0.0000
# 5 0.0000 0.0000 0.0000 0.0000 15.3784 0.0000
# 6 0.0000 0.0000 0.0000 0.0000 0.0000 44.0803
#
#
#
# Elastic Compliance Matrix: (Units=1/GPa)
#
#
# Indices 1 2 3 4 5 6 
#
# 1 0.011604 -0.003071 0.006505 0.000000 0.000000 0.000000
# 2 -0.003071 0.011933 0.017735 0.000000 0.000000 0.000000
# 3 0.006505 0.017735 0.186779 0.000000 0.000000 0.000000
# 4 0.000000 0.000000 0.000000 0.095098 0.000000 0.000000
# 5 0.000000 0.000000 0.000000 0.000000 0.065026 0.000000
# 6 0.000000 0.000000 0.000000 0.000000 0.000000 0.022686
#
#
# Mechanical properties :
#
#
# Convention : Reuss Voigt Hill
#
# Bulk Modulus (GPa) = 3.95801 27.90171 15.92986
# Shear Modulus (GPa) = 11.49411 27.29285 19.39348
#
# Velocity S-wave (km/s) = 2.25419 3.47358 2.92806
# Velocity P-wave (km/s) = 2.91975 5.33128 4.29811
#
# Compressibility (1/GPa) = 0.25265211
#
# Stress axis : x y z
#
# Youngs Moduli (GPa) = 86.18080 83.80466 5.35393
#
# Poissons Ratio (x) = 0.25738 -0.03483
# Poissons Ratio (y) = 0.26468 -0.09495
# Poissons Ratio (z) = -0.56059 -1.48628
#
# Static dielectric constant tensor:
#      x y z
#    x 4.067030 0.000000 0.000000 
#    y 0.000000 3.698310 0.000000 
#    z 0.000000 0.000000 3.384530 
# 
# 
# High freq. dielectric constant tensor:
#      x y z
#    x 1.895250 0.000000 0.000000 
#    y 0.000000 1.882520 0.000000 
#    z 0.000000 0.000000 1.842510 
# 
# From -- ./inp_files/14653.got.cif
#   From: 2010.03.12/outbox.cif.g09.slc.cpg/sg20_8_cif.got.tgz:14653.got - 2010.04.14 01:38:04.
