data_PCOD8158851
_publ_section_title
;
Structure prediction by ZEFSAII (Michael W. Deem and Ramdas Pophale) SiO2 
 PCOD8158851
Probable space group: C 2 2 21
;
_chemical_formula_sum "Si O2"
_cell_formula_units_Z 36
_cell_length_a 8.124370
_cell_length_b 16.545493
_cell_length_c 12.715701
_cell_angle_alpha 90.000000
_cell_angle_beta 90.000000
_cell_angle_gamma 90.000000
_cell_volume 1709.266234
_symmetry_space_group_name_H-M "C 2 2 21"
_symmetry_group_IT_number 20
_symmetry_cell_setting 'orthorhombic'
loop_
_space_group_symop_operation_xyz
x,y,z
-x,-y,1/2+z
x,-y,-z
-x,y,1/2-z
1/2+x,1/2+y,z
1/2-x,1/2-y,1/2+z
1/2+x,1/2-y,-z
1/2-x,1/2+y,1/2-z
loop_
_atom_site_type_symbol
_atom_site_label
_atom_site_fract_x
_atom_site_fract_y
_atom_site_fract_z
Si Si1 0.186779 0.384827 0.785313
Si Si2 0.869230 0.500000 0.000000
Si Si3 0.685951 0.961407 0.104466
Si Si4 0.684445 0.655891 0.074181
Si Si5 0.184841 0.819236 0.502542
O O1 0.233744 0.481140 0.796950
O O2 0.308904 0.342775 0.701687
O O3 0.199328 0.341892 0.898793
O O4 0.000000 0.372903 0.750000
O O5 0.754476 0.430118 0.957949
O O6 0.986022 0.535251 0.906586
O O7 0.757621 0.869900 0.102823
O O8 0.769223 0.000000 0.000000
O O9 0.501627 0.664180 0.032671
O O10 0.797211 0.725617 0.025006
#
# Coordination Sequence:
#
# PCOD8158851 Si02
#       5
#     8   4   8   8   8
#     4  11  20  42  68  95 130 171 216 268 330 387
#     4  10  20  38  66  94 128 172 208 266 330 380
#     4   8  18  39  65  88 125 170 206 266 325 372
#     4  12  24  41  68 100 133 175 219 268 330 387
#     4  11  24  43  67  96 138 170 219 273 324 389
#
# _framework density 21.061667
#
# number of rings (size 3 to 8) (size 9 to 14) (size 15 to 20)
#    0.667    0.889    2.222    3.333    4.667    0.000 
#    4.000    0.000    0.000    0.000    0.000    0.000 
#    0.000    0.000    0.000    0.000    0.000    0.000 
#
# Total GULP energy -223034.052581 kJ/mol
# GULP energy per Si atom -12390.780699 kJ/mol
# Density = 2.101373 g / cm^3
# Si number density = 21.061667 Si / 1000 Ang^3
#
#
#
# Elastic Constant Matrix: (Units=GPa)
#
#
# Indices 1 2 3 4 5 6 
#
# 1 125.9078 50.9906 36.4657 0.0000 0.0000 0.0000
# 2 50.9906 118.1340 51.2278 0.0000 0.0000 0.0000
# 3 36.4657 51.2278 86.0957 0.0000 0.0000 0.0000
# 4 0.0000 0.0000 0.0000 38.3133 0.0000 0.0000
# 5 0.0000 0.0000 0.0000 0.0000 28.5588 0.0000
# 6 0.0000 0.0000 0.0000 0.0000 0.0000 30.2597
#
#
#
# Elastic Compliance Matrix: (Units=1/GPa)
#
#
# Indices 1 2 3 4 5 6 
#
# 1 0.009933 -0.003320 -0.002232 0.000000 0.000000 0.000000
# 2 -0.003320 0.012518 -0.006042 0.000000 0.000000 0.000000
# 3 -0.002232 -0.006042 0.016156 0.000000 0.000000 0.000000
# 4 0.000000 0.000000 0.000000 0.026101 0.000000 0.000000
# 5 0.000000 0.000000 0.000000 0.000000 0.035015 0.000000
# 6 0.000000 0.000000 0.000000 0.000000 0.000000 0.033047
#
#
# Mechanical properties :
#
#
# Convention : Reuss Voigt Hill
#
# Bulk Modulus (GPa) = 64.85538 67.50065 66.17801
# Shear Modulus (GPa) = 31.03709 32.18991 31.61350
#
# Velocity S-wave (km/s) = 3.84295 3.91367 3.87847
# Velocity P-wave (km/s) = 7.10992 7.24852 7.17956
#
# Compressibility (1/GPa) = 0.01541892
#
# Stress axis : x y z
#
# Youngs Moduli (GPa) = 100.67321 79.88480 61.89816
#
# Poissons Ratio (x) = 0.26519 0.13815
# Poissons Ratio (y) = 0.33420 0.37401
# Poissons Ratio (z) = 0.22470 0.48269
#
# Static dielectric constant tensor:
#      x y z
#    x 3.633980 0.000000 0.000000 
#    y 0.000000 4.073810 0.000000 
#    z 0.000000 0.000000 4.012930 
# 
# 
# High freq. dielectric constant tensor:
#      x y z
#    x 1.821300 0.000000 0.000000 
#    y 0.000000 1.825350 0.000000 
#    z 0.000000 0.000000 1.804430 
# 
# From -- ./inp_files/18379.got.cif
#   From: 2010.03.12/outbox.cif.g09.slc.cpg/sg20_10_cif.got.tgz:18379.got - 2010.04.14 01:38:04.
