data_PCOD8158727
_publ_section_title
;
Structure prediction by ZEFSAII (Michael W. Deem and Ramdas Pophale) SiO2 
 PCOD8158727
Probable space group: C 2 2 21
;
_chemical_formula_sum "Si O2"
_cell_formula_units_Z 64
_cell_length_a 11.281805
_cell_length_b 18.725051
_cell_length_c 14.770208
_cell_angle_alpha 90.000000
_cell_angle_beta 90.000000
_cell_angle_gamma 90.000000
_cell_volume 3120.241504
_symmetry_space_group_name_H-M "C 2 2 21"
_symmetry_group_IT_number 20
_symmetry_cell_setting 'orthorhombic'
loop_
_space_group_symop_operation_xyz
x,y,z
-x,-y,1/2+z
x,-y,-z
-x,y,1/2-z
1/2+x,1/2+y,z
1/2-x,1/2-y,1/2+z
1/2+x,1/2-y,-z
1/2-x,1/2+y,1/2-z
loop_
_atom_site_type_symbol
_atom_site_label
_atom_site_fract_x
_atom_site_fract_y
_atom_site_fract_z
Si Si1 0.488794 0.420832 0.021387
Si Si2 0.777449 0.856487 0.410545
Si Si3 0.639452 0.090147 0.242306
Si Si4 0.259229 0.798429 0.603520
Si Si5 0.003704 0.828598 0.646723
Si Si6 0.779377 0.162258 0.902759
Si Si7 0.241549 0.685016 0.393303
Si Si8 0.139845 0.576124 0.754017
O O1 0.614195 0.409494 0.069812
O O2 0.393921 0.386861 0.088870
O O3 0.454733 0.500000 0.000000
O O4 0.483149 0.394796 0.918952
O O5 0.821969 0.778087 0.375334
O O6 0.709723 0.839808 0.504929
O O7 0.693231 0.896945 0.340659
O O8 0.500000 0.100744 0.250000
O O9 0.687083 0.136331 0.159229
O O10 0.703263 0.119054 0.331881
O O11 0.672667 0.007011 0.230057
O O12 0.121147 0.781059 0.629172
O O13 0.280081 0.822466 0.500234
O O14 0.000000 0.855095 0.750000
O O15 0.879938 0.791625 0.619530
O O16 0.822900 0.240447 0.866486
O O17 0.687959 0.123233 0.836605
O O18 0.000000 0.587315 0.750000
#
# Coordination Sequence:
#
# PCOD8158727 Si02
#       8
#     8   8   8   8   8   8   8   8
#     4  10  24  41  64  98 125 163 211 266 326 390
#     4  10  24  42  66  93 131 161 218 263 319 378
#     4  11  25  41  63  91 128 168 214 258 323 390
#     4  10  22  41  66  94 125 171 207 271 316 377
#     4  10  20  36  67  93 121 164 216 257 319 379
#     4  10  24  42  66  93 131 161 218 263 319 378
#     4  10  22  41  66  94 125 171 207 271 316 377
#     4  11  27  43  63  95 128 176 218 260 321 390
#
# _framework density 20.511233000000001
#
# number of rings (size 3 to 8) (size 9 to 14) (size 15 to 20)
#    0.000    1.750    1.250    0.750   10.500    1.500 
#    0.000    2.500    0.000    0.000    0.000    0.000 
#    0.000    0.000    0.000    0.000    0.000    0.000 
#
# Total GULP energy -396566.897766 kJ/mol
# GULP energy per Si atom -12392.715555 kJ/mol
# Density = 2.046455 g / cm^3
# Si number density = 20.511233 Si / 1000 Ang^3
#
#
#
# Elastic Constant Matrix: (Units=GPa)
#
#
# Indices 1 2 3 4 5 6 
#
# 1 68.7390 18.6123 21.1883 0.0000 0.0000 0.0000
# 2 18.6123 93.2833 21.1427 0.0000 0.0000 0.0000
# 3 21.1883 21.1427 111.5364 0.0000 0.0000 0.0000
# 4 0.0000 0.0000 0.0000 30.7036 0.0000 0.0000
# 5 0.0000 0.0000 0.0000 0.0000 18.3103 0.0000
# 6 0.0000 0.0000 0.0000 0.0000 0.0000 30.5015
#
#
#
# Elastic Compliance Matrix: (Units=1/GPa)
#
#
# Indices 1 2 3 4 5 6 
#
# 1 0.016044 -0.002623 -0.002551 0.000000 0.000000 0.000000
# 2 -0.002623 0.011630 -0.001706 0.000000 0.000000 0.000000
# 3 -0.002551 -0.001706 0.009774 0.000000 0.000000 0.000000
# 4 0.000000 0.000000 0.000000 0.032569 0.000000 0.000000
# 5 0.000000 0.000000 0.000000 0.000000 0.054614 0.000000
# 6 0.000000 0.000000 0.000000 0.000000 0.000000 0.032785
#
#
# Mechanical properties :
#
#
# Convention : Reuss Voigt Hill
#
# Bulk Modulus (GPa) = 42.21554 43.93835 43.07694
# Shear Modulus (GPa) = 27.92159 30.07744 28.99952
#
# Velocity S-wave (km/s) = 3.69356 3.83350 3.76418
# Velocity P-wave (km/s) = 6.23026 6.40800 6.31975
#
# Compressibility (1/GPa) = 0.02368796
#
# Stress axis : x y z
#
# Youngs Moduli (GPa) = 62.32758 85.98355 102.31571
#
# Poissons Ratio (x) = 0.22554 0.26097
# Poissons Ratio (y) = 0.16349 0.17458
# Poissons Ratio (z) = 0.15898 0.14671
#
# Static dielectric constant tensor:
#      x y z
#    x 4.003480 0.000000 0.000000 
#    y 0.000000 3.796130 0.000000 
#    z 0.000000 0.000000 3.891510 
# 
# 
# High freq. dielectric constant tensor:
#      x y z
#    x 1.793560 0.000000 0.000000 
#    y 0.000000 1.808610 0.000000 
#    z 0.000000 0.000000 1.813610 
# 
# From -- ./inp_files/20271.got.cif
#   From: 2010.03.12/outbox.cif.g09.slc.cpg/sg20_11_cif.got.tgz:20271.got - 2010.04.14 01:38:04.
