data_PCOD8158928
_publ_section_title
;
Structure prediction by ZEFSAII (Michael W. Deem and Ramdas Pophale) SiO2 
 PCOD8158928
Probable space group: C 2 2 21
;
_chemical_formula_sum "Si O2"
_cell_formula_units_Z 60
_cell_length_a 12.621362
_cell_length_b 8.764136
_cell_length_c 27.966072
_cell_angle_alpha 90.000000
_cell_angle_beta 90.000000
_cell_angle_gamma 90.000000
_cell_volume 3093.476369
_symmetry_space_group_name_H-M "C 2 2 21"
_symmetry_group_IT_number 20
_symmetry_cell_setting 'orthorhombic'
loop_
_space_group_symop_operation_xyz
x,y,z
-x,-y,1/2+z
x,-y,-z
-x,y,1/2-z
1/2+x,1/2+y,z
1/2-x,1/2-y,1/2+z
1/2+x,1/2-y,-z
1/2-x,1/2+y,1/2-z
loop_
_atom_site_type_symbol
_atom_site_label
_atom_site_fract_x
_atom_site_fract_y
_atom_site_fract_z
Si Si1 0.531296 0.491061 0.828319
Si Si2 0.252363 0.499852 0.443690
Si Si3 0.841249 0.506791 0.318205
Si Si4 0.644956 0.401908 0.737410
Si Si5 0.629082 0.242956 0.888220
Si Si6 0.105981 0.246064 0.891620
Si Si7 0.500000 0.120003 0.750000
Si Si8 0.993613 0.496860 0.944688
O O1 0.625961 0.474176 0.789530
O O2 0.418679 0.493683 0.802858
O O3 0.540758 0.353803 0.865964
O O4 0.535830 0.649183 0.855462
O O5 0.277641 0.500000 0.500000
O O6 0.288437 0.659968 0.420021
O O7 0.310911 0.356651 0.420201
O O8 0.129016 0.474951 0.433275
O O9 0.766561 0.568538 0.275594
O O10 0.810822 0.346659 0.344673
O O11 0.833561 0.630819 0.359724
O O12 0.958525 0.484701 0.294067
O O13 0.601358 0.226753 0.735763
O O14 0.565451 0.124660 0.920491
O O15 0.025852 0.328241 0.927635
O O16 0.018045 0.500000 0.000000
#
# Coordination Sequence:
#
# PCOD8158928 Si02
#       8
#     8   8   8   8   8   8   4   8
#     4   9  20  39  57  84 121 153 197 241 289 341
#     4  10  22  41  64  87 119 157 191 242 309 359
#     4  11  23  37  63  87 118 165 197 244 301 329
#     4  10  21  38  61  79 122 161 195 239 293 345
#     4  10  20  40  60  87 118 155 194 245 290 356
#     4  10  23  37  58  96 114 148 206 248 279 360
#     4  10  22  44  52  88 124 158 198 242 292 348
#     4  10  22  40  62  87 118 154 190 246 305 351
#
# _framework density 19.395655000000001
#
# number of rings (size 3 to 8) (size 9 to 14) (size 15 to 20)
#    0.000    2.133    2.667    0.800    5.600    1.067 
#    4.800    0.000    0.000    8.000    0.000    0.000 
#    0.000    0.000    0.000    0.000    0.000    0.000 
#
# Total GULP energy -371827.386327 kJ/mol
# GULP energy per Si atom -12394.246211 kJ/mol
# Density = 1.935151 g / cm^3
# Si number density = 19.395655 Si / 1000 Ang^3
#
#
#
# Elastic Constant Matrix: (Units=GPa)
#
#
# Indices 1 2 3 4 5 6 
#
# 1 65.4302 33.1639 43.7072 0.0000 0.0000 0.0000
# 2 33.1639 97.8305 38.5240 0.0000 0.0000 0.0000
# 3 43.7072 38.5240 101.2051 0.0000 0.0000 0.0000
# 4 0.0000 0.0000 0.0000 31.1524 0.0000 0.0000
# 5 0.0000 0.0000 0.0000 0.0000 27.1103 0.0000
# 6 0.0000 0.0000 0.0000 0.0000 0.0000 20.0264
#
#
#
# Elastic Compliance Matrix: (Units=1/GPa)
#
#
# Indices 1 2 3 4 5 6 
#
# 1 0.023111 -0.004592 -0.008233 0.000000 0.000000 0.000000
# 2 -0.004592 0.012937 -0.002941 0.000000 0.000000 0.000000
# 3 -0.008233 -0.002941 0.014556 0.000000 0.000000 0.000000
# 4 0.000000 0.000000 0.000000 0.032100 0.000000 0.000000
# 5 0.000000 0.000000 0.000000 0.000000 0.036886 0.000000
# 6 0.000000 0.000000 0.000000 0.000000 0.000000 0.049934
#
#
# Mechanical properties :
#
#
# Convention : Reuss Voigt Hill
#
# Bulk Modulus (GPa) = 52.43594 55.02847 53.73220
# Shear Modulus (GPa) = 24.10651 25.59587 24.85119
#
# Velocity S-wave (km/s) = 3.52928 3.63667 3.58338
# Velocity P-wave (km/s) = 6.61070 6.78726 6.69956
#
# Compressibility (1/GPa) = 0.01907089
#
# Stress axis : x y z
#
# Youngs Moduli (GPa) = 43.27033 77.29936 68.70108
#
# Poissons Ratio (x) = 0.35500 0.56558
# Poissons Ratio (y) = 0.19872 0.20205
# Poissons Ratio (z) = 0.35622 0.22734
#
# Static dielectric constant tensor:
#      x y z
#    x 3.281980 0.000000 0.000000 
#    y 0.000000 3.772060 0.000000 
#    z 0.000000 0.000000 3.812730 
# 
# 
# High freq. dielectric constant tensor:
#      x y z
#    x 1.731900 0.000000 0.000000 
#    y 0.000000 1.762620 0.000000 
#    z 0.000000 0.000000 1.771410 
# 
# From -- ./inp_files/31172.got.cif
#   From: 2010.03.12/outbox.cif.g09.slc.cpg/sg20_16_cif.got.tgz:31172.got - 2010.04.14 01:38:04.
