data_PCOD8158233
_publ_section_title
;
Structure prediction by ZEFSAII (Michael W. Deem and Ramdas Pophale) SiO2 
 PCOD8158233
Probable space group: C 2 2 21
;
_chemical_formula_sum "Si O2"
_cell_formula_units_Z 40
_cell_length_a 7.146425
_cell_length_b 12.975122
_cell_length_c 18.682269
_cell_angle_alpha 90.000000
_cell_angle_beta 90.000000
_cell_angle_gamma 90.000000
_cell_volume 1732.327148
_symmetry_space_group_name_H-M "C 2 2 21"
_symmetry_group_IT_number 20
_symmetry_cell_setting 'orthorhombic'
loop_
_space_group_symop_operation_xyz
x,y,z
-x,-y,1/2+z
x,-y,-z
-x,y,1/2-z
1/2+x,1/2+y,z
1/2-x,1/2-y,1/2+z
1/2+x,1/2-y,-z
1/2-x,1/2+y,1/2-z
loop_
_atom_site_type_symbol
_atom_site_label
_atom_site_fract_x
_atom_site_fract_y
_atom_site_fract_z
Si Si1 0.271616 0.507383 0.645703
Si Si2 0.045475 0.000000 0.000000
Si Si3 0.000000 0.139897 0.750000
Si Si4 0.237722 0.785914 0.828748
Si Si5 0.595815 0.801671 0.399070
Si Si6 0.007904 0.778897 0.454526
O O1 0.331919 0.466300 0.567973
O O2 0.441832 0.569467 0.683114
O O3 0.223151 0.405500 0.692144
O O4 0.092392 0.581685 0.633086
O O5 0.934721 0.104182 0.978740
O O6 0.178764 0.211475 0.731915
O O7 0.329719 0.761556 0.904639
O O8 0.013790 0.767792 0.840161
O O9 0.495350 0.795057 0.476267
O O10 0.813661 0.771096 0.410203
#
# Coordination Sequence:
#
# PCOD8158233 Si02
#       6
#     8   4   4   8   8   8
#     4  11  25  47  75 107 144 191 250 302 363 449
#     4  10  18  44  74 100 142 178 234 314 356 412
#     4  12  28  48  70 106 150 196 252 298 368 454
#     4  12  25  48  72 100 151 188 239 308 358 441
#     4  11  22  42  76 104 140 184 236 297 369 421
#     4  11  21  43  72 112 141 178 240 306 364 437
#
# _framework density 23.090326999999998
#
# number of rings (size 3 to 8) (size 9 to 14) (size 15 to 20)
#    0.000    0.800    8.000    1.200    0.000    4.000 
#    7.200    1.000    0.000    0.000    0.000    0.000 
#    0.000    0.000    0.000    0.000    0.000    0.000 
#
# Total GULP energy -247844.636439 kJ/mol
# GULP energy per Si atom -12392.231822 kJ/mol
# Density = 2.303777 g / cm^3
# Si number density = 23.090327 Si / 1000 Ang^3
#
#
#
# Elastic Constant Matrix: (Units=GPa)
#
#
# Indices 1 2 3 4 5 6 
#
# 1 79.4255 52.6025 9.4725 0.0000 0.0000 0.0000
# 2 52.6025 175.9042 29.4314 0.0000 0.0000 0.0000
# 3 9.4725 29.4314 59.9157 0.0000 0.0000 0.0000
# 4 0.0000 0.0000 0.0000 35.1886 0.0000 0.0000
# 5 0.0000 0.0000 0.0000 0.0000 24.9490 0.0000
# 6 0.0000 0.0000 0.0000 0.0000 0.0000 29.4934
#
#
#
# Elastic Compliance Matrix: (Units=1/GPa)
#
#
# Indices 1 2 3 4 5 6 
#
# 1 0.015702 -0.004663 -0.000192 0.000000 0.000000 0.000000
# 2 -0.004663 0.007579 -0.002986 0.000000 0.000000 0.000000
# 3 -0.000192 -0.002986 0.018187 0.000000 0.000000 0.000000
# 4 0.000000 0.000000 0.000000 0.028418 0.000000 0.000000
# 5 0.000000 0.000000 0.000000 0.000000 0.040082 0.000000
# 6 0.000000 0.000000 0.000000 0.000000 0.000000 0.033906
#
#
# Mechanical properties :
#
#
# Convention : Reuss Voigt Hill
#
# Bulk Modulus (GPa) = 38.78020 55.36201 47.07111
# Shear Modulus (GPa) = 29.73526 32.84214 31.28870
#
# Velocity S-wave (km/s) = 3.59246 3.77548 3.68510
# Velocity P-wave (km/s) = 5.83431 6.56003 6.20778
#
# Compressibility (1/GPa) = 0.02578635
#
# Stress axis : x y z
#
# Youngs Moduli (GPa) = 63.68700 131.94350 54.98429
#
# Poissons Ratio (x) = 0.61531 0.01054
# Poissons Ratio (y) = 0.29700 0.16416
# Poissons Ratio (z) = 0.01221 0.39394
#
# Static dielectric constant tensor:
#      x y z
#    x 3.921140 0.000000 0.000000 
#    y 0.000000 4.419080 0.000000 
#    z 0.000000 0.000000 4.222960 
# 
# 
# High freq. dielectric constant tensor:
#      x y z
#    x 1.885100 0.000000 0.000000 
#    y 0.000000 1.916140 0.000000 
#    z 0.000000 0.000000 1.920200 
# 
# From -- ./inp_files/26511.got.cif
#   From: 2010.03.12/outbox.cif.g09.slc.cpg/sg20_14_cif.got.tgz:26511.got - 2010.04.14 01:38:04.
