data_PCOD8158518
_publ_section_title
;
Structure prediction by ZEFSAII (Michael W. Deem and Ramdas Pophale) SiO2 
 PCOD8158518
Probable space group: C 2 2 21
;
_chemical_formula_sum "Si O2"
_cell_formula_units_Z 56
_cell_length_a 6.089793
_cell_length_b 29.678271
_cell_length_c 13.507670
_cell_angle_alpha 90.000000
_cell_angle_beta 90.000000
_cell_angle_gamma 90.000000
_cell_volume 2441.302348
_symmetry_space_group_name_H-M "C 2 2 21"
_symmetry_group_IT_number 20
_symmetry_cell_setting 'orthorhombic'
loop_
_space_group_symop_operation_xyz
x,y,z
-x,-y,1/2+z
x,-y,-z
-x,y,1/2-z
1/2+x,1/2+y,z
1/2-x,1/2-y,1/2+z
1/2+x,1/2-y,-z
1/2-x,1/2+y,1/2-z
loop_
_atom_site_type_symbol
_atom_site_label
_atom_site_fract_x
_atom_site_fract_y
_atom_site_fract_z
Si Si1 0.331628 0.891002 0.493959
Si Si2 0.933781 0.468333 0.357408
Si Si3 0.076987 0.803463 0.454061
Si Si4 0.850803 0.726601 0.373428
Si Si5 0.606421 0.551229 0.357017
Si Si6 0.795575 0.000000 0.500000
Si Si7 0.500000 0.320572 0.750000
Si Si8 0.710931 0.843429 0.578768
O O1 0.292869 0.930787 0.414906
O O2 0.232834 0.846886 0.437776
O O3 0.204804 0.902549 0.596829
O O4 0.588977 0.886002 0.526424
O O5 0.152490 0.474104 0.419856
O O6 0.000000 0.449860 0.250000
O O7 0.798521 0.514339 0.346678
O O8 0.206220 0.769468 0.526594
O O9 0.999557 0.772364 0.360142
O O10 0.842199 0.818459 0.494134
O O11 0.684239 0.715122 0.285596
O O12 0.011009 0.684435 0.377087
O O13 0.500000 0.560205 0.250000
O O14 0.434333 0.535782 0.438706
O O15 0.387861 0.353379 0.667327
#
# Coordination Sequence:
#
# PCOD8158518 Si02
#       8
#     8   8   8   8   8   4   4   8
#     4  11  25  43  69 109 148 180 235 298 362 415
#     4  12  25  46  77 101 139 190 237 291 359 435
#     4  10  21  39  70  93 130 189 224 285 348 416
#     4  10  19  40  66  92 129 177 242 276 349 414
#     4  12  25  46  73 110 138 186 237 289 362 438
#     4  12  22  44  76  96 136 180 232 288 350 430
#     4  10  22  38  66  96 132 186 240 294 342 426
#     4  10  22  42  65  97 135 185 224 292 358 411
#
# _framework density 22.938578
#
# number of rings (size 3 to 8) (size 9 to 14) (size 15 to 20)
#    0.000    1.143    5.714    0.429    2.000    0.000 
#   14.143    1.429    9.429    0.000    0.000    0.000 
#    0.000    0.000    0.000    0.000    0.000    0.000 
#
# Total GULP energy -346867.311783 kJ/mol
# GULP energy per Si atom -12388.118278 kJ/mol
# Density = 2.288637 g / cm^3
# Si number density = 22.938578 Si / 1000 Ang^3
#
#
#
# Elastic Constant Matrix: (Units=GPa)
#
#
# Indices 1 2 3 4 5 6 
#
# 1 102.5273 19.3625 33.9321 0.0000 0.0000 0.0000
# 2 19.3625 69.9997 12.8066 0.0000 0.0000 0.0000
# 3 33.9321 12.8066 102.6229 0.0000 0.0000 0.0000
# 4 0.0000 0.0000 0.0000 19.8232 0.0000 0.0000
# 5 0.0000 0.0000 0.0000 0.0000 40.1983 0.0000
# 6 0.0000 0.0000 0.0000 0.0000 0.0000 44.1537
#
#
#
# Elastic Compliance Matrix: (Units=1/GPa)
#
#
# Indices 1 2 3 4 5 6 
#
# 1 0.011369 -0.002514 -0.003445 0.000000 0.000000 0.000000
# 2 -0.002514 0.015176 -0.001062 0.000000 0.000000 0.000000
# 3 -0.003445 -0.001062 0.011016 0.000000 0.000000 0.000000
# 4 0.000000 0.000000 0.000000 0.050446 0.000000 0.000000
# 5 0.000000 0.000000 0.000000 0.000000 0.024877 0.000000
# 6 0.000000 0.000000 0.000000 0.000000 0.000000 0.022648
#
#
# Mechanical properties :
#
#
# Convention : Reuss Voigt Hill
#
# Bulk Modulus (GPa) = 42.52361 45.26135 43.89248
# Shear Modulus (GPa) = 31.76341 34.77163 33.26752
#
# Velocity S-wave (km/s) = 3.72521 3.89763 3.81239
# Velocity P-wave (km/s) = 6.08944 6.32690 6.20930
#
# Compressibility (1/GPa) = 0.02351635
#
# Stress axis : x y z
#
# Youngs Moduli (GPa) = 87.96196 65.89514 90.77571
#
# Poissons Ratio (x) = 0.16568 0.31274
# Poissons Ratio (y) = 0.22116 0.09644
# Poissons Ratio (z) = 0.30305 0.07001
#
# Static dielectric constant tensor:
#      x y z
#    x 4.537750 0.000000 0.000000 
#    y 0.000000 4.198330 0.000000 
#    z 0.000000 0.000000 4.063920 
# 
# 
# High freq. dielectric constant tensor:
#      x y z
#    x 1.932270 0.000000 0.000000 
#    y 0.000000 1.898480 0.000000 
#    z 0.000000 0.000000 1.884210 
# 
# From -- ./inp_files/17998.got.cif
#   From: 2010.03.12/outbox.cif.g09.slc.cpg/sg20_9_cif.got.tgz:17998.got - 2010.04.14 01:38:04.
