data_PCOD8158868
_publ_section_title
;
Structure prediction by ZEFSAII (Michael W. Deem and Ramdas Pophale) SiO2 
 PCOD8158868
Probable space group: C 2 2 21
;
_chemical_formula_sum "Si O2"
_cell_formula_units_Z 44
_cell_length_a 8.580920
_cell_length_b 29.236150
_cell_length_c 8.904520
_cell_angle_alpha 90.000000
_cell_angle_beta 90.000000
_cell_angle_gamma 90.000000
_cell_volume 2233.904218
_symmetry_space_group_name_H-M "C 2 2 21"
_symmetry_group_IT_number 20
_symmetry_cell_setting 'orthorhombic'
loop_
_space_group_symop_operation_xyz
x,y,z
-x,-y,1/2+z
x,-y,-z
-x,y,1/2-z
1/2+x,1/2+y,z
1/2-x,1/2-y,1/2+z
1/2+x,1/2-y,-z
1/2-x,1/2+y,1/2-z
loop_
_atom_site_type_symbol
_atom_site_label
_atom_site_fract_x
_atom_site_fract_y
_atom_site_fract_z
Si Si1 0.500000 0.352354 0.750000
Si Si2 0.652138 0.703668 0.672118
Si Si3 0.861168 0.766270 0.848528
Si Si4 0.770494 0.104938 0.825684
Si Si5 0.082496 0.914650 0.019593
Si Si6 0.213366 0.500000 0.500000
Si Si7 0.000000 0.543789 0.750000
O O1 0.357523 0.320373 0.808513
O O2 0.421992 0.380860 0.619431
O O3 0.500000 0.682068 0.750000
O O4 0.711945 0.737582 0.801501
O O5 0.619098 0.735970 0.528291
O O6 0.753042 0.658506 0.627697
O O7 0.000000 0.742892 0.750000
O O8 0.808795 0.105885 0.648925
O O9 0.611633 0.076435 0.851075
O O10 0.905765 0.078737 0.919452
O O11 0.165938 0.959938 0.957442
O O12 0.104204 0.488195 0.357854
#
# Coordination Sequence:
#
# PCOD8158868 Si02
#       7
#     4   8   8   8   8   4   4
#     4  10  20  39  58  92 116 156 208 259 298 368
#     4  12  21  39  61  89 126 165 212 257 300 377
#     4  10  23  37  58  90 121 160 209 256 315 357
#     4  10  20  39  62  87 119 170 200 248 310 386
#     4  10  20  39  65  86 120 160 215 248 307 380
#     4  10  24  42  62  96 118 164 198 270 312 382
#     4  10  24  41  62  92 130 150 204 255 330 370
#
# _framework density 19.696455
#
# number of rings (size 3 to 8) (size 9 to 14) (size 15 to 20)
#    0.545    1.091    3.636    1.091    3.818    5.091 
#    0.000    0.000    0.000    0.000    0.000    0.000 
#    0.000    0.000    0.000    0.000    0.000    0.000 
#
# Total GULP energy -272575.108659 kJ/mol
# GULP energy per Si atom -12389.777666 kJ/mol
# Density = 1.965163 g / cm^3
# Si number density = 19.696455 Si / 1000 Ang^3
#
#
#
# Elastic Constant Matrix: (Units=GPa)
#
#
# Indices 1 2 3 4 5 6 
#
# 1 88.4351 57.6903 32.7687 0.0000 0.0000 0.0000
# 2 57.6903 121.5042 36.1236 0.0000 0.0000 0.0000
# 3 32.7687 36.1236 88.4054 0.0000 0.0000 0.0000
# 4 0.0000 0.0000 0.0000 26.8960 0.0000 0.0000
# 5 0.0000 0.0000 0.0000 0.0000 33.0867 0.0000
# 6 0.0000 0.0000 0.0000 0.0000 0.0000 37.6217
#
#
#
# Elastic Compliance Matrix: (Units=1/GPa)
#
#
# Indices 1 2 3 4 5 6 
#
# 1 0.017270 -0.007167 -0.003473 0.000000 0.000000 0.000000
# 2 -0.007167 0.012343 -0.002387 0.000000 0.000000 0.000000
# 3 -0.003473 -0.002387 0.013574 0.000000 0.000000 0.000000
# 4 0.000000 0.000000 0.000000 0.037180 0.000000 0.000000
# 5 0.000000 0.000000 0.000000 0.000000 0.030224 0.000000
# 6 0.000000 0.000000 0.000000 0.000000 0.000000 0.026580
#
#
# Mechanical properties :
#
#
# Convention : Reuss Voigt Hill
#
# Bulk Modulus (GPa) = 58.36616 61.27888 59.82252
# Shear Modulus (GPa) = 29.59699 30.97170 30.28434
#
# Velocity S-wave (km/s) = 3.88062 3.96972 3.92542
# Velocity P-wave (km/s) = 7.05521 7.22431 7.14026
#
# Compressibility (1/GPa) = 0.01713322
#
# Stress axis : x y z
#
# Youngs Moduli (GPa) = 57.90334 81.01849 73.67027
#
# Poissons Ratio (x) = 0.58070 0.25584
# Poissons Ratio (y) = 0.41502 0.17583
# Poissons Ratio (z) = 0.20108 0.19337
#
# Static dielectric constant tensor:
#      x y z
#    x 3.572960 0.000000 0.000000 
#    y 0.000000 3.562780 0.000000 
#    z 0.000000 0.000000 3.936480 
# 
# 
# High freq. dielectric constant tensor:
#      x y z
#    x 1.751020 0.000000 0.000000 
#    y 0.000000 1.767410 0.000000 
#    z 0.000000 0.000000 1.768160 
# 
# From -- ./inp_files/6417.got.cif
#   From: 2010.03.12/outbox.cif.g09.slc.cpg/sg20_4_cif.got.tgz:6417.got - 2010.04.14 01:38:04.
