data_PCOD8158371
_publ_section_title
;
Structure prediction by ZEFSAII (Michael W. Deem and Ramdas Pophale) SiO2 
 PCOD8158371
Probable space group: C 2 2 21
;
_chemical_formula_sum "Si O2"
_cell_formula_units_Z 52
_cell_length_a 19.543415
_cell_length_b 5.048352
_cell_length_c 26.510132
_cell_angle_alpha 90.000000
_cell_angle_beta 90.000000
_cell_angle_gamma 90.000000
_cell_volume 2615.543656
_symmetry_space_group_name_H-M "C 2 2 21"
_symmetry_group_IT_number 20
_symmetry_cell_setting 'orthorhombic'
loop_
_space_group_symop_operation_xyz
x,y,z
-x,-y,1/2+z
x,-y,-z
-x,y,1/2-z
1/2+x,1/2+y,z
1/2-x,1/2-y,1/2+z
1/2+x,1/2-y,-z
1/2-x,1/2+y,1/2-z
loop_
_atom_site_type_symbol
_atom_site_label
_atom_site_fract_x
_atom_site_fract_y
_atom_site_fract_z
Si Si1 0.958982 0.895139 0.451477
Si Si2 0.528677 0.904707 0.859114
Si Si3 0.023461 0.905536 0.695063
Si Si4 0.319516 0.602871 0.207630
Si Si5 0.357092 0.779891 0.400134
Si Si6 0.355224 0.000000 0.500000
Si Si7 0.263546 0.393651 0.683773
O O1 0.000892 0.704538 0.413222
O O2 0.898948 0.740457 0.479267
O O3 0.004103 0.000000 0.500000
O O4 0.925384 0.124883 0.417411
O O5 0.519786 0.668820 0.818537
O O6 0.487400 0.163278 0.842996
O O7 0.609882 0.978665 0.866441
O O8 0.103560 0.965966 0.693091
O O9 0.000000 0.809298 0.750000
O O10 0.313317 0.586049 0.268120
O O11 0.271737 0.389906 0.181191
O O12 0.295174 0.884658 0.185823
O O13 0.308775 0.590603 0.366992
O O14 0.315309 0.887918 0.450049
#
# Coordination Sequence:
#
# PCOD8158371 Si02
#       7
#     8   8   8   8   8   4   8
#     4   9  18  35  56  92 124 142 188 246 305 359
#     4  11  22  35  58  90 117 158 190 239 305 356
#     4  12  24  39  57  85 122 160 200 252 288 354
#     4  10  23  39  54  85 113 157 202 237 288 344
#     4  10  19  35  60  91 119 149 193 242 308 351
#     4   8  18  30  56  92 122 140 184 248 302 356
#     4  10  22  38  61  79 117 156 196 245 287 353
#
# _framework density 19.881143000000002
#
# number of rings (size 3 to 8) (size 9 to 14) (size 15 to 20)
#    0.000    1.846    1.538    2.308    4.308    2.462 
#    0.000    0.000    0.000    0.000   12.000    0.000 
#    0.000    0.000    0.000    0.000    0.000    0.000 
#
# Total GULP energy -322100.391640 kJ/mol
# GULP energy per Si atom -12388.476602 kJ/mol
# Density = 1.983589 g / cm^3
# Si number density = 19.881143 Si / 1000 Ang^3
#
#
#
# Elastic Constant Matrix: (Units=GPa)
#
#
# Indices 1 2 3 4 5 6 
#
# 1 50.0385 13.5030 38.4078 0.0000 0.0000 0.0000
# 2 13.5030 92.8688 32.9843 0.0000 0.0000 0.0000
# 3 38.4078 32.9843 105.1016 0.0000 0.0000 0.0000
# 4 0.0000 0.0000 0.0000 32.6222 0.0000 0.0000
# 5 0.0000 0.0000 0.0000 0.0000 21.7094 0.0000
# 6 0.0000 0.0000 0.0000 0.0000 0.0000 9.5345
#
#
#
# Elastic Compliance Matrix: (Units=1/GPa)
#
#
# Indices 1 2 3 4 5 6 
#
# 1 0.027795 -0.000488 -0.010004 0.000000 0.000000 0.000000
# 2 -0.000488 0.012127 -0.003628 0.000000 0.000000 0.000000
# 3 -0.010004 -0.003628 0.014309 0.000000 0.000000 0.000000
# 4 0.000000 0.000000 0.000000 0.030654 0.000000 0.000000
# 5 0.000000 0.000000 0.000000 0.000000 0.046063 0.000000
# 6 0.000000 0.000000 0.000000 0.000000 0.000000 0.104882
#
#
# Mechanical properties :
#
#
# Convention : Reuss Voigt Hill
#
# Bulk Modulus (GPa) = 38.47396 46.42213 42.44805
# Shear Modulus (GPa) = 18.33289 23.64747 20.99018
#
# Velocity S-wave (km/s) = 3.03994 3.45257 3.25281
# Velocity P-wave (km/s) = 5.63167 6.26851 5.95860
#
# Compressibility (1/GPa) = 0.02599161
#
# Stress axis : x y z
#
# Youngs Moduli (GPa) = 35.97756 82.45891 69.88673
#
# Poissons Ratio (x) = 0.04026 0.69915
# Poissons Ratio (y) = 0.01756 0.25352
# Poissons Ratio (z) = 0.35992 0.29912
#
# Static dielectric constant tensor:
#      x y z
#    x 3.034590 0.000000 0.000000 
#    y 0.000000 4.098860 0.000000 
#    z 0.000000 0.000000 4.537200 
# 
# 
# High freq. dielectric constant tensor:
#      x y z
#    x 1.702860 0.000000 0.000000 
#    y 0.000000 1.802560 0.000000 
#    z 0.000000 0.000000 1.792830 
# 
# From -- ./inp_files/30486.got.cif
#   From: 2010.03.12/outbox.cif.g09.slc.cpg/sg20_16_cif.got.tgz:30486.got - 2010.04.14 01:38:04.
