data_PCOD8158857
_publ_section_title
;
Structure prediction by ZEFSAII (Michael W. Deem and Ramdas Pophale) SiO2 
 PCOD8158857
Probable space group: C 2 2 21
;
_chemical_formula_sum "Si O2"
_cell_formula_units_Z 48
_cell_length_a 11.717835
_cell_length_b 13.921829
_cell_length_c 14.726749
_cell_angle_alpha 90.000000
_cell_angle_beta 90.000000
_cell_angle_gamma 90.000000
_cell_volume 2402.428981
_symmetry_space_group_name_H-M "C 2 2 21"
_symmetry_group_IT_number 20
_symmetry_cell_setting 'orthorhombic'
loop_
_space_group_symop_operation_xyz
x,y,z
-x,-y,1/2+z
x,-y,-z
-x,y,1/2-z
1/2+x,1/2+y,z
1/2-x,1/2-y,1/2+z
1/2+x,1/2-y,-z
1/2-x,1/2+y,1/2-z
loop_
_atom_site_type_symbol
_atom_site_label
_atom_site_fract_x
_atom_site_fract_y
_atom_site_fract_z
Si Si1 0.072659 0.449844 0.364412
Si Si2 0.875803 0.500000 0.500000
Si Si3 0.124801 0.356377 0.729766
Si Si4 0.208280 0.190036 0.070191
Si Si5 0.256386 0.329325 0.916424
Si Si6 0.755494 0.000000 0.500000
Si Si7 0.979913 0.763633 0.845702
O O1 0.107227 0.528908 0.288119
O O2 0.173220 0.438377 0.436052
O O3 0.064932 0.343757 0.322642
O O4 0.954221 0.481454 0.412188
O O5 0.789580 0.586376 0.479764
O O6 0.184785 0.307134 0.641412
O O7 0.199902 0.332820 0.817351
O O8 0.000000 0.310301 0.750000
O O9 0.171031 0.078162 0.055469
O O10 0.099333 0.247899 0.103666
O O11 0.237776 0.231581 0.971800
O O12 0.392860 0.330918 0.901538
O O13 0.000000 0.816662 0.750000
#
# Coordination Sequence:
#
# PCOD8158857 Si02
#       7
#     8   4   8   8   8   4   8
#     4  10  20  38  67  94 121 166 229 280 327 382
#     4  11  22  39  64  98 126 167 225 284 330 388
#     4  11  23  42  67  98 134 170 227 291 331 393
#     4  11  24  42  67  97 137 178 230 274 346 410
#     4  12  25  41  65 102 138 175 223 283 344 401
#     4   9  20  39  64  90 122 175 219 278 332 398
#     4  12  24  41  63  97 136 176 219 273 338 410
#
# _framework density 19.979778
#
# number of rings (size 3 to 8) (size 9 to 14) (size 15 to 20)
#    0.000    1.000    6.667    0.500    2.333    0.667 
#    0.000    0.000    0.000    0.000    0.000    0.000 
#    0.000    0.000    0.000    0.000    0.000    0.000 
#
# Total GULP energy -297383.723305 kJ/mol
# GULP energy per Si atom -12390.988471 kJ/mol
# Density = 1.993430 g / cm^3
# Si number density = 19.979778 Si / 1000 Ang^3
#
#
#
# Elastic Constant Matrix: (Units=GPa)
#
#
# Indices 1 2 3 4 5 6 
#
# 1 101.6168 38.1965 35.9290 0.0000 0.0000 0.0000
# 2 38.1965 85.0223 38.0369 0.0000 0.0000 0.0000
# 3 35.9290 38.0369 117.2515 0.0000 0.0000 0.0000
# 4 0.0000 0.0000 0.0000 29.7071 0.0000 0.0000
# 5 0.0000 0.0000 0.0000 0.0000 32.3431 0.0000
# 6 0.0000 0.0000 0.0000 0.0000 0.0000 10.2410
#
#
#
# Elastic Compliance Matrix: (Units=1/GPa)
#
#
# Indices 1 2 3 4 5 6 
#
# 1 0.012359 -0.004513 -0.002323 0.000000 0.000000 0.000000
# 2 -0.004513 0.015406 -0.003615 0.000000 0.000000 0.000000
# 3 -0.002323 -0.003615 0.010413 0.000000 0.000000 0.000000
# 4 0.000000 0.000000 0.000000 0.033662 0.000000 0.000000
# 5 0.000000 0.000000 0.000000 0.000000 0.030919 0.000000
# 6 0.000000 0.000000 0.000000 0.000000 0.000000 0.097646
#
#
# Mechanical properties :
#
#
# Convention : Reuss Voigt Hill
#
# Bulk Modulus (GPa) = 57.88261 58.69061 58.28661
# Shear Modulus (GPa) = 22.02006 27.24011 24.63009
#
# Velocity S-wave (km/s) = 3.32342 3.69641 3.51486
# Velocity P-wave (km/s) = 6.61516 6.90338 6.76081
#
# Compressibility (1/GPa) = 0.01727635
#
# Stress axis : x y z
#
# Youngs Moduli (GPa) = 80.91541 64.90843 96.03163
#
# Poissons Ratio (x) = 0.29292 0.22308
# Poissons Ratio (y) = 0.36516 0.34716
# Poissons Ratio (z) = 0.18797 0.23464
#
# Static dielectric constant tensor:
#      x y z
#    x 3.672430 0.000000 0.000000 
#    y 0.000000 3.449940 0.000000 
#    z 0.000000 0.000000 3.948230 
# 
# 
# High freq. dielectric constant tensor:
#      x y z
#    x 1.773450 0.000000 0.000000 
#    y 0.000000 1.764540 0.000000 
#    z 0.000000 0.000000 1.795150 
# 
# From -- ./inp_files/19983.got.cif
#   From: 2010.03.12/outbox.cif.g09.slc.cpg/sg20_10_cif.got.tgz:19983.got - 2010.04.14 01:38:04.
