data_PCOD8158341
_publ_section_title
;
Structure prediction by ZEFSAII (Michael W. Deem and Ramdas Pophale) SiO2 
 PCOD8158341
Probable space group: C 2 2 21
;
_chemical_formula_sum "Si O2"
_cell_formula_units_Z 24
_cell_length_a 25.503003
_cell_length_b 7.303943
_cell_length_c 5.242923
_cell_angle_alpha 90.000000
_cell_angle_beta 90.000000
_cell_angle_gamma 90.000000
_cell_volume 976.612271
_symmetry_space_group_name_H-M "C 2 2 21"
_symmetry_group_IT_number 20
_symmetry_cell_setting 'orthorhombic'
loop_
_space_group_symop_operation_xyz
x,y,z
-x,-y,1/2+z
x,-y,-z
-x,y,1/2-z
1/2+x,1/2+y,z
1/2-x,1/2-y,1/2+z
1/2+x,1/2-y,-z
1/2-x,1/2+y,1/2-z
loop_
_atom_site_type_symbol
_atom_site_label
_atom_site_fract_x
_atom_site_fract_y
_atom_site_fract_z
Si Si1 0.562088 0.704160 0.742981
Si Si2 0.392583 0.704032 0.261330
Si Si3 0.721023 0.202093 0.903510
O O1 0.500000 0.697441 0.750000
O O2 0.585616 0.500983 0.750005
O O3 0.586231 0.805445 0.494110
O O4 0.582605 0.808893 0.994864
O O5 0.330017 0.700369 0.285933
O O6 0.759902 0.189315 0.657987
O O7 0.708090 0.000000 0.000000
#
# Coordination Sequence:
#
# PCOD8158341 Si02
#       3
#     8   8   8
#     4  10  19  34  65 102 133 167 224 277 335 411
#     4  10  20  35  59  91 135 165 218 278 339 384
#     4  12  28  45  68  97 138 188 241 288 350 411
#
# _framework density 24.574749000000001
#
# number of rings (size 3 to 8) (size 9 to 14) (size 15 to 20)
#    0.000    1.333    0.000    8.000   14.000    0.000 
#    0.000    0.000    0.000    6.000    0.000    0.000 
#    0.000    0.000    0.000    0.000    0.000    0.000 
#
# Total GULP energy -148690.020722 kJ/mol
# GULP energy per Si atom -12390.835060 kJ/mol
# Density = 2.451882 g / cm^3
# Si number density = 24.574749 Si / 1000 Ang^3
#
#
#
# Elastic Constant Matrix: (Units=GPa)
#
#
# Indices 1 2 3 4 5 6 
#
# 1 194.9786 16.9441 92.8851 0.0000 0.0000 0.0000
# 2 16.9441 14.9275 9.6262 0.0000 0.0000 0.0000
# 3 92.8851 9.6262 300.1556 0.0000 0.0000 0.0000
# 4 0.0000 0.0000 0.0000 11.2875 0.0000 0.0000
# 5 0.0000 0.0000 0.0000 0.0000 69.4700 0.0000
# 6 0.0000 0.0000 0.0000 0.0000 0.0000 22.1597
#
#
#
# Elastic Compliance Matrix: (Units=1/GPa)
#
#
# Indices 1 2 3 4 5 6 
#
# 1 0.006540 -0.006248 -0.001824 0.000000 0.000000 0.000000
# 2 -0.006248 0.074374 -0.000452 0.000000 0.000000 0.000000
# 3 -0.001824 -0.000452 0.003910 0.000000 0.000000 0.000000
# 4 0.000000 0.000000 0.000000 0.088594 0.000000 0.000000
# 5 0.000000 0.000000 0.000000 0.000000 0.014395 0.000000
# 6 0.000000 0.000000 0.000000 0.000000 0.000000 0.045127
#
#
# Mechanical properties :
#
#
# Convention : Reuss Voigt Hill
#
# Bulk Modulus (GPa) = 14.75403 83.21918 48.98661
# Shear Modulus (GPa) = 18.34325 46.62384 32.48354
#
# Velocity S-wave (km/s) = 2.73504 4.36044 3.63964
# Velocity P-wave (km/s) = 3.99884 7.69990 6.13511
#
# Compressibility (1/GPa) = 0.06777809
#
# Stress axis : x y z
#
# Youngs Moduli (GPa) = 152.89369 13.44555 255.72683
#
# Poissons Ratio (x) = 0.08401 0.46635
# Poissons Ratio (y) = 0.95530 0.11552
# Poissons Ratio (z) = 0.27882 0.00607
#
# Static dielectric constant tensor:
#      x y z
#    x 4.305080 0.000000 0.000000 
#    y 0.000000 3.632010 0.000000 
#    z 0.000000 0.000000 -1.533160 
# 
# 
# High freq. dielectric constant tensor:
#      x y z
#    x 1.979830 0.000000 0.000000 
#    y 0.000000 1.930480 0.000000 
#    z 0.000000 0.000000 2.027810 
# 
# From -- ./inp_files/315.got.cif
#   From: 2010.03.12/outbox.cif.g09.slc.cpg/sg20_1_cif.got.tgz:315.got - 2010.04.14 01:38:04.
