data_PCOD8158284
_publ_section_title
;
Structure prediction by ZEFSAII (Michael W. Deem and Ramdas Pophale) SiO2 
 PCOD8158284
Probable space group: C 2 2 21
;
_chemical_formula_sum "Si O2"
_cell_formula_units_Z 64
_cell_length_a 9.317459
_cell_length_b 27.180994
_cell_length_c 12.794851
_cell_angle_alpha 90.000000
_cell_angle_beta 90.000000
_cell_angle_gamma 90.000000
_cell_volume 3240.395779
_symmetry_space_group_name_H-M "C 2 2 21"
_symmetry_group_IT_number 20
_symmetry_cell_setting 'orthorhombic'
loop_
_space_group_symop_operation_xyz
x,y,z
-x,-y,1/2+z
x,-y,-z
-x,y,1/2-z
1/2+x,1/2+y,z
1/2-x,1/2-y,1/2+z
1/2+x,1/2-y,-z
1/2-x,1/2+y,1/2-z
loop_
_atom_site_type_symbol
_atom_site_label
_atom_site_fract_x
_atom_site_fract_y
_atom_site_fract_z
Si Si1 0.158176 0.300699 0.713237
Si Si2 0.733273 0.728778 0.882548
Si Si3 0.416980 0.267884 0.045489
Si Si4 0.298690 0.381670 0.347691
Si Si5 0.299992 0.944683 0.539380
Si Si6 0.830108 0.592177 0.237527
Si Si7 0.370285 0.376138 0.114471
Si Si8 0.131085 0.556758 0.485405
O O1 0.218072 0.252959 0.770271
O O2 0.153755 0.281963 0.594446
O O3 0.239101 0.352553 0.732396
O O4 0.000000 0.312390 0.750000
O O5 0.588131 0.734663 0.950140
O O6 0.768068 0.671787 0.869124
O O7 0.863783 0.761327 0.927843
O O8 0.354605 0.317622 0.096850
O O9 0.293445 0.391635 0.223019
O O10 0.461441 0.387957 0.385213
O O11 0.200518 0.418528 0.412884
O O12 0.265252 0.938550 0.664069
O O13 0.199573 0.906604 0.478922
O O14 0.463454 0.929076 0.516879
O O15 0.267424 0.000000 0.500000
O O16 0.790936 0.569551 0.124334
O O17 0.000000 0.591963 0.250000
O O18 0.153174 0.500000 0.500000
#
# Coordination Sequence:
#
# PCOD8158284 Si02
#       8
#     8   8   8   8   8   8   8   8
#     4   9  16  30  52  73 103 145 181 209 262 335
#     4  10  19  33  54  80 110 148 188 226 271 327
#     4  10  19  33  54  80 110 148 188 226 271 327
#     4  10  21  38  58  84 119 155 191 233 286 346
#     4  10  22  38  60  86 112 147 193 244 291 338
#     4   9  18  34  54  81 113 145 185 233 288 341
#     4  10  21  38  58  84 119 155 191 233 286 346
#     4  10  22  38  60  86 112 147 193 244 291 338
#
# _framework density 19.750674
#
# number of rings (size 3 to 8) (size 9 to 14) (size 15 to 20)
#    0.000    2.250    1.250    1.500    1.750    4.000 
#    0.000    1.250    0.000    4.500    0.000    0.000 
#    0.000    0.000    0.000    0.000    0.000    0.000 
#
# Total GULP energy -396519.279084 kJ/mol
# GULP energy per Si atom -12391.227471 kJ/mol
# Density = 1.970572 g / cm^3
# Si number density = 19.750674 Si / 1000 Ang^3
#
#
#
# Elastic Constant Matrix: (Units=GPa)
#
#
# Indices 1 2 3 4 5 6 
#
# 1 20.3147 11.8398 7.6761 0.0000 0.0000 0.0000
# 2 11.8398 75.3905 9.2409 0.0000 0.0000 0.0000
# 3 7.6761 9.2409 59.3996 0.0000 0.0000 0.0000
# 4 0.0000 0.0000 0.0000 51.0959 0.0000 0.0000
# 5 0.0000 0.0000 0.0000 0.0000 26.2594 0.0000
# 6 0.0000 0.0000 0.0000 0.0000 0.0000 -1.2043
#
#
#
# Elastic Compliance Matrix: (Units=1/GPa)
#
#
# Indices 1 2 3 4 5 6 
#
# 1 0.056211 -0.008092 -0.006005 0.000000 0.000000 0.000000
# 2 -0.008092 0.014687 -0.001239 0.000000 0.000000 0.000000
# 3 -0.006005 -0.001239 0.017804 0.000000 0.000000 0.000000
# 4 0.000000 0.000000 0.000000 0.019571 0.000000 0.000000
# 5 0.000000 0.000000 0.000000 0.000000 0.038082 0.000000
# 6 0.000000 0.000000 0.000000 0.000000 0.000000 -0.830363
#
#
# Mechanical properties :
#
#
# Convention : Reuss Voigt Hill
#
# Bulk Modulus (GPa) = 17.23261 23.62426 20.42843
# Shear Modulus (GPa) = -7.88651 23.65341 7.88345
#
# Velocity S-wave (km/s) = -2.00043 3.46439 2.00004
# Velocity P-wave (km/s) = 1.84619 5.29055 3.96221
#
# Compressibility (1/GPa) = 0.05802953
#
# Stress axis : x y z
#
# Youngs Moduli (GPa) = 17.79024 68.08778 56.16735
#
# Poissons Ratio (x) = 0.55094 0.33729
# Poissons Ratio (y) = 0.14395 0.06960
# Poissons Ratio (z) = 0.10683 0.08437
#
# Static dielectric constant tensor:
#      x y z
#    x 3.267510 0.000000 0.000000 
#    y 0.000000 3.625450 0.000000 
#    z 0.000000 0.000000 3.638610 
# 
# 
# High freq. dielectric constant tensor:
#      x y z
#    x 1.732640 0.000000 0.000000 
#    y 0.000000 1.777810 0.000000 
#    z 0.000000 0.000000 1.779490 
# 
# From -- ./inp_files/13374.got.cif
#   From: 2010.03.12/outbox.cif.g09.slc.cpg/sg20_7_cif.got.tgz:13374.got - 2010.04.14 01:38:04.
