data_PCOD8158592
_publ_section_title
;
Structure prediction by ZEFSAII (Michael W. Deem and Ramdas Pophale) SiO2 
 PCOD8158592
Probable space group: C 2 2 21
;
_chemical_formula_sum "Si O2"
_cell_formula_units_Z 44
_cell_length_a 16.534804
_cell_length_b 8.735170
_cell_length_c 16.965573
_cell_angle_alpha 90.000000
_cell_angle_beta 90.000000
_cell_angle_gamma 90.000000
_cell_volume 2450.411065
_symmetry_space_group_name_H-M "C 2 2 21"
_symmetry_group_IT_number 20
_symmetry_cell_setting 'orthorhombic'
loop_
_space_group_symop_operation_xyz
x,y,z
-x,-y,1/2+z
x,-y,-z
-x,y,1/2-z
1/2+x,1/2+y,z
1/2-x,1/2-y,1/2+z
1/2+x,1/2-y,-z
1/2-x,1/2+y,1/2-z
loop_
_atom_site_type_symbol
_atom_site_label
_atom_site_fract_x
_atom_site_fract_y
_atom_site_fract_z
Si Si1 0.797384 0.500000 0.000000
Si Si2 0.770780 0.288205 0.707672
Si Si3 0.372307 0.212448 0.885664
Si Si4 0.195532 0.953571 0.846620
Si Si5 0.587582 0.010827 0.763271
Si Si6 0.467085 0.684193 0.333749
O O1 0.854422 0.361392 0.029246
O O2 0.741713 0.554004 0.071369
O O3 0.703060 0.321664 0.639982
O O4 0.796632 0.111595 0.701083
O O5 0.728987 0.316056 0.792242
O O6 0.849646 0.393809 0.697232
O O7 0.377744 0.077324 0.819303
O O8 0.455794 0.307136 0.892538
O O9 0.100667 0.929843 0.866525
O O10 0.500000 0.928964 0.750000
O O11 0.572427 0.148234 0.824431
O O12 0.500000 0.624230 0.250000
#
# Coordination Sequence:
#
# PCOD8158592 Si02
#       6
#     4   8   8   8   8   8
#     4  10  20  34  54  82 110 154 176 222 286 340
#     4  11  17  32  55  82 105 141 187 230 260 327
#     4   9  18  33  58  74 109 145 180 219 273 332
#     4  11  20  33  59  82 111 144 186 229 279 328
#     4   9  17  32  52  83 102 134 186 231 258 318
#     4   9  17  35  57  80 104 141 188 228 271 323
#
# _framework density 17.956171000000001
#
# number of rings (size 3 to 8) (size 9 to 14) (size 15 to 20)
#    0.000    2.545    7.273    0.000    0.000    0.727 
#    0.000    7.273    4.000   13.091    0.000    0.000 
#    0.000    0.000    0.000    0.000    0.000    0.000 
#
# Total GULP energy -272620.151538 kJ/mol
# GULP energy per Si atom -12391.825070 kJ/mol
# Density = 1.791530 g / cm^3
# Si number density = 17.956171 Si / 1000 Ang^3
#
#
#
# Elastic Constant Matrix: (Units=GPa)
#
#
# Indices 1 2 3 4 5 6 
#
# 1 141.0129 44.3233 9.6022 0.0000 0.0000 0.0000
# 2 44.3233 53.1052 17.8377 0.0000 0.0000 0.0000
# 3 9.6022 17.8377 42.1131 0.0000 0.0000 0.0000
# 4 0.0000 0.0000 0.0000 22.8017 0.0000 0.0000
# 5 0.0000 0.0000 0.0000 0.0000 25.0905 0.0000
# 6 0.0000 0.0000 0.0000 0.0000 0.0000 39.7987
#
#
#
# Elastic Compliance Matrix: (Units=1/GPa)
#
#
# Indices 1 2 3 4 5 6 
#
# 1 0.009686 -0.008560 0.001417 0.000000 0.000000 0.000000
# 2 -0.008560 0.029519 -0.010552 0.000000 0.000000 0.000000
# 3 0.001417 -0.010552 0.027892 0.000000 0.000000 0.000000
# 4 0.000000 0.000000 0.000000 0.043856 0.000000 0.000000
# 5 0.000000 0.000000 0.000000 0.000000 0.039856 0.000000
# 6 0.000000 0.000000 0.000000 0.000000 0.000000 0.025126
#
#
# Mechanical properties :
#
#
# Convention : Reuss Voigt Hill
#
# Bulk Modulus (GPa) = 31.53778 42.19530 36.86654
# Shear Modulus (GPa) = 22.53339 28.50271 25.51805
#
# Velocity S-wave (km/s) = 3.54631 3.98848 3.77388
# Velocity P-wave (km/s) = 5.86262 6.69034 6.29011
#
# Compressibility (1/GPa) = 0.03170800
#
# Stress axis : x y z
#
# Youngs Moduli (GPa) = 103.24570 33.87626 35.85296
#
# Poissons Ratio (x) = 0.28998 -0.05081
# Poissons Ratio (y) = 0.88378 0.37830
# Poissons Ratio (z) = -0.14633 0.35745
#
# Static dielectric constant tensor:
#      x y z
#    x 3.872350 0.000000 0.000000 
#    y 0.000000 3.052450 0.000000 
#    z 0.000000 0.000000 2.974630 
# 
# 
# High freq. dielectric constant tensor:
#      x y z
#    x 1.728740 0.000000 0.000000 
#    y 0.000000 1.662680 0.000000 
#    z 0.000000 0.000000 1.653160 
# 
# From -- ./inp_files/21236.got.cif
#   From: 2010.03.12/outbox.cif.g09.slc.cpg/sg20_11_cif.got.tgz:21236.got - 2010.04.14 01:38:04.
