data_PCOD8158183
_publ_section_title
;
Structure prediction by ZEFSAII (Michael W. Deem and Ramdas Pophale) SiO2 
 PCOD8158183
Probable space group: C 2 2 21
;
_chemical_formula_sum "Si O2"
_cell_formula_units_Z 40
_cell_length_a 10.663634
_cell_length_b 19.419518
_cell_length_c 8.522723
_cell_angle_alpha 90.000000
_cell_angle_beta 90.000000
_cell_angle_gamma 90.000000
_cell_volume 1764.907914
_symmetry_space_group_name_H-M "C 2 2 21"
_symmetry_group_IT_number 20
_symmetry_cell_setting 'orthorhombic'
loop_
_space_group_symop_operation_xyz
x,y,z
-x,-y,1/2+z
x,-y,-z
-x,y,1/2-z
1/2+x,1/2+y,z
1/2-x,1/2-y,1/2+z
1/2+x,1/2-y,-z
1/2-x,1/2+y,1/2-z
loop_
_atom_site_type_symbol
_atom_site_label
_atom_site_fract_x
_atom_site_fract_y
_atom_site_fract_z
Si Si1 0.767362 0.535608 0.153627
Si Si2 0.721098 0.793644 0.396212
Si Si3 0.017156 0.363107 0.577798
Si Si4 0.360372 0.092041 0.680093
Si Si5 0.358561 0.326580 0.701238
O O1 0.894164 0.569721 0.087033
O O2 0.797040 0.482374 0.294388
O O3 0.674394 0.593214 0.222987
O O4 0.704833 0.500000 0.000000
O O5 0.585674 0.803179 0.479855
O O6 0.730460 0.851702 0.260390
O O7 0.729165 0.718649 0.317038
O O8 0.833912 0.802901 0.521019
O O9 0.000000 0.332167 0.750000
O O10 0.883624 0.387599 0.502789
O O11 0.500000 0.093516 0.750000
O O12 0.500000 0.312740 0.750000
#
# Coordination Sequence:
#
# PCOD8158183 Si02
#       5
#     8   8   8   8   8
#     4  11  20  37  65 100 139 180 227 285 346 432
#     4  10  23  41  66  96 134 175 237 290 352 420
#     4  10  21  34  66 106 139 175 223 296 365 405
#     4  10  18  37  66 101 136 175 222 293 351 397
#     4  11  24  44  72  98 140 185 230 294 366 427
#
# _framework density 22.664073999999999
#
# number of rings (size 3 to 8) (size 9 to 14) (size 15 to 20)
#    0.000    1.600    6.000    2.400    0.000    6.400 
#    0.000    2.000   13.200    0.000    0.000    0.000 
#    0.000    0.000    0.000    0.000    0.000    0.000 
#
# Total GULP energy -247902.312987 kJ/mol
# GULP energy per Si atom -12395.115649 kJ/mol
# Density = 2.261249 g / cm^3
# Si number density = 22.664074 Si / 1000 Ang^3
#
#
#
# Elastic Constant Matrix: (Units=GPa)
#
#
# Indices 1 2 3 4 5 6 
#
# 1 73.1606 33.8099 40.2877 0.0000 0.0000 0.0000
# 2 33.8099 126.8516 46.2998 0.0000 0.0000 0.0000
# 3 40.2877 46.2998 128.5994 0.0000 0.0000 0.0000
# 4 0.0000 0.0000 0.0000 41.0710 0.0000 0.0000
# 5 0.0000 0.0000 0.0000 0.0000 37.5751 0.0000
# 6 0.0000 0.0000 0.0000 0.0000 0.0000 25.4738
#
#
#
# Elastic Compliance Matrix: (Units=1/GPa)
#
#
# Indices 1 2 3 4 5 6 
#
# 1 0.017496 -0.003065 -0.004377 0.000000 0.000000 0.000000
# 2 -0.003065 0.009613 -0.002501 0.000000 0.000000 0.000000
# 3 -0.004377 -0.002501 0.010048 0.000000 0.000000 0.000000
# 4 0.000000 0.000000 0.000000 0.024348 0.000000 0.000000
# 5 0.000000 0.000000 0.000000 0.000000 0.026613 0.000000
# 6 0.000000 0.000000 0.000000 0.000000 0.000000 0.039256
#
#
# Mechanical properties :
#
#
# Convention : Reuss Voigt Hill
#
# Bulk Modulus (GPa) = 57.90560 63.26737 60.58649
# Shear Modulus (GPa) = 32.67602 34.70492 33.69047
#
# Velocity S-wave (km/s) = 3.80116 3.91740 3.85972
# Velocity P-wave (km/s) = 6.69851 6.95968 6.83035
#
# Compressibility (1/GPa) = 0.01726949
#
# Stress axis : x y z
#
# Youngs Moduli (GPa) = 57.15682 104.02616 99.52472
#
# Poissons Ratio (x) = 0.31888 0.43566
# Poissons Ratio (y) = 0.17521 0.24887
# Poissons Ratio (z) = 0.25020 0.26013
#
# Static dielectric constant tensor:
#      x y z
#    x 3.616480 0.000000 0.000000 
#    y 0.000000 4.113340 0.000000 
#    z 0.000000 0.000000 4.765170 
# 
# 
# High freq. dielectric constant tensor:
#      x y z
#    x 1.835340 0.000000 0.000000 
#    y 0.000000 1.901200 0.000000 
#    z 0.000000 0.000000 1.905760 
# 
# From -- ./inp_files/7072.got.cif
#   From: 2010.03.12/outbox.cif.g09.slc.cpg/sg20_4_cif.got.tgz:7072.got - 2010.04.14 01:38:04.
