data_PCOD8158312
_publ_section_title
;
Structure prediction by ZEFSAII (Michael W. Deem and Ramdas Pophale) SiO2 
 PCOD8158312
Probable space group: C 2 2 21
;
_chemical_formula_sum "Si O2"
_cell_formula_units_Z 24
_cell_length_a 14.826518
_cell_length_b 12.639312
_cell_length_c 5.139429
_cell_angle_alpha 90.000000
_cell_angle_beta 90.000000
_cell_angle_gamma 90.000000
_cell_volume 963.113509
_symmetry_space_group_name_H-M "C 2 2 21"
_symmetry_group_IT_number 20
_symmetry_cell_setting 'orthorhombic'
loop_
_space_group_symop_operation_xyz
x,y,z
-x,-y,1/2+z
x,-y,-z
-x,y,1/2-z
1/2+x,1/2+y,z
1/2-x,1/2-y,1/2+z
1/2+x,1/2-y,-z
1/2-x,1/2+y,1/2-z
loop_
_atom_site_type_symbol
_atom_site_label
_atom_site_fract_x
_atom_site_fract_y
_atom_site_fract_z
Si Si1 0.902765 0.591245 0.326786
Si Si2 0.249305 0.820031 0.991395
Si Si3 0.556987 0.325395 0.003645
O O1 0.855636 0.500000 0.500000
O O2 0.836060 0.608609 0.079951
O O3 0.920222 0.700868 0.476263
O O4 0.000000 0.544462 0.250000
O O5 0.237389 0.726989 0.777714
O O6 0.154103 0.884716 0.989282
O O7 0.500000 0.351125 0.750000
O O8 0.500000 0.366029 0.250000
#
# Coordination Sequence:
#
# PCOD8158312 Si02
#       3
#     8   8   8
#     4  10  20  33  53  85 123 154 183 231 295 352
#     4  10  20  35  55  81 116 158 197 231 278 344
#     4  10  19  34  55  80 111 150 196 238 277 332
#
# _framework density 24.919181999999999
#
# number of rings (size 3 to 8) (size 9 to 14) (size 15 to 20)
#    0.000    2.000    0.000    7.000    0.000    2.667 
#    0.000    0.000    0.000    0.000    0.000   32.667 
#    0.000   10.667    0.000    0.000    0.000    0.000 
#
# Total GULP energy -148710.590785 kJ/mol
# GULP energy per Si atom -12392.549232 kJ/mol
# Density = 2.486247 g / cm^3
# Si number density = 24.919182 Si / 1000 Ang^3
#
#
#
# Elastic Constant Matrix: (Units=GPa)
#
#
# Indices 1 2 3 4 5 6 
#
# 1 230.5247 -10.5244 36.9473 0.0000 0.0000 0.0000
# 2 -10.5244 37.1546 -14.8948 0.0000 0.0000 0.0000
# 3 36.9473 -14.8948 93.3289 0.0000 0.0000 0.0000
# 4 0.0000 0.0000 0.0000 18.8479 0.0000 0.0000
# 5 0.0000 0.0000 0.0000 0.0000 55.7207 0.0000
# 6 0.0000 0.0000 0.0000 0.0000 0.0000 -8.6102
#
#
#
# Elastic Compliance Matrix: (Units=1/GPa)
#
#
# Indices 1 2 3 4 5 6 
#
# 1 0.004645 0.000618 -0.001740 0.000000 0.000000 0.000000
# 2 0.000618 0.028837 0.004357 0.000000 0.000000 0.000000
# 3 -0.001740 0.004357 0.012099 0.000000 0.000000 0.000000
# 4 0.000000 0.000000 0.000000 0.053056 0.000000 0.000000
# 5 0.000000 0.000000 0.000000 0.000000 0.017947 0.000000
# 6 0.000000 0.000000 0.000000 0.000000 0.000000 -0.116141
#
#
# Mechanical properties :
#
#
# Convention : Reuss Voigt Hill
#
# Bulk Modulus (GPa) = 19.21176 42.67379 30.94278
# Shear Modulus (GPa) = 441.59603 36.49036 239.04320
#
# Velocity S-wave (km/s) = 13.32651 3.83083 9.80488
# Velocity P-wave (km/s) = 15.63717 6.06045 11.85854
#
# Compressibility (1/GPa) = 0.05205145
#
# Stress axis : x y z
#
# Youngs Moduli (GPa) = 215.28211 34.67821 82.65039
#
# Poissons Ratio (x) = -0.02144 0.14383
# Poissons Ratio (y) = -0.13307 -0.36015
# Poissons Ratio (z) = 0.37464 -0.15111
#
# Static dielectric constant tensor:
#      x y z
#    x 5.524740 0.000000 0.000000 
#    y 0.000000 3.808510 0.000000 
#    z 0.000000 0.000000 4.453010 
# 
# 
# High freq. dielectric constant tensor:
#      x y z
#    x 2.026050 0.000000 0.000000 
#    y 0.000000 1.937860 0.000000 
#    z 0.000000 0.000000 1.997670 
# 
# From -- ./inp_files/1519.got.cif
#   From: 2010.03.12/outbox.cif.g09.slc.cpg/sg20_1_cif.got.tgz:1519.got - 2010.04.14 01:38:04.
