data_PCOD8158947
_publ_section_title
;
Structure prediction by ZEFSAII (Michael W. Deem and Ramdas Pophale) SiO2 
 PCOD8158947
Probable space group: C 2 2 21
;
_chemical_formula_sum "Si O2"
_cell_formula_units_Z 56
_cell_length_a 16.102431
_cell_length_b 12.200644
_cell_length_c 12.716538
_cell_angle_alpha 90.000000
_cell_angle_beta 90.000000
_cell_angle_gamma 90.000000
_cell_volume 2498.291414
_symmetry_space_group_name_H-M "C 2 2 21"
_symmetry_group_IT_number 20
_symmetry_cell_setting 'orthorhombic'
loop_
_space_group_symop_operation_xyz
x,y,z
-x,-y,1/2+z
x,-y,-z
-x,y,1/2-z
1/2+x,1/2+y,z
1/2-x,1/2-y,1/2+z
1/2+x,1/2-y,-z
1/2-x,1/2+y,1/2-z
loop_
_atom_site_type_symbol
_atom_site_label
_atom_site_fract_x
_atom_site_fract_y
_atom_site_fract_z
Si Si1 0.330815 0.805386 0.188446
Si Si2 0.426948 0.950095 0.324233
Si Si3 0.463797 0.157492 0.978453
Si Si4 0.680606 0.404198 0.808355
Si Si5 0.447539 0.621324 0.494008
Si Si6 0.127325 0.359032 0.690364
Si Si7 0.649313 0.353916 0.198428
O O1 0.345990 0.877620 0.294665
O O2 0.383669 0.856353 0.094450
O O3 0.348895 0.679416 0.218172
O O4 0.236544 0.814277 0.151089
O O5 0.500000 0.903654 0.250000
O O6 0.459190 0.921986 0.442549
O O7 0.406296 0.077152 0.295140
O O8 0.486952 0.285358 0.963761
O O9 0.435721 0.115840 0.093996
O O10 0.778661 0.395826 0.835299
O O11 0.657282 0.522210 0.759710
O O12 0.630780 0.383595 0.915711
O O13 0.489373 0.500000 0.500000
O O14 0.418130 0.656928 0.608540
O O15 0.122894 0.228338 0.708224
#
# Coordination Sequence:
#
# PCOD8158947 Si02
#       7
#     8   8   8   8   8   8   8
#     4  10  20  40  65  91 121 170 224 264 325 393
#     4  10  22  40  63  94 124 165 217 262 330 388
#     4  11  24  41  64  94 132 170 220 272 332 401
#     4  10  20  41  68  90 126 171 219 270 329 391
#     4  10  22  39  64  94 128 170 217 270 323 393
#     4  11  24  41  65  95 131 172 216 276 334 394
#     4  10  22  40  62  95 129 166 223 270 323 395
#
# _framework density 22.415317999999999
#
# number of rings (size 3 to 8) (size 9 to 14) (size 15 to 20)
#    0.000    1.714    2.857    0.857    2.000    3.429 
#    0.000    2.857    0.000    3.429    0.000    0.000 
#    0.000    0.000    0.000    0.000    0.000    0.000 
#
# Total GULP energy -347043.102399 kJ/mol
# GULP energy per Si atom -12394.396514 kJ/mol
# Density = 2.236430 g / cm^3
# Si number density = 22.415318 Si / 1000 Ang^3
#
#
#
# Elastic Constant Matrix: (Units=GPa)
#
#
# Indices 1 2 3 4 5 6 
#
# 1 55.4673 16.9441 23.2566 0.0000 0.0000 0.0000
# 2 16.9441 148.2772 42.4057 0.0000 0.0000 0.0000
# 3 23.2566 42.4057 69.2419 0.0000 0.0000 0.0000
# 4 0.0000 0.0000 0.0000 36.2175 0.0000 0.0000
# 5 0.0000 0.0000 0.0000 0.0000 25.8879 0.0000
# 6 0.0000 0.0000 0.0000 0.0000 0.0000 31.7048
#
#
#
# Elastic Compliance Matrix: (Units=1/GPa)
#
#
# Indices 1 2 3 4 5 6 
#
# 1 0.021010 -0.000464 -0.006773 0.000000 0.000000 0.000000
# 2 -0.000464 0.008186 -0.004858 0.000000 0.000000 0.000000
# 3 -0.006773 -0.004858 0.019692 0.000000 0.000000 0.000000
# 4 0.000000 0.000000 0.000000 0.027611 0.000000 0.000000
# 5 0.000000 0.000000 0.000000 0.000000 0.038628 0.000000
# 6 0.000000 0.000000 0.000000 0.000000 0.000000 0.031541
#
#
# Mechanical properties :
#
#
# Convention : Reuss Voigt Hill
#
# Bulk Modulus (GPa) = 40.48636 48.68881 44.58758
# Shear Modulus (GPa) = 27.91889 31.45404 29.68646
#
# Velocity S-wave (km/s) = 3.53303 3.75005 3.64316
# Velocity P-wave (km/s) = 5.89442 6.36544 6.13445
#
# Compressibility (1/GPa) = 0.02469968
#
# Stress axis : x y z
#
# Youngs Moduli (GPa) = 47.59637 122.15362 50.78236
#
# Poissons Ratio (x) = 0.05668 0.34393
# Poissons Ratio (y) = 0.02208 0.24669
# Poissons Ratio (z) = 0.32235 0.59339
#
# Static dielectric constant tensor:
#      x y z
#    x 3.991110 0.000000 0.000000 
#    y 0.000000 4.319300 0.000000 
#    z 0.000000 0.000000 3.784660 
# 
# 
# High freq. dielectric constant tensor:
#      x y z
#    x 1.877740 0.000000 0.000000 
#    y 0.000000 1.904210 0.000000 
#    z 0.000000 0.000000 1.855780 
# 
# From -- ./inp_files/20741.got.cif
#   From: 2010.03.12/outbox.cif.g09.slc.cpg/sg20_11_cif.got.tgz:20741.got - 2010.04.14 01:38:04.
