data_PCOD8158987
_publ_section_title
;
Structure prediction by ZEFSAII (Michael W. Deem and Ramdas Pophale) SiO2 
 PCOD8158987
Probable space group: C 2 2 21
;
_chemical_formula_sum "Si O2"
_cell_formula_units_Z 40
_cell_length_a 13.561436
_cell_length_b 13.112388
_cell_length_c 10.233585
_cell_angle_alpha 90.000000
_cell_angle_beta 90.000000
_cell_angle_gamma 90.000000
_cell_volume 1819.764848
_symmetry_space_group_name_H-M "C 2 2 21"
_symmetry_group_IT_number 20
_symmetry_cell_setting 'orthorhombic'
loop_
_space_group_symop_operation_xyz
x,y,z
-x,-y,1/2+z
x,-y,-z
-x,y,1/2-z
1/2+x,1/2+y,z
1/2-x,1/2-y,1/2+z
1/2+x,1/2-y,-z
1/2-x,1/2+y,1/2-z
loop_
_atom_site_type_symbol
_atom_site_label
_atom_site_fract_x
_atom_site_fract_y
_atom_site_fract_z
Si Si1 0.470114 0.267661 0.951954
Si Si2 0.839918 0.291319 0.810416
Si Si3 0.287105 0.010553 0.852238
Si Si4 0.079259 0.886646 0.147624
Si Si5 0.637607 0.794772 0.216137
O O1 0.394766 0.286957 0.830539
O O2 0.555177 0.194009 0.895054
O O3 0.414461 0.211201 0.068893
O O4 0.523547 0.371252 0.007216
O O5 0.813143 0.407422 0.773028
O O6 0.884384 0.227605 0.689324
O O7 0.737414 0.239743 0.854694
O O8 0.169902 0.035236 0.856362
O O9 0.350296 0.096462 0.783113
O O10 0.324182 0.000000 0.000000
O O11 0.000000 0.930721 0.250000
#
# Coordination Sequence:
#
# PCOD8158987 Si02
#       5
#     8   8   8   8   8
#     4  10  20  41  62  90 123 167 211 258 314 388
#     4  10  21  40  65  89 130 166 208 265 324 371
#     4  11  20  39  63  93 127 167 212 265 313 377
#     4   9  21  41  65  91 129 171 210 262 324 380
#     4  10  22  38  66  92 126 167 214 258 327 376
#
# _framework density 21.980862999999999
#
# number of rings (size 3 to 8) (size 9 to 14) (size 15 to 20)
#    0.000    2.000    2.000    1.200    2.800    0.000 
#   21.600    0.000    0.000    0.000    0.000    0.000 
#    0.000    0.000    0.000    0.000    0.000    0.000 
#
# Total GULP energy -247847.046161 kJ/mol
# GULP energy per Si atom -12392.352308 kJ/mol
# Density = 2.193083 g / cm^3
# Si number density = 21.980863 Si / 1000 Ang^3
#
#
#
# Elastic Constant Matrix: (Units=GPa)
#
#
# Indices 1 2 3 4 5 6 
#
# 1 113.5943 4.2018 34.6629 0.0000 0.0000 0.0000
# 2 4.2018 20.0143 12.7602 0.0000 0.0000 0.0000
# 3 34.6629 12.7602 74.9517 0.0000 0.0000 0.0000
# 4 0.0000 0.0000 0.0000 21.6567 0.0000 0.0000
# 5 0.0000 0.0000 0.0000 0.0000 38.2818 0.0000
# 6 0.0000 0.0000 0.0000 0.0000 0.0000 25.9617
#
#
#
# Elastic Compliance Matrix: (Units=1/GPa)
#
#
# Indices 1 2 3 4 5 6 
#
# 1 0.010267 0.000978 -0.004915 0.000000 0.000000 0.000000
# 2 0.000978 0.056141 -0.010010 0.000000 0.000000 0.000000
# 3 -0.004915 -0.010010 0.017319 0.000000 0.000000 0.000000
# 4 0.000000 0.000000 0.000000 0.046175 0.000000 0.000000
# 5 0.000000 0.000000 0.000000 0.000000 0.026122 0.000000
# 6 0.000000 0.000000 0.000000 0.000000 0.000000 0.038518
#
#
# Mechanical properties :
#
#
# Convention : Reuss Voigt Hill
#
# Bulk Modulus (GPa) = 17.91047 34.64558 26.27802
# Shear Modulus (GPa) = 20.74289 27.64238 24.19263
#
# Velocity S-wave (km/s) = 3.07527 3.55006 3.32116
# Velocity P-wave (km/s) = 4.55803 5.70963 5.16602
#
# Compressibility (1/GPa) = 0.05583326
#
# Stress axis : x y z
#
# Youngs Moduli (GPa) = 97.40186 17.81233 57.74036
#
# Poissons Ratio (x) = -0.01742 0.28377
# Poissons Ratio (y) = -0.09525 0.57798
# Poissons Ratio (z) = 0.47869 0.17830
#
# Static dielectric constant tensor:
#      x y z
#    x 4.423160 0.000000 0.000000 
#    y 0.000000 3.703700 0.000000 
#    z 0.000000 0.000000 4.023270 
# 
# 
# High freq. dielectric constant tensor:
#      x y z
#    x 1.890610 0.000000 0.000000 
#    y 0.000000 1.830260 0.000000 
#    z 0.000000 0.000000 1.857680 
# 
# From -- ./inp_files/8115.got.cif
#   From: 2010.03.12/outbox.cif.g09.slc.cpg/sg20_5_cif.got.tgz:8115.got - 2010.04.14 01:38:04.
