data_PCOD8158798
_publ_section_title
;
Structure prediction by ZEFSAII (Michael W. Deem and Ramdas Pophale) SiO2 
 PCOD8158798
Probable space group: C 2 2 21
;
_chemical_formula_sum "Si O2"
_cell_formula_units_Z 44
_cell_length_a 15.129579
_cell_length_b 13.919359
_cell_length_c 10.793216
_cell_angle_alpha 90.000000
_cell_angle_beta 90.000000
_cell_angle_gamma 90.000000
_cell_volume 2272.986980
_symmetry_space_group_name_H-M "C 2 2 21"
_symmetry_group_IT_number 20
_symmetry_cell_setting 'orthorhombic'
loop_
_space_group_symop_operation_xyz
x,y,z
-x,-y,1/2+z
x,-y,-z
-x,y,1/2-z
1/2+x,1/2+y,z
1/2-x,1/2-y,1/2+z
1/2+x,1/2-y,-z
1/2-x,1/2+y,1/2-z
loop_
_atom_site_type_symbol
_atom_site_label
_atom_site_fract_x
_atom_site_fract_y
_atom_site_fract_z
Si Si1 0.618404 0.809180 0.572039
Si Si2 0.470194 0.000000 0.000000
Si Si3 0.842214 0.277344 0.190870
Si Si4 0.296381 0.615222 0.359744
Si Si5 0.825083 0.103722 0.647524
Si Si6 0.000000 0.808517 0.250000
Si Si7 0.500000 0.082380 0.750000
O O1 0.647232 0.745226 0.453207
O O2 0.699787 0.837241 0.660191
O O3 0.538135 0.759430 0.642724
O O4 0.591568 0.908842 0.510908
O O5 0.523220 0.984646 0.129414
O O6 0.857253 0.181461 0.272414
O O7 0.745884 0.326065 0.211453
O O8 0.914497 0.353125 0.233750
O O9 0.327805 0.621598 0.501007
O O10 0.299236 0.505061 0.316144
O O11 0.922575 0.124309 0.698854
#
# Coordination Sequence:
#
# PCOD8158798 Si02
#       7
#     8   4   8   8   8   4   4
#     4  10  21  38  65  87 122 165 203 258 315 370
#     4  10  20  38  58  94 120 158 208 260 316 372
#     4  10  21  40  62  90 121 163 209 255 309 380
#     4  10  20  42  64  84 123 168 206 248 310 378
#     4  10  23  40  64  90 124 166 205 253 322 374
#     4  12  23  41  62  96 126 160 210 262 310 370
#     4  10  21  35  62  90 126 156 212 258 322 372
#
# _framework density 19.357789
#
# number of rings (size 3 to 8) (size 9 to 14) (size 15 to 20)
#    0.000    1.818    1.818    3.818    5.091    0.727 
#    3.273    0.000    0.000    0.000    0.000    0.000 
#    0.000    0.000    0.000    0.000    0.000    0.000 
#
# Total GULP energy -272684.962322 kJ/mol
# GULP energy per Si atom -12394.771015 kJ/mol
# Density = 1.931373 g / cm^3
# Si number density = 19.357789 Si / 1000 Ang^3
#
#
#
# Elastic Constant Matrix: (Units=GPa)
#
#
# Indices 1 2 3 4 5 6 
#
# 1 109.1587 30.3924 42.3829 0.0000 0.0000 0.0000
# 2 30.3924 111.2829 70.7648 0.0000 0.0000 0.0000
# 3 42.3829 70.7648 105.7844 0.0000 0.0000 0.0000
# 4 0.0000 0.0000 0.0000 33.1225 0.0000 0.0000
# 5 0.0000 0.0000 0.0000 0.0000 30.6904 0.0000
# 6 0.0000 0.0000 0.0000 0.0000 0.0000 1.4850
#
#
#
# Elastic Compliance Matrix: (Units=1/GPa)
#
#
# Indices 1 2 3 4 5 6 
#
# 1 0.010856 -0.000346 -0.004118 0.000000 0.000000 0.000000
# 2 -0.000346 0.015650 -0.010330 0.000000 0.000000 0.000000
# 3 -0.004118 -0.010330 0.018013 0.000000 0.000000 0.000000
# 4 0.000000 0.000000 0.000000 0.030191 0.000000 0.000000
# 5 0.000000 0.000000 0.000000 0.000000 0.032584 0.000000
# 6 0.000000 0.000000 0.000000 0.000000 0.000000 0.673397
#
#
# Mechanical properties :
#
#
# Convention : Reuss Voigt Hill
#
# Bulk Modulus (GPa) = 66.97673 68.14511 67.56092
# Shear Modulus (GPa) = 6.13304 25.23863 15.68584
#
# Velocity S-wave (km/s) = 1.78189 3.61473 2.84968
# Velocity P-wave (km/s) = 6.23763 7.25955 6.76790
#
# Compressibility (1/GPa) = 0.01493056
#
# Stress axis : x y z
#
# Youngs Moduli (GPa) = 92.11271 63.89944 55.51435
#
# Poissons Ratio (x) = 0.02213 0.22860
# Poissons Ratio (y) = 0.03191 0.57347
# Poissons Ratio (z) = 0.37931 0.66009
#
# Static dielectric constant tensor:
#      x y z
#    x 3.489630 0.000000 0.000000 
#    y 0.000000 3.480980 0.000000 
#    z 0.000000 0.000000 4.162660 
# 
# 
# High freq. dielectric constant tensor:
#      x y z
#    x 1.746510 0.000000 0.000000 
#    y 0.000000 1.751140 0.000000 
#    z 0.000000 0.000000 1.758550 
# 
# From -- ./inp_files/8350.got.cif
#   From: 2010.03.12/outbox.cif.g09.slc.cpg/sg20_5_cif.got.tgz:8350.got - 2010.04.14 01:38:04.
