data_PCOD8158502
_publ_section_title
;
Structure prediction by ZEFSAII (Michael W. Deem and Ramdas Pophale) SiO2 
 PCOD8158502
Probable space group: C 2 2 21
;
_chemical_formula_sum "Si O2"
_cell_formula_units_Z 48
_cell_length_a 15.410184
_cell_length_b 8.347808
_cell_length_c 18.296982
_cell_angle_alpha 90.000000
_cell_angle_beta 90.000000
_cell_angle_gamma 90.000000
_cell_volume 2353.746769
_symmetry_space_group_name_H-M "C 2 2 21"
_symmetry_group_IT_number 20
_symmetry_cell_setting 'orthorhombic'
loop_
_space_group_symop_operation_xyz
x,y,z
-x,-y,1/2+z
x,-y,-z
-x,y,1/2-z
1/2+x,1/2+y,z
1/2-x,1/2-y,1/2+z
1/2+x,1/2-y,-z
1/2-x,1/2+y,1/2-z
loop_
_atom_site_type_symbol
_atom_site_label
_atom_site_fract_x
_atom_site_fract_y
_atom_site_fract_z
Si Si1 0.575158 0.091254 0.926708
Si Si2 0.715859 0.249138 0.830194
Si Si3 0.686311 0.068827 0.681085
Si Si4 0.607179 0.730802 0.437602
Si Si5 0.120414 0.878617 0.405281
Si Si6 0.016457 0.636381 0.328299
O O1 0.643521 0.218497 0.893227
O O2 0.483218 0.174124 0.944874
O O3 0.564160 0.960128 0.862395
O O4 0.609398 0.000000 0.000000
O O5 0.691446 0.187117 0.749947
O O6 0.735247 0.440297 0.825511
O O7 0.801077 0.149678 0.850409
O O8 0.681448 0.173790 0.606737
O O9 0.595199 0.982440 0.686081
O O10 0.589504 0.560855 0.399623
O O11 0.648708 0.689788 0.515902
O O12 0.035849 0.779490 0.383124
O O13 0.000000 0.715863 0.250000
#
# Coordination Sequence:
#
# PCOD8158502 Si02
#       6
#     8   8   8   8   8   8
#     4  11  22  40  66  92 124 161 214 261 313 370
#     4  11  23  40  62  94 124 170 207 268 308 380
#     4  10  22  40  64  89 128 164 214 251 327 373
#     4  10  22  42  63  89 123 171 211 257 313 385
#     4  10  22  41  63  88 130 166 208 255 324 374
#     4  10  19  39  64  88 123 167 206 253 315 377
#
# _framework density 20.393018000000001
#
# number of rings (size 3 to 8) (size 9 to 14) (size 15 to 20)
#    0.000    1.667    3.333    1.000    2.333    0.000 
#    9.000    3.333    0.000    0.000    0.000    0.000 
#    0.000    0.000    0.000    0.000    0.000    0.000 
#
# Total GULP energy -297480.952269 kJ/mol
# GULP energy per Si atom -12395.039678 kJ/mol
# Density = 2.034660 g / cm^3
# Si number density = 20.393018 Si / 1000 Ang^3
#
#
#
# Elastic Constant Matrix: (Units=GPa)
#
#
# Indices 1 2 3 4 5 6 
#
# 1 46.6713 23.6903 21.5489 0.0000 0.0000 0.0000
# 2 23.6903 123.3542 58.3264 0.0000 0.0000 0.0000
# 3 21.5489 58.3264 114.4700 0.0000 0.0000 0.0000
# 4 0.0000 0.0000 0.0000 37.6827 0.0000 0.0000
# 5 0.0000 0.0000 0.0000 0.0000 29.3522 0.0000
# 6 0.0000 0.0000 0.0000 0.0000 0.0000 21.4552
#
#
#
# Elastic Compliance Matrix: (Units=1/GPa)
#
#
# Indices 1 2 3 4 5 6 
#
# 1 0.024456 -0.003320 -0.002912 0.000000 0.000000 0.000000
# 2 -0.003320 0.011130 -0.005046 0.000000 0.000000 0.000000
# 3 -0.002912 -0.005046 0.011855 0.000000 0.000000 0.000000
# 4 0.000000 0.000000 0.000000 0.026537 0.000000 0.000000
# 5 0.000000 0.000000 0.000000 0.000000 0.034069 0.000000
# 6 0.000000 0.000000 0.000000 0.000000 0.000000 0.046609
#
#
# Mechanical properties :
#
#
# Convention : Reuss Voigt Hill
#
# Bulk Modulus (GPa) = 40.18466 54.62517 47.40492
# Shear Modulus (GPa) = 26.95284 29.76002 28.35643
#
# Velocity S-wave (km/s) = 3.63942 3.82425 3.73298
# Velocity P-wave (km/s) = 6.11624 6.80766 6.47119
#
# Compressibility (1/GPa) = 0.02488512
#
# Stress axis : x y z
#
# Youngs Moduli (GPa) = 40.88943 89.84382 84.34931
#
# Poissons Ratio (x) = 0.29826 0.24565
# Poissons Ratio (y) = 0.13574 0.42566
# Poissons Ratio (z) = 0.11908 0.45339
#
# Static dielectric constant tensor:
#      x y z
#    x 3.438700 0.000000 0.000000 
#    y 0.000000 3.831940 0.000000 
#    z 0.000000 0.000000 3.975640 
# 
# 
# High freq. dielectric constant tensor:
#      x y z
#    x 1.771960 0.000000 0.000000 
#    y 0.000000 1.800490 0.000000 
#    z 0.000000 0.000000 1.815130 
# 
# From -- ./inp_files/25170.got.cif
#   From: 2010.03.12/outbox.cif.g09.slc.cpg/sg20_13_cif.got.tgz:25170.got - 2010.04.14 01:38:04.
