data_PCOD8158956
_publ_section_title
;
Structure prediction by ZEFSAII (Michael W. Deem and Ramdas Pophale) SiO2 
 PCOD8158956
Probable space group: C 2 2 21
;
_chemical_formula_sum "Si O2"
_cell_formula_units_Z 48
_cell_length_a 26.411741
_cell_length_b 9.675568
_cell_length_c 8.291246
_cell_angle_alpha 90.000000
_cell_angle_beta 90.000000
_cell_angle_gamma 90.000000
_cell_volume 2118.816275
_symmetry_space_group_name_H-M "C 2 2 21"
_symmetry_group_IT_number 20
_symmetry_cell_setting 'orthorhombic'
loop_
_space_group_symop_operation_xyz
x,y,z
-x,-y,1/2+z
x,-y,-z
-x,y,1/2-z
1/2+x,1/2+y,z
1/2-x,1/2-y,1/2+z
1/2+x,1/2-y,-z
1/2-x,1/2+y,1/2-z
loop_
_atom_site_type_symbol
_atom_site_label
_atom_site_fract_x
_atom_site_fract_y
_atom_site_fract_z
Si Si1 0.379764 0.270060 0.742220
Si Si2 0.971767 0.646558 0.916511
Si Si3 0.606192 0.564487 0.655627
Si Si4 0.054047 0.839368 0.045393
Si Si5 0.785431 0.370231 0.103790
Si Si6 0.715951 0.374656 0.391043
O O1 0.418408 0.220193 0.881972
O O2 0.369720 0.433698 0.750561
O O3 0.404390 0.255899 0.563086
O O4 0.328412 0.184713 0.771146
O O5 0.000000 0.619079 0.750000
O O6 0.962760 0.500000 0.000000
O O7 0.002333 0.753213 0.030297
O O8 0.576499 0.500000 0.500000
O O9 0.570668 0.660005 0.766860
O O10 0.655215 0.651299 0.602249
O O11 0.045143 0.000000 0.000000
O O12 0.736812 0.403498 0.213133
O O13 0.805004 0.500000 0.000000
O O14 0.763272 0.262946 0.974293
O O15 0.733914 0.500000 0.500000
#
# Coordination Sequence:
#
# PCOD8158956 Si02
#       6
#     8   8   8   8   8   8
#     4  10  21  42  65  92 134 175 222 279 334 407
#     4  10  22  42  63  96 137 174 221 278 344 407
#     4  10  20  40  67  94 132 170 226 278 336 395
#     4   9  21  40  67  96 126 180 229 276 337 404
#     4  12  25  41  67  98 133 178 225 277 343 403
#     4  11  24  45  65  98 135 177 225 282 338 405
#
# _framework density 22.654157999999999
#
# number of rings (size 3 to 8) (size 9 to 14) (size 15 to 20)
#    0.000    1.667    3.333    1.500    2.333    2.667 
#    6.000    5.000    0.000    0.000    0.000    0.000 
#    0.000    0.000    0.000    0.000    0.000    0.000 
#
# Total GULP energy -297466.443292 kJ/mol
# GULP energy per Si atom -12394.435137 kJ/mol
# Density = 2.260260 g / cm^3
# Si number density = 22.654158 Si / 1000 Ang^3
#
#
#
# Elastic Constant Matrix: (Units=GPa)
#
#
# Indices 1 2 3 4 5 6 
#
# 1 63.8437 23.6189 39.3334 0.0000 0.0000 0.0000
# 2 23.6189 118.6967 38.5920 0.0000 0.0000 0.0000
# 3 39.3334 38.5920 134.4596 0.0000 0.0000 0.0000
# 4 0.0000 0.0000 0.0000 47.7001 0.0000 0.0000
# 5 0.0000 0.0000 0.0000 0.0000 13.7119 0.0000
# 6 0.0000 0.0000 0.0000 0.0000 0.0000 37.1684
#
#
#
# Elastic Compliance Matrix: (Units=1/GPa)
#
#
# Indices 1 2 3 4 5 6 
#
# 1 0.019637 -0.002250 -0.005099 0.000000 0.000000 0.000000
# 2 -0.002250 0.009550 -0.002083 0.000000 0.000000 0.000000
# 3 -0.005099 -0.002083 0.009526 0.000000 0.000000 0.000000
# 4 0.000000 0.000000 0.000000 0.020964 0.000000 0.000000
# 5 0.000000 0.000000 0.000000 0.000000 0.072930 0.000000
# 6 0.000000 0.000000 0.000000 0.000000 0.000000 0.026905
#
#
# Mechanical properties :
#
#
# Convention : Reuss Voigt Hill
#
# Bulk Modulus (GPa) = 50.37626 57.78763 54.08194
# Shear Modulus (GPa) = 27.02843 34.07979 30.55411
#
# Velocity S-wave (km/s) = 3.45786 3.88280 3.67648
# Velocity P-wave (km/s) = 6.18286 6.75763 6.47662
#
# Compressibility (1/GPa) = 0.01985062
#
# Stress axis : x y z
#
# Youngs Moduli (GPa) = 50.92500 104.71565 104.97070
#
# Poissons Ratio (x) = 0.23558 0.53521
# Poissons Ratio (y) = 0.11457 0.21863
# Poissons Ratio (z) = 0.25965 0.21810
#
# Static dielectric constant tensor:
#      x y z
#    x 3.845120 0.000000 0.000000 
#    y 0.000000 4.074740 0.000000 
#    z 0.000000 0.000000 4.265060 
# 
# 
# High freq. dielectric constant tensor:
#      x y z
#    x 1.881810 0.000000 0.000000 
#    y 0.000000 1.888150 0.000000 
#    z 0.000000 0.000000 1.902500 
# 
# From -- ./inp_files/11424.got.cif
#   From: 2010.03.12/outbox.cif.g09.slc.cpg/sg20_6_cif.got.tgz:11424.got - 2010.04.14 01:38:04.
