data_PCOD8158476
_publ_section_title
;
Structure prediction by ZEFSAII (Michael W. Deem and Ramdas Pophale) SiO2 
 PCOD8158476
Probable space group: C 2 2 21
;
_chemical_formula_sum "Si O2"
_cell_formula_units_Z 44
_cell_length_a 17.272022
_cell_length_b 7.992802
_cell_length_c 15.778616
_cell_angle_alpha 90.000000
_cell_angle_beta 90.000000
_cell_angle_gamma 90.000000
_cell_volume 2178.267161
_symmetry_space_group_name_H-M "C 2 2 21"
_symmetry_group_IT_number 20
_symmetry_cell_setting 'orthorhombic'
loop_
_space_group_symop_operation_xyz
x,y,z
-x,-y,1/2+z
x,-y,-z
-x,y,1/2-z
1/2+x,1/2+y,z
1/2-x,1/2-y,1/2+z
1/2+x,1/2-y,-z
1/2-x,1/2+y,1/2-z
loop_
_atom_site_type_symbol
_atom_site_label
_atom_site_fract_x
_atom_site_fract_y
_atom_site_fract_z
Si Si1 0.846444 0.889847 0.128473
Si Si2 0.360973 0.407767 0.322320
Si Si3 0.576182 0.000000 0.000000
Si Si4 0.766113 0.859960 0.563896
Si Si5 0.708579 0.873916 0.911093
Si Si6 0.489314 0.342174 0.447670
O O1 0.870614 0.939817 0.223250
O O2 0.802464 0.712303 0.122884
O O3 0.920914 0.875388 0.069709
O O4 0.790562 0.035449 0.093962
O O5 0.331786 0.572217 0.372131
O O6 0.297441 0.259660 0.335169
O O7 0.442204 0.342110 0.359601
O O8 0.632510 0.005513 0.084528
O O9 0.522125 0.167012 0.001399
O O10 0.800669 0.717162 0.502830
O O11 0.732315 0.000000 0.500000
O O12 0.456287 0.500000 0.500000
#
# Coordination Sequence:
#
# PCOD8158476 Si02
#       6
#     8   8   4   8   8   8
#     4  12  22  37  61  94 127 151 205 274 311 352
#     4  10  22  39  61  88 126 165 200 254 325 370
#     4  10  20  40  62  82 114 164 210 248 304 374
#     4  10  20  36  63  88 115 160 210 246 297 382
#     4  10  19  38  63  87 116 163 213 251 296 378
#     4  11  24  40  63  90 124 168 210 254 314 384
#
# _framework density 20.199542000000001
#
# number of rings (size 3 to 8) (size 9 to 14) (size 15 to 20)
#    0.000    1.455    1.818    5.455    1.273    0.000 
#    0.000    0.000    0.000    4.364    0.000    0.000 
#    0.000    0.000    0.000    0.000    0.000    0.000 
#
# Total GULP energy -272590.895585 kJ/mol
# GULP energy per Si atom -12390.495254 kJ/mol
# Density = 2.015357 g / cm^3
# Si number density = 20.199542 Si / 1000 Ang^3
#
#
#
# Elastic Constant Matrix: (Units=GPa)
#
#
# Indices 1 2 3 4 5 6 
#
# 1 107.0863 52.8533 15.9068 0.0000 0.0000 0.0000
# 2 52.8533 123.7974 41.0333 0.0000 0.0000 0.0000
# 3 15.9068 41.0333 83.9196 0.0000 0.0000 0.0000
# 4 0.0000 0.0000 0.0000 25.0218 0.0000 0.0000
# 5 0.0000 0.0000 0.0000 0.0000 29.0985 0.0000
# 6 0.0000 0.0000 0.0000 0.0000 0.0000 30.4794
#
#
#
# Elastic Compliance Matrix: (Units=1/GPa)
#
#
# Indices 1 2 3 4 5 6 
#
# 1 0.011836 -0.005143 0.000271 0.000000 0.000000 0.000000
# 2 -0.005143 0.011875 -0.004831 0.000000 0.000000 0.000000
# 3 0.000271 -0.004831 0.014227 0.000000 0.000000 0.000000
# 4 0.000000 0.000000 0.000000 0.039965 0.000000 0.000000
# 5 0.000000 0.000000 0.000000 0.000000 0.034366 0.000000
# 6 0.000000 0.000000 0.000000 0.000000 0.000000 0.032809
#
#
# Mechanical properties :
#
#
# Convention : Reuss Voigt Hill
#
# Bulk Modulus (GPa) = 53.96187 59.37667 56.66927
# Shear Modulus (GPa) = 29.29750 30.58728 29.94239
#
# Velocity S-wave (km/s) = 3.81255 3.89557 3.85428
# Velocity P-wave (km/s) = 6.79361 7.04931 6.92264
#
# Compressibility (1/GPa) = 0.01853160
#
# Stress axis : x y z
#
# Youngs Moduli (GPa) = 84.48449 84.21053 70.28816
#
# Poissons Ratio (x) = 0.43312 -0.01907
# Poissons Ratio (y) = 0.43453 0.33960
# Poissons Ratio (z) = -0.02292 0.40686
#
# Static dielectric constant tensor:
#      x y z
#    x 3.569900 0.000000 0.000000 
#    y 0.000000 4.033290 0.000000 
#    z 0.000000 0.000000 3.488450 
# 
# 
# High freq. dielectric constant tensor:
#      x y z
#    x 1.782240 0.000000 0.000000 
#    y 0.000000 1.800390 0.000000 
#    z 0.000000 0.000000 1.768130 
# 
# From -- ./inp_files/21213.got.cif
#   From: 2010.03.12/outbox.cif.g09.slc.cpg/sg20_11_cif.got.tgz:21213.got - 2010.04.14 01:38:04.
