data_PCOD8158741
_publ_section_title
;
Structure prediction by ZEFSAII (Michael W. Deem and Ramdas Pophale) SiO2 
 PCOD8158741
Probable space group: C 2 2 21
;
_chemical_formula_sum "Si O2"
_cell_formula_units_Z 60
_cell_length_a 10.204498
_cell_length_b 9.001152
_cell_length_c 30.591685
_cell_angle_alpha 90.000000
_cell_angle_beta 90.000000
_cell_angle_gamma 90.000000
_cell_volume 2809.914719
_symmetry_space_group_name_H-M "C 2 2 21"
_symmetry_group_IT_number 20
_symmetry_cell_setting 'orthorhombic'
loop_
_space_group_symop_operation_xyz
x,y,z
-x,-y,1/2+z
x,-y,-z
-x,y,1/2-z
1/2+x,1/2+y,z
1/2-x,1/2-y,1/2+z
1/2+x,1/2-y,-z
1/2-x,1/2+y,1/2-z
loop_
_atom_site_type_symbol
_atom_site_label
_atom_site_fract_x
_atom_site_fract_y
_atom_site_fract_z
Si Si1 0.028991 0.448719 0.562893
Si Si2 0.756631 0.621639 0.693714
Si Si3 0.743600 0.534193 0.216292
Si Si4 0.635695 0.809857 0.483135
Si Si5 0.507413 0.025588 0.338253
Si Si6 0.063672 0.000000 0.500000
Si Si7 0.884864 0.161055 0.567901
Si Si8 0.030853 0.139634 0.835603
O O1 0.142892 0.363987 0.533741
O O2 0.005509 0.609885 0.538921
O O3 0.069730 0.470060 0.613217
O O4 0.903816 0.339305 0.562523
O O5 0.757021 0.504736 0.733084
O O6 0.623729 0.597288 0.665661
O O7 0.884399 0.587369 0.663966
O O8 0.767624 0.789188 0.711062
O O9 0.873800 0.471763 0.192481
O O10 0.611707 0.456492 0.198984
O O11 0.646602 0.633126 0.478743
O O12 0.743965 0.879733 0.450960
O O13 0.455601 0.187191 0.323417
O O14 0.984553 0.071205 0.538816
O O15 0.906800 0.106867 0.617132
#
# Coordination Sequence:
#
# PCOD8158741 Si02
#       8
#     8   8   8   8   8   4   8   8
#     4   9  20  38  58  84 118 156 196 246 304 356
#     4  11  24  40  62  91 124 161 205 257 313 373
#     4  11  23  40  63  91 122 164 209 254 311 374
#     4  10  20  37  58  83 117 154 196 246 296 355
#     4  10  22  41  62  89 125 163 206 255 309 370
#     4  10  22  34  54  86 112 144 196 240 290 354
#     4  10  21  38  59  84 117 157 197 247 305 357
#     4  10  23  41  61  89 125 160 203 258 308 364
#
# _framework density 21.352962000000002
#
# number of rings (size 3 to 8) (size 9 to 14) (size 15 to 20)
#    0.000    1.867    0.000    3.200    0.000   10.667 
#    0.000   10.667    0.000    0.000    0.000    0.000 
#    0.000    0.000    0.000    0.000    0.000    0.000 
#
# Total GULP energy -371707.287531 kJ/mol
# GULP energy per Si atom -12390.242918 kJ/mol
# Density = 2.130436 g / cm^3
# Si number density = 21.352962 Si / 1000 Ang^3
#
#
#
# Elastic Constant Matrix: (Units=GPa)
#
#
# Indices 1 2 3 4 5 6 
#
# 1 96.3458 28.7798 35.9553 0.0000 0.0000 0.0000
# 2 28.7798 105.4703 29.5593 0.0000 0.0000 0.0000
# 3 35.9553 29.5593 116.7113 0.0000 0.0000 0.0000
# 4 0.0000 0.0000 0.0000 29.9332 0.0000 0.0000
# 5 0.0000 0.0000 0.0000 0.0000 36.3032 0.0000
# 6 0.0000 0.0000 0.0000 0.0000 0.0000 30.4540
#
#
#
# Elastic Compliance Matrix: (Units=1/GPa)
#
#
# Indices 1 2 3 4 5 6 
#
# 1 0.012297 -0.002469 -0.003163 0.000000 0.000000 0.000000
# 2 -0.002469 0.010702 -0.001950 0.000000 0.000000 0.000000
# 3 -0.003163 -0.001950 0.010036 0.000000 0.000000 0.000000
# 4 0.000000 0.000000 0.000000 0.033408 0.000000 0.000000
# 5 0.000000 0.000000 0.000000 0.000000 0.027546 0.000000
# 6 0.000000 0.000000 0.000000 0.000000 0.000000 0.032836
#
#
# Mechanical properties :
#
#
# Convention : Reuss Voigt Hill
#
# Bulk Modulus (GPa) = 55.95520 56.34625 56.15073
# Shear Modulus (GPa) = 33.79614 34.28696 34.04155
#
# Velocity S-wave (km/s) = 3.98268 4.01150 3.99711
# Velocity P-wave (km/s) = 6.88555 6.92109 6.90334
#
# Compressibility (1/GPa) = 0.01787144
#
# Stress axis : x y z
#
# Youngs Moduli (GPa) = 81.31899 93.44480 99.63734
#
# Poissons Ratio (x) = 0.23072 0.31516
# Poissons Ratio (y) = 0.20078 0.19426
# Poissons Ratio (z) = 0.25722 0.18219
#
# Static dielectric constant tensor:
#      x y z
#    x 3.733210 0.000000 0.000000 
#    y 0.000000 4.214240 0.000000 
#    z 0.000000 0.000000 3.818360 
# 
# 
# High freq. dielectric constant tensor:
#      x y z
#    x 1.820750 0.000000 0.000000 
#    y 0.000000 1.844160 0.000000 
#    z 0.000000 0.000000 1.844920 
# 
# From -- ./inp_files/31184.got.cif
#   From: 2010.03.12/outbox.cif.g09.slc.cpg/sg20_16_cif.got.tgz:31184.got - 2010.04.14 01:38:04.
