data_PCOD8158924
_publ_section_title
;
Structure prediction by ZEFSAII (Michael W. Deem and Ramdas Pophale) SiO2 
 PCOD8158924
Probable space group: C 2 2 21
;
_chemical_formula_sum "Si O2"
_cell_formula_units_Z 60
_cell_length_a 11.339675
_cell_length_b 23.939746
_cell_length_c 10.703998
_cell_angle_alpha 90.000000
_cell_angle_beta 90.000000
_cell_angle_gamma 90.000000
_cell_volume 2905.802983
_symmetry_space_group_name_H-M "C 2 2 21"
_symmetry_group_IT_number 20
_symmetry_cell_setting 'orthorhombic'
loop_
_space_group_symop_operation_xyz
x,y,z
-x,-y,1/2+z
x,-y,-z
-x,y,1/2-z
1/2+x,1/2+y,z
1/2-x,1/2-y,1/2+z
1/2+x,1/2-y,-z
1/2-x,1/2+y,1/2-z
loop_
_atom_site_type_symbol
_atom_site_label
_atom_site_fract_x
_atom_site_fract_y
_atom_site_fract_z
Si Si1 0.771714 0.175281 0.558721
Si Si2 0.367317 0.356550 0.707832
Si Si3 0.701607 0.467587 0.688187
Si Si4 0.671644 0.206583 0.170942
Si Si5 0.048147 0.660658 0.415843
Si Si6 0.618736 0.426702 0.180462
Si Si7 0.011812 0.000000 0.500000
Si Si8 0.963963 0.537409 0.382160
O O1 0.843638 0.170331 0.428284
O O2 0.804398 0.229763 0.636817
O O3 0.630899 0.172047 0.534942
O O4 0.801126 0.126031 0.653595
O O5 0.500000 0.348991 0.750000
O O6 0.324460 0.421211 0.705532
O O7 0.295040 0.325748 0.818907
O O8 0.701186 0.529823 0.744513
O O9 0.591944 0.464411 0.594093
O O10 0.822832 0.454166 0.615954
O O11 0.605420 0.195820 0.302298
O O12 0.585337 0.182643 0.061730
O O13 0.039017 0.594676 0.386865
O O14 0.500000 0.407695 0.250000
O O15 0.575215 0.454210 0.053912
O O16 0.003002 0.500000 0.500000
O O17 0.000000 0.508335 0.250000
#
# Coordination Sequence:
#
# PCOD8158924 Si02
#       8
#     8   8   8   8   8   8   4   8
#     4  11  24  40  67  98 124 179 228 286 347 413
#     4  11  22  40  66  98 126 174 230 278 348 422
#     4  11  21  41  63  97 140 176 224 277 354 425
#     4  10  22  43  67  89 132 173 230 279 350 416
#     4  10  22  47  67  94 132 181 233 282 356 432
#     4  10  22  37  63  98 135 170 219 280 348 407
#     4  10  20  40  58  96 140 178 212 286 344 430
#     4  12  24  43  72 103 141 190 234 285 359 434
#
# _framework density 20.648337000000001
#
# number of rings (size 3 to 8) (size 9 to 14) (size 15 to 20)
#    0.000    1.333    3.333    3.600    5.600    0.000 
#    0.000    4.000    0.000    0.000    0.000    0.000 
#    0.000    0.000    0.000    0.000    0.000    0.000 
#
# Total GULP energy -371828.385820 kJ/mol
# GULP energy per Si atom -12394.279527 kJ/mol
# Density = 2.060134 g / cm^3
# Si number density = 20.648337 Si / 1000 Ang^3
#
#
#
# Elastic Constant Matrix: (Units=GPa)
#
#
# Indices 1 2 3 4 5 6 
#
# 1 111.1426 59.6731 27.9904 0.0000 0.0000 0.0000
# 2 59.6731 130.1979 59.3632 0.0000 0.0000 0.0000
# 3 27.9904 59.3632 84.3070 0.0000 0.0000 0.0000
# 4 0.0000 0.0000 0.0000 34.1731 0.0000 0.0000
# 5 0.0000 0.0000 0.0000 0.0000 14.2954 0.0000
# 6 0.0000 0.0000 0.0000 0.0000 0.0000 29.0462
#
#
#
# Elastic Compliance Matrix: (Units=1/GPa)
#
#
# Indices 1 2 3 4 5 6 
#
# 1 0.011936 -0.005396 -0.000163 0.000000 0.000000 0.000000
# 2 -0.005396 0.013752 -0.007892 0.000000 0.000000 0.000000
# 3 -0.000163 -0.007892 0.017472 0.000000 0.000000 0.000000
# 4 0.000000 0.000000 0.000000 0.029263 0.000000 0.000000
# 5 0.000000 0.000000 0.000000 0.000000 0.069952 0.000000
# 6 0.000000 0.000000 0.000000 0.000000 0.000000 0.034428
#
#
# Mechanical properties :
#
#
# Convention : Reuss Voigt Hill
#
# Bulk Modulus (GPa) = 61.50738 68.85566 65.18152
# Shear Modulus (GPa) = 23.90923 27.41100 25.66012
#
# Velocity S-wave (km/s) = 3.40652 3.64746 3.52905
# Velocity P-wave (km/s) = 6.73240 7.15247 6.94561
#
# Compressibility (1/GPa) = 0.01625821
#
# Stress axis : x y z
#
# Youngs Moduli (GPa) = 83.78211 72.71715 57.23330
#
# Poissons Ratio (x) = 0.39238 0.00934
# Poissons Ratio (y) = 0.45209 0.45166
# Poissons Ratio (z) = 0.01367 0.57386
#
# Static dielectric constant tensor:
#      x y z
#    x 4.132340 0.000000 0.000000 
#    y 0.000000 3.641920 0.000000 
#    z 0.000000 0.000000 3.641940 
# 
# 
# High freq. dielectric constant tensor:
#      x y z
#    x 1.824100 0.000000 0.000000 
#    y 0.000000 1.799500 0.000000 
#    z 0.000000 0.000000 1.788640 
# 
# From -- ./inp_files/14379.got.cif
#   From: 2010.03.12/outbox.cif.g09.slc.cpg/sg20_8_cif.got.tgz:14379.got - 2010.04.14 01:38:04.
