data_PCOD8158836
_publ_section_title
;
Structure prediction by ZEFSAII (Michael W. Deem and Ramdas Pophale) SiO2 
 PCOD8158836
Probable space group: C 2 2 21
;
_chemical_formula_sum "Si O2"
_cell_formula_units_Z 64
_cell_length_a 15.263202
_cell_length_b 17.032481
_cell_length_c 11.465789
_cell_angle_alpha 90.000000
_cell_angle_beta 90.000000
_cell_angle_gamma 90.000000
_cell_volume 2980.763437
_symmetry_space_group_name_H-M "C 2 2 21"
_symmetry_group_IT_number 20
_symmetry_cell_setting 'orthorhombic'
loop_
_space_group_symop_operation_xyz
x,y,z
-x,-y,1/2+z
x,-y,-z
-x,y,1/2-z
1/2+x,1/2+y,z
1/2-x,1/2-y,1/2+z
1/2+x,1/2-y,-z
1/2-x,1/2+y,1/2-z
loop_
_atom_site_type_symbol
_atom_site_label
_atom_site_fract_x
_atom_site_fract_y
_atom_site_fract_z
Si Si1 0.347574 0.646614 0.960812
Si Si2 0.610248 0.802298 0.881721
Si Si3 0.452796 0.969965 0.625439
Si Si4 0.739491 0.972694 0.182008
Si Si5 0.784541 0.143628 0.209821
Si Si6 0.224081 0.773532 0.930339
Si Si7 0.533091 0.636141 0.869378
Si Si8 0.218066 0.077608 0.927453
O O1 0.294669 0.569138 0.920708
O O2 0.308198 0.721371 0.890293
O O3 0.451197 0.635635 0.955688
O O4 0.332831 0.670008 0.094172
O O5 0.544504 0.875780 0.890711
O O6 0.683552 0.828856 0.789640
O O7 0.561362 0.724831 0.838118
O O8 0.654625 0.784134 0.007342
O O9 0.500000 0.992397 0.750000
O O10 0.494533 0.000000 0.500000
O O11 0.355955 0.007536 0.632463
O O12 0.737792 0.920652 0.299434
O O13 0.791596 0.050186 0.222447
O O14 0.826574 0.187726 0.320545
O O15 0.257161 0.845040 0.011664
O O16 0.500000 0.596183 0.750000
O O17 0.612340 0.585510 0.921166
O O18 0.243365 0.000000 0.000000
#
# Coordination Sequence:
#
# PCOD8158836 Si02
#       8
#     8   8   8   8   8   8   8   8
#     4  11  23  38  65  96 125 177 226 260 337 398
#     4   9  21  40  62  90 132 172 217 277 334 402
#     4  11  24  46  68 101 135 175 225 283 346 407
#     4  11  22  42  68  91 133 173 220 275 331 405
#     4  10  20  38  63  92 124 174 221 272 323 401
#     4  10  21  38  63  92 129 167 224 277 328 394
#     4  11  21  39  61  91 125 170 216 268 321 394
#     4  11  23  41  60  94 132 167 218 275 332 389
#
# _framework density 21.47101
#
# number of rings (size 3 to 8) (size 9 to 14) (size 15 to 20)
#    0.000    1.500    2.500    3.750    3.500    2.500 
#    2.250    2.500    0.000    0.000    0.000    0.000 
#    0.000    0.000    0.000    0.000    0.000    0.000 
#
# Total GULP energy -396591.653410 kJ/mol
# GULP energy per Si atom -12393.489169 kJ/mol
# Density = 2.142214 g / cm^3
# Si number density = 21.471010 Si / 1000 Ang^3
#
#
#
# Elastic Constant Matrix: (Units=GPa)
#
#
# Indices 1 2 3 4 5 6 
#
# 1 58.0497 14.5202 5.9554 0.0000 0.0000 0.0000
# 2 14.5202 95.5163 23.5360 0.0000 0.0000 0.0000
# 3 5.9554 23.5360 113.9220 0.0000 0.0000 0.0000
# 4 0.0000 0.0000 0.0000 36.8635 0.0000 0.0000
# 5 0.0000 0.0000 0.0000 0.0000 24.1161 0.0000
# 6 0.0000 0.0000 0.0000 0.0000 0.0000 19.8934
#
#
#
# Elastic Compliance Matrix: (Units=1/GPa)
#
#
# Indices 1 2 3 4 5 6 
#
# 1 0.017924 -0.002628 -0.000394 0.000000 0.000000 0.000000
# 2 -0.002628 0.011416 -0.002221 0.000000 0.000000 0.000000
# 3 -0.000394 -0.002221 0.009257 0.000000 0.000000 0.000000
# 4 0.000000 0.000000 0.000000 0.027127 0.000000 0.000000
# 5 0.000000 0.000000 0.000000 0.000000 0.041466 0.000000
# 6 0.000000 0.000000 0.000000 0.000000 0.000000 0.050268
#
#
# Mechanical properties :
#
#
# Convention : Reuss Voigt Hill
#
# Bulk Modulus (GPa) = 35.57213 39.50126 37.53670
# Shear Modulus (GPa) = 28.19828 31.07302 29.63565
#
# Velocity S-wave (km/s) = 3.62791 3.80835 3.71922
# Velocity P-wave (km/s) = 5.84401 6.14617 5.99699
#
# Compressibility (1/GPa) = 0.02811189
#
# Stress axis : x y z
#
# Youngs Moduli (GPa) = 55.79006 87.59486 108.02134
#
# Poissons Ratio (x) = 0.23017 0.04258
# Poissons Ratio (y) = 0.14660 0.23994
# Poissons Ratio (z) = 0.02199 0.19457
#
# Static dielectric constant tensor:
#      x y z
#    x 3.683790 0.000000 0.000000 
#    y 0.000000 4.046650 0.000000 
#    z 0.000000 0.000000 4.014250 
# 
# 
# High freq. dielectric constant tensor:
#      x y z
#    x 1.805680 0.000000 0.000000 
#    y 0.000000 1.852840 0.000000 
#    z 0.000000 0.000000 1.854120 
# 
# From -- ./inp_files/15334.got.cif
#   From: 2010.03.12/outbox.cif.g09.slc.cpg/sg20_8_cif.got.tgz:15334.got - 2010.04.14 01:38:04.
