data_PCOD8158112
_publ_section_title
;
Structure prediction by ZEFSAII (Michael W. Deem and Ramdas Pophale) SiO2 
 PCOD8158112
Probable space group: C 2 2 21
;
_chemical_formula_sum "Si O2"
_cell_formula_units_Z 56
_cell_length_a 22.641866
_cell_length_b 22.736363
_cell_length_c 6.315991
_cell_angle_alpha 90.000000
_cell_angle_beta 90.000000
_cell_angle_gamma 90.000000
_cell_volume 3251.432277
_symmetry_space_group_name_H-M "C 2 2 21"
_symmetry_group_IT_number 20
_symmetry_cell_setting 'orthorhombic'
loop_
_space_group_symop_operation_xyz
x,y,z
-x,-y,1/2+z
x,-y,-z
-x,y,1/2-z
1/2+x,1/2+y,z
1/2-x,1/2-y,1/2+z
1/2+x,1/2-y,-z
1/2-x,1/2+y,1/2-z
loop_
_atom_site_type_symbol
_atom_site_label
_atom_site_fract_x
_atom_site_fract_y
_atom_site_fract_z
Si Si1 0.071727 0.637532 0.488269
Si Si2 0.178807 0.766321 0.507527
Si Si3 0.934101 0.247281 0.250520
Si Si4 0.125797 0.296776 0.875408
Si Si5 0.500000 0.940615 0.750000
Si Si6 0.721835 0.165098 0.819161
Si Si7 0.099994 0.500000 0.000000
Si Si8 0.327352 0.056770 0.853491
O O1 0.061454 0.685455 0.668011
O O2 0.078777 0.665545 0.255053
O O3 0.014587 0.596097 0.464221
O O4 0.129555 0.598795 0.517980
O O5 0.115288 0.786537 0.608068
O O6 0.169173 0.737517 0.280164
O O7 0.220099 0.822858 0.463022
O O8 0.211716 0.718861 0.655439
O O9 0.911815 0.249035 0.491107
O O10 0.000000 0.218268 0.250000
O O11 0.164575 0.337644 0.029464
O O12 0.558538 0.975675 0.812337
O O13 0.727750 0.100973 0.703513
O O14 0.143513 0.542291 0.872277
O O15 0.309189 0.000000 0.000000
#
# Coordination Sequence:
#
# PCOD8158112 Si02
#       8
#     8   8   8   8   4   8   4   8
#     4  11  21  33  48  69  94 140 190 229 275 309
#     4  10  20  33  56  81  94 134 181 236 278 326
#     4  10  21  33  50  78 107 134 176 225 285 332
#     4  10  18  34  52  75  99 134 176 232 276 316
#     4  12  22  34  48  60  96 140 194 248 260 306
#     4  11  20  35  58  75 102 128 190 237 278 333
#     4  12  26  38  46  66  98 146 196 238 282 304
#     4  12  24  38  49  71 101 142 188 239 282 326
#
# _framework density 17.223178999999998
#
# number of rings (size 3 to 8) (size 9 to 14) (size 15 to 20)
#    0.000    1.143    7.143    2.571    2.000    1.714 
#    0.000    0.000    0.000    0.000    0.000    0.000 
#    0.000    0.000    0.000    0.000   27.143    0.857 
#
# Total GULP energy -346865.881665 kJ/mol
# GULP energy per Si atom -12388.067202 kJ/mol
# Density = 1.718398 g / cm^3
# Si number density = 17.223179 Si / 1000 Ang^3
#
#
#
# Elastic Constant Matrix: (Units=GPa)
#
#
# Indices 1 2 3 4 5 6 
#
# 1 92.0791 34.3848 23.9609 0.0000 0.0000 0.0000
# 2 34.3848 54.4637 17.8648 0.0000 0.0000 0.0000
# 3 23.9609 17.8648 78.8284 0.0000 0.0000 0.0000
# 4 0.0000 0.0000 0.0000 19.9465 0.0000 0.0000
# 5 0.0000 0.0000 0.0000 0.0000 24.6041 0.0000
# 6 0.0000 0.0000 0.0000 0.0000 0.0000 16.3546
#
#
#
# Elastic Compliance Matrix: (Units=1/GPa)
#
#
# Indices 1 2 3 4 5 6 
#
# 1 0.014670 -0.008425 -0.002550 0.000000 0.000000 0.000000
# 2 -0.008425 0.024674 -0.003031 0.000000 0.000000 0.000000
# 3 -0.002550 -0.003031 0.014148 0.000000 0.000000 0.000000
# 4 0.000000 0.000000 0.000000 0.050134 0.000000 0.000000
# 5 0.000000 0.000000 0.000000 0.000000 0.040644 0.000000
# 6 0.000000 0.000000 0.000000 0.000000 0.000000 0.061145
#
#
# Mechanical properties :
#
#
# Convention : Reuss Voigt Hill
#
# Bulk Modulus (GPa) = 39.24645 41.97692 40.61169
# Shear Modulus (GPa) = 20.66804 22.12510 21.39657
#
# Velocity S-wave (km/s) = 3.46788 3.58804 3.52847
# Velocity P-wave (km/s) = 6.23469 6.44908 6.34279
#
# Compressibility (1/GPa) = 0.02548001
#
# Stress axis : x y z
#
# Youngs Moduli (GPa) = 68.16662 40.52817 70.68291
#
# Poissons Ratio (x) = 0.34146 0.18022
# Poissons Ratio (y) = 0.57432 0.21423
# Poissons Ratio (z) = 0.17380 0.12284
#
# Static dielectric constant tensor:
#      x y z
#    x 3.233060 0.000000 0.000000 
#    y 0.000000 3.058530 0.000000 
#    z 0.000000 0.000000 3.496780 
# 
# 
# High freq. dielectric constant tensor:
#      x y z
#    x 1.645830 0.000000 0.000000 
#    y 0.000000 1.608570 0.000000 
#    z 0.000000 0.000000 1.690430 
# 
# From -- ./inp_files/3875.got.cif
#   From: 2010.03.12/outbox.cif.g09.slc.cpg/sg20_2_cif.got.tgz:3875.got - 2010.04.14 01:38:04.
