data_PCOD8158450
_publ_section_title
;
Structure prediction by ZEFSAII (Michael W. Deem and Ramdas Pophale) SiO2 
 PCOD8158450
Probable space group: C 2 2 21
;
_chemical_formula_sum "Si O2"
_cell_formula_units_Z 48
_cell_length_a 8.497003
_cell_length_b 16.319504
_cell_length_c 18.389950
_cell_angle_alpha 90.000000
_cell_angle_beta 90.000000
_cell_angle_gamma 90.000000
_cell_volume 2550.076888
_symmetry_space_group_name_H-M "C 2 2 21"
_symmetry_group_IT_number 20
_symmetry_cell_setting 'orthorhombic'
loop_
_space_group_symop_operation_xyz
x,y,z
-x,-y,1/2+z
x,-y,-z
-x,y,1/2-z
1/2+x,1/2+y,z
1/2-x,1/2-y,1/2+z
1/2+x,1/2-y,-z
1/2-x,1/2+y,1/2-z
loop_
_atom_site_type_symbol
_atom_site_label
_atom_site_fract_x
_atom_site_fract_y
_atom_site_fract_z
Si Si1 0.216673 0.518408 0.915036
Si Si2 0.307714 0.701156 0.913914
Si Si3 0.689922 0.347660 0.829896
Si Si4 0.328965 0.366564 0.836568
Si Si5 0.101515 0.710941 0.051644
Si Si6 0.399535 0.052804 0.065950
O O1 0.269619 0.608730 0.892447
O O2 0.323409 0.458051 0.867899
O O3 0.032508 0.503991 0.895442
O O4 0.245950 0.500000 0.000000
O O5 0.271172 0.760795 0.846577
O O6 0.493063 0.709919 0.932588
O O7 0.205990 0.731612 0.982215
O O8 0.506375 0.336107 0.845847
O O9 0.724970 0.369075 0.746753
O O10 0.763917 0.421023 0.878187
O O11 0.213596 0.305780 0.879590
O O12 0.990736 0.632630 0.034733
O O13 0.323351 0.000000 0.000000
#
# Coordination Sequence:
#
# PCOD8158450 Si02
#       6
#     8   8   8   8   8   8
#     4  10  19  37  63  85 121 154 194 249 305 351
#     4  11  20  36  60  93 111 165 194 250 295 369
#     4  10  23  37  61  83 123 160 203 242 304 358
#     4  10  21  43  55  84 123 163 195 252 300 352
#     4  10  20  35  62  85 121 148 200 247 299 351
#     4   9  17  36  58  88 115 152 197 244 294 358
#
# _framework density 18.822960999999999
#
# number of rings (size 3 to 8) (size 9 to 14) (size 15 to 20)
#    0.000    2.000    5.000    1.000    0.000    6.667 
#    3.000    6.667    0.000    0.000    0.000    0.000 
#    0.000    0.000    0.000    0.000    0.000    0.000 
#
# Total GULP energy -297591.459064 kJ/mol
# GULP energy per Si atom -12399.644128 kJ/mol
# Density = 1.878012 g / cm^3
# Si number density = 18.822961 Si / 1000 Ang^3
#
#
#
# Elastic Constant Matrix: (Units=GPa)
#
#
# Indices 1 2 3 4 5 6 
#
# 1 78.5626 25.4033 30.3944 0.0000 0.0000 0.0000
# 2 25.4033 95.2556 25.9064 0.0000 0.0000 0.0000
# 3 30.3944 25.9064 98.2355 0.0000 0.0000 0.0000
# 4 0.0000 0.0000 0.0000 26.8421 0.0000 0.0000
# 5 0.0000 0.0000 0.0000 0.0000 32.5175 0.0000
# 6 0.0000 0.0000 0.0000 0.0000 0.0000 33.2437
#
#
#
# Elastic Compliance Matrix: (Units=1/GPa)
#
#
# Indices 1 2 3 4 5 6 
#
# 1 0.015212 -0.002991 -0.003918 0.000000 0.000000 0.000000
# 2 -0.002991 0.011897 -0.002212 0.000000 0.000000 0.000000
# 3 -0.003918 -0.002212 0.011975 0.000000 0.000000 0.000000
# 4 0.000000 0.000000 0.000000 0.037255 0.000000 0.000000
# 5 0.000000 0.000000 0.000000 0.000000 0.030753 0.000000
# 6 0.000000 0.000000 0.000000 0.000000 0.000000 0.030081
#
#
# Mechanical properties :
#
#
# Convention : Reuss Voigt Hill
#
# Bulk Modulus (GPa) = 47.97962 48.38466 48.18214
# Shear Modulus (GPa) = 30.79539 31.21062 31.00301
#
# Velocity S-wave (km/s) = 4.04921 4.07641 4.06283
# Velocity P-wave (km/s) = 6.88525 6.92222 6.90376
#
# Compressibility (1/GPa) = 0.02084218
#
# Stress axis : x y z
#
# Youngs Moduli (GPa) = 65.73930 84.05197 83.50648
#
# Poissons Ratio (x) = 0.25142 0.32715
# Poissons Ratio (y) = 0.19664 0.18472
# Poissons Ratio (z) = 0.25755 0.18593
#
# Static dielectric constant tensor:
#      x y z
#    x 3.590850 0.000000 0.000000 
#    y 0.000000 3.491330 0.000000 
#    z 0.000000 0.000000 3.359220 
# 
# 
# High freq. dielectric constant tensor:
#      x y z
#    x 1.737360 0.000000 0.000000 
#    y 0.000000 1.723300 0.000000 
#    z 0.000000 0.000000 1.718070 
# 
# From -- ./inp_files/23613.got.cif
#   From: 2010.03.12/outbox.cif.g09.slc.cpg/sg20_12_cif.got.tgz:23613.got - 2010.04.14 01:38:04.
