data_PCOD8158999
_publ_section_title
;
Structure prediction by ZEFSAII (Michael W. Deem and Ramdas Pophale) SiO2 
 PCOD8158999
Probable space group: C 2 2 21
;
_chemical_formula_sum "Si O2"
_cell_formula_units_Z 52
_cell_length_a 8.974234
_cell_length_b 17.635958
_cell_length_c 15.761964
_cell_angle_alpha 90.000000
_cell_angle_beta 90.000000
_cell_angle_gamma 90.000000
_cell_volume 2494.633652
_symmetry_space_group_name_H-M "C 2 2 21"
_symmetry_group_IT_number 20
_symmetry_cell_setting 'orthorhombic'
loop_
_space_group_symop_operation_xyz
x,y,z
-x,-y,1/2+z
x,-y,-z
-x,y,1/2-z
1/2+x,1/2+y,z
1/2-x,1/2-y,1/2+z
1/2+x,1/2-y,-z
1/2-x,1/2+y,1/2-z
loop_
_atom_site_type_symbol
_atom_site_label
_atom_site_fract_x
_atom_site_fract_y
_atom_site_fract_z
Si Si1 0.019595 0.725462 0.650467
Si Si2 0.573445 0.625120 0.442520
Si Si3 0.842809 0.000000 0.500000
Si Si4 0.285465 0.654036 0.888461
Si Si5 0.000000 0.484784 0.250000
Si Si6 0.675656 0.988338 0.905470
Si Si7 0.762858 0.596626 0.853448
Si Si8 0.000000 0.855563 0.250000
O O1 0.027475 0.813258 0.626459
O O2 0.167204 0.678565 0.620399
O O3 0.000000 0.719366 0.750000
O O4 0.875862 0.691241 0.603108
O O5 0.441640 0.565388 0.457092
O O6 0.616490 0.670438 0.528153
O O7 0.715833 0.582654 0.405183
O O8 0.733577 0.961109 0.431884
O O9 0.267796 0.563222 0.879573
O O10 0.375467 0.688810 0.806380
O O11 0.949321 0.531415 0.333862
O O12 0.863251 0.431826 0.224115
O O13 0.605389 0.000000 0.000000
O O14 0.592227 0.597809 0.820842
#
# Coordination Sequence:
#
# PCOD8158999 Si02
#       8
#     8   8   4   8   4   8   8   4
#     4  12  25  46  68 102 139 182 226 293 355 410
#     4  11  25  43  69 101 143 174 230 289 352 404
#     4  12  26  42  66 106 136 178 238 280 342 426
#     4  11  21  42  72  96 134 182 230 276 349 414
#     4  12  22  40  71  99 132 184 230 282 350 406
#     4  10  20  41  66  96 135 179 224 284 339 414
#     4  12  24  41  70 102 133 182 235 284 340 428
#     4  12  18  38  73  95 132 184 232 266 338 434
#
# _framework density 20.844743999999999
#
# number of rings (size 3 to 8) (size 9 to 14) (size 15 to 20)
#    0.000    0.615    9.231    0.000    3.231    1.231 
#    1.385    0.769   10.154    0.000    0.000    0.000 
#    0.000    0.000    0.000    0.000    0.000    0.000 
#
# Total GULP energy -322262.022618 kJ/mol
# GULP energy per Si atom -12394.693178 kJ/mol
# Density = 2.079730 g / cm^3
# Si number density = 20.844744 Si / 1000 Ang^3
#
#
#
# Elastic Constant Matrix: (Units=GPa)
#
#
# Indices 1 2 3 4 5 6 
#
# 1 101.3600 39.3028 46.2430 0.0000 0.0000 0.0000
# 2 39.3028 107.5086 45.2295 0.0000 0.0000 0.0000
# 3 46.2430 45.2295 108.9572 0.0000 0.0000 0.0000
# 4 0.0000 0.0000 0.0000 31.0011 0.0000 0.0000
# 5 0.0000 0.0000 0.0000 0.0000 47.8314 0.0000
# 6 0.0000 0.0000 0.0000 0.0000 0.0000 21.0751
#
#
#
# Elastic Compliance Matrix: (Units=1/GPa)
#
#
# Indices 1 2 3 4 5 6 
#
# 1 0.012957 -0.002936 -0.004280 0.000000 0.000000 0.000000
# 2 -0.002936 0.011935 -0.003708 0.000000 0.000000 0.000000
# 3 -0.004280 -0.003708 0.012534 0.000000 0.000000 0.000000
# 4 0.000000 0.000000 0.000000 0.032257 0.000000 0.000000
# 5 0.000000 0.000000 0.000000 0.000000 0.020907 0.000000
# 6 0.000000 0.000000 0.000000 0.000000 0.000000 0.047449
#
#
# Mechanical properties :
#
#
# Convention : Reuss Voigt Hill
#
# Bulk Modulus (GPa) = 64.19873 64.37514 64.28694
# Shear Modulus (GPa) = 30.28819 32.45155 31.36987
#
# Velocity S-wave (km/s) = 3.81601 3.94994 3.88355
# Velocity P-wave (km/s) = 7.09093 7.19395 7.14262
#
# Compressibility (1/GPa) = 0.01557663
#
# Stress axis : x y z
#
# Youngs Moduli (GPa) = 77.17769 83.78700 79.78350
#
# Poissons Ratio (x) = 0.24600 0.34150
# Poissons Ratio (y) = 0.22660 0.29586
# Poissons Ratio (z) = 0.33035 0.31070
#
# Static dielectric constant tensor:
#      x y z
#    x 3.904130 0.000000 0.000000 
#    y 0.000000 3.451570 0.000000 
#    z 0.000000 0.000000 4.080210 
# 
# 
# High freq. dielectric constant tensor:
#      x y z
#    x 1.826080 0.000000 0.000000 
#    y 0.000000 1.773090 0.000000 
#    z 0.000000 0.000000 1.832310 
# 
# From -- ./inp_files/23736.got.cif
#   From: 2010.03.12/outbox.cif.g09.slc.cpg/sg20_12_cif.got.tgz:23736.got - 2010.04.14 01:38:04.
