data_PCOD8158822
_publ_section_title
;
Structure prediction by ZEFSAII (Michael W. Deem and Ramdas Pophale) SiO2 
 PCOD8158822
Probable space group: C 2 2 21
;
_chemical_formula_sum "Si O2"
_cell_formula_units_Z 40
_cell_length_a 24.170209
_cell_length_b 11.717775
_cell_length_c 7.289417
_cell_angle_alpha 90.000000
_cell_angle_beta 90.000000
_cell_angle_gamma 90.000000
_cell_volume 2064.516488
_symmetry_space_group_name_H-M "C 2 2 21"
_symmetry_group_IT_number 20
_symmetry_cell_setting 'orthorhombic'
loop_
_space_group_symop_operation_xyz
x,y,z
-x,-y,1/2+z
x,-y,-z
-x,y,1/2-z
1/2+x,1/2+y,z
1/2-x,1/2-y,1/2+z
1/2+x,1/2-y,-z
1/2-x,1/2+y,1/2-z
loop_
_atom_site_type_symbol
_atom_site_label
_atom_site_fract_x
_atom_site_fract_y
_atom_site_fract_z
Si Si1 0.846921 0.717003 0.969754
Si Si2 0.728607 0.000000 0.500000
Si Si3 0.537162 0.876146 0.427144
Si Si4 0.500000 0.725137 0.750000
Si Si5 0.880371 0.137509 0.697251
Si Si6 0.829146 0.908001 0.693962
O O1 0.906430 0.689718 0.882280
O O2 0.819878 0.814228 0.847032
O O3 0.809142 0.606697 0.949041
O O4 0.852506 0.762729 0.178902
O O5 0.768443 0.962366 0.665760
O O6 0.500000 0.887987 0.250000
O O7 0.502988 0.806205 0.575101
O O8 0.553533 0.000000 0.500000
O O9 0.446618 0.647115 0.712089
O O10 0.855581 0.147017 0.491353
O O11 0.867903 0.009860 0.770325
#
# Coordination Sequence:
#
# PCOD8158822 Si02
#       6
#     8   4   8   4   8   8
#     4  11  22  42  61  91 120 162 202 246 304 358
#     4  10  24  38  66  90 118 160 206 252 290 372
#     4  11  21  36  60  88 123 160 198 247 299 358
#     4  10  20  38  62  86 126 160 198 246 298 360
#     4   9  21  41  61  91 122 156 200 247 297 363
#     4  10  23  43  60  90 124 154 205 255 299 352
#
# _framework density 19.374995999999999
#
# number of rings (size 3 to 8) (size 9 to 14) (size 15 to 20)
#    0.000    2.000    2.000    1.800    5.600    0.000 
#   16.200    1.000    0.000    0.000    0.000    0.000 
#    0.000    0.000    0.000    0.000    0.000    0.000 
#
# Total GULP energy -247948.416133 kJ/mol
# GULP energy per Si atom -12397.420807 kJ/mol
# Density = 1.933090 g / cm^3
# Si number density = 19.374996 Si / 1000 Ang^3
#
#
#
# Elastic Constant Matrix: (Units=GPa)
#
#
# Indices 1 2 3 4 5 6 
#
# 1 112.4612 56.2014 44.8218 0.0000 0.0000 0.0000
# 2 56.2014 124.2680 34.9066 0.0000 0.0000 0.0000
# 3 44.8218 34.9066 68.6843 0.0000 0.0000 0.0000
# 4 0.0000 0.0000 0.0000 36.9760 0.0000 0.0000
# 5 0.0000 0.0000 0.0000 0.0000 19.9061 0.0000
# 6 0.0000 0.0000 0.0000 0.0000 0.0000 18.9412
#
#
#
# Elastic Compliance Matrix: (Units=1/GPa)
#
#
# Indices 1 2 3 4 5 6 
#
# 1 0.013750 -0.004314 -0.006781 0.000000 0.000000 0.000000
# 2 -0.004314 0.010741 -0.002643 0.000000 0.000000 0.000000
# 3 -0.006781 -0.002643 0.020328 0.000000 0.000000 0.000000
# 4 0.000000 0.000000 0.000000 0.027045 0.000000 0.000000
# 5 0.000000 0.000000 0.000000 0.000000 0.050236 0.000000
# 6 0.000000 0.000000 0.000000 0.000000 0.000000 0.052795
#
#
# Mechanical properties :
#
#
# Convention : Reuss Voigt Hill
#
# Bulk Modulus (GPa) = 57.66167 64.14143 60.90155
# Shear Modulus (GPa) = 24.02103 26.46358 25.24231
#
# Velocity S-wave (km/s) = 3.52489 3.69977 3.61339
# Velocity P-wave (km/s) = 6.81116 7.17134 6.99357
#
# Compressibility (1/GPa) = 0.01734254
#
# Stress axis : x y z
#
# Youngs Moduli (GPa) = 72.72560 93.10375 49.19399
#
# Poissons Ratio (x) = 0.40165 0.33357
# Poissons Ratio (y) = 0.31374 0.13004
# Poissons Ratio (z) = 0.49313 0.24611
#
# Static dielectric constant tensor:
#      x y z
#    x 3.598780 0.000000 0.000000 
#    y 0.000000 3.665920 0.000000 
#    z 0.000000 0.000000 3.471690 
# 
# 
# High freq. dielectric constant tensor:
#      x y z
#    x 1.761520 0.000000 0.000000 
#    y 0.000000 1.766320 0.000000 
#    z 0.000000 0.000000 1.745230 
# 
# From -- ./inp_files/10526.got.cif
#   From: 2010.03.12/outbox.cif.g09.slc.cpg/sg20_6_cif.got.tgz:10526.got - 2010.04.14 01:38:04.
