data_PCOD8158485
_publ_section_title
;
Structure prediction by ZEFSAII (Michael W. Deem and Ramdas Pophale) SiO2 
 PCOD8158485
Probable space group: C 2 2 21
;
_chemical_formula_sum "Si O2"
_cell_formula_units_Z 32
_cell_length_a 5.081677
_cell_length_b 12.823205
_cell_length_c 18.083130
_cell_angle_alpha 90.000000
_cell_angle_beta 90.000000
_cell_angle_gamma 90.000000
_cell_volume 1178.357979
_symmetry_space_group_name_H-M "C 2 2 21"
_symmetry_group_IT_number 20
_symmetry_cell_setting 'orthorhombic'
loop_
_space_group_symop_operation_xyz
x,y,z
-x,-y,1/2+z
x,-y,-z
-x,y,1/2-z
1/2+x,1/2+y,z
1/2-x,1/2-y,1/2+z
1/2+x,1/2-y,-z
1/2-x,1/2+y,1/2-z
loop_
_atom_site_type_symbol
_atom_site_label
_atom_site_fract_x
_atom_site_fract_y
_atom_site_fract_z
Si Si1 0.266407 0.591820 0.295154
Si Si2 0.977106 0.181045 0.575900
Si Si3 0.959815 0.676829 0.670310
Si Si4 0.652939 0.090825 0.454723
O O1 0.500000 0.533432 0.250000
O O2 0.360921 0.707938 0.312167
O O3 0.221588 0.538055 0.375025
O O4 0.000000 0.595493 0.250000
O O5 0.739711 0.175313 0.632819
O O6 0.920075 0.116754 0.501043
O O7 0.236935 0.131868 0.614891
O O8 0.989244 0.303285 0.552991
O O9 0.000000 0.615988 0.750000
O O10 0.499028 0.000000 0.500000
#
# Coordination Sequence:
#
# PCOD8158485 Si02
#       4
#     8   8   8   8
#     4  10  20  38  63  91 127 173 220 267 329 401
#     4  11  23  41  65 101 136 172 230 276 326 409
#     4  10  19  38  66  96 135 179 220 273 333 390
#     4  11  24  45  71 100 137 178 222 282 343 394
#
# _framework density 27.156431999999999
#
# number of rings (size 3 to 8) (size 9 to 14) (size 15 to 20)
#    0.000    1.500    0.000    9.750    0.000    2.000 
#    0.000   35.000    0.000    1.500    0.000    7.000 
#    0.000    0.000    0.000    0.000    0.000    0.000 
#
# Total GULP energy -198309.381077 kJ/mol
# GULP energy per Si atom -12394.336317 kJ/mol
# Density = 2.709462 g / cm^3
# Si number density = 27.156432 Si / 1000 Ang^3
#
#
#
# Elastic Constant Matrix: (Units=GPa)
#
#
# Indices 1 2 3 4 5 6 
#
# 1 88.0656 -2.0202 19.7996 0.0000 0.0000 0.0000
# 2 -2.0202 53.9593 12.8886 0.0000 0.0000 0.0000
# 3 19.7996 12.8886 200.7206 0.0000 0.0000 0.0000
# 4 0.0000 0.0000 0.0000 19.5530 0.0000 0.0000
# 5 0.0000 0.0000 0.0000 0.0000 61.1551 0.0000
# 6 0.0000 0.0000 0.0000 0.0000 0.0000 -54.4936
#
#
#
# Elastic Compliance Matrix: (Units=1/GPa)
#
#
# Indices 1 2 3 4 5 6 
#
# 1 0.011640 0.000721 -0.001195 0.000000 0.000000 0.000000
# 2 0.000721 0.018866 -0.001283 0.000000 0.000000 0.000000
# 3 -0.001195 -0.001283 0.005182 0.000000 0.000000 0.000000
# 4 0.000000 0.000000 0.000000 0.051143 0.000000 0.000000
# 5 0.000000 0.000000 0.000000 0.000000 0.016352 0.000000
# 6 0.000000 0.000000 0.000000 0.000000 0.000000 -0.018351
#
#
# Mechanical properties :
#
#
# Convention : Reuss Voigt Hill
#
# Bulk Modulus (GPa) = 31.07863 44.89794 37.98828
# Shear Modulus (GPa) = 50.46945 26.04807 38.25876
#
# Velocity S-wave (km/s) = 4.31568 3.10043 3.75751
# Velocity P-wave (km/s) = 6.02516 5.42087 5.73099
#
# Compressibility (1/GPa) = 0.03217645
#
# Stress axis : x y z
#
# Youngs Moduli (GPa) = 85.90858 53.00590 192.96699
#
# Poissons Ratio (x) = -0.03822 0.23050
# Poissons Ratio (y) = -0.06195 0.24749
# Poissons Ratio (z) = 0.10262 0.06798
#
# Static dielectric constant tensor:
#      x y z
#    x 14.407700 0.000000 0.000000 
#    y 0.000000 5.218000 0.000000 
#    z 0.000000 0.000000 9.532390 
# 
# 
# High freq. dielectric constant tensor:
#      x y z
#    x 2.083630 0.000000 0.000000 
#    y 0.000000 2.086310 0.000000 
#    z 0.000000 0.000000 2.128900 
# 
# From -- ./inp_files/22535.got.cif
#   From: 2010.03.12/outbox.cif.g09.slc.cpg/sg20_12_cif.got.tgz:22535.got - 2010.04.14 01:38:04.
