data_PCOD8158759
_publ_section_title
;
Structure prediction by ZEFSAII (Michael W. Deem and Ramdas Pophale) SiO2 
 PCOD8158759
Probable space group: C 2 2 21
;
_chemical_formula_sum "Si O2"
_cell_formula_units_Z 48
_cell_length_a 18.408745
_cell_length_b 8.579253
_cell_length_c 15.738241
_cell_angle_alpha 90.000000
_cell_angle_beta 90.000000
_cell_angle_gamma 90.000000
_cell_volume 2485.592035
_symmetry_space_group_name_H-M "C 2 2 21"
_symmetry_group_IT_number 20
_symmetry_cell_setting 'orthorhombic'
loop_
_space_group_symop_operation_xyz
x,y,z
-x,-y,1/2+z
x,-y,-z
-x,y,1/2-z
1/2+x,1/2+y,z
1/2-x,1/2-y,1/2+z
1/2+x,1/2-y,-z
1/2-x,1/2+y,1/2-z
loop_
_atom_site_type_symbol
_atom_site_label
_atom_site_fract_x
_atom_site_fract_y
_atom_site_fract_z
Si Si1 0.331436 0.914885 0.749411
Si Si2 0.585730 0.946457 0.090360
Si Si3 0.548077 0.631162 0.330782
Si Si4 0.920201 0.454923 0.093939
Si Si5 0.090406 0.075483 0.088242
Si Si6 0.327128 0.547622 0.741088
O O1 0.327259 0.731066 0.748560
O O2 0.373167 0.977003 0.667973
O O3 0.370455 0.961800 0.836568
O O4 0.252073 0.985078 0.739944
O O5 0.503592 0.010074 0.099355
O O6 0.593126 0.761399 0.092804
O O7 0.618799 0.000000 0.000000
O O8 0.500000 0.695204 0.250000
O O9 0.581487 0.770324 0.386897
O O10 0.491656 0.526205 0.385277
O O11 0.614855 0.522276 0.306751
O O12 0.889770 0.500000 0.000000
O O13 0.151965 0.004359 0.147263
O O14 0.109960 0.000000 0.000000
#
# Coordination Sequence:
#
# PCOD8158759 Si02
#       6
#     8   8   8   8   8   8
#     4  12  23  40  59  83 119 156 196 242 290 346
#     4  10  21  38  62  90 117 151 193 237 287 344
#     4   9  19  38  59  84 116 152 191 238 290 342
#     4  10  21  37  61  88 117 152 191 237 288 344
#     4  10  20  37  61  88 119 150 188 239 289 343
#     4  11  24  38  59  83 114 157 196 237 294 347
#
# _framework density 19.311292999999999
#
# number of rings (size 3 to 8) (size 9 to 14) (size 15 to 20)
#    0.000    1.667    0.000    6.500    0.000    8.667 
#    0.000    5.833    0.000    0.000    0.000    0.000 
#    0.000    0.000    0.000    0.000    0.000    0.000 
#
# Total GULP energy -297546.778512 kJ/mol
# GULP energy per Si atom -12397.782438 kJ/mol
# Density = 1.926734 g / cm^3
# Si number density = 19.311293 Si / 1000 Ang^3
#
#
#
# Elastic Constant Matrix: (Units=GPa)
#
#
# Indices 1 2 3 4 5 6 
#
# 1 102.5071 49.9000 44.3955 0.0000 0.0000 0.0000
# 2 49.9000 112.1992 41.1490 0.0000 0.0000 0.0000
# 3 44.3955 41.1490 110.7952 0.0000 0.0000 0.0000
# 4 0.0000 0.0000 0.0000 43.6270 0.0000 0.0000
# 5 0.0000 0.0000 0.0000 0.0000 7.4677 0.0000
# 6 0.0000 0.0000 0.0000 0.0000 0.0000 31.5690
#
#
#
# Elastic Compliance Matrix: (Units=1/GPa)
#
#
# Indices 1 2 3 4 5 6 
#
# 1 0.013661 -0.004710 -0.003725 0.000000 0.000000 0.000000
# 2 -0.004710 0.011942 -0.002548 0.000000 0.000000 0.000000
# 3 -0.003725 -0.002548 0.011465 0.000000 0.000000 0.000000
# 4 0.000000 0.000000 0.000000 0.022922 0.000000 0.000000
# 5 0.000000 0.000000 0.000000 0.000000 0.133911 0.000000
# 6 0.000000 0.000000 0.000000 0.000000 0.000000 0.031677
#
#
# Mechanical properties :
#
#
# Convention : Reuss Voigt Hill
#
# Bulk Modulus (GPa) = 66.21418 66.26559 66.23989
# Shear Modulus (GPa) = 19.79603 29.20321 24.49962
#
# Velocity S-wave (km/s) = 3.20519 3.89296 3.56570
# Velocity P-wave (km/s) = 6.93253 7.38890 7.16435
#
# Compressibility (1/GPa) = 0.01510250
#
# Stress axis : x y z
#
# Youngs Moduli (GPa) = 73.19937 83.73953 87.22549
#
# Poissons Ratio (x) = 0.39439 0.32491
# Poissons Ratio (y) = 0.34475 0.22225
# Poissons Ratio (z) = 0.27266 0.21337
#
# Static dielectric constant tensor:
#      x y z
#    x 3.601460 0.000000 0.000000 
#    y 0.000000 3.502840 0.000000 
#    z 0.000000 0.000000 3.797960 
# 
# 
# High freq. dielectric constant tensor:
#      x y z
#    x 1.750830 0.000000 0.000000 
#    y 0.000000 1.754440 0.000000 
#    z 0.000000 0.000000 1.763250 
# 
# From -- ./inp_files/21262.got.cif
#   From: 2010.03.12/outbox.cif.g09.slc.cpg/sg20_11_cif.got.tgz:21262.got - 2010.04.14 01:38:04.
