data_PCOD8158067
_publ_section_title
;
Structure prediction by ZEFSAII (Michael W. Deem and Ramdas Pophale) SiO2 
 PCOD8158067
Probable space group: C 2 2 21
;
_chemical_formula_sum "Si O2"
_cell_formula_units_Z 40
_cell_length_a 14.562198
_cell_length_b 12.344164
_cell_length_c 9.341835
_cell_angle_alpha 90.000000
_cell_angle_beta 90.000000
_cell_angle_gamma 90.000000
_cell_volume 1679.271074
_symmetry_space_group_name_H-M "C 2 2 21"
_symmetry_group_IT_number 20
_symmetry_cell_setting 'orthorhombic'
loop_
_space_group_symop_operation_xyz
x,y,z
-x,-y,1/2+z
x,-y,-z
-x,y,1/2-z
1/2+x,1/2+y,z
1/2-x,1/2-y,1/2+z
1/2+x,1/2-y,-z
1/2-x,1/2+y,1/2-z
loop_
_atom_site_type_symbol
_atom_site_label
_atom_site_fract_x
_atom_site_fract_y
_atom_site_fract_z
Si Si1 0.325692 0.500000 0.500000
Si Si2 0.915939 0.527186 0.658614
Si Si3 0.032646 0.166220 0.093448
Si Si4 0.270329 0.607682 0.766819
Si Si5 0.093096 0.715063 0.178017
Si Si6 0.612513 0.500000 0.500000
O O1 0.388992 0.425238 0.602318
O O2 0.260325 0.566142 0.604704
O O3 0.950048 0.500000 0.500000
O O4 0.832810 0.614456 0.669135
O O5 0.884617 0.409066 0.717073
O O6 0.000000 0.574765 0.750000
O O7 0.000000 0.208765 0.250000
O O8 0.074094 0.263006 0.993000
O O9 0.945036 0.109372 0.021123
O O10 0.321242 0.722642 0.750679
O O11 0.324840 0.521942 0.862702
O O12 0.000000 0.757124 0.250000
#
# Coordination Sequence:
#
# PCOD8158067 Si02
#       6
#     4   8   8   8   8   4
#     4   9  20  30  57 100 132 168 211 282 347 396
#     4  11  27  50  70  95 140 190 229 282 345 408
#     4  10  18  31  59 102 139 165 215 281 351 400
#     4  11  21  42  66  95 134 180 227 283 340 403
#     4  10  22  43  69  99 136 176 228 281 339 413
#     4  11  18  32  65 100 136 170 217 292 353 388
#
# _framework density 23.819858
#
# number of rings (size 3 to 8) (size 9 to 14) (size 15 to 20)
#    0.000    1.600    5.000    0.000    1.400    0.800 
#    7.200    2.000    0.000    1.200    0.000    0.000 
#    0.000    0.000    0.000    0.000    0.000    0.000 
#
# Total GULP energy -247845.668689 kJ/mol
# GULP energy per Si atom -12392.283434 kJ/mol
# Density = 2.376564 g / cm^3
# Si number density = 23.819858 Si / 1000 Ang^3
#
#
#
# Elastic Constant Matrix: (Units=GPa)
#
#
# Indices 1 2 3 4 5 6 
#
# 1 127.1603 20.4463 40.2853 0.0000 0.0000 0.0000
# 2 20.4463 57.6033 0.5278 0.0000 0.0000 0.0000
# 3 40.2853 0.5278 115.1006 0.0000 0.0000 0.0000
# 4 0.0000 0.0000 0.0000 22.7826 0.0000 0.0000
# 5 0.0000 0.0000 0.0000 0.0000 32.8342 0.0000
# 6 0.0000 0.0000 0.0000 0.0000 0.0000 22.3353
#
#
#
# Elastic Compliance Matrix: (Units=1/GPa)
#
#
# Indices 1 2 3 4 5 6 
#
# 1 0.009440 -0.003321 -0.003289 0.000000 0.000000 0.000000
# 2 -0.003321 0.018529 0.001077 0.000000 0.000000 0.000000
# 3 -0.003289 0.001077 0.009834 0.000000 0.000000 0.000000
# 4 0.000000 0.000000 0.000000 0.043893 0.000000 0.000000
# 5 0.000000 0.000000 0.000000 0.000000 0.030456 0.000000
# 6 0.000000 0.000000 0.000000 0.000000 0.000000 0.044772
#
#
# Mechanical properties :
#
#
# Convention : Reuss Voigt Hill
#
# Bulk Modulus (GPa) = 37.39882 46.93144 42.16513
# Shear Modulus (GPa) = 28.26433 31.49741 29.88087
#
# Velocity S-wave (km/s) = 3.44842 3.64031 3.54567
# Velocity P-wave (km/s) = 5.62052 6.11675 5.87388
#
# Compressibility (1/GPa) = 0.02673881
#
# Stress axis : x y z
#
# Youngs Moduli (GPa) = 105.93326 53.96979 101.68621
#
# Poissons Ratio (x) = 0.17921 0.33442
# Poissons Ratio (y) = 0.35176 -0.10954
# Poissons Ratio (z) = 0.34839 -0.05814
#
# Static dielectric constant tensor:
#      x y z
#    x 4.068590 0.000000 0.000000 
#    y 0.000000 4.122840 0.000000 
#    z 0.000000 0.000000 4.273560 
# 
# 
# High freq. dielectric constant tensor:
#      x y z
#    x 1.929270 0.000000 0.000000 
#    y 0.000000 1.935640 0.000000 
#    z 0.000000 0.000000 1.950590 
# 
# From -- ./inp_files/8167.got.cif
#   From: 2010.03.12/outbox.cif.g09.slc.cpg/sg20_5_cif.got.tgz:8167.got - 2010.04.14 01:38:04.
