data_PCOD8158276
_publ_section_title
;
Structure prediction by ZEFSAII (Michael W. Deem and Ramdas Pophale) SiO2 
 PCOD8158276
Probable space group: C 2 2 21
;
_chemical_formula_sum "Si O2"
_cell_formula_units_Z 64
_cell_length_a 18.592167
_cell_length_b 12.072523
_cell_length_c 18.374533
_cell_angle_alpha 90.000000
_cell_angle_beta 90.000000
_cell_angle_gamma 90.000000
_cell_volume 4124.244113
_symmetry_space_group_name_H-M "C 2 2 21"
_symmetry_group_IT_number 20
_symmetry_cell_setting 'orthorhombic'
loop_
_space_group_symop_operation_xyz
x,y,z
-x,-y,1/2+z
x,-y,-z
-x,y,1/2-z
1/2+x,1/2+y,z
1/2-x,1/2-y,1/2+z
1/2+x,1/2-y,-z
1/2-x,1/2+y,1/2-z
loop_
_atom_site_type_symbol
_atom_site_label
_atom_site_fract_x
_atom_site_fract_y
_atom_site_fract_z
Si Si1 0.815711 0.532613 0.697818
Si Si2 0.617030 0.235523 0.738680
Si Si3 0.561103 0.388031 0.190045
Si Si4 0.505946 0.760514 0.131573
Si Si5 0.578111 0.034820 0.920481
Si Si6 0.933977 0.635051 0.305098
Si Si7 0.847123 0.975999 0.795464
Si Si8 0.531004 0.522475 0.415585
O O1 0.827156 0.634837 0.752991
O O2 0.847711 0.568557 0.619471
O O3 0.861373 0.424776 0.726475
O O4 0.732382 0.513823 0.685103
O O5 0.568441 0.206435 0.669441
O O6 0.567560 0.254071 0.808712
O O7 0.659933 0.347790 0.724861
O O8 0.500000 0.393091 0.250000
O O9 0.584813 0.261733 0.175082
O O10 0.627089 0.457133 0.223908
O O11 0.531978 0.441935 0.114989
O O12 0.524673 0.860247 0.076858
O O13 0.497926 0.647306 0.087542
O O14 0.541379 0.931488 0.877559
O O15 0.599587 0.000000 0.000000
O O16 0.000000 0.626582 0.250000
O O17 0.898132 0.994581 0.865691
O O18 0.549034 0.500000 0.500000
#
# Coordination Sequence:
#
# PCOD8158276 Si02
#       8
#     8   8   8   8   8   8   8   8
#     4   9  20  28  50  72  96 128 159 194 248 288
#     4   9  16  31  52  71  92 118 166 211 237 277
#     4   9  18  32  49  70  99 126 161 207 238 283
#     4   9  16  31  52  71  91 120 165 209 238 274
#     4   9  19  30  46  72  99 126 154 198 246 285
#     4   9  18  32  49  72  98 127 163 200 240 285
#     4  10  19  33  48  73 100 128 162 201 245 286
#     4  10  20  31  51  73  96 130 163 199 246 287
#
# _framework density 15.517994
#
# number of rings (size 3 to 8) (size 9 to 14) (size 15 to 20)
#    0.750    2.000    1.250    0.750    3.500    0.500 
#    0.000    0.000    0.000    0.000    0.000    3.500 
#    0.000    0.000    0.000    0.000    0.000    0.000 
#
# Total GULP energy -396518.056696 kJ/mol
# GULP energy per Si atom -12391.189272 kJ/mol
# Density = 1.548267 g / cm^3
# Si number density = 15.517994 Si / 1000 Ang^3
#
#
#
# Elastic Constant Matrix: (Units=GPa)
#
#
# Indices 1 2 3 4 5 6 
#
# 1 74.2296 62.4844 11.6356 0.0000 0.0000 0.0000
# 2 62.4844 128.1332 55.4344 0.0000 0.0000 0.0000
# 3 11.6356 55.4344 48.4058 0.0000 0.0000 0.0000
# 4 0.0000 0.0000 0.0000 19.0918 0.0000 0.0000
# 5 0.0000 0.0000 0.0000 0.0000 11.4757 0.0000
# 6 0.0000 0.0000 0.0000 0.0000 0.0000 19.9679
#
#
#
# Elastic Compliance Matrix: (Units=1/GPa)
#
#
# Indices 1 2 3 4 5 6 
#
# 1 0.029367 -0.022330 0.018514 0.000000 0.000000 0.000000
# 2 -0.022330 0.032448 -0.031792 0.000000 0.000000 0.000000
# 3 0.018514 -0.031792 0.052617 0.000000 0.000000 0.000000
# 4 0.000000 0.000000 0.000000 0.052379 0.000000 0.000000
# 5 0.000000 0.000000 0.000000 0.000000 0.087140 0.000000
# 6 0.000000 0.000000 0.000000 0.000000 0.000000 0.050080
#
#
# Mechanical properties :
#
#
# Convention : Reuss Voigt Hill
#
# Bulk Modulus (GPa) = 23.14046 56.65306 39.89676
# Shear Modulus (GPa) = 12.83194 18.18801 15.50998
#
# Velocity S-wave (km/s) = 2.87872 3.42725 3.16489
# Velocity P-wave (km/s) = 5.09841 7.22832 6.25469
#
# Compressibility (1/GPa) = 0.04321435
#
# Stress axis : x y z
#
# Youngs Moduli (GPa) = 34.05207 30.81853 19.00543
#
# Poissons Ratio (x) = 0.68819 -0.35186
# Poissons Ratio (y) = 0.76040 0.60422
# Poissons Ratio (z) = -0.63043 0.97978
#
# Static dielectric constant tensor:
#      x y z
#    x 2.721530 0.000000 0.000000 
#    y 0.000000 3.226740 0.000000 
#    z 0.000000 0.000000 2.722960 
# 
# 
# High freq. dielectric constant tensor:
#      x y z
#    x 1.574290 0.000000 0.000000 
#    y 0.000000 1.611830 0.000000 
#    z 0.000000 0.000000 1.571180 
# 
# From -- ./inp_files/25542.got.cif
#   From: 2010.03.12/outbox.cif.g09.slc.cpg/sg20_13_cif.got.tgz:25542.got - 2010.04.14 01:38:04.
