data_PCOD8158769
_publ_section_title
;
Structure prediction by ZEFSAII (Michael W. Deem and Ramdas Pophale) SiO2 
 PCOD8158769
Probable space group: C 2 2 21
;
_chemical_formula_sum "Si O2"
_cell_formula_units_Z 40
_cell_length_a 16.098950
_cell_length_b 16.357643
_cell_length_c 7.688743
_cell_angle_alpha 90.000000
_cell_angle_beta 90.000000
_cell_angle_gamma 90.000000
_cell_volume 2024.760323
_symmetry_space_group_name_H-M "C 2 2 21"
_symmetry_group_IT_number 20
_symmetry_cell_setting 'orthorhombic'
loop_
_space_group_symop_operation_xyz
x,y,z
-x,-y,1/2+z
x,-y,-z
-x,y,1/2-z
1/2+x,1/2+y,z
1/2-x,1/2-y,1/2+z
1/2+x,1/2-y,-z
1/2-x,1/2+y,1/2-z
loop_
_atom_site_type_symbol
_atom_site_label
_atom_site_fract_x
_atom_site_fract_y
_atom_site_fract_z
Si Si1 0.773391 0.836849 0.137316
Si Si2 0.226700 0.664034 0.476770
Si Si3 0.131784 0.941100 0.845454
Si Si4 0.500000 0.690318 0.250000
Si Si5 0.810383 0.000000 0.000000
Si Si6 0.068354 0.744059 0.398209
O O1 0.732817 0.755303 0.051843
O O2 0.731778 0.855928 0.320519
O O3 0.756103 0.916808 0.018010
O O4 0.874117 0.822879 0.150848
O O5 0.275544 0.593931 0.374722
O O6 0.130820 0.665553 0.410817
O O7 0.071683 0.864783 0.831217
O O8 0.131286 0.993818 0.669541
O O9 0.102303 0.000000 0.000000
O O10 0.530069 0.746080 0.409615
O O11 0.000000 0.729143 0.250000
#
# Coordination Sequence:
#
# PCOD8158769 Si02
#       6
#     8   8   8   4   4   8
#     4  10  20  37  62  89 133 165 214 264 311 393
#     4  10  21  42  62  89 130 171 225 260 311 385
#     4  12  25  40  63  95 135 173 211 261 324 390
#     4  12  24  40  60  98 138 172 204 254 334 400
#     4  12  22  40  58  96 126 172 212 250 326 380
#     4  10  23  39  64  93 126 170 220 261 320 377
#
# _framework density 19.755424999999999
#
# number of rings (size 3 to 8) (size 9 to 14) (size 15 to 20)
#    1.200    0.000    4.000    3.600    1.400    0.000 
#    0.000    0.000    0.000    0.000    5.200    0.000 
#    0.000    0.000    0.000    0.000    0.000    0.000 
#
# Total GULP energy -247843.398886 kJ/mol
# GULP energy per Si atom -12392.169944 kJ/mol
# Density = 1.971046 g / cm^3
# Si number density = 19.755425 Si / 1000 Ang^3
#
#
#
# Elastic Constant Matrix: (Units=GPa)
#
#
# Indices 1 2 3 4 5 6 
#
# 1 83.8914 13.7707 44.0060 0.0000 0.0000 0.0000
# 2 13.7707 28.2158 16.2889 0.0000 0.0000 0.0000
# 3 44.0060 16.2889 134.5490 0.0000 0.0000 0.0000
# 4 0.0000 0.0000 0.0000 32.4649 0.0000 0.0000
# 5 0.0000 0.0000 0.0000 0.0000 25.1636 0.0000
# 6 0.0000 0.0000 0.0000 0.0000 0.0000 -2.0890
#
#
#
# Elastic Compliance Matrix: (Units=1/GPa)
#
#
# Indices 1 2 3 4 5 6 
#
# 1 0.014974 -0.004817 -0.004314 0.000000 0.000000 0.000000
# 2 -0.004817 0.039654 -0.003225 0.000000 0.000000 0.000000
# 3 -0.004314 -0.003225 0.009234 0.000000 0.000000 0.000000
# 4 0.000000 0.000000 0.000000 0.030803 0.000000 0.000000
# 5 0.000000 0.000000 0.000000 0.000000 0.039740 0.000000
# 6 0.000000 0.000000 0.000000 0.000000 0.000000 -0.478704
#
#
# Mechanical properties :
#
#
# Convention : Reuss Voigt Hill
#
# Bulk Modulus (GPa) = 25.54387 43.86529 34.70458
# Shear Modulus (GPa) = -16.31124 22.61393 3.15135
#
# Velocity S-wave (km/s) = -2.87654 3.38700 1.26437
# Velocity P-wave (km/s) = 1.38760 6.12765 4.44261
#
# Compressibility (1/GPa) = 0.03914833
#
# Stress axis : x y z
#
# Youngs Moduli (GPa) = 66.78226 25.21809 108.29899
#
# Poissons Ratio (x) = 0.12149 0.46723
# Poissons Ratio (y) = 0.32172 0.34927
# Poissons Ratio (z) = 0.28811 0.08133
#
# Static dielectric constant tensor:
#      x y z
#    x 3.450480 0.000000 0.000000 
#    y 0.000000 3.481110 0.000000 
#    z 0.000000 0.000000 3.735060 
# 
# 
# High freq. dielectric constant tensor:
#      x y z
#    x 1.734910 0.000000 0.000000 
#    y 0.000000 1.750120 0.000000 
#    z 0.000000 0.000000 1.791490 
# 
# From -- ./inp_files/9150.got.cif
#   From: 2010.03.12/outbox.cif.g09.slc.cpg/sg20_5_cif.got.tgz:9150.got - 2010.04.14 01:38:04.
