data_PCOD8158454
_publ_section_title
;
Structure prediction by ZEFSAII (Michael W. Deem and Ramdas Pophale) SiO2 
 PCOD8158454
Probable space group: C 2 2 21
;
_chemical_formula_sum "Si O2"
_cell_formula_units_Z 40
_cell_length_a 10.294863
_cell_length_b 9.392572
_cell_length_c 19.948616
_cell_angle_alpha 90.000000
_cell_angle_beta 90.000000
_cell_angle_gamma 90.000000
_cell_volume 1928.936251
_symmetry_space_group_name_H-M "C 2 2 21"
_symmetry_group_IT_number 20
_symmetry_cell_setting 'orthorhombic'
loop_
_space_group_symop_operation_xyz
x,y,z
-x,-y,1/2+z
x,-y,-z
-x,y,1/2-z
1/2+x,1/2+y,z
1/2-x,1/2-y,1/2+z
1/2+x,1/2-y,-z
1/2-x,1/2+y,1/2-z
loop_
_atom_site_type_symbol
_atom_site_label
_atom_site_fract_x
_atom_site_fract_y
_atom_site_fract_z
Si Si1 0.398630 0.344246 0.532591
Si Si2 0.968865 0.991779 0.856046
Si Si3 0.881197 0.362217 0.798809
Si Si4 0.614548 0.258810 0.438135
Si Si5 0.179128 0.073880 0.759928
O O1 0.382926 0.500000 0.500000
O O2 0.455631 0.360349 0.608890
O O3 0.500931 0.242710 0.493732
O O4 0.257750 0.270387 0.532253
O O5 0.891320 0.077753 0.913295
O O6 0.868631 0.954766 0.795863
O O7 0.073000 0.096380 0.818981
O O8 0.918450 0.347898 0.877016
O O9 0.795573 0.224167 0.777072
O O10 0.806635 0.511144 0.793337
O O11 0.000000 0.376924 0.750000
#
# Coordination Sequence:
#
# PCOD8158454 Si02
#       5
#     8   8   8   8   8
#     4  10  21  38  60  86 118 161 202 251 303 362
#     4   9  18  38  61  82 119 159 197 243 308 359
#     4  11  21  39  61  90 125 157 201 256 312 364
#     4  10  20  38  63  84 119 163 201 250 303 361
#     4  10  19  37  64  89 119 159 198 250 305 369
#
# _framework density 20.736816999999999
#
# number of rings (size 3 to 8) (size 9 to 14) (size 15 to 20)
#    0.000    2.000    6.000    0.000    0.000    1.600 
#    3.600    7.000    0.000    0.000    0.000    0.000 
#    0.000    0.000    0.000    0.000    0.000    0.000 
#
# Total GULP energy -247772.417064 kJ/mol
# GULP energy per Si atom -12388.620853 kJ/mol
# Density = 2.068962 g / cm^3
# Si number density = 20.736817 Si / 1000 Ang^3
#
#
#
# Elastic Constant Matrix: (Units=GPa)
#
#
# Indices 1 2 3 4 5 6 
#
# 1 122.4675 32.4123 40.3256 0.0000 0.0000 0.0000
# 2 32.4123 41.8740 13.8906 0.0000 0.0000 0.0000
# 3 40.3256 13.8906 83.6578 0.0000 0.0000 0.0000
# 4 0.0000 0.0000 0.0000 13.3751 0.0000 0.0000
# 5 0.0000 0.0000 0.0000 0.0000 31.9298 0.0000
# 6 0.0000 0.0000 0.0000 0.0000 0.0000 33.0883
#
#
#
# Elastic Compliance Matrix: (Units=1/GPa)
#
#
# Indices 1 2 3 4 5 6 
#
# 1 0.011585 -0.007530 -0.004334 0.000000 0.000000 0.000000
# 2 -0.007530 0.030167 -0.001379 0.000000 0.000000 0.000000
# 3 -0.004334 -0.001379 0.014272 0.000000 0.000000 0.000000
# 4 0.000000 0.000000 0.000000 0.074766 0.000000 0.000000
# 5 0.000000 0.000000 0.000000 0.000000 0.031319 0.000000
# 6 0.000000 0.000000 0.000000 0.000000 0.000000 0.030222
#
#
# Mechanical properties :
#
#
# Convention : Reuss Voigt Hill
#
# Bulk Modulus (GPa) = 33.85543 46.80627 40.33085
# Shear Modulus (GPa) = 21.86617 26.43671 24.15144
#
# Velocity S-wave (km/s) = 3.25077 3.57440 3.41642
# Velocity P-wave (km/s) = 5.51831 6.29728 5.92062
#
# Compressibility (1/GPa) = 0.02953736
#
# Stress axis : x y z
#
# Youngs Moduli (GPa) = 86.31507 33.14864 70.06857
#
# Poissons Ratio (x) = 0.24960 0.30370
# Poissons Ratio (y) = 0.64994 0.09665
# Poissons Ratio (z) = 0.37411 0.04572
#
# Static dielectric constant tensor:
#      x y z
#    x 3.709370 0.000000 0.000000 
#    y 0.000000 3.417940 0.000000 
#    z 0.000000 0.000000 4.071980 
# 
# 
# High freq. dielectric constant tensor:
#      x y z
#    x 1.803220 0.000000 0.000000 
#    y 0.000000 1.763920 0.000000 
#    z 0.000000 0.000000 1.829550 
# 
# From -- ./inp_files/26476.got.cif
#   From: 2010.03.12/outbox.cif.g09.slc.cpg/sg20_14_cif.got.tgz:26476.got - 2010.04.14 01:38:04.
