data_PCOD8158619
_publ_section_title
;
Structure prediction by ZEFSAII (Michael W. Deem and Ramdas Pophale) SiO2 
 PCOD8158619
Probable space group: C 2 2 21
;
_chemical_formula_sum "Si O2"
_cell_formula_units_Z 56
_cell_length_a 23.696192
_cell_length_b 11.476693
_cell_length_c 11.069571
_cell_angle_alpha 90.000000
_cell_angle_beta 90.000000
_cell_angle_gamma 90.000000
_cell_volume 3010.413236
_symmetry_space_group_name_H-M "C 2 2 21"
_symmetry_group_IT_number 20
_symmetry_cell_setting 'orthorhombic'
loop_
_space_group_symop_operation_xyz
x,y,z
-x,-y,1/2+z
x,-y,-z
-x,y,1/2-z
1/2+x,1/2+y,z
1/2-x,1/2-y,1/2+z
1/2+x,1/2-y,-z
1/2-x,1/2+y,1/2-z
loop_
_atom_site_type_symbol
_atom_site_label
_atom_site_fract_x
_atom_site_fract_y
_atom_site_fract_z
Si Si1 0.388388 0.000000 0.500000
Si Si2 0.259810 0.605010 0.588380
Si Si3 0.705999 0.159422 0.997386
Si Si4 0.330025 0.212599 0.758040
Si Si5 0.809105 0.000000 0.000000
Si Si6 0.947174 0.676583 0.675352
Si Si7 0.461198 0.439912 0.630744
Si Si8 0.157166 0.025058 0.246626
O O1 0.344558 0.090048 0.431935
O O2 0.429922 0.073933 0.584693
O O3 0.247239 0.500000 0.500000
O O4 0.297462 0.704570 0.526482
O O5 0.199748 0.657940 0.625736
O O6 0.295882 0.564112 0.701562
O O7 0.691449 0.140556 0.857061
O O8 0.768364 0.110674 0.023472
O O9 0.397386 0.199975 0.772109
O O10 0.315082 0.347556 0.740817
O O11 0.851696 0.988734 0.113288
O O12 0.961187 0.799870 0.608743
O O13 0.000000 0.629551 0.750000
O O14 0.478496 0.500000 0.500000
O O15 0.500000 0.469453 0.750000
O O16 0.399131 0.485696 0.666821
#
# Coordination Sequence:
#
# PCOD8158619 Si02
#       8
#     4   8   8   8   4   8   8   8
#     4   9  20  36  64  80 110 158 197 246 300 364
#     4  12  22  34  59  92 122 155 201 251 299 372
#     4  10  20  35  55  84 119 154 200 245 303 368
#     4  10  20  36  54  83 117 157 195 244 309 362
#     4  11  20  34  52  82 120 164 193 246 300 360
#     4   9  20  41  63  82 115 161 203 252 310 363
#     4  10  23  42  66  91 121 158 205 254 309 367
#     4  11  22  34  60  84 119 160 200 240 305 369
#
# _framework density 18.602097000000001
#
# number of rings (size 3 to 8) (size 9 to 14) (size 15 to 20)
#    0.000    1.714    4.286    0.429    5.000    0.000 
#    1.286    0.714    0.000    0.000    0.000    0.000 
#    0.000    0.000    0.000    0.000    0.000    0.000 
#
# Total GULP energy -346919.138294 kJ/mol
# GULP energy per Si atom -12389.969225 kJ/mol
# Density = 1.855976 g / cm^3
# Si number density = 18.602097 Si / 1000 Ang^3
#
#
#
# Elastic Constant Matrix: (Units=GPa)
#
#
# Indices 1 2 3 4 5 6 
#
# 1 82.4833 43.8037 38.6100 0.0000 0.0000 0.0000
# 2 43.8037 123.6183 44.4572 0.0000 0.0000 0.0000
# 3 38.6100 44.4572 105.5300 0.0000 0.0000 0.0000
# 4 0.0000 0.0000 0.0000 27.9990 0.0000 0.0000
# 5 0.0000 0.0000 0.0000 0.0000 31.6456 0.0000
# 6 0.0000 0.0000 0.0000 0.0000 0.0000 23.8343
#
#
#
# Elastic Compliance Matrix: (Units=1/GPa)
#
#
# Indices 1 2 3 4 5 6 
#
# 1 0.016359 -0.004295 -0.004176 0.000000 0.000000 0.000000
# 2 -0.004295 0.010661 -0.002920 0.000000 0.000000 0.000000
# 3 -0.004176 -0.002920 0.012234 0.000000 0.000000 0.000000
# 4 0.000000 0.000000 0.000000 0.035716 0.000000 0.000000
# 5 0.000000 0.000000 0.000000 0.000000 0.031600 0.000000
# 6 0.000000 0.000000 0.000000 0.000000 0.000000 0.041956
#
#
# Mechanical properties :
#
#
# Convention : Reuss Voigt Hill
#
# Bulk Modulus (GPa) = 60.70631 62.81929 61.76280
# Shear Modulus (GPa) = 28.28058 29.01314 28.64686
#
# Velocity S-wave (km/s) = 3.90332 3.95355 3.92852
# Velocity P-wave (km/s) = 7.28145 7.39487 7.33838
#
# Compressibility (1/GPa) = 0.01647275
#
# Stress axis : x y z
#
# Youngs Moduli (GPa) = 61.12706 93.79553 81.73978
#
# Poissons Ratio (x) = 0.40286 0.34134
# Poissons Ratio (y) = 0.26255 0.23868
# Poissons Ratio (z) = 0.25526 0.27388
#
# Static dielectric constant tensor:
#      x y z
#    x 3.429780 0.000000 0.000000 
#    y 0.000000 3.501510 0.000000 
#    z 0.000000 0.000000 3.328970 
# 
# 
# High freq. dielectric constant tensor:
#      x y z
#    x 1.714010 0.000000 0.000000 
#    y 0.000000 1.729530 0.000000 
#    z 0.000000 0.000000 1.706300 
# 
# From -- ./inp_files/16771.got.cif
#   From: 2010.03.12/outbox.cif.g09.slc.cpg/sg20_9_cif.got.tgz:16771.got - 2010.04.14 01:38:04.
