data_PCOD8158188
_publ_section_title
;
Structure prediction by ZEFSAII (Michael W. Deem and Ramdas Pophale) SiO2 
 PCOD8158188
Probable space group: C 2 2 21
;
_chemical_formula_sum "Si O2"
_cell_formula_units_Z 56
_cell_length_a 14.898336
_cell_length_b 9.022342
_cell_length_c 20.939573
_cell_angle_alpha 90.000000
_cell_angle_beta 90.000000
_cell_angle_gamma 90.000000
_cell_volume 2814.653066
_symmetry_space_group_name_H-M "C 2 2 21"
_symmetry_group_IT_number 20
_symmetry_cell_setting 'orthorhombic'
loop_
_space_group_symop_operation_xyz
x,y,z
-x,-y,1/2+z
x,-y,-z
-x,y,1/2-z
1/2+x,1/2+y,z
1/2-x,1/2-y,1/2+z
1/2+x,1/2-y,-z
1/2-x,1/2+y,1/2-z
loop_
_atom_site_type_symbol
_atom_site_label
_atom_site_fract_x
_atom_site_fract_y
_atom_site_fract_z
Si Si1 0.000638 0.225206 0.108277
Si Si2 0.787738 0.184654 0.882653
Si Si3 0.387790 0.987700 0.425494
Si Si4 0.714914 0.757860 0.880003
Si Si5 0.855325 0.916962 0.805707
Si Si6 0.165716 0.932022 0.840350
Si Si7 0.145444 0.828277 0.511506
O O1 0.032212 0.397651 0.110169
O O2 0.088782 0.123525 0.111859
O O3 0.935412 0.184721 0.166755
O O4 0.953413 0.195608 0.040308
O O5 0.706620 0.093435 0.914122
O O6 0.751350 0.322125 0.841378
O O7 0.850496 0.078030 0.839643
O O8 0.846613 0.249347 0.941947
O O9 0.409909 0.000000 0.500000
O O10 0.377130 0.152325 0.395337
O O11 0.762292 0.830725 0.818127
O O12 0.693803 0.590613 0.864705
O O13 0.781105 0.762064 0.940531
O O14 0.872310 0.939361 0.731192
O O15 0.164495 0.000000 0.500000
#
# Coordination Sequence:
#
# PCOD8158188 Si02
#       7
#     8   8   8   8   8   8   8
#     4  10  23  36  62  86 120 168 198 249 317 368
#     4  10  19  38  65  82 117 165 202 251 302 364
#     4  10  18  38  59  87 117 158 197 249 309 372
#     4  10  20  37  64  89 120 157 204 261 304 361
#     4  10  20  42  62  83 125 166 207 246 304 370
#     4  11  23  37  61  97 118 159 214 252 298 372
#     4  11  18  41  60  83 119 162 198 249 323 367
#
# _framework density 19.895879999999998
#
# number of rings (size 3 to 8) (size 9 to 14) (size 15 to 20)
#    0.000    1.714    5.714    1.286    0.000    1.714 
#    5.143    0.000    0.000    5.143    0.000    0.000 
#    0.000    0.000    0.000    0.000    0.000    0.000 
#
# Total GULP energy -347111.575284 kJ/mol
# GULP energy per Si atom -12396.841974 kJ/mol
# Density = 1.985060 g / cm^3
# Si number density = 19.895880 Si / 1000 Ang^3
#
#
#
# Elastic Constant Matrix: (Units=GPa)
#
#
# Indices 1 2 3 4 5 6 
#
# 1 78.4534 46.3968 40.8160 0.0000 0.0000 0.0000
# 2 46.3968 124.3131 38.6094 0.0000 0.0000 0.0000
# 3 40.8160 38.6094 97.7924 0.0000 0.0000 0.0000
# 4 0.0000 0.0000 0.0000 26.5957 0.0000 0.0000
# 5 0.0000 0.0000 0.0000 0.0000 29.5767 0.0000
# 6 0.0000 0.0000 0.0000 0.0000 0.0000 25.8953
#
#
#
# Elastic Compliance Matrix: (Units=1/GPa)
#
#
# Indices 1 2 3 4 5 6 
#
# 1 0.018864 -0.005237 -0.005806 0.000000 0.000000 0.000000
# 2 -0.005237 0.010623 -0.002008 0.000000 0.000000 0.000000
# 3 -0.005806 -0.002008 0.013442 0.000000 0.000000 0.000000
# 4 0.000000 0.000000 0.000000 0.037600 0.000000 0.000000
# 5 0.000000 0.000000 0.000000 0.000000 0.033810 0.000000
# 6 0.000000 0.000000 0.000000 0.000000 0.000000 0.038617
#
#
# Mechanical properties :
#
#
# Convention : Reuss Voigt Hill
#
# Bulk Modulus (GPa) = 59.43051 61.35594 60.39322
# Shear Modulus (GPa) = 27.07579 28.06266 27.56922
#
# Velocity S-wave (km/s) = 3.69301 3.75970 3.72650
# Velocity P-wave (km/s) = 6.93686 7.05355 6.99545
#
# Compressibility (1/GPa) = 0.01682637
#
# Stress axis : x y z
#
# Youngs Moduli (GPa) = 53.01032 94.13906 74.39584
#
# Poissons Ratio (x) = 0.49305 0.43192
# Poissons Ratio (y) = 0.27764 0.14938
# Poissons Ratio (z) = 0.30776 0.18902
#
# Static dielectric constant tensor:
#      x y z
#    x 3.614880 0.000000 0.000000 
#    y 0.000000 3.627710 0.000000 
#    z 0.000000 0.000000 3.840180 
# 
# 
# High freq. dielectric constant tensor:
#      x y z
#    x 1.762210 0.000000 0.000000 
#    y 0.000000 1.767120 0.000000 
#    z 0.000000 0.000000 1.774480 
# 
# From -- ./inp_files/27560.got.cif
#   From: 2010.03.12/outbox.cif.g09.slc.cpg/sg20_14_cif.got.tgz:27560.got - 2010.04.14 01:38:04.
