data_PCOD8158021
_publ_section_title
;
Structure prediction by ZEFSAII (Michael W. Deem and Ramdas Pophale) SiO2 
 PCOD8158021
Probable space group: C 2 2 21
;
_chemical_formula_sum "Si O2"
_cell_formula_units_Z 48
_cell_length_a 16.014814
_cell_length_b 9.393518
_cell_length_c 17.302328
_cell_angle_alpha 90.000000
_cell_angle_beta 90.000000
_cell_angle_gamma 90.000000
_cell_volume 2602.883388
_symmetry_space_group_name_H-M "C 2 2 21"
_symmetry_group_IT_number 20
_symmetry_cell_setting 'orthorhombic'
loop_
_space_group_symop_operation_xyz
x,y,z
-x,-y,1/2+z
x,-y,-z
-x,y,1/2-z
1/2+x,1/2+y,z
1/2-x,1/2-y,1/2+z
1/2+x,1/2-y,-z
1/2-x,1/2+y,1/2-z
loop_
_atom_site_type_symbol
_atom_site_label
_atom_site_fract_x
_atom_site_fract_y
_atom_site_fract_z
Si Si1 0.683665 0.664373 0.484412
Si Si2 0.410831 0.865024 0.549039
Si Si3 0.597526 0.892597 0.566902
Si Si4 0.835057 0.148787 0.458149
Si Si5 0.264805 0.782454 0.663388
Si Si6 0.253847 0.047249 0.180808
O O1 0.680903 0.500000 0.500000
O O2 0.607447 0.735231 0.530465
O O3 0.767370 0.735918 0.515888
O O4 0.684296 0.691872 0.391885
O O5 0.499935 0.904741 0.587660
O O6 0.418981 0.728911 0.488448
O O7 0.350039 0.826556 0.619794
O O8 0.377844 0.000000 0.500000
O O9 0.625988 0.000000 0.500000
O O10 0.656612 0.923139 0.640182
O O11 0.820219 0.000000 0.500000
O O12 0.822941 0.120387 0.367011
O O13 0.266181 0.619030 0.690121
O O14 0.254785 0.884685 0.735740
#
# Coordination Sequence:
#
# PCOD8158021 Si02
#       6
#     8   8   8   8   8   8
#     4  10  19  34  58  85 112 143 204 240 275 341
#     4  10  22  37  62  88 115 146 205 240 292 345
#     4  10  20  41  60  83 114 160 189 245 293 342
#     4  10  17  36  58  81 109 151 193 244 282 334
#     4  11  22  36  57  89 113 154 192 241 285 350
#     4  11  22  35  61  82 121 153 195 236 295 342
#
# _framework density 18.441087
#
# number of rings (size 3 to 8) (size 9 to 14) (size 15 to 20)
#    0.000    1.667    5.000    3.000    7.000    1.333 
#    0.000    0.000    0.000    1.000    0.000    0.000 
#    0.000    0.000    0.000    0.000    0.000    0.000 
#
# Total GULP energy -297333.245177 kJ/mol
# GULP energy per Si atom -12388.885216 kJ/mol
# Density = 1.839911 g / cm^3
# Si number density = 18.441087 Si / 1000 Ang^3
#
#
#
# Elastic Constant Matrix: (Units=GPa)
#
#
# Indices 1 2 3 4 5 6 
#
# 1 52.2287 16.7696 20.2814 0.0000 0.0000 0.0000
# 2 16.7696 155.8975 49.9228 0.0000 0.0000 0.0000
# 3 20.2814 49.9228 117.0961 0.0000 0.0000 0.0000
# 4 0.0000 0.0000 0.0000 40.5548 0.0000 0.0000
# 5 0.0000 0.0000 0.0000 0.0000 20.0594 0.0000
# 6 0.0000 0.0000 0.0000 0.0000 0.0000 50.7431
#
#
#
# Elastic Compliance Matrix: (Units=1/GPa)
#
#
# Indices 1 2 3 4 5 6 
#
# 1 0.020736 -0.001251 -0.003058 0.000000 0.000000 0.000000
# 2 -0.001251 0.007504 -0.002983 0.000000 0.000000 0.000000
# 3 -0.003058 -0.002983 0.010341 0.000000 0.000000 0.000000
# 4 0.000000 0.000000 0.000000 0.024658 0.000000 0.000000
# 5 0.000000 0.000000 0.000000 0.000000 0.049852 0.000000
# 6 0.000000 0.000000 0.000000 0.000000 0.000000 0.019707
#
#
# Mechanical properties :
#
#
# Convention : Reuss Voigt Hill
#
# Bulk Modulus (GPa) = 41.67109 55.46331 48.56720
# Shear Modulus (GPa) = 32.17892 38.15471 35.16682
#
# Velocity S-wave (km/s) = 4.18180 4.55357 4.37164
# Velocity P-wave (km/s) = 6.77957 7.60183 7.20244
#
# Compressibility (1/GPa) = 0.02399745
#
# Stress axis : x y z
#
# Youngs Moduli (GPa) = 48.22575 133.25905 96.69997
#
# Poissons Ratio (x) = 0.16674 0.29571
# Poissons Ratio (y) = 0.06034 0.28842
# Poissons Ratio (z) = 0.14748 0.39746
#
# Static dielectric constant tensor:
#      x y z
#    x 3.417580 0.000000 0.000000 
#    y 0.000000 3.747660 0.000000 
#    z 0.000000 0.000000 3.455740 
# 
# 
# High freq. dielectric constant tensor:
#      x y z
#    x 1.688070 0.000000 0.000000 
#    y 0.000000 1.739850 0.000000 
#    z 0.000000 0.000000 1.703270 
# 
# From -- ./inp_files/21277.got.cif
#   From: 2010.03.12/outbox.cif.g09.slc.cpg/sg20_11_cif.got.tgz:21277.got - 2010.04.14 01:38:04.
