data_PCOD8158925
_publ_section_title
;
Structure prediction by ZEFSAII (Michael W. Deem and Ramdas Pophale) SiO2 
 PCOD8158925
Probable space group: C 2 2 21
;
_chemical_formula_sum "Si O2"
_cell_formula_units_Z 44
_cell_length_a 13.222780
_cell_length_b 13.549565
_cell_length_c 12.528096
_cell_angle_alpha 90.000000
_cell_angle_beta 90.000000
_cell_angle_gamma 90.000000
_cell_volume 2244.570225
_symmetry_space_group_name_H-M "C 2 2 21"
_symmetry_group_IT_number 20
_symmetry_cell_setting 'orthorhombic'
loop_
_space_group_symop_operation_xyz
x,y,z
-x,-y,1/2+z
x,-y,-z
-x,y,1/2-z
1/2+x,1/2+y,z
1/2-x,1/2-y,1/2+z
1/2+x,1/2-y,-z
1/2-x,1/2+y,1/2-z
loop_
_atom_site_type_symbol
_atom_site_label
_atom_site_fract_x
_atom_site_fract_y
_atom_site_fract_z
Si Si1 0.209688 0.716861 0.306185
Si Si2 0.407503 0.393790 0.678011
Si Si3 0.419385 0.938243 0.899224
Si Si4 0.174251 0.057719 0.668851
Si Si5 0.483560 0.500000 0.000000
Si Si6 0.862736 0.443277 0.669629
O O1 0.326293 0.693506 0.335118
O O2 0.135197 0.669639 0.397552
O O3 0.192938 0.831924 0.292557
O O4 0.183099 0.666241 0.191865
O O5 0.500000 0.354433 0.750000
O O6 0.356858 0.491173 0.729977
O O7 0.446921 0.421130 0.560687
O O8 0.392064 0.990745 0.786161
O O9 0.541263 0.930228 0.907686
O O10 0.378182 0.000000 0.000000
O O11 0.085860 0.060169 0.582229
O O12 0.277581 0.013590 0.617302
#
# Coordination Sequence:
#
# PCOD8158925 Si02
#       6
#     8   8   8   8   4   8
#     4   9  19  37  60  84 110 152 194 227 284 345
#     4   9  20  39  57  82 120 150 189 240 283 343
#     4   9  18  35  59  82 114 144 186 233 285 334
#     4  10  20  40  60  81 116 151 191 235 286 345
#     4  10  22  36  58  82 116 158 184 234 296 332
#     4   8  19  36  57  82 113 147 183 239 285 334
#
# _framework density 19.602861999999998
#
# number of rings (size 3 to 8) (size 9 to 14) (size 15 to 20)
#    1.091    1.818    0.000    0.000    2.545    4.364 
#    6.545    9.091    0.000    0.000    0.000    0.000 
#    0.000    0.000    0.000    0.000    0.000    0.000 
#
# Total GULP energy -272590.899423 kJ/mol
# GULP energy per Si atom -12390.495428 kJ/mol
# Density = 1.955824 g / cm^3
# Si number density = 19.602862 Si / 1000 Ang^3
#
#
#
# Elastic Constant Matrix: (Units=GPa)
#
#
# Indices 1 2 3 4 5 6 
#
# 1 127.3160 31.0234 10.7489 0.0000 0.0000 0.0000
# 2 31.0234 103.6838 11.3661 0.0000 0.0000 0.0000
# 3 10.7489 11.3661 46.9110 0.0000 0.0000 0.0000
# 4 0.0000 0.0000 0.0000 13.1580 0.0000 0.0000
# 5 0.0000 0.0000 0.0000 0.0000 20.4560 0.0000
# 6 0.0000 0.0000 0.0000 0.0000 0.0000 16.9445
#
#
#
# Elastic Compliance Matrix: (Units=1/GPa)
#
#
# Indices 1 2 3 4 5 6 
#
# 1 0.008558 -0.002410 -0.001377 0.000000 0.000000 0.000000
# 2 -0.002410 0.010586 -0.002013 0.000000 0.000000 0.000000
# 3 -0.001377 -0.002013 0.022120 0.000000 0.000000 0.000000
# 4 0.000000 0.000000 0.000000 0.075999 0.000000 0.000000
# 5 0.000000 0.000000 0.000000 0.000000 0.048886 0.000000
# 6 0.000000 0.000000 0.000000 0.000000 0.000000 0.059016
#
#
# Mechanical properties :
#
#
# Convention : Reuss Voigt Hill
#
# Bulk Modulus (GPa) = 33.70940 42.68749 38.19844
# Shear Modulus (GPa) = 20.27141 25.09653 22.68397
#
# Velocity S-wave (km/s) = 3.21924 3.58194 3.40542
# Velocity P-wave (km/s) = 5.57239 6.23943 5.91532
#
# Compressibility (1/GPa) = 0.02966532
#
# Stress axis : x y z
#
# Youngs Moduli (GPa) = 116.85106 94.46115 45.20758
#
# Poissons Ratio (x) = 0.22762 0.06225
# Poissons Ratio (y) = 0.28157 0.09100
# Poissons Ratio (z) = 0.16091 0.19013
#
# Static dielectric constant tensor:
#      x y z
#    x 3.912570 0.000000 0.000000 
#    y 0.000000 3.059230 0.000000 
#    z 0.000000 0.000000 3.265830 
# 
# 
# High freq. dielectric constant tensor:
#      x y z
#    x 1.788620 0.000000 0.000000 
#    y 0.000000 1.723910 0.000000 
#    z 0.000000 0.000000 1.737810 
# 
# From -- ./inp_files/20586.got.cif
#   From: 2010.03.12/outbox.cif.g09.slc.cpg/sg20_11_cif.got.tgz:20586.got - 2010.04.14 01:38:04.
