data_PCOD8158091
_publ_section_title
;
Structure prediction by ZEFSAII (Michael W. Deem and Ramdas Pophale) SiO2 
 PCOD8158091
Probable space group: C 2 2 21
;
_chemical_formula_sum "Si O2"
_cell_formula_units_Z 36
_cell_length_a 14.654201
_cell_length_b 13.852063
_cell_length_c 9.049067
_cell_angle_alpha 90.000000
_cell_angle_beta 90.000000
_cell_angle_gamma 90.000000
_cell_volume 1836.878394
_symmetry_space_group_name_H-M "C 2 2 21"
_symmetry_group_IT_number 20
_symmetry_cell_setting 'orthorhombic'
loop_
_space_group_symop_operation_xyz
x,y,z
-x,-y,1/2+z
x,-y,-z
-x,y,1/2-z
1/2+x,1/2+y,z
1/2-x,1/2-y,1/2+z
1/2+x,1/2-y,-z
1/2-x,1/2+y,1/2-z
loop_
_atom_site_type_symbol
_atom_site_label
_atom_site_fract_x
_atom_site_fract_y
_atom_site_fract_z
Si Si1 0.000283 0.500000 0.000000
Si Si2 0.164667 0.406908 0.648510
Si Si3 0.919983 0.680695 0.642272
Si Si4 0.096048 0.234835 0.830866
Si Si5 0.762362 0.611475 0.830903
O O1 0.938162 0.559692 0.113454
O O2 0.063796 0.429078 0.091913
O O3 0.155213 0.326145 0.773623
O O4 0.209927 0.365063 0.499920
O O5 0.224127 0.498012 0.705877
O O6 0.918987 0.753569 0.505265
O O7 0.824139 0.680099 0.727659
O O8 0.000000 0.716879 0.750000
O O9 0.156865 0.139239 0.804402
O O10 0.000000 0.220967 0.750000
#
# Coordination Sequence:
#
# PCOD8158091 Si02
#       5
#     4   8   8   8   8
#     4  10  18  32  58  90 114 150 186 260 296 354
#     4  10  20  39  61  87 121 156 195 251 311 345
#     4  12  20  32  58  89 123 149 191 252 303 351
#     4  12  23  37  60  92 122 161 202 246 295 361
#     4  10  22  37  59  87 126 156 201 246 305 350
#
# _framework density 19.598466999999999
#
# number of rings (size 3 to 8) (size 9 to 14) (size 15 to 20)
#    0.000    1.333    6.667    2.667    0.000    0.000 
#    0.000    0.000    0.000   25.333    0.000    0.000 
#    0.000    0.000    0.000    0.000    0.000    0.000 
#
# Total GULP energy -223206.505819 kJ/mol
# GULP energy per Si atom -12400.361434 kJ/mol
# Density = 1.955386 g / cm^3
# Si number density = 19.598467 Si / 1000 Ang^3
#
#
#
# Elastic Constant Matrix: (Units=GPa)
#
#
# Indices 1 2 3 4 5 6 
#
# 1 137.3446 55.6742 58.2212 0.0000 0.0000 0.0000
# 2 55.6742 55.1906 40.5224 0.0000 0.0000 0.0000
# 3 58.2212 40.5224 96.1818 0.0000 0.0000 0.0000
# 4 0.0000 0.0000 0.0000 8.5179 0.0000 0.0000
# 5 0.0000 0.0000 0.0000 0.0000 15.0627 0.0000
# 6 0.0000 0.0000 0.0000 0.0000 0.0000 28.7618
#
#
#
# Elastic Compliance Matrix: (Units=1/GPa)
#
#
# Indices 1 2 3 4 5 6 
#
# 1 0.013046 -0.010659 -0.003406 0.000000 0.000000 0.000000
# 2 -0.010659 0.034943 -0.008270 0.000000 0.000000 0.000000
# 3 -0.003406 -0.008270 0.015943 0.000000 0.000000 0.000000
# 4 0.000000 0.000000 0.000000 0.117400 0.000000 0.000000
# 5 0.000000 0.000000 0.000000 0.000000 0.066389 0.000000
# 6 0.000000 0.000000 0.000000 0.000000 0.000000 0.034768
#
#
# Mechanical properties :
#
#
# Convention : Reuss Voigt Hill
#
# Bulk Modulus (GPa) = 51.91558 66.39472 59.15515
# Shear Modulus (GPa) = 14.98891 19.42176 17.20534
#
# Velocity S-wave (km/s) = 2.76850 3.15140 2.96614
# Velocity P-wave (km/s) = 6.06355 6.86971 6.47918
#
# Compressibility (1/GPa) = 0.01926204
#
# Stress axis : x y z
#
# Youngs Moduli (GPa) = 76.65423 28.61763 62.72391
#
# Poissons Ratio (x) = 0.30504 0.21364
# Poissons Ratio (y) = 0.81707 0.51872
# Poissons Ratio (z) = 0.26109 0.23666
#
# Static dielectric constant tensor:
#      x y z
#    x 3.522960 0.000000 0.000000 
#    y 0.000000 3.350410 0.000000 
#    z 0.000000 0.000000 3.713550 
# 
# 
# High freq. dielectric constant tensor:
#      x y z
#    x 1.753970 0.000000 0.000000 
#    y 0.000000 1.729680 0.000000 
#    z 0.000000 0.000000 1.775240 
# 
# From -- ./inp_files/8026.got.cif
#   From: 2010.03.12/outbox.cif.g09.slc.cpg/sg20_5_cif.got.tgz:8026.got - 2010.04.14 01:38:04.
