data_PCOD8158775
_publ_section_title
;
Structure prediction by ZEFSAII (Michael W. Deem and Ramdas Pophale) SiO2 
 PCOD8158775
Probable space group: C 2 2 21
;
_chemical_formula_sum "Si O2"
_cell_formula_units_Z 40
_cell_length_a 9.619501
_cell_length_b 25.070345
_cell_length_c 8.214578
_cell_angle_alpha 90.000000
_cell_angle_beta 90.000000
_cell_angle_gamma 90.000000
_cell_volume 1981.062204
_symmetry_space_group_name_H-M "C 2 2 21"
_symmetry_group_IT_number 20
_symmetry_cell_setting 'orthorhombic'
loop_
_space_group_symop_operation_xyz
x,y,z
-x,-y,1/2+z
x,-y,-z
-x,y,1/2-z
1/2+x,1/2+y,z
1/2-x,1/2-y,1/2+z
1/2+x,1/2-y,-z
1/2-x,1/2+y,1/2-z
loop_
_atom_site_type_symbol
_atom_site_label
_atom_site_fract_x
_atom_site_fract_y
_atom_site_fract_z
Si Si1 0.500000 0.875237 0.750000
Si Si2 0.500000 0.639579 0.750000
Si Si3 0.039139 0.938636 0.511993
Si Si4 0.819709 0.204094 0.500680
Si Si5 0.009486 0.697199 0.567455
Si Si6 0.704407 0.600115 0.185591
O O1 0.472099 0.841576 0.584060
O O2 0.632537 0.913212 0.711519
O O3 0.585682 0.597657 0.638953
O O4 0.393563 0.677384 0.655981
O O5 0.121770 0.911322 0.653876
O O6 0.870992 0.933877 0.541486
O O7 0.083251 0.000000 0.500000
O O8 0.900994 0.254858 0.436726
O O9 0.664088 0.220958 0.548498
O O10 0.810032 0.162799 0.351750
O O11 0.000000 0.670420 0.750000
#
# Coordination Sequence:
#
# PCOD8158775 Si02
#       6
#     4   4   8   8   8   8
#     4  10  23  44  58  90 126 168 198 252 309 352
#     4  10  21  34  60  84 118 146 210 244 305 368
#     4  10  20  37  64  91 112 151 197 254 310 372
#     4  10  24  38  55  89 117 169 200 255 295 352
#     4  11  26  38  62  85 128 166 216 249 294 363
#     4   9  21  39  61  82 124 156 193 253 305 362
#
# _framework density 20.191189999999999
#
# number of rings (size 3 to 8) (size 9 to 14) (size 15 to 20)
#    0.000    2.000    0.000    1.800   16.800    0.000 
#    0.000    1.000    0.000    0.000    0.000    0.000 
#    0.000    0.000    0.000    0.000    0.000    0.000 
#
# Total GULP energy -247787.072213 kJ/mol
# GULP energy per Si atom -12389.353611 kJ/mol
# Density = 2.014523 g / cm^3
# Si number density = 20.191190 Si / 1000 Ang^3
#
#
#
# Elastic Constant Matrix: (Units=GPa)
#
#
# Indices 1 2 3 4 5 6 
#
# 1 123.2059 14.9999 21.8950 0.0000 0.0000 0.0000
# 2 14.9999 26.7754 20.1601 0.0000 0.0000 0.0000
# 3 21.8950 20.1601 120.8382 0.0000 0.0000 0.0000
# 4 0.0000 0.0000 0.0000 229.9759 0.0000 0.0000
# 5 0.0000 0.0000 0.0000 0.0000 25.5007 0.0000
# 6 0.0000 0.0000 0.0000 0.0000 0.0000 22.3214
#
#
#
# Elastic Compliance Matrix: (Units=1/GPa)
#
#
# Indices 1 2 3 4 5 6 
#
# 1 0.008792 -0.004261 -0.000882 0.000000 0.000000 0.000000
# 2 -0.004261 0.044778 -0.006699 0.000000 0.000000 0.000000
# 3 -0.000882 -0.006699 0.009553 0.000000 0.000000 0.000000
# 4 0.000000 0.000000 0.000000 0.004348 0.000000 0.000000
# 5 0.000000 0.000000 0.000000 0.000000 0.039215 0.000000
# 6 0.000000 0.000000 0.000000 0.000000 0.000000 0.044800
#
#
# Mechanical properties :
#
#
# Convention : Reuss Voigt Hill
#
# Bulk Modulus (GPa) = 25.35520 42.76996 34.06258
# Shear Modulus (GPa) = 26.55100 69.81055 48.18077
#
# Velocity S-wave (km/s) = 3.63020 5.88641 4.89020
# Velocity P-wave (km/s) = 5.49144 8.21147 6.98513
#
# Compressibility (1/GPa) = 0.03943965
#
# Stress axis : x y z
#
# Youngs Moduli (GPa) = 113.73913 22.33216 104.68012
#
# Poissons Ratio (x) = 0.09516 0.09234
# Poissons Ratio (y) = 0.48467 0.70120
# Poissons Ratio (z) = 0.10033 0.14959
#
# Static dielectric constant tensor:
#      x y z
#    x 3.893010 0.000000 0.000000 
#    y 0.000000 3.410210 0.000000 
#    z 0.000000 0.000000 4.031110 
# 
# 
# High freq. dielectric constant tensor:
#      x y z
#    x 1.789640 0.000000 0.000000 
#    y 0.000000 1.754930 0.000000 
#    z 0.000000 0.000000 1.809650 
# 
# From -- ./inp_files/6134.got.cif
#   From: 2010.03.12/outbox.cif.g09.slc.cpg/sg20_4_cif.got.tgz:6134.got - 2010.04.14 01:38:04.
