data_PCOD8158105
_publ_section_title
;
Structure prediction by ZEFSAII (Michael W. Deem and Ramdas Pophale) SiO2 
 PCOD8158105
Probable space group: C 2 2 21
;
_chemical_formula_sum "Si O2"
_cell_formula_units_Z 48
_cell_length_a 8.765016
_cell_length_b 22.087786
_cell_length_c 12.901490
_cell_angle_alpha 90.000000
_cell_angle_beta 90.000000
_cell_angle_gamma 90.000000
_cell_volume 2497.725854
_symmetry_space_group_name_H-M "C 2 2 21"
_symmetry_group_IT_number 20
_symmetry_cell_setting 'orthorhombic'
loop_
_space_group_symop_operation_xyz
x,y,z
-x,-y,1/2+z
x,-y,-z
-x,y,1/2-z
1/2+x,1/2+y,z
1/2-x,1/2-y,1/2+z
1/2+x,1/2-y,-z
1/2-x,1/2+y,1/2-z
loop_
_atom_site_type_symbol
_atom_site_label
_atom_site_fract_x
_atom_site_fract_y
_atom_site_fract_z
Si Si1 0.310583 0.826886 0.018496
Si Si2 0.000000 0.426637 0.750000
Si Si3 0.500000 0.577479 0.250000
Si Si4 0.749310 0.157454 0.159850
Si Si5 0.245461 0.453947 0.594630
Si Si6 0.823256 0.715878 0.762903
Si Si7 0.159274 0.292025 0.039677
O O1 0.284113 0.830954 0.143851
O O2 0.484059 0.803888 0.008197
O O3 0.276938 0.888061 0.956423
O O4 0.192629 0.779468 0.969159
O O5 0.895417 0.383378 0.682276
O O6 0.900014 0.467369 0.829999
O O7 0.399596 0.620604 0.180647
O O8 0.604206 0.539488 0.168105
O O9 0.734282 0.220827 0.221446
O O10 0.763755 0.170630 0.038330
O O11 0.254505 0.500000 0.500000
O O12 0.783726 0.685151 0.652760
O O13 0.000000 0.733427 0.750000
#
# Coordination Sequence:
#
# PCOD8158105 Si02
#       7
#     8   4   4   8   8   8   8
#     4  10  21  36  60  89 127 161 195 252 305 370
#     4  10  20  38  62  90 110 156 210 252 302 362
#     4  10  22  40  68  82 114 168 214 250 298 368
#     4  10  18  33  58  86 117 157 205 247 296 372
#     4  11  24  45  64  90 121 165 214 262 303 369
#     4   9  18  31  51  86 123 161 184 236 308 356
#     4  10  19  33  57  91 127 160 196 242 311 374
#
# _framework density 19.217479999999998
#
# number of rings (size 3 to 8) (size 9 to 14) (size 15 to 20)
#    0.000    2.000    2.500    2.000    4.667    0.000 
#    4.500    5.000    0.000    0.000    0.000    0.000 
#    0.000    0.000    0.000    0.000    0.000    0.000 
#
# Total GULP energy -297327.363603 kJ/mol
# GULP energy per Si atom -12388.640150 kJ/mol
# Density = 1.917374 g / cm^3
# Si number density = 19.217480 Si / 1000 Ang^3
#
#
#
# Elastic Constant Matrix: (Units=GPa)
#
#
# Indices 1 2 3 4 5 6 
#
# 1 88.6597 36.4163 54.1905 0.0000 0.0000 0.0000
# 2 36.4163 60.3626 46.1424 0.0000 0.0000 0.0000
# 3 54.1905 46.1424 165.2868 0.0000 0.0000 0.0000
# 4 0.0000 0.0000 0.0000 32.9219 0.0000 0.0000
# 5 0.0000 0.0000 0.0000 0.0000 28.5979 0.0000
# 6 0.0000 0.0000 0.0000 0.0000 0.0000 11.5532
#
#
#
# Elastic Compliance Matrix: (Units=1/GPa)
#
#
# Indices 1 2 3 4 5 6 
#
# 1 0.016300 -0.007308 -0.003304 0.000000 0.000000 0.000000
# 2 -0.007308 0.024338 -0.004398 0.000000 0.000000 0.000000
# 3 -0.003304 -0.004398 0.008361 0.000000 0.000000 0.000000
# 4 0.000000 0.000000 0.000000 0.030375 0.000000 0.000000
# 5 0.000000 0.000000 0.000000 0.000000 0.034968 0.000000
# 6 0.000000 0.000000 0.000000 0.000000 0.000000 0.086556
#
#
# Mechanical properties :
#
#
# Convention : Reuss Voigt Hill
#
# Bulk Modulus (GPa) = 52.69172 65.31195 59.00184
# Shear Modulus (GPa) = 21.07529 26.45191 23.76360
#
# Velocity S-wave (km/s) = 3.31520 3.71408 3.52029
# Velocity P-wave (km/s) = 6.49093 7.24238 6.87693
#
# Compressibility (1/GPa) = 0.01897831
#
# Stress axis : x y z
#
# Youngs Moduli (GPa) = 61.34843 41.08872 119.60102
#
# Poissons Ratio (x) = 0.30029 0.39516
# Poissons Ratio (y) = 0.44835 0.52602
# Poissons Ratio (z) = 0.20269 0.18071
#
# Static dielectric constant tensor:
#      x y z
#    x 3.403090 0.000000 0.000000 
#    y 0.000000 3.117580 0.000000 
#    z 0.000000 0.000000 4.212640 
# 
# 
# High freq. dielectric constant tensor:
#      x y z
#    x 1.749230 0.000000 0.000000 
#    y 0.000000 1.696800 0.000000 
#    z 0.000000 0.000000 1.776030 
# 
# From -- ./inp_files/13124.got.cif
#   From: 2010.03.12/outbox.cif.g09.slc.cpg/sg20_7_cif.got.tgz:13124.got - 2010.04.14 01:38:04.
