data_PCOD8158342
_publ_section_title
;
Structure prediction by ZEFSAII (Michael W. Deem and Ramdas Pophale) SiO2 
 PCOD8158342
Probable space group: C 2 2 21
;
_chemical_formula_sum "Si O2"
_cell_formula_units_Z 48
_cell_length_a 18.233887
_cell_length_b 7.451888
_cell_length_c 19.491844
_cell_angle_alpha 90.000000
_cell_angle_beta 90.000000
_cell_angle_gamma 90.000000
_cell_volume 2648.491021
_symmetry_space_group_name_H-M "C 2 2 21"
_symmetry_group_IT_number 20
_symmetry_cell_setting 'orthorhombic'
loop_
_space_group_symop_operation_xyz
x,y,z
-x,-y,1/2+z
x,-y,-z
-x,y,1/2-z
1/2+x,1/2+y,z
1/2-x,1/2-y,1/2+z
1/2+x,1/2-y,-z
1/2-x,1/2+y,1/2-z
loop_
_atom_site_type_symbol
_atom_site_label
_atom_site_fract_x
_atom_site_fract_y
_atom_site_fract_z
Si Si1 0.965947 0.003342 0.175326
Si Si2 0.652364 0.215589 0.308089
Si Si3 0.354032 0.802148 0.193717
Si Si4 0.310199 0.197820 0.652738
Si Si5 0.604052 0.505842 0.079757
Si Si6 0.195964 0.283146 0.845675
O O1 0.923297 0.191144 0.166725
O O2 0.000000 0.985410 0.250000
O O3 0.911646 0.837707 0.161808
O O4 0.027084 0.993160 0.117791
O O5 0.725063 0.248315 0.352859
O O6 0.668139 0.272717 0.229762
O O7 0.626866 0.010672 0.313806
O O8 0.339947 0.747789 0.272442
O O9 0.282842 0.751326 0.149137
O O10 0.355557 0.307970 0.596942
O O11 0.321756 0.988780 0.637647
O O12 0.655389 0.338614 0.099102
O O13 0.587154 0.500000 0.000000
#
# Coordination Sequence:
#
# PCOD8158342 Si02
#       6
#     8   8   8   8   8   8
#     4  12  22  38  60  94 127 161 199 253 307 358
#     4  10  19  34  65  95 119 148 204 260 301 346
#     4  10  19  34  65  95 119 148 204 260 301 346
#     4  10  19  36  64  94 116 152 204 257 299 355
#     4  12  26  42  58  88 130 164 197 250 313 367
#     4  10  19  36  64  94 116 152 204 257 299 355
#
# _framework density 18.123528
#
# number of rings (size 3 to 8) (size 9 to 14) (size 15 to 20)
#    0.000    1.333    6.667    0.000    0.000    2.667 
#    0.000    1.667    0.000    0.000    0.000    0.000 
#    0.000    0.000    0.000    0.000    0.000    0.000 
#
# Total GULP energy -297725.764907 kJ/mol
# GULP energy per Si atom -12405.240204 kJ/mol
# Density = 1.808228 g / cm^3
# Si number density = 18.123528 Si / 1000 Ang^3
#
#
#
# Elastic Constant Matrix: (Units=GPa)
#
#
# Indices 1 2 3 4 5 6 
#
# 1 61.7763 5.2232 30.8324 0.0000 0.0000 0.0000
# 2 5.2232 82.5096 15.3648 0.0000 0.0000 0.0000
# 3 30.8324 15.3648 86.6565 0.0000 0.0000 0.0000
# 4 0.0000 0.0000 0.0000 18.4776 0.0000 0.0000
# 5 0.0000 0.0000 0.0000 0.0000 21.4662 0.0000
# 6 0.0000 0.0000 0.0000 0.0000 0.0000 35.2466
#
#
#
# Elastic Compliance Matrix: (Units=1/GPa)
#
#
# Indices 1 2 3 4 5 6 
#
# 1 0.019683 0.000060 -0.007014 0.000000 0.000000 0.000000
# 2 0.000060 0.012534 -0.002244 0.000000 0.000000 0.000000
# 3 -0.007014 -0.002244 0.014433 0.000000 0.000000 0.000000
# 4 0.000000 0.000000 0.000000 0.054120 0.000000 0.000000
# 5 0.000000 0.000000 0.000000 0.000000 0.046585 0.000000
# 6 0.000000 0.000000 0.000000 0.000000 0.000000 0.028371
#
#
# Mechanical properties :
#
#
# Convention : Reuss Voigt Hill
#
# Bulk Modulus (GPa) = 35.39198 37.08703 36.23950
# Shear Modulus (GPa) = 24.56530 27.00622 25.78576
#
# Velocity S-wave (km/s) = 3.68562 3.86439 3.77607
# Velocity P-wave (km/s) = 6.13859 6.35762 6.24906
#
# Compressibility (1/GPa) = 0.02825499
#
# Stress axis : x y z
#
# Youngs Moduli (GPa) = 50.80544 79.78417 69.28486
#
# Poissons Ratio (x) = -0.00479 0.48595
# Poissons Ratio (y) = -0.00305 0.15546
# Poissons Ratio (z) = 0.35634 0.17901
#
# Static dielectric constant tensor:
#      x y z
#    x 3.477650 0.000000 0.000000 
#    y 0.000000 3.531790 0.000000 
#    z 0.000000 0.000000 2.980250 
# 
# 
# High freq. dielectric constant tensor:
#      x y z
#    x 1.712020 0.000000 0.000000 
#    y 0.000000 1.722560 0.000000 
#    z 0.000000 0.000000 1.651810 
# 
# From -- ./inp_files/24789.got.cif
#   From: 2010.03.12/outbox.cif.g09.slc.cpg/sg20_13_cif.got.tgz:24789.got - 2010.04.14 01:38:04.
