data_PCOD8158948
_publ_section_title
;
Structure prediction by ZEFSAII (Michael W. Deem and Ramdas Pophale) SiO2 
 PCOD8158948
Probable space group: C 2 2 21
;
_chemical_formula_sum "Si O2"
_cell_formula_units_Z 64
_cell_length_a 16.454799
_cell_length_b 10.748285
_cell_length_c 18.199616
_cell_angle_alpha 90.000000
_cell_angle_beta 90.000000
_cell_angle_gamma 90.000000
_cell_volume 3218.799906
_symmetry_space_group_name_H-M "C 2 2 21"
_symmetry_group_IT_number 20
_symmetry_cell_setting 'orthorhombic'
loop_
_space_group_symop_operation_xyz
x,y,z
-x,-y,1/2+z
x,-y,-z
-x,y,1/2-z
1/2+x,1/2+y,z
1/2-x,1/2-y,1/2+z
1/2+x,1/2-y,-z
1/2-x,1/2+y,1/2-z
loop_
_atom_site_type_symbol
_atom_site_label
_atom_site_fract_x
_atom_site_fract_y
_atom_site_fract_z
Si Si1 0.974149 0.629144 0.457301
Si Si2 0.648739 0.072968 0.424254
Si Si3 0.713249 0.521913 0.685395
Si Si4 0.305997 0.171960 0.400459
Si Si5 0.293960 0.862838 0.177739
Si Si6 0.701469 0.671785 0.537546
Si Si7 0.471197 0.630163 0.032742
Si Si8 0.072329 0.846328 0.694210
O O1 0.957330 0.500000 0.500000
O O2 0.902743 0.658709 0.399815
O O3 0.056851 0.621111 0.409989
O O4 0.975962 0.749015 0.511105
O O5 0.710342 0.187628 0.433297
O O6 0.647666 0.000000 0.500000
O O7 0.677030 0.993801 0.354910
O O8 0.775929 0.412741 0.666843
O O9 0.751672 0.616447 0.743623
O O10 0.696621 0.585858 0.607950
O O11 0.629807 0.462626 0.717257
O O12 0.272366 0.308624 0.379562
O O13 0.275073 0.136564 0.482745
O O14 0.373091 0.777003 0.186185
O O15 0.621196 0.652997 0.490122
O O16 0.473655 0.619312 0.119754
O O17 0.505861 0.500000 0.000000
O O18 0.000000 0.821329 0.750000
#
# Coordination Sequence:
#
# PCOD8158948 Si02
#       8
#     8   8   8   8   8   8   8   8
#     4  10  22  37  66  99 130 163 226 278 322 387
#     4  10  20  40  65  91 125 175 212 266 332 395
#     4  11  24  39  66  91 129 169 220 267 332 393
#     4  11  22  42  64  96 127 168 220 281 315 393
#     4  11  24  42  63  95 137 168 216 273 337 393
#     4  11  19  39  73  88 117 174 224 261 329 387
#     4  11  20  42  69  93 123 177 224 270 329 397
#     4  11  24  42  65  91 132 175 213 267 331 404
#
# _framework density 19.883185999999998
#
# number of rings (size 3 to 8) (size 9 to 14) (size 15 to 20)
#    0.000    1.250    5.000    2.625    3.500    4.000 
#    2.250    0.000    0.000    0.000    0.000    0.000 
#    0.000    0.000    0.000    0.000    0.000    0.000 
#
# Total GULP energy -396777.853155 kJ/mol
# GULP energy per Si atom -12399.307911 kJ/mol
# Density = 1.983793 g / cm^3
# Si number density = 19.883186 Si / 1000 Ang^3
#
#
#
# Elastic Constant Matrix: (Units=GPa)
#
#
# Indices 1 2 3 4 5 6 
#
# 1 52.4162 21.5007 14.9272 0.0000 0.0000 0.0000
# 2 21.5007 115.4635 26.9234 0.0000 0.0000 0.0000
# 3 14.9272 26.9234 82.3736 0.0000 0.0000 0.0000
# 4 0.0000 0.0000 0.0000 30.3292 0.0000 0.0000
# 5 0.0000 0.0000 0.0000 0.0000 25.1406 0.0000
# 6 0.0000 0.0000 0.0000 0.0000 0.0000 12.0030
#
#
#
# Elastic Compliance Matrix: (Units=1/GPa)
#
#
# Indices 1 2 3 4 5 6 
#
# 1 0.021222 -0.003307 -0.002765 0.000000 0.000000 0.000000
# 2 -0.003307 0.009891 -0.002633 0.000000 0.000000 0.000000
# 3 -0.002765 -0.002633 0.013502 0.000000 0.000000 0.000000
# 4 0.000000 0.000000 0.000000 0.032972 0.000000 0.000000
# 5 0.000000 0.000000 0.000000 0.000000 0.039776 0.000000
# 6 0.000000 0.000000 0.000000 0.000000 0.000000 0.083312
#
#
# Mechanical properties :
#
#
# Convention : Reuss Voigt Hill
#
# Bulk Modulus (GPa) = 36.75994 41.88398 39.32196
# Shear Modulus (GPa) = 22.01163 25.95471 23.98317
#
# Velocity S-wave (km/s) = 3.33084 3.61690 3.47681
# Velocity P-wave (km/s) = 5.77241 6.20913 5.99475
#
# Compressibility (1/GPa) = 0.02720352
#
# Stress axis : x y z
#
# Youngs Moduli (GPa) = 47.12099 101.10591 74.06555
#
# Poissons Ratio (x) = 0.33437 0.20478
# Poissons Ratio (y) = 0.15583 0.19505
# Poissons Ratio (z) = 0.13028 0.26625
#
# Static dielectric constant tensor:
#      x y z
#    x 3.571400 0.000000 0.000000 
#    y 0.000000 4.128740 0.000000 
#    z 0.000000 0.000000 3.432670 
# 
# 
# High freq. dielectric constant tensor:
#      x y z
#    x 1.762680 0.000000 0.000000 
#    y 0.000000 1.791150 0.000000 
#    z 0.000000 0.000000 1.762390 
# 
# From -- ./inp_files/25361.got.cif
#   From: 2010.03.12/outbox.cif.g09.slc.cpg/sg20_13_cif.got.tgz:25361.got - 2010.04.14 01:38:04.
