data_PCOD8158643
_publ_section_title
;
Structure prediction by ZEFSAII (Michael W. Deem and Ramdas Pophale) SiO2 
 PCOD8158643
Probable space group: C 2 2 21
;
_chemical_formula_sum "Si O2"
_cell_formula_units_Z 48
_cell_length_a 26.256303
_cell_length_b 6.126232
_cell_length_c 13.562327
_cell_angle_alpha 90.000000
_cell_angle_beta 90.000000
_cell_angle_gamma 90.000000
_cell_volume 2181.530184
_symmetry_space_group_name_H-M "C 2 2 21"
_symmetry_group_IT_number 20
_symmetry_cell_setting 'orthorhombic'
loop_
_space_group_symop_operation_xyz
x,y,z
-x,-y,1/2+z
x,-y,-z
-x,y,1/2-z
1/2+x,1/2+y,z
1/2-x,1/2-y,1/2+z
1/2+x,1/2-y,-z
1/2-x,1/2+y,1/2-z
loop_
_atom_site_type_symbol
_atom_site_label
_atom_site_fract_x
_atom_site_fract_y
_atom_site_fract_z
Si Si1 0.859468 0.606493 0.098218
Si Si2 0.913607 0.313981 0.249882
Si Si3 0.264370 0.130552 0.862515
Si Si4 0.500000 0.878021 0.750000
Si Si5 0.732786 0.000000 0.000000
Si Si6 0.186243 0.791997 0.837860
Si Si7 0.941061 0.939285 0.109756
O O1 0.875921 0.467109 0.190765
O O2 0.798095 0.579814 0.099615
O O3 0.882325 0.850693 0.105644
O O4 0.883289 0.500000 0.000000
O O5 0.956394 0.468212 0.298995
O O6 0.875373 0.190970 0.325150
O O7 0.943008 0.148215 0.178880
O O8 0.268725 0.331889 0.939211
O O9 0.281973 0.212629 0.756668
O O10 0.206658 0.037191 0.860818
O O11 0.521486 0.739514 0.658075
O O12 0.695530 0.126428 0.926478
O O13 0.960344 0.000000 0.000000
#
# Coordination Sequence:
#
# PCOD8158643 Si02
#       7
#     8   8   8   4   4   8   8
#     4  10  20  35  60 101 134 163 219 277 331 410
#     4  10  23  41  65  97 135 174 218 289 342 401
#     4  11  24  40  65 100 138 186 230 281 332 405
#     4  10  24  44  68 102 134 168 234 286 356 422
#     4  12  24  44  66  92 146 194 234 276 340 404
#     4  11  24  42  66  99 140 181 234 277 338 408
#     4  11  22  41  71 100 135 174 223 286 360 412
#
# _framework density 22.002904000000001
#
# number of rings (size 3 to 8) (size 9 to 14) (size 15 to 20)
#    0.000    1.333    3.333    2.000    2.333    4.000 
#    1.500    3.333    0.000    0.000    0.000    0.000 
#    0.000    0.000    0.000    0.000    0.000    0.000 
#
# Total GULP energy -297465.771895 kJ/mol
# GULP energy per Si atom -12394.407162 kJ/mol
# Density = 2.195282 g / cm^3
# Si number density = 22.002904 Si / 1000 Ang^3
#
#
#
# Elastic Constant Matrix: (Units=GPa)
#
#
# Indices 1 2 3 4 5 6 
#
# 1 117.4695 47.9768 37.8682 0.0000 0.0000 0.0000
# 2 47.9768 100.1812 45.3920 0.0000 0.0000 0.0000
# 3 37.8682 45.3920 111.3713 0.0000 0.0000 0.0000
# 4 0.0000 0.0000 0.0000 37.7148 0.0000 0.0000
# 5 0.0000 0.0000 0.0000 0.0000 -3.0513 0.0000
# 6 0.0000 0.0000 0.0000 0.0000 0.0000 76.7453
#
#
#
# Elastic Compliance Matrix: (Units=1/GPa)
#
#
# Indices 1 2 3 4 5 6 
#
# 1 0.010914 -0.004348 -0.001939 0.000000 0.000000 0.000000
# 2 -0.004348 0.013975 -0.004217 0.000000 0.000000 0.000000
# 3 -0.001939 -0.004217 0.011357 0.000000 0.000000 0.000000
# 4 0.000000 0.000000 0.000000 0.026515 0.000000 0.000000
# 5 0.000000 0.000000 0.000000 0.000000 -0.327726 0.000000
# 6 0.000000 0.000000 0.000000 0.000000 0.000000 0.013030
#
#
# Mechanical properties :
#
#
# Convention : Reuss Voigt Hill
#
# Bulk Modulus (GPa) = 65.62807 65.72179 65.67493
# Shear Modulus (GPa) = -22.13880 35.46742 6.66431
#
# Velocity S-wave (km/s) = -3.17547 4.01926 1.74224
# Velocity P-wave (km/s) = 4.05548 7.17452 5.82755
#
# Compressibility (1/GPa) = 0.01523738
#
# Stress axis : x y z
#
# Youngs Moduli (GPa) = 91.62814 71.55547 88.05091
#
# Poissons Ratio (x) = 0.31114 0.17070
# Poissons Ratio (y) = 0.39841 0.37135
# Poissons Ratio (z) = 0.17763 0.30178
#
# Static dielectric constant tensor:
#      x y z
#    x 4.135850 0.000000 0.000000 
#    y 0.000000 4.156550 0.000000 
#    z 0.000000 0.000000 3.997180 
# 
# 
# High freq. dielectric constant tensor:
#      x y z
#    x 1.849080 0.000000 0.000000 
#    y 0.000000 1.871790 0.000000 
#    z 0.000000 0.000000 1.860360 
# 
# From -- ./inp_files/22183.got.cif
#   From: 2010.03.12/outbox.cif.g09.slc.cpg/sg20_12_cif.got.tgz:22183.got - 2010.04.14 01:38:04.
