data_PCOD8158074
_publ_section_title
;
Structure prediction by ZEFSAII (Michael W. Deem and Ramdas Pophale) SiO2 
 PCOD8158074
Probable space group: C 2 2 21
;
_chemical_formula_sum "Si O2"
_cell_formula_units_Z 64
_cell_length_a 13.178099
_cell_length_b 27.537025
_cell_length_c 8.523586
_cell_angle_alpha 90.000000
_cell_angle_beta 90.000000
_cell_angle_gamma 90.000000
_cell_volume 3093.086974
_symmetry_space_group_name_H-M "C 2 2 21"
_symmetry_group_IT_number 20
_symmetry_cell_setting 'orthorhombic'
loop_
_space_group_symop_operation_xyz
x,y,z
-x,-y,1/2+z
x,-y,-z
-x,y,1/2-z
1/2+x,1/2+y,z
1/2-x,1/2-y,1/2+z
1/2+x,1/2-y,-z
1/2-x,1/2+y,1/2-z
loop_
_atom_site_type_symbol
_atom_site_label
_atom_site_fract_x
_atom_site_fract_y
_atom_site_fract_z
Si Si1 0.370445 0.729105 0.486227
Si Si2 0.992854 0.592026 0.936800
Si Si3 0.188843 0.771145 0.627333
Si Si4 0.534569 0.801325 0.426155
Si Si5 0.120781 0.125230 0.420392
Si Si6 0.216413 0.551910 0.442141
Si Si7 0.703773 0.947299 0.930732
Si Si8 0.894438 0.877585 0.548177
O O1 0.307121 0.765412 0.595789
O O2 0.329922 0.726537 0.310349
O O3 0.477666 0.755267 0.498967
O O4 0.377813 0.673482 0.542175
O O5 0.979896 0.646569 0.008836
O O6 0.000000 0.590621 0.750000
O O7 0.892638 0.563014 0.983507
O O8 0.093012 0.568641 0.010750
O O9 0.148428 0.718954 0.561872
O O10 0.145172 0.818538 0.536257
O O11 0.500000 0.809915 0.250000
O O12 0.209023 0.090233 0.488598
O O13 0.117430 0.125150 0.233722
O O14 0.011736 0.107337 0.489628
O O15 0.252569 0.500000 0.500000
O O16 0.204605 0.552316 0.256052
O O17 0.306250 0.586289 0.510337
O O18 0.730305 0.000000 0.000000
#
# Coordination Sequence:
#
# PCOD8158074 Si02
#       8
#     8   8   8   8   8   8   8   8
#     4  10  18  32  54  80 111 146 183 221 265 324
#     4  11  22  38  59  85 118 151 187 235 288 345
#     4  10  18  32  54  80 111 146 183 221 265 324
#     4   9  18  32  54  81 110 145 179 213 266 327
#     4   9  18  35  59  84 113 151 193 232 277 340
#     4  11  23  39  60  85 112 147 192 243 292 341
#     4  11  23  39  60  85 112 147 192 243 292 341
#     4   9  18  35  59  84 113 151 193 232 277 340
#
# _framework density 20.691302
#
# number of rings (size 3 to 8) (size 9 to 14) (size 15 to 20)
#    0.000    2.000    1.250    3.000    0.000    0.500 
#    0.000    3.125    0.000    5.250    0.000    0.000 
#    0.000    0.000    0.000    0.000    0.000    0.000 
#
# Total GULP energy -396476.614365 kJ/mol
# GULP energy per Si atom -12389.894199 kJ/mol
# Density = 2.064421 g / cm^3
# Si number density = 20.691302 Si / 1000 Ang^3
#
#
#
# Elastic Constant Matrix: (Units=GPa)
#
#
# Indices 1 2 3 4 5 6 
#
# 1 115.9469 36.5002 8.0453 0.0000 0.0000 0.0000
# 2 36.5002 127.1336 9.7851 0.0000 0.0000 0.0000
# 3 8.0453 9.7851 29.2896 0.0000 0.0000 0.0000
# 4 0.0000 0.0000 0.0000 63.6563 0.0000 0.0000
# 5 0.0000 0.0000 0.0000 0.0000 12.8468 0.0000
# 6 0.0000 0.0000 0.0000 0.0000 0.0000 -20.5820
#
#
#
# Elastic Compliance Matrix: (Units=1/GPa)
#
#
# Indices 1 2 3 4 5 6 
#
# 1 0.009569 -0.002612 -0.001756 0.000000 0.000000 0.000000
# 2 -0.002612 0.008786 -0.002218 0.000000 0.000000 0.000000
# 3 -0.001756 -0.002218 0.035365 0.000000 0.000000 0.000000
# 4 0.000000 0.000000 0.000000 0.015709 0.000000 0.000000
# 5 0.000000 0.000000 0.000000 0.000000 0.077840 0.000000
# 6 0.000000 0.000000 0.000000 0.000000 0.000000 -0.048586
#
#
# Mechanical properties :
#
#
# Convention : Reuss Voigt Hill
#
# Bulk Modulus (GPa) = 24.66162 42.33680 33.49921
# Shear Modulus (GPa) = 39.88157 25.72018 32.80087
#
# Velocity S-wave (km/s) = 4.39504 3.52951 3.98584
# Velocity P-wave (km/s) = 6.14003 6.09225 6.11618
#
# Compressibility (1/GPa) = 0.04054883
#
# Stress axis : x y z
#
# Youngs Moduli (GPa) = 104.50688 113.81261 28.27655
#
# Poissons Ratio (x) = 0.29729 0.04965
# Poissons Ratio (y) = 0.27298 0.06271
# Poissons Ratio (z) = 0.18348 0.25242
#
# Static dielectric constant tensor:
#      x y z
#    x 3.932690 0.000000 0.000000 
#    y 0.000000 4.044980 0.000000 
#    z 0.000000 0.000000 3.449900 
# 
# 
# High freq. dielectric constant tensor:
#      x y z
#    x 1.824490 0.000000 0.000000 
#    y 0.000000 1.821140 0.000000 
#    z 0.000000 0.000000 1.769260 
# 
# From -- ./inp_files/7660.got.cif
#   From: 2010.03.12/outbox.cif.g09.slc.cpg/sg20_4_cif.got.tgz:7660.got - 2010.04.14 01:38:04.
