data_PCOD8158408
_publ_section_title
;
Structure prediction by ZEFSAII (Michael W. Deem and Ramdas Pophale) SiO2 
 PCOD8158408
Probable space group: C 2 2 21
;
_chemical_formula_sum "Si O2"
_cell_formula_units_Z 48
_cell_length_a 18.788019
_cell_length_b 8.348205
_cell_length_c 15.784532
_cell_angle_alpha 90.000000
_cell_angle_beta 90.000000
_cell_angle_gamma 90.000000
_cell_volume 2475.744402
_symmetry_space_group_name_H-M "C 2 2 21"
_symmetry_group_IT_number 20
_symmetry_cell_setting 'orthorhombic'
loop_
_space_group_symop_operation_xyz
x,y,z
-x,-y,1/2+z
x,-y,-z
-x,y,1/2-z
1/2+x,1/2+y,z
1/2-x,1/2-y,1/2+z
1/2+x,1/2-y,-z
1/2-x,1/2+y,1/2-z
loop_
_atom_site_type_symbol
_atom_site_label
_atom_site_fract_x
_atom_site_fract_y
_atom_site_fract_z
Si Si1 0.109414 0.752316 0.943513
Si Si2 0.169512 0.000000 0.500000
Si Si3 0.004752 0.500000 0.000000
Si Si4 0.574935 0.737988 0.591914
Si Si5 0.574964 0.590540 0.883569
Si Si6 0.167504 0.256501 0.750647
Si Si7 0.272254 0.945817 0.350860
O O1 0.182172 0.676424 0.908686
O O2 0.083758 0.899631 0.886660
O O3 0.115406 0.816845 0.039917
O O4 0.051734 0.612054 0.939371
O O5 0.119156 0.152910 0.516725
O O6 0.215779 0.971328 0.585233
O O7 0.955151 0.595770 0.061935
O O8 0.509372 0.624648 0.620101
O O9 0.627046 0.797954 0.664904
O O10 0.613280 0.642148 0.798843
O O11 0.237915 0.157100 0.725386
O O12 0.183224 0.414244 0.805784
#
# Coordination Sequence:
#
# PCOD8158408 Si02
#       7
#     8   4   4   8   8   8   8
#     4  10  20  36  61  82 108 148 189 227 272 338
#     4  10  21  38  58  76 109 150 188 226 268 334
#     4  10  19  36  60  84 107 138 188 234 274 332
#     4  10  21  37  58  84 110 144 184 233 285 327
#     4  10  20  38  60  84 111 145 188 233 283 333
#     4  11  23  37  56  81 118 148 183 235 282 337
#     4  11  22  38  56  83 113 152 190 226 282 333
#
# _framework density 19.388109
#
# number of rings (size 3 to 8) (size 9 to 14) (size 15 to 20)
#    0.000    1.667    0.000    7.000    0.000    1.333 
#    0.000   10.000    0.000    0.000    0.000    0.000 
#    0.000    0.000    0.000    0.000    0.000    0.000 
#
# Total GULP energy -297539.775143 kJ/mol
# GULP energy per Si atom -12397.490631 kJ/mol
# Density = 1.934398 g / cm^3
# Si number density = 19.388109 Si / 1000 Ang^3
#
#
#
# Elastic Constant Matrix: (Units=GPa)
#
#
# Indices 1 2 3 4 5 6 
#
# 1 107.4776 59.0755 36.2628 0.0000 0.0000 0.0000
# 2 59.0755 129.1867 37.1416 0.0000 0.0000 0.0000
# 3 36.2628 37.1416 56.1995 0.0000 0.0000 0.0000
# 4 0.0000 0.0000 0.0000 20.5424 0.0000 0.0000
# 5 0.0000 0.0000 0.0000 0.0000 35.9256 0.0000
# 6 0.0000 0.0000 0.0000 0.0000 0.0000 7.3972
#
#
#
# Elastic Compliance Matrix: (Units=1/GPa)
#
#
# Indices 1 2 3 4 5 6 
#
# 1 0.013832 -0.004641 -0.005858 0.000000 0.000000 0.000000
# 2 -0.004641 0.011114 -0.004350 0.000000 0.000000 0.000000
# 3 -0.005858 -0.004350 0.024449 0.000000 0.000000 0.000000
# 4 0.000000 0.000000 0.000000 0.048680 0.000000 0.000000
# 5 0.000000 0.000000 0.000000 0.000000 0.027835 0.000000
# 6 0.000000 0.000000 0.000000 0.000000 0.000000 0.135185
#
#
# Mechanical properties :
#
#
# Convention : Reuss Voigt Hill
#
# Bulk Modulus (GPa) = 50.77209 61.98038 56.37623
# Shear Modulus (GPa) = 16.81477 23.46529 20.14003
#
# Velocity S-wave (km/s) = 2.94814 3.48270 3.22651
# Velocity P-wave (km/s) = 6.15084 6.94334 6.55907
#
# Compressibility (1/GPa) = 0.01969586
#
# Stress axis : x y z
#
# Youngs Moduli (GPa) = 72.29857 89.97899 40.90223
#
# Poissons Ratio (x) = 0.41758 0.23959
# Poissons Ratio (y) = 0.33553 0.17794
# Poissons Ratio (z) = 0.42350 0.39144
#
# Static dielectric constant tensor:
#      x y z
#    x 3.674130 0.000000 0.000000 
#    y 0.000000 3.710510 0.000000 
#    z 0.000000 0.000000 3.774050 
# 
# 
# High freq. dielectric constant tensor:
#      x y z
#    x 1.764120 0.000000 0.000000 
#    y 0.000000 1.758650 0.000000 
#    z 0.000000 0.000000 1.752580 
# 
# From -- ./inp_files/21322.got.cif
#   From: 2010.03.12/outbox.cif.g09.slc.cpg/sg20_11_cif.got.tgz:21322.got - 2010.04.14 01:38:04.
