data_PCOD8158457
_publ_section_title
;
Structure prediction by ZEFSAII (Michael W. Deem and Ramdas Pophale) SiO2 
 PCOD8158457
Probable space group: C 2 2 21
;
_chemical_formula_sum "Si O2"
_cell_formula_units_Z 32
_cell_length_a 8.075090
_cell_length_b 34.807098
_cell_length_c 5.240047
_cell_angle_alpha 90.000000
_cell_angle_beta 90.000000
_cell_angle_gamma 90.000000
_cell_volume 1472.822363
_symmetry_space_group_name_H-M "C 2 2 21"
_symmetry_group_IT_number 20
_symmetry_cell_setting 'orthorhombic'
loop_
_space_group_symop_operation_xyz
x,y,z
-x,-y,1/2+z
x,-y,-z
-x,y,1/2-z
1/2+x,1/2+y,z
1/2-x,1/2-y,1/2+z
1/2+x,1/2-y,-z
1/2-x,1/2+y,1/2-z
loop_
_atom_site_type_symbol
_atom_site_label
_atom_site_fract_x
_atom_site_fract_y
_atom_site_fract_z
Si Si1 0.892034 0.543495 0.999243
Si Si2 0.166561 0.237419 0.372576
Si Si3 0.307115 0.616696 0.508991
Si Si4 0.172751 0.850618 0.511775
O O1 0.000000 0.551804 0.250000
O O2 0.823644 0.500000 0.000000
O O3 0.732936 0.571416 0.986990
O O4 0.000000 0.551406 0.750000
O O5 0.205237 0.260759 0.633771
O O6 0.135286 0.194241 0.466875
O O7 0.000000 0.255111 0.250000
O O8 0.228345 0.638898 0.753571
O O9 0.503055 0.624740 0.499470
O O10 0.223238 0.635230 0.256589
#
# Coordination Sequence:
#
# PCOD8158457 Si02
#       4
#     8   8   8   8
#     4  10  21  38  59  91 131 166 203 255 313 379
#     4  12  25  44  70  94 130 175 218 278 353 400
#     4  10  19  37  65  86 116 168 202 250 319 368
#     4  10  21  39  64  83 119 155 208 262 311 375
#
# _framework density 21.726994000000001
#
# number of rings (size 3 to 8) (size 9 to 14) (size 15 to 20)
#    0.000    1.500    2.500    3.750    3.500    0.000 
#    0.000   17.500    0.000    0.000    0.000    0.000 
#    0.000    0.000    0.000    0.000    0.000    0.000 
#
# Total GULP energy -198238.798557 kJ/mol
# GULP energy per Si atom -12389.924910 kJ/mol
# Density = 2.167754 g / cm^3
# Si number density = 21.726994 Si / 1000 Ang^3
#
#
#
# Elastic Constant Matrix: (Units=GPa)
#
#
# Indices 1 2 3 4 5 6 
#
# 1 54.1257 58.6664 22.9435 0.0000 0.0000 0.0000
# 2 58.6664 135.2801 56.5886 0.0000 0.0000 0.0000
# 3 22.9435 56.5886 229.7864 0.0000 0.0000 0.0000
# 4 0.0000 0.0000 0.0000 52.6739 0.0000 0.0000
# 5 0.0000 0.0000 0.0000 0.0000 18.2283 0.0000
# 6 0.0000 0.0000 0.0000 0.0000 0.0000 18.1710
#
#
#
# Elastic Compliance Matrix: (Units=1/GPa)
#
#
# Indices 1 2 3 4 5 6 
#
# 1 0.034878 -0.015238 0.000270 0.000000 0.000000 0.000000
# 2 -0.015238 0.014899 -0.002148 0.000000 0.000000 0.000000
# 3 0.000270 -0.002148 0.004854 0.000000 0.000000 0.000000
# 4 0.000000 0.000000 0.000000 0.018985 0.000000 0.000000
# 5 0.000000 0.000000 0.000000 0.000000 0.054860 0.000000
# 6 0.000000 0.000000 0.000000 0.000000 0.000000 0.055033
#
#
# Mechanical properties :
#
#
# Convention : Reuss Voigt Hill
#
# Bulk Modulus (GPa) = 49.02227 77.28770 63.15498
# Shear Modulus (GPa) = 22.26794 36.54756 29.40775
#
# Velocity S-wave (km/s) = 3.20488 4.10582 3.68300
# Velocity P-wave (km/s) = 6.02551 7.62407 6.87144
#
# Compressibility (1/GPa) = 0.02039889
#
# Stress axis : x y z
#
# Youngs Moduli (GPa) = 28.67173 67.11988 206.02610
#
# Poissons Ratio (x) = 1.02279 -0.05568
# Poissons Ratio (y) = 0.43691 0.44245
# Poissons Ratio (z) = -0.00775 0.14414
#
# Static dielectric constant tensor:
#      x y z
#    x 3.408850 0.000000 0.000000 
#    y 0.000000 3.842520 0.000000 
#    z 0.000000 0.000000 6.587330 
# 
# 
# High freq. dielectric constant tensor:
#      x y z
#    x 1.800240 0.000000 0.000000 
#    y 0.000000 1.848030 0.000000 
#    z 0.000000 0.000000 1.905310 
# 
# From -- ./inp_files/546.got.cif
#   From: 2010.03.12/outbox.cif.g09.slc.cpg/sg20_1_cif.got.tgz:546.got - 2010.04.14 01:38:04.
