data_PCOD8158724
_publ_section_title
;
Structure prediction by ZEFSAII (Michael W. Deem and Ramdas Pophale) SiO2 
 PCOD8158724
Probable space group: C 2 2 21
;
_chemical_formula_sum "Si O2"
_cell_formula_units_Z 44
_cell_length_a 21.711142
_cell_length_b 9.291129
_cell_length_c 10.844822
_cell_angle_alpha 90.000000
_cell_angle_beta 90.000000
_cell_angle_gamma 90.000000
_cell_volume 2187.628567
_symmetry_space_group_name_H-M "C 2 2 21"
_symmetry_group_IT_number 20
_symmetry_cell_setting 'orthorhombic'
loop_
_space_group_symop_operation_xyz
x,y,z
-x,-y,1/2+z
x,-y,-z
-x,y,1/2-z
1/2+x,1/2+y,z
1/2-x,1/2-y,1/2+z
1/2+x,1/2-y,-z
1/2-x,1/2+y,1/2-z
loop_
_atom_site_type_symbol
_atom_site_label
_atom_site_fract_x
_atom_site_fract_y
_atom_site_fract_z
Si Si1 0.969306 0.859641 0.130388
Si Si2 0.615004 0.400542 0.745517
Si Si3 0.227855 0.946308 0.362945
Si Si4 0.427635 0.500000 0.500000
Si Si5 0.854094 0.311967 0.919408
Si Si6 0.657430 0.895221 0.312704
O O1 0.919383 0.765423 0.059377
O O2 0.000000 0.785236 0.250000
O O3 0.938368 0.014804 0.169985
O O4 0.026251 0.872650 0.037981
O O5 0.683188 0.432735 0.693834
O O6 0.614853 0.446942 0.888411
O O7 0.609057 0.225880 0.736469
O O8 0.192415 0.795350 0.353044
O O9 0.287236 0.918373 0.281364
O O10 0.246164 0.000000 0.500000
O O11 0.871276 0.446081 0.830908
O O12 0.822113 0.350154 0.049151
#
# Coordination Sequence:
#
# PCOD8158724 Si02
#       6
#     8   8   8   4   8   8
#     4   9  19  39  63  86 119 158 200 250 306 356
#     4  10  21  39  62  91 121 154 207 251 298 365
#     4  11  22  39  59  83 121 167 197 242 299 371
#     4  10  20  36  66  94 110 156 212 260 286 368
#     4  10  22  38  61  84 124 156 200 252 304 364
#     4  11  22  38  58  91 120 160 198 250 310 358
#
# _framework density 20.113102999999999
#
# number of rings (size 3 to 8) (size 9 to 14) (size 15 to 20)
#    0.000    1.818    1.818    2.182    2.545    2.909 
#    6.545    6.364    0.000    0.000    0.000    0.000 
#    0.000    0.000    0.000    0.000    0.000    0.000 
#
# Total GULP energy -272559.251968 kJ/mol
# GULP energy per Si atom -12389.056908 kJ/mol
# Density = 2.006732 g / cm^3
# Si number density = 20.113103 Si / 1000 Ang^3
#
#
#
# Elastic Constant Matrix: (Units=GPa)
#
#
# Indices 1 2 3 4 5 6 
#
# 1 68.1548 20.1553 48.0115 0.0000 0.0000 0.0000
# 2 20.1553 121.2307 40.5196 0.0000 0.0000 0.0000
# 3 48.0115 40.5196 118.0916 0.0000 0.0000 0.0000
# 4 0.0000 0.0000 0.0000 28.7059 0.0000 0.0000
# 5 0.0000 0.0000 0.0000 0.0000 29.8022 0.0000
# 6 0.0000 0.0000 0.0000 0.0000 0.0000 7.2721
#
#
#
# Elastic Compliance Matrix: (Units=1/GPa)
#
#
# Indices 1 2 3 4 5 6 
#
# 1 0.020615 -0.000707 -0.008139 0.000000 0.000000 0.000000
# 2 -0.000707 0.009342 -0.002918 0.000000 0.000000 0.000000
# 3 -0.008139 -0.002918 0.012778 0.000000 0.000000 0.000000
# 4 0.000000 0.000000 0.000000 0.034836 0.000000 0.000000
# 5 0.000000 0.000000 0.000000 0.000000 0.033555 0.000000
# 6 0.000000 0.000000 0.000000 0.000000 0.000000 0.137513
#
#
# Mechanical properties :
#
#
# Convention : Reuss Voigt Hill
#
# Bulk Modulus (GPa) = 52.06333 58.31663 55.18998
# Shear Modulus (GPa) = 17.94901 26.40874 22.17888
#
# Velocity S-wave (km/s) = 2.99055 3.62748 3.32431
# Velocity P-wave (km/s) = 6.15354 6.82657 6.49877
#
# Compressibility (1/GPa) = 0.01920738
#
# Stress axis : x y z
#
# Youngs Moduli (GPa) = 48.50892 107.04890 78.25975
#
# Poissons Ratio (x) = 0.07570 0.63692
# Poissons Ratio (y) = 0.03430 0.22834
# Poissons Ratio (z) = 0.39479 0.31234
#
# Static dielectric constant tensor:
#      x y z
#    x 3.434100 0.000000 0.000000 
#    y 0.000000 3.892920 0.000000 
#    z 0.000000 0.000000 4.016480 
# 
# 
# High freq. dielectric constant tensor:
#      x y z
#    x 1.760230 0.000000 0.000000 
#    y 0.000000 1.782770 0.000000 
#    z 0.000000 0.000000 1.796320 
# 
# From -- ./inp_files/16616.got.cif
#   From: 2010.03.12/outbox.cif.g09.slc.cpg/sg20_9_cif.got.tgz:16616.got - 2010.04.14 01:38:04.
