data_PCOD8158672
_publ_section_title
;
Structure prediction by ZEFSAII (Michael W. Deem and Ramdas Pophale) SiO2 
 PCOD8158672
Probable space group: C 2 2 21
;
_chemical_formula_sum "Si O2"
_cell_formula_units_Z 60
_cell_length_a 11.592958
_cell_length_b 8.316329
_cell_length_c 31.549831
_cell_angle_alpha 90.000000
_cell_angle_beta 90.000000
_cell_angle_gamma 90.000000
_cell_volume 3041.746113
_symmetry_space_group_name_H-M "C 2 2 21"
_symmetry_group_IT_number 20
_symmetry_cell_setting 'orthorhombic'
loop_
_space_group_symop_operation_xyz
x,y,z
-x,-y,1/2+z
x,-y,-z
-x,y,1/2-z
1/2+x,1/2+y,z
1/2-x,1/2-y,1/2+z
1/2+x,1/2-y,-z
1/2-x,1/2+y,1/2-z
loop_
_atom_site_type_symbol
_atom_site_label
_atom_site_fract_x
_atom_site_fract_y
_atom_site_fract_z
Si Si1 0.137657 0.489074 0.633777
Si Si2 0.732225 0.775923 0.432645
Si Si3 0.978748 0.695379 0.798336
Si Si4 0.533155 0.906666 0.937391
Si Si5 0.506606 0.756356 0.476097
Si Si6 0.374749 0.504095 0.766669
Si Si7 0.274458 0.291493 0.694731
Si Si8 0.664731 0.500000 0.000000
O O1 0.201411 0.638761 0.611478
O O2 0.078408 0.551956 0.676385
O O3 0.227232 0.357743 0.650264
O O4 0.046783 0.397055 0.603876
O O5 0.838510 0.655850 0.426391
O O6 0.620907 0.686927 0.452939
O O7 0.753538 0.914701 0.466706
O O8 0.000000 0.640817 0.750000
O O9 0.102981 0.721332 0.819426
O O10 0.900174 0.857502 0.799575
O O11 0.544526 0.090109 0.951830
O O12 0.474869 0.798204 0.974136
O O13 0.412477 0.618458 0.471955
O O14 0.500000 0.564088 0.750000
O O15 0.293587 0.433482 0.729232
O O16 0.309930 0.652410 0.787990
#
# Coordination Sequence:
#
# PCOD8158672 Si02
#       8
#     8   8   8   8   8   8   8   4
#     4  11  22  36  55  83 115 146 182 229 280 330
#     4  10  21  38  56  80 115 146 179 230 275 320
#     4   9  21  39  55  78 108 143 191 230 270 335
#     4   9  20  37  57  84 115 145 184 227 274 332
#     4   9  19  38  59  82 110 147 189 222 268 335
#     4   9  20  37  58  82 103 138 191 231 270 331
#     4  10  20  36  58  79 109 145 178 231 281 318
#     4  10  20  36  62  82 104 146 186 224 276 330
#
# _framework density 19.725511999999998
#
# number of rings (size 3 to 8) (size 9 to 14) (size 15 to 20)
#    0.000    2.667    0.000    3.200    0.000    9.067 
#    0.000    6.667    0.000    0.000    0.000    0.000 
#    0.000    0.000    0.000    0.000    0.000    0.000 
#
# Total GULP energy -371901.840314 kJ/mol
# GULP energy per Si atom -12396.728010 kJ/mol
# Density = 1.968062 g / cm^3
# Si number density = 19.725512 Si / 1000 Ang^3
#
#
#
# Elastic Constant Matrix: (Units=GPa)
#
#
# Indices 1 2 3 4 5 6 
#
# 1 80.7787 16.7557 33.1705 0.0000 0.0000 0.0000
# 2 16.7557 34.2755 19.7356 0.0000 0.0000 0.0000
# 3 33.1705 19.7356 77.7690 0.0000 0.0000 0.0000
# 4 0.0000 0.0000 0.0000 19.8831 0.0000 0.0000
# 5 0.0000 0.0000 0.0000 0.0000 30.2875 0.0000
# 6 0.0000 0.0000 0.0000 0.0000 0.0000 18.7380
#
#
#
# Elastic Compliance Matrix: (Units=1/GPa)
#
#
# Indices 1 2 3 4 5 6 
#
# 1 0.015563 -0.004434 -0.005513 0.000000 0.000000 0.000000
# 2 -0.004434 0.035431 -0.007100 0.000000 0.000000 0.000000
# 3 -0.005513 -0.007100 0.017012 0.000000 0.000000 0.000000
# 4 0.000000 0.000000 0.000000 0.050294 0.000000 0.000000
# 5 0.000000 0.000000 0.000000 0.000000 0.033017 0.000000
# 6 0.000000 0.000000 0.000000 0.000000 0.000000 0.053368
#
#
# Mechanical properties :
#
#
# Convention : Reuss Voigt Hill
#
# Bulk Modulus (GPa) = 29.48802 36.90521 33.19662
# Shear Modulus (GPa) = 19.99344 21.99247 20.99296
#
# Velocity S-wave (km/s) = 3.18714 3.34267 3.26583
# Velocity P-wave (km/s) = 5.34092 5.80068 5.57554
#
# Compressibility (1/GPa) = 0.03391207
#
# Stress axis : x y z
#
# Youngs Moduli (GPa) = 64.25511 28.22379 58.78267
#
# Poissons Ratio (x) = 0.12514 0.32406
# Poissons Ratio (y) = 0.28489 0.41737
# Poissons Ratio (z) = 0.35423 0.20040
#
# Static dielectric constant tensor:
#      x y z
#    x 3.724020 0.000000 0.000000 
#    y 0.000000 3.438360 0.000000 
#    z 0.000000 0.000000 3.497330 
# 
# 
# High freq. dielectric constant tensor:
#      x y z
#    x 1.782370 0.000000 0.000000 
#    y 0.000000 1.756810 0.000000 
#    z 0.000000 0.000000 1.759990 
# 
# From -- ./inp_files/31179.got.cif
#   From: 2010.03.12/outbox.cif.g09.slc.cpg/sg20_16_cif.got.tgz:31179.got - 2010.04.14 01:38:04.
