data_PCOD8158249
_publ_section_title
;
Structure prediction by ZEFSAII (Michael W. Deem and Ramdas Pophale) SiO2 
 PCOD8158249
Probable space group: C 2 2 21
;
_chemical_formula_sum "Si O2"
_cell_formula_units_Z 52
_cell_length_a 16.423380
_cell_length_b 17.643581
_cell_length_c 9.142681
_cell_angle_alpha 90.000000
_cell_angle_beta 90.000000
_cell_angle_gamma 90.000000
_cell_volume 2649.249397
_symmetry_space_group_name_H-M "C 2 2 21"
_symmetry_group_IT_number 20
_symmetry_cell_setting 'orthorhombic'
loop_
_space_group_symop_operation_xyz
x,y,z
-x,-y,1/2+z
x,-y,-z
-x,y,1/2-z
1/2+x,1/2+y,z
1/2-x,1/2-y,1/2+z
1/2+x,1/2-y,-z
1/2-x,1/2+y,1/2-z
loop_
_atom_site_type_symbol
_atom_site_label
_atom_site_fract_x
_atom_site_fract_y
_atom_site_fract_z
Si Si1 0.719137 0.924209 0.083620
Si Si2 0.500000 0.559353 0.250000
Si Si3 0.600010 0.577666 0.673774
Si Si4 0.500000 0.864574 0.250000
Si Si5 0.591423 0.191941 0.006120
Si Si6 0.118986 0.520419 0.655259
Si Si7 0.946960 0.860607 0.464277
Si Si8 0.500000 0.895053 0.750000
O O1 0.815228 0.911307 0.091564
O O2 0.686092 0.938439 0.246184
O O3 0.677827 0.853152 0.998041
O O4 0.695764 0.000000 0.000000
O O5 0.436349 0.507635 0.156482
O O6 0.449551 0.608785 0.368698
O O7 0.606371 0.589471 0.850241
O O8 0.539547 0.639501 0.599407
O O9 0.440786 0.811335 0.340577
O O10 0.453879 0.919119 0.134023
O O11 0.599332 0.280213 0.041853
O O12 0.524616 0.157182 0.114273
O O13 0.159403 0.500000 0.500000
O O14 0.080850 0.444136 0.721548
#
# Coordination Sequence:
#
# PCOD8158249 Si02
#       8
#     8   4   8   4   8   8   8   4
#     4  11  22  38  58  93 125 161 201 262 309 360
#     4  10  19  39  71  91 106 156 212 260 299 363
#     4  10  21  41  64  88 121 151 212 260 309 360
#     4   9  19  30  50  79 115 154 198 246 276 366
#     4  11  21  36  60  87 124 161 201 246 312 374
#     4  10  19  31  51  82 115 156 206 242 292 351
#     4  10  21  39  64  92 115 164 206 251 306 379
#     4  11  18  33  55  80 119 164 202 236 289 383
#
# _framework density 19.6282
#
# number of rings (size 3 to 8) (size 9 to 14) (size 15 to 20)
#    0.000    1.846    3.077    4.154    0.000    1.231 
#    0.000    6.154    0.000    0.000    0.000    0.000 
#    0.000    0.000    0.000    0.000    0.000    0.000 
#
# Total GULP energy -322177.403296 kJ/mol
# GULP energy per Si atom -12391.438588 kJ/mol
# Density = 1.958353 g / cm^3
# Si number density = 19.628200 Si / 1000 Ang^3
#
#
#
# Elastic Constant Matrix: (Units=GPa)
#
#
# Indices 1 2 3 4 5 6 
#
# 1 93.6664 31.5104 10.4634 0.0000 0.0000 0.0000
# 2 31.5104 102.8445 20.1548 0.0000 0.0000 0.0000
# 3 10.4634 20.1548 74.6607 0.0000 0.0000 0.0000
# 4 0.0000 0.0000 0.0000 26.8933 0.0000 0.0000
# 5 0.0000 0.0000 0.0000 0.0000 27.0731 0.0000
# 6 0.0000 0.0000 0.0000 0.0000 0.0000 16.4505
#
#
#
# Elastic Compliance Matrix: (Units=1/GPa)
#
#
# Indices 1 2 3 4 5 6 
#
# 1 0.011940 -0.003516 -0.000724 0.000000 0.000000 0.000000
# 2 -0.003516 0.011302 -0.002558 0.000000 0.000000 0.000000
# 3 -0.000724 -0.002558 0.014186 0.000000 0.000000 0.000000
# 4 0.000000 0.000000 0.000000 0.037184 0.000000 0.000000
# 5 0.000000 0.000000 0.000000 0.000000 0.036937 0.000000
# 6 0.000000 0.000000 0.000000 0.000000 0.000000 0.060788
#
#
# Mechanical properties :
#
#
# Convention : Reuss Voigt Hill
#
# Bulk Modulus (GPa) = 41.96257 43.93653 42.94955
# Shear Modulus (GPa) = 25.78933 28.01958 26.90445
#
# Velocity S-wave (km/s) = 3.62870 3.78235 3.70632
# Velocity P-wave (km/s) = 6.24353 6.44266 6.34388
#
# Compressibility (1/GPa) = 0.02383076
#
# Stress axis : x y z
#
# Youngs Moduli (GPa) = 83.75186 88.47876 70.49203
#
# Poissons Ratio (x) = 0.31113 0.05104
# Poissons Ratio (y) = 0.29450 0.18033
# Poissons Ratio (z) = 0.06064 0.22635
#
# Static dielectric constant tensor:
#      x y z
#    x 3.255540 0.000000 0.000000 
#    y 0.000000 3.470890 0.000000 
#    z 0.000000 0.000000 3.628450 
# 
# 
# High freq. dielectric constant tensor:
#      x y z
#    x 1.732970 0.000000 0.000000 
#    y 0.000000 1.751830 0.000000 
#    z 0.000000 0.000000 1.777570 
# 
# From -- ./inp_files/9555.got.cif
#   From: 2010.03.12/outbox.cif.g09.slc.cpg/sg20_5_cif.got.tgz:9555.got - 2010.04.14 01:38:04.
