data_PCOD8158392
_publ_section_title
;
Structure prediction by ZEFSAII (Michael W. Deem and Ramdas Pophale) SiO2 
 PCOD8158392
Probable space group: C 2 2 21
;
_chemical_formula_sum "Si O2"
_cell_formula_units_Z 56
_cell_length_a 13.073127
_cell_length_b 7.843256
_cell_length_c 29.887653
_cell_angle_alpha 90.000000
_cell_angle_beta 90.000000
_cell_angle_gamma 90.000000
_cell_volume 3064.556855
_symmetry_space_group_name_H-M "C 2 2 21"
_symmetry_group_IT_number 20
_symmetry_cell_setting 'orthorhombic'
loop_
_space_group_symop_operation_xyz
x,y,z
-x,-y,1/2+z
x,-y,-z
-x,y,1/2-z
1/2+x,1/2+y,z
1/2-x,1/2-y,1/2+z
1/2+x,1/2-y,-z
1/2-x,1/2+y,1/2-z
loop_
_atom_site_type_symbol
_atom_site_label
_atom_site_fract_x
_atom_site_fract_y
_atom_site_fract_z
Si Si1 0.385382 0.288600 0.549277
Si Si2 0.275144 0.546480 0.798340
Si Si3 0.765736 0.500000 0.000000
Si Si4 0.881931 0.732956 0.651359
Si Si5 0.623205 0.709104 0.448719
Si Si6 0.775431 0.424603 0.800177
Si Si7 0.772703 0.500000 0.500000
Si Si8 0.883947 0.263076 0.154481
O O1 0.310168 0.448703 0.540894
O O2 0.367481 0.216117 0.598489
O O3 0.504417 0.337875 0.542099
O O4 0.349647 0.149569 0.513313
O O5 0.167744 0.566253 0.825077
O O6 0.254804 0.485255 0.748665
O O7 0.329159 0.735549 0.797792
O O8 0.341042 0.408153 0.824035
O O9 0.841951 0.354183 0.016737
O O10 0.827401 0.904791 0.669971
O O11 0.997848 0.743621 0.665609
O O12 0.697068 0.548191 0.458659
O O13 0.639593 0.769006 0.398043
O O14 0.845802 0.563431 0.823399
#
# Coordination Sequence:
#
# PCOD8158392 Si02
#       8
#     8   8   4   8   8   8   4   8
#     4  10  19  36  54  79 116 141 183 231 269 327
#     4  10  21  38  59  84 112 147 189 235 282 341
#     4  10  20  34  56  84 108 148 184 222 278 326
#     4   9  22  37  57  84 114 150 188 235 278 337
#     4  10  21  34  58  81 110 149 183 225 277 331
#     4  10  21  38  59  84 112 147 189 235 282 341
#     4  10  20  34  56  84 108 148 184 222 278 326
#     4  11  20  41  59  82 118 150 186 235 286 329
#
# _framework density 18.273443
#
# number of rings (size 3 to 8) (size 9 to 14) (size 15 to 20)
#    0.857    1.143    1.429    2.571    0.000    2.286 
#    2.571    1.429   12.571    0.000    0.000    0.000 
#    0.000    0.000    0.000    0.000    0.000    0.000 
#
# Total GULP energy -346988.173959 kJ/mol
# GULP energy per Si atom -12392.434784 kJ/mol
# Density = 1.823185 g / cm^3
# Si number density = 18.273443 Si / 1000 Ang^3
#
#
#
# Elastic Constant Matrix: (Units=GPa)
#
#
# Indices 1 2 3 4 5 6 
#
# 1 99.6678 30.0145 43.6327 0.0000 0.0000 0.0000
# 2 30.0145 94.0446 16.1249 0.0000 0.0000 0.0000
# 3 43.6327 16.1249 88.2979 0.0000 0.0000 0.0000
# 4 0.0000 0.0000 0.0000 46.3340 0.0000 0.0000
# 5 0.0000 0.0000 0.0000 0.0000 14.7387 0.0000
# 6 0.0000 0.0000 0.0000 0.0000 0.0000 34.5893
#
#
#
# Elastic Compliance Matrix: (Units=1/GPa)
#
#
# Indices 1 2 3 4 5 6 
#
# 1 0.013742 -0.003326 -0.006183 0.000000 0.000000 0.000000
# 2 -0.003326 0.011782 -0.000508 0.000000 0.000000 0.000000
# 3 -0.006183 -0.000508 0.014474 0.000000 0.000000 0.000000
# 4 0.000000 0.000000 0.000000 0.021582 0.000000 0.000000
# 5 0.000000 0.000000 0.000000 0.000000 0.067849 0.000000
# 6 0.000000 0.000000 0.000000 0.000000 0.000000 0.028911
#
#
# Mechanical properties :
#
#
# Convention : Reuss Voigt Hill
#
# Bulk Modulus (GPa) = 50.09253 51.28381 50.68817
# Shear Modulus (GPa) = 27.02309 31.94827 29.48568
#
# Velocity S-wave (km/s) = 3.84971 4.18586 4.02130
# Velocity P-wave (km/s) = 6.87260 7.17548 7.02567
#
# Compressibility (1/GPa) = 0.01996306
#
# Stress axis : x y z
#
# Youngs Moduli (GPa) = 72.77130 84.87708 69.09152
#
# Poissons Ratio (x) = 0.28226 0.42721
# Poissons Ratio (y) = 0.24200 0.03512
# Poissons Ratio (z) = 0.44996 0.04314
#
# Static dielectric constant tensor:
#      x y z
#    x 3.331780 0.000000 0.000000 
#    y 0.000000 3.321570 0.000000 
#    z 0.000000 0.000000 3.429220 
# 
# 
# High freq. dielectric constant tensor:
#      x y z
#    x 1.705060 0.000000 0.000000 
#    y 0.000000 1.705490 0.000000 
#    z 0.000000 0.000000 1.719910 
# 
# From -- ./inp_files/31322.got.cif
#   From: 2010.03.12/outbox.cif.g09.slc.cpg/sg20_16_cif.got.tgz:31322.got - 2010.04.14 01:38:04.
