data_PCOD8158708
_publ_section_title
;
Structure prediction by ZEFSAII (Michael W. Deem and Ramdas Pophale) SiO2 
 PCOD8158708
Probable space group: C 2 2 21
;
_chemical_formula_sum "Si O2"
_cell_formula_units_Z 52
_cell_length_a 8.813249
_cell_length_b 17.761460
_cell_length_c 16.456747
_cell_angle_alpha 90.000000
_cell_angle_beta 90.000000
_cell_angle_gamma 90.000000
_cell_volume 2576.076139
_symmetry_space_group_name_H-M "C 2 2 21"
_symmetry_group_IT_number 20
_symmetry_cell_setting 'orthorhombic'
loop_
_space_group_symop_operation_xyz
x,y,z
-x,-y,1/2+z
x,-y,-z
-x,y,1/2-z
1/2+x,1/2+y,z
1/2-x,1/2-y,1/2+z
1/2+x,1/2-y,-z
1/2-x,1/2+y,1/2-z
loop_
_atom_site_type_symbol
_atom_site_label
_atom_site_fract_x
_atom_site_fract_y
_atom_site_fract_z
Si Si1 0.323285 0.707498 0.832783
Si Si2 0.179395 0.000000 0.500000
Si Si3 0.355924 0.660938 0.653768
Si Si4 0.099339 0.835348 0.831064
Si Si5 0.331799 0.848803 0.471437
Si Si6 0.956566 0.998724 0.345499
Si Si7 0.604853 0.239939 0.553997
O O1 0.347771 0.666118 0.749303
O O2 0.489475 0.703268 0.877506
O O3 0.260971 0.792953 0.821546
O O4 0.195800 0.653599 0.874380
O O5 0.290512 0.928248 0.510332
O O6 0.089376 0.997544 0.414468
O O7 0.354147 0.572525 0.629734
O O8 0.206771 0.698793 0.619839
O O9 0.000000 0.828840 0.750000
O O10 0.005357 0.800502 0.904981
O O11 0.133251 0.922399 0.853395
O O12 0.503657 0.823874 0.492327
O O13 0.214199 0.781666 0.492471
O O14 0.000000 0.989865 0.250000
#
# Coordination Sequence:
#
# PCOD8158708 Si02
#       7
#     8   4   8   8   8   8   8
#     4  10  20  36  62  90 123 159 209 260 305 379
#     4  12  22  42  62  92 128 172 204 276 324 380
#     4  11  20  39  62  92 122 166 210 258 315 378
#     4  10  20  37  61  93 125 164 212 259 318 372
#     4  11  23  39  60  89 122 162 208 258 321 373
#     4  11  22  38  65  95 129 169 214 258 322 391
#     4  11  23  39  62  90 124 164 210 261 310 389
#
# _framework density 20.185738000000001
#
# number of rings (size 3 to 8) (size 9 to 14) (size 15 to 20)
#    0.000    1.231    6.154    0.923    0.000    0.000 
#    0.000    5.385    0.000    5.538    0.000    0.000 
#    0.000    0.000    0.000    0.000    0.000    0.000 
#
# Total GULP energy -322108.332165 kJ/mol
# GULP energy per Si atom -12388.782006 kJ/mol
# Density = 2.013979 g / cm^3
# Si number density = 20.185738 Si / 1000 Ang^3
#
#
#
# Elastic Constant Matrix: (Units=GPa)
#
#
# Indices 1 2 3 4 5 6 
#
# 1 99.8713 59.1309 18.7641 0.0000 0.0000 0.0000
# 2 59.1309 152.0382 12.3235 0.0000 0.0000 0.0000
# 3 18.7641 12.3235 53.9201 0.0000 0.0000 0.0000
# 4 0.0000 0.0000 0.0000 23.5111 0.0000 0.0000
# 5 0.0000 0.0000 0.0000 0.0000 29.0094 0.0000
# 6 0.0000 0.0000 0.0000 0.0000 0.0000 20.1750
#
#
#
# Elastic Compliance Matrix: (Units=1/GPa)
#
#
# Indices 1 2 3 4 5 6 
#
# 1 0.013664 -0.005022 -0.003607 0.000000 0.000000 0.000000
# 2 -0.005022 0.008547 -0.000206 0.000000 0.000000 0.000000
# 3 -0.003607 -0.000206 0.019848 0.000000 0.000000 0.000000
# 4 0.000000 0.000000 0.000000 0.042533 0.000000 0.000000
# 5 0.000000 0.000000 0.000000 0.000000 0.034472 0.000000
# 6 0.000000 0.000000 0.000000 0.000000 0.000000 0.049566
#
#
# Mechanical properties :
#
#
# Convention : Reuss Voigt Hill
#
# Bulk Modulus (GPa) = 41.00136 54.02962 47.51549
# Shear Modulus (GPa) = 25.71620 28.91317 27.31469
#
# Velocity S-wave (km/s) = 3.57316 3.78875 3.68253
# Velocity P-wave (km/s) = 6.11387 6.77967 6.45536
#
# Compressibility (1/GPa) = 0.02438944
#
# Stress axis : x y z
#
# Youngs Moduli (GPa) = 73.18570 116.99934 50.38205
#
# Poissons Ratio (x) = 0.58754 0.18174
# Poissons Ratio (y) = 0.36752 0.01037
# Poissons Ratio (z) = 0.26400 0.02409
#
# Static dielectric constant tensor:
#      x y z
#    x 3.901890 0.000000 0.000000 
#    y 0.000000 3.898520 0.000000 
#    z 0.000000 0.000000 3.862970 
# 
# 
# High freq. dielectric constant tensor:
#      x y z
#    x 1.769100 0.000000 0.000000 
#    y 0.000000 1.791400 0.000000 
#    z 0.000000 0.000000 1.800270 
# 
# From -- ./inp_files/23680.got.cif
#   From: 2010.03.12/outbox.cif.g09.slc.cpg/sg20_12_cif.got.tgz:23680.got - 2010.04.14 01:38:04.
