data_PCOD8158223
_publ_section_title
;
Structure prediction by ZEFSAII (Michael W. Deem and Ramdas Pophale) SiO2 
 PCOD8158223
Probable space group: C 2 2 21
;
_chemical_formula_sum "Si O2"
_cell_formula_units_Z 40
_cell_length_a 9.406031
_cell_length_b 14.912472
_cell_length_c 14.042228
_cell_angle_alpha 90.000000
_cell_angle_beta 90.000000
_cell_angle_gamma 90.000000
_cell_volume 1969.663637
_symmetry_space_group_name_H-M "C 2 2 21"
_symmetry_group_IT_number 20
_symmetry_cell_setting 'orthorhombic'
loop_
_space_group_symop_operation_xyz
x,y,z
-x,-y,1/2+z
x,-y,-z
-x,y,1/2-z
1/2+x,1/2+y,z
1/2-x,1/2-y,1/2+z
1/2+x,1/2-y,-z
1/2-x,1/2+y,1/2-z
loop_
_atom_site_type_symbol
_atom_site_label
_atom_site_fract_x
_atom_site_fract_y
_atom_site_fract_z
Si Si1 0.280794 0.507465 0.293673
Si Si2 0.089608 0.190203 0.947501
Si Si3 0.648118 0.500000 0.000000
Si Si4 0.500000 0.060488 0.750000
Si Si5 0.500000 0.345107 0.750000
Si Si6 0.500000 0.639460 0.750000
Si Si7 0.921120 0.706036 0.902785
O O1 0.252812 0.496883 0.406685
O O2 0.367573 0.597842 0.285385
O O3 0.361398 0.422919 0.247902
O O4 0.132329 0.507240 0.237682
O O5 0.052286 0.091482 0.993370
O O6 0.260421 0.197099 0.940142
O O7 0.011343 0.199894 0.844883
O O8 0.027458 0.271838 0.009868
O O9 0.475403 0.118941 0.845378
O O10 0.428748 0.289132 0.832641
#
# Coordination Sequence:
#
# PCOD8158223 Si02
#       7
#     8   8   4   4   4   4   8
#     4  10  20  40  66  87 122 169 212 260 308 388
#     4  11  23  41  64  91 127 169 214 263 322 383
#     4  10  18  42  62  86 114 176 206 252 308 382
#     4  11  22  41  63  93 128 164 210 269 320 363
#     4  10  22  42  62  89 121 166 212 250 320 388
#     4   9  20  39  65  86 117 170 212 249 318 373
#     4  11  24  40  62  94 127 165 208 271 321 376
#
# _framework density 20.308036000000001
#
# number of rings (size 3 to 8) (size 9 to 14) (size 15 to 20)
#    0.000    1.600    6.000    0.000    2.800    0.000 
#    3.600    0.000    0.000    0.000    0.000    0.000 
#    0.000    0.000    0.000    0.000    0.000    0.000 
#
# Total GULP energy -247814.099701 kJ/mol
# GULP energy per Si atom -12390.704985 kJ/mol
# Density = 2.026181 g / cm^3
# Si number density = 20.308036 Si / 1000 Ang^3
#
#
#
# Elastic Constant Matrix: (Units=GPa)
#
#
# Indices 1 2 3 4 5 6 
#
# 1 125.4097 26.6914 47.6955 0.0000 0.0000 0.0000
# 2 26.6914 62.6877 19.4884 0.0000 0.0000 0.0000
# 3 47.6955 19.4884 93.5269 0.0000 0.0000 0.0000
# 4 0.0000 0.0000 0.0000 12.3765 0.0000 0.0000
# 5 0.0000 0.0000 0.0000 0.0000 32.5265 0.0000
# 6 0.0000 0.0000 0.0000 0.0000 0.0000 9.3524
#
#
#
# Elastic Compliance Matrix: (Units=1/GPa)
#
#
# Indices 1 2 3 4 5 6 
#
# 1 0.010384 -0.002967 -0.004677 0.000000 0.000000 0.000000
# 2 -0.002967 0.017905 -0.002218 0.000000 0.000000 0.000000
# 3 -0.004677 -0.002218 0.013539 0.000000 0.000000 0.000000
# 4 0.000000 0.000000 0.000000 0.080798 0.000000 0.000000
# 5 0.000000 0.000000 0.000000 0.000000 0.030744 0.000000
# 6 0.000000 0.000000 0.000000 0.000000 0.000000 0.106925
#
#
# Mechanical properties :
#
#
# Convention : Reuss Voigt Hill
#
# Bulk Modulus (GPa) = 45.24049 52.15275 48.69662
# Shear Modulus (GPa) = 17.39805 23.36768 20.38286
#
# Velocity S-wave (km/s) = 2.93013 3.39582 3.17154
# Velocity P-wave (km/s) = 5.81146 6.41187 6.11903
#
# Compressibility (1/GPa) = 0.02210409
#
# Stress axis : x y z
#
# Youngs Moduli (GPa) = 96.29940 55.85043 73.85817
#
# Poissons Ratio (x) = 0.16573 0.34546
# Poissons Ratio (y) = 0.28576 0.16379
# Poissons Ratio (z) = 0.45042 0.12386
#
# Static dielectric constant tensor:
#      x y z
#    x 3.879120 0.000000 0.000000 
#    y 0.000000 3.769560 0.000000 
#    z 0.000000 0.000000 5.724630 
# 
# 
# High freq. dielectric constant tensor:
#      x y z
#    x 1.778010 0.000000 0.000000 
#    y 0.000000 1.786620 0.000000 
#    z 0.000000 0.000000 1.800740 
# 
# From -- ./inp_files/14907.got.cif
#   From: 2010.03.12/outbox.cif.g09.slc.cpg/sg20_8_cif.got.tgz:14907.got - 2010.04.14 01:38:04.
