data_PCOD8158309
_publ_section_title
;
Structure prediction by ZEFSAII (Michael W. Deem and Ramdas Pophale) SiO2 
 PCOD8158309
Probable space group: C 2 2 21
;
_chemical_formula_sum "Si O2"
_cell_formula_units_Z 40
_cell_length_a 11.067017
_cell_length_b 19.738767
_cell_length_c 9.730765
_cell_angle_alpha 90.000000
_cell_angle_beta 90.000000
_cell_angle_gamma 90.000000
_cell_volume 2125.678510
_symmetry_space_group_name_H-M "C 2 2 21"
_symmetry_group_IT_number 20
_symmetry_cell_setting 'orthorhombic'
loop_
_space_group_symop_operation_xyz
x,y,z
-x,-y,1/2+z
x,-y,-z
-x,y,1/2-z
1/2+x,1/2+y,z
1/2-x,1/2-y,1/2+z
1/2+x,1/2-y,-z
1/2-x,1/2+y,1/2-z
loop_
_atom_site_type_symbol
_atom_site_label
_atom_site_fract_x
_atom_site_fract_y
_atom_site_fract_z
Si Si1 0.674420 0.857272 0.999624
Si Si2 0.410745 0.323791 0.136953
Si Si3 0.310407 0.821304 0.805914
Si Si4 0.472360 0.944868 0.900354
Si Si5 0.562872 0.275812 0.895067
O O1 0.724948 0.837674 0.850025
O O2 0.595709 0.925376 0.982355
O O3 0.787122 0.866253 0.106379
O O4 0.583460 0.799859 0.052133
O O5 0.500000 0.359061 0.250000
O O6 0.380097 0.249686 0.194848
O O7 0.478303 0.319098 0.993251
O O8 0.391778 0.878321 0.877746
O O9 0.188631 0.816201 0.892697
O O10 0.500000 0.976626 0.750000
O O11 0.407517 0.000000 0.000000
O O12 0.500000 0.270021 0.750000
#
# Coordination Sequence:
#
# PCOD8158309 Si02
#       5
#     8   8   8   8   8
#     4  10  20  34  55  79 115 150 179 223 282 330
#     4  11  19  34  53  84 119 144 177 224 281 336
#     4  10  19  34  55  79 117 149 177 225 282 330
#     4  10  21  40  57  78 109 147 192 233 271 322
#     4  11  20  31  53  86 115 143 179 220 280 343
#
# _framework density 18.817519999999998
#
# number of rings (size 3 to 8) (size 9 to 14) (size 15 to 20)
#    0.000    1.600    6.000    0.600    0.000    0.800 
#    3.600    0.000    0.000    1.200    0.000    0.000 
#    0.000    0.000    0.000    0.000    0.000    0.000 
#
# Total GULP energy -247904.624021 kJ/mol
# GULP energy per Si atom -12395.231201 kJ/mol
# Density = 1.877469 g / cm^3
# Si number density = 18.817520 Si / 1000 Ang^3
#
#
#
# Elastic Constant Matrix: (Units=GPa)
#
#
# Indices 1 2 3 4 5 6 
#
# 1 87.0743 16.9157 32.6608 0.0000 0.0000 0.0000
# 2 16.9157 40.4809 32.9127 0.0000 0.0000 0.0000
# 3 32.6608 32.9127 88.0273 0.0000 0.0000 0.0000
# 4 0.0000 0.0000 0.0000 23.8067 0.0000 0.0000
# 5 0.0000 0.0000 0.0000 0.0000 46.3117 0.0000
# 6 0.0000 0.0000 0.0000 0.0000 0.0000 10.0052
#
#
#
# Elastic Compliance Matrix: (Units=1/GPa)
#
#
# Indices 1 2 3 4 5 6 
#
# 1 0.013482 -0.002251 -0.004161 0.000000 0.000000 0.000000
# 2 -0.002251 0.035868 -0.012576 0.000000 0.000000 0.000000
# 3 -0.004161 -0.012576 0.017606 0.000000 0.000000 0.000000
# 4 0.000000 0.000000 0.000000 0.042005 0.000000 0.000000
# 5 0.000000 0.000000 0.000000 0.000000 0.021593 0.000000
# 6 0.000000 0.000000 0.000000 0.000000 0.000000 0.099948
#
#
# Mechanical properties :
#
#
# Convention : Reuss Voigt Hill
#
# Bulk Modulus (GPa) = 34.50463 42.28454 38.39458
# Shear Modulus (GPa) = 17.97674 24.89761 21.43718
#
# Velocity S-wave (km/s) = 3.09418 3.64140 3.37889
# Velocity P-wave (km/s) = 5.58046 6.34030 5.97247
#
# Compressibility (1/GPa) = 0.02898162
#
# Stress axis : x y z
#
# Youngs Moduli (GPa) = 74.17079 27.87985 56.79947
#
# Poissons Ratio (x) = 0.06276 0.23633
# Poissons Ratio (y) = 0.16696 0.71429
# Poissons Ratio (z) = 0.30861 0.35061
#
# Static dielectric constant tensor:
#      x y z
#    x 3.660700 0.000000 0.000000 
#    y 0.000000 2.968290 0.000000 
#    z 0.000000 0.000000 3.644410 
# 
# 
# High freq. dielectric constant tensor:
#      x y z
#    x 1.739820 0.000000 0.000000 
#    y 0.000000 1.676730 0.000000 
#    z 0.000000 0.000000 1.746270 
# 
# From -- ./inp_files/7044.got.cif
#   From: 2010.03.12/outbox.cif.g09.slc.cpg/sg20_4_cif.got.tgz:7044.got - 2010.04.14 01:38:04.
