data_PCOD8158766
_publ_section_title
;
Structure prediction by ZEFSAII (Michael W. Deem and Ramdas Pophale) SiO2 
 PCOD8158766
Probable space group: C 2 2 21
;
_chemical_formula_sum "Si O2"
_cell_formula_units_Z 48
_cell_length_a 9.629964
_cell_length_b 16.543979
_cell_length_c 15.502573
_cell_angle_alpha 90.000000
_cell_angle_beta 90.000000
_cell_angle_gamma 90.000000
_cell_volume 2469.837719
_symmetry_space_group_name_H-M "C 2 2 21"
_symmetry_group_IT_number 20
_symmetry_cell_setting 'orthorhombic'
loop_
_space_group_symop_operation_xyz
x,y,z
-x,-y,1/2+z
x,-y,-z
-x,y,1/2-z
1/2+x,1/2+y,z
1/2-x,1/2-y,1/2+z
1/2+x,1/2-y,-z
1/2-x,1/2+y,1/2-z
loop_
_atom_site_type_symbol
_atom_site_label
_atom_site_fract_x
_atom_site_fract_y
_atom_site_fract_z
Si Si1 0.107831 0.578124 0.896616
Si Si2 0.189828 0.254438 0.052084
Si Si3 0.129672 0.500000 0.500000
Si Si4 0.000000 0.866050 0.750000
Si Si5 0.420962 0.330646 0.936222
Si Si6 0.262530 0.100648 0.148084
Si Si7 0.844027 0.000000 0.000000
Si Si8 0.500000 0.025342 0.250000
O O1 0.135384 0.673092 0.887402
O O2 0.088738 0.535740 0.806124
O O3 0.972373 0.566439 0.957240
O O4 0.248184 0.537586 0.927593
O O5 0.271126 0.192911 0.114501
O O6 0.053478 0.208692 0.015198
O O7 0.280769 0.288630 0.972101
O O8 0.235284 0.459970 0.567297
O O9 0.065398 0.815956 0.668232
O O10 0.126520 0.917204 0.792820
O O11 0.431147 0.426795 0.956713
O O12 0.402671 0.086690 0.199704
#
# Coordination Sequence:
#
# PCOD8158766 Si02
#       8
#     8   8   4   4   8   8   4   4
#     4   9  18  33  56  85 113 151 191 233 282 337
#     4  10  21  36  58  84 114 148 192 234 283 340
#     4   9  18  35  58  82 110 150 200 228 268 348
#     4  10  22  35  54  85 120 144 176 234 298 327
#     4  10  21  38  59  85 115 152 190 232 282 342
#     4  10  21  37  59  88 115 149 191 238 284 335
#     4   9  18  35  58  82 116 152 184 226 292 350
#     4  10  20  37  62  83 112 152 200 240 272 329
#
# _framework density 19.434474999999999
#
# number of rings (size 3 to 8) (size 9 to 14) (size 15 to 20)
#    0.000    2.333    0.000    2.000    0.000    9.333 
#    0.000    0.000    0.000   21.000    0.000    0.000 
#    0.000    0.000    0.000    0.000    0.000    0.000 
#
# Total GULP energy -297342.147206 kJ/mol
# GULP energy per Si atom -12389.256134 kJ/mol
# Density = 1.939024 g / cm^3
# Si number density = 19.434475 Si / 1000 Ang^3
#
#
#
# Elastic Constant Matrix: (Units=GPa)
#
#
# Indices 1 2 3 4 5 6 
#
# 1 79.5603 70.9577 42.6245 0.0000 0.0000 0.0000
# 2 70.9577 144.1204 55.2576 0.0000 0.0000 0.0000
# 3 42.6245 55.2576 110.0506 0.0000 0.0000 0.0000
# 4 0.0000 0.0000 0.0000 11.3867 0.0000 0.0000
# 5 0.0000 0.0000 0.0000 0.0000 37.8089 0.0000
# 6 0.0000 0.0000 0.0000 0.0000 0.0000 24.9905
#
#
#
# Elastic Compliance Matrix: (Units=1/GPa)
#
#
# Indices 1 2 3 4 5 6 
#
# 1 0.023838 -0.010151 -0.004136 0.000000 0.000000 0.000000
# 2 -0.010151 0.012915 -0.002553 0.000000 0.000000 0.000000
# 3 -0.004136 -0.002553 0.011971 0.000000 0.000000 0.000000
# 4 0.000000 0.000000 0.000000 0.087822 0.000000 0.000000
# 5 0.000000 0.000000 0.000000 0.000000 0.026449 0.000000
# 6 0.000000 0.000000 0.000000 0.000000 0.000000 0.040015
#
#
# Mechanical properties :
#
#
# Convention : Reuss Voigt Hill
#
# Bulk Modulus (GPa) = 66.47273 74.60122 70.53698
# Shear Modulus (GPa) = 20.68629 25.82999 23.25814
#
# Velocity S-wave (km/s) = 3.26607 3.64961 3.46316
# Velocity P-wave (km/s) = 6.96425 7.49859 7.23635
#
# Compressibility (1/GPa) = 0.01504376
#
# Stress axis : x y z
#
# Youngs Moduli (GPa) = 41.94901 77.42644 83.53683
#
# Poissons Ratio (x) = 0.78596 0.34552
# Poissons Ratio (y) = 0.42583 0.21330
# Poissons Ratio (z) = 0.17351 0.19769
#
# Static dielectric constant tensor:
#      x y z
#    x 3.898790 0.000000 0.000000 
#    y 0.000000 3.749960 0.000000 
#    z 0.000000 0.000000 3.659180 
# 
# 
# High freq. dielectric constant tensor:
#      x y z
#    x 1.765160 0.000000 0.000000 
#    y 0.000000 1.751220 0.000000 
#    z 0.000000 0.000000 1.748920 
# 
# From -- ./inp_files/21356.got.cif
#   From: 2010.03.12/outbox.cif.g09.slc.cpg/sg20_11_cif.got.tgz:21356.got - 2010.04.14 01:38:04.
