data_PCOD8158537
_publ_section_title
;
Structure prediction by ZEFSAII (Michael W. Deem and Ramdas Pophale) SiO2 
 PCOD8158537
Probable space group: C 2 2 21
;
_chemical_formula_sum "Si O2"
_cell_formula_units_Z 56
_cell_length_a 16.512439
_cell_length_b 14.445673
_cell_length_c 11.220080
_cell_angle_alpha 90.000000
_cell_angle_beta 90.000000
_cell_angle_gamma 90.000000
_cell_volume 2676.362644
_symmetry_space_group_name_H-M "C 2 2 21"
_symmetry_group_IT_number 20
_symmetry_cell_setting 'orthorhombic'
loop_
_space_group_symop_operation_xyz
x,y,z
-x,-y,1/2+z
x,-y,-z
-x,y,1/2-z
1/2+x,1/2+y,z
1/2-x,1/2-y,1/2+z
1/2+x,1/2-y,-z
1/2-x,1/2+y,1/2-z
loop_
_atom_site_type_symbol
_atom_site_label
_atom_site_fract_x
_atom_site_fract_y
_atom_site_fract_z
Si Si1 0.170539 0.337692 0.045611
Si Si2 0.191543 0.733621 0.578112
Si Si3 0.000000 0.558314 0.250000
Si Si4 0.191738 0.960695 0.869009
Si Si5 0.218224 0.134919 0.743373
Si Si6 0.845001 0.330141 0.829031
Si Si7 0.058150 0.500000 0.000000
Si Si8 0.907537 0.194468 0.282254
O O1 0.241251 0.390654 0.117639
O O2 0.115212 0.281565 0.137361
O O3 0.218981 0.272830 0.954371
O O4 0.113126 0.409764 0.979635
O O5 0.210322 0.643371 0.657846
O O6 0.138651 0.699116 0.466196
O O7 0.141453 0.806949 0.657008
O O8 0.077465 0.623289 0.269914
O O9 0.991327 0.496448 0.373019
O O10 0.268769 0.900230 0.823939
O O11 0.113129 0.895815 0.860750
O O12 0.167450 0.045471 0.781528
O O13 0.206271 0.000000 0.000000
O O14 0.171715 0.233380 0.739134
O O15 0.000000 0.197470 0.250000
#
# Coordination Sequence:
#
# PCOD8158537 Si02
#       8
#     8   8   4   8   8   8   4   8
#     4  10  22  41  67  95 131 184 226 292 349 427
#     4  10  19  42  69  93 130 185 233 277 355 422
#     4  12  30  42  66 104 152 180 232 302 370 436
#     4  12  22  42  73  96 129 183 246 288 350 443
#     4  10  20  39  69  95 130 175 238 290 343 420
#     4  11  23  44  64 103 136 188 233 293 357 427
#     4  12  28  42  66 106 144 182 240 296 368 428
#     4  11  25  43  68 104 145 181 235 299 366 423
#
# _framework density 20.923919999999999
#
# number of rings (size 3 to 8) (size 9 to 14) (size 15 to 20)
#    0.000    1.143    5.714    1.714    6.000    1.143 
#    1.286    1.429    0.000    0.000    0.000    0.000 
#    0.000    0.000    0.000    0.000    0.000    0.000 
#
# Total GULP energy -346914.573480 kJ/mol
# GULP energy per Si atom -12389.806196 kJ/mol
# Density = 2.087630 g / cm^3
# Si number density = 20.923920 Si / 1000 Ang^3
#
#
#
# Elastic Constant Matrix: (Units=GPa)
#
#
# Indices 1 2 3 4 5 6 
#
# 1 106.2550 24.5608 31.1706 0.0000 0.0000 0.0000
# 2 24.5608 86.3405 25.6004 0.0000 0.0000 0.0000
# 3 31.1706 25.6004 105.1224 0.0000 0.0000 0.0000
# 4 0.0000 0.0000 0.0000 32.2479 0.0000 0.0000
# 5 0.0000 0.0000 0.0000 0.0000 26.8054 0.0000
# 6 0.0000 0.0000 0.0000 0.0000 0.0000 13.6292
#
#
#
# Elastic Compliance Matrix: (Units=1/GPa)
#
#
# Indices 1 2 3 4 5 6 
#
# 1 0.010705 -0.002268 -0.002622 0.000000 0.000000 0.000000
# 2 -0.002268 0.012964 -0.002485 0.000000 0.000000 0.000000
# 3 -0.002622 -0.002485 0.010895 0.000000 0.000000 0.000000
# 4 0.000000 0.000000 0.000000 0.031010 0.000000 0.000000
# 5 0.000000 0.000000 0.000000 0.000000 0.037306 0.000000
# 6 0.000000 0.000000 0.000000 0.000000 0.000000 0.073372
#
#
# Mechanical properties :
#
#
# Convention : Reuss Voigt Hill
#
# Bulk Modulus (GPa) = 50.46612 51.15351 50.80981
# Shear Modulus (GPa) = 25.30302 28.96224 27.13263
#
# Velocity S-wave (km/s) = 3.48125 3.72448 3.60492
# Velocity P-wave (km/s) = 6.35059 6.55714 6.45469
#
# Compressibility (1/GPa) = 0.01981528
#
# Stress axis : x y z
#
# Youngs Moduli (GPa) = 93.41746 77.13761 91.78323
#
# Poissons Ratio (x) = 0.17492 0.24064
# Poissons Ratio (y) = 0.21184 0.22805
# Poissons Ratio (z) = 0.24493 0.19166
#
# Static dielectric constant tensor:
#      x y z
#    x 3.514060 0.000000 0.000000 
#    y 0.000000 3.776000 0.000000 
#    z 0.000000 0.000000 4.392480 
# 
# 
# High freq. dielectric constant tensor:
#      x y z
#    x 1.785330 0.000000 0.000000 
#    y 0.000000 1.816020 0.000000 
#    z 0.000000 0.000000 1.845920 
# 
# From -- ./inp_files/15185.got.cif
#   From: 2010.03.12/outbox.cif.g09.slc.cpg/sg20_8_cif.got.tgz:15185.got - 2010.04.14 01:38:04.
