data_PCOD8158774
_publ_section_title
;
Structure prediction by ZEFSAII (Michael W. Deem and Ramdas Pophale) SiO2 
 PCOD8158774
Probable space group: C 2 2 21
;
_chemical_formula_sum "Si O2"
_cell_formula_units_Z 64
_cell_length_a 17.035085
_cell_length_b 14.339427
_cell_length_c 13.353756
_cell_angle_alpha 90.000000
_cell_angle_beta 90.000000
_cell_angle_gamma 90.000000
_cell_volume 3261.966817
_symmetry_space_group_name_H-M "C 2 2 21"
_symmetry_group_IT_number 20
_symmetry_cell_setting 'orthorhombic'
loop_
_space_group_symop_operation_xyz
x,y,z
-x,-y,1/2+z
x,-y,-z
-x,y,1/2-z
1/2+x,1/2+y,z
1/2-x,1/2-y,1/2+z
1/2+x,1/2-y,-z
1/2-x,1/2+y,1/2-z
loop_
_atom_site_type_symbol
_atom_site_label
_atom_site_fract_x
_atom_site_fract_y
_atom_site_fract_z
Si Si1 0.536311 0.818054 0.456577
Si Si2 0.881321 0.303080 0.357533
Si Si3 0.198092 0.248936 0.943701
Si Si4 0.658785 0.998091 0.207223
Si Si5 0.925082 0.168077 0.187231
Si Si6 0.305528 0.925710 0.079784
Si Si7 0.054241 0.664071 0.161044
Si Si8 0.704728 0.422979 0.584001
O O1 0.468972 0.843322 0.375965
O O2 0.555747 0.712270 0.421992
O O3 0.611446 0.882987 0.451366
O O4 0.502081 0.829769 0.566188
O O5 0.847138 0.242326 0.449426
O O6 0.833768 0.397619 0.344704
O O7 0.878081 0.243356 0.255303
O O8 0.236933 0.151413 0.910846
O O9 0.133404 0.275454 0.858720
O O10 0.269803 0.322100 0.960006
O O11 0.678791 0.986419 0.322449
O O12 0.578482 0.056860 0.187822
O O13 0.724999 0.057101 0.156606
O O14 0.871136 0.081233 0.156716
O O15 0.000000 0.131640 0.250000
O O16 0.275178 0.000000 0.000000
O O17 0.000000 0.705391 0.250000
O O18 0.689669 0.500000 0.500000
#
# Coordination Sequence:
#
# PCOD8158774 Si02
#       8
#     8   8   8   8   8   8   8   8
#     4  10  21  37  62  90 125 164 204 256 318 386
#     4  10  20  37  64  89 127 168 202 256 326 380
#     4  10  22  42  63  92 133 168 206 265 319 384
#     4  11  23  37  62  97 127 162 204 265 326 384
#     4  10  21  40  66  88 122 168 215 257 316 377
#     4  12  25  40  61 100 128 166 213 260 321 385
#     4  10  23  40  62  95 129 168 204 264 330 377
#     4  11  21  40  64  94 124 164 218 257 315 382
#
# _framework density 19.620065
#
# number of rings (size 3 to 8) (size 9 to 14) (size 15 to 20)
#    0.000    1.500    3.750    0.750    5.250    0.000 
#    4.500    0.000    8.250    0.000    0.000    0.000 
#    0.000    0.000    0.000    0.000    0.000    0.000 
#
# Total GULP energy -396513.046883 kJ/mol
# GULP energy per Si atom -12391.032715 kJ/mol
# Density = 1.957541 g / cm^3
# Si number density = 19.620065 Si / 1000 Ang^3
#
#
#
# Elastic Constant Matrix: (Units=GPa)
#
#
# Indices 1 2 3 4 5 6 
#
# 1 78.1189 31.7243 42.1881 0.0000 0.0000 0.0000
# 2 31.7243 60.8429 45.4676 0.0000 0.0000 0.0000
# 3 42.1881 45.4676 116.1205 0.0000 0.0000 0.0000
# 4 0.0000 0.0000 0.0000 43.8400 0.0000 0.0000
# 5 0.0000 0.0000 0.0000 0.0000 32.5465 0.0000
# 6 0.0000 0.0000 0.0000 0.0000 0.0000 22.5331
#
#
#
# Elastic Compliance Matrix: (Units=1/GPa)
#
#
# Indices 1 2 3 4 5 6 
#
# 1 0.017416 -0.006153 -0.003918 0.000000 0.000000 0.000000
# 2 -0.006153 0.025408 -0.007713 0.000000 0.000000 0.000000
# 3 -0.003918 -0.007713 0.013055 0.000000 0.000000 0.000000
# 4 0.000000 0.000000 0.000000 0.022810 0.000000 0.000000
# 5 0.000000 0.000000 0.000000 0.000000 0.030725 0.000000
# 6 0.000000 0.000000 0.000000 0.000000 0.000000 0.044379
#
#
# Mechanical properties :
#
#
# Convention : Reuss Voigt Hill
#
# Bulk Modulus (GPa) = 49.23511 54.87139 52.05325
# Shear Modulus (GPa) = 25.49297 28.83072 27.16185
#
# Velocity S-wave (km/s) = 3.60854 3.83750 3.72478
# Velocity P-wave (km/s) = 6.52003 6.90383 6.71467
#
# Compressibility (1/GPa) = 0.02031071
#
# Stress axis : x y z
#
# Youngs Moduli (GPa) = 57.41954 39.35767 76.59629
#
# Poissons Ratio (x) = 0.24216 0.30012
# Poissons Ratio (y) = 0.35329 0.59081
# Poissons Ratio (z) = 0.22498 0.30358
#
# Static dielectric constant tensor:
#      x y z
#    x 3.782340 0.000000 0.000000 
#    y 0.000000 3.334420 0.000000 
#    z 0.000000 0.000000 3.568040 
# 
# 
# High freq. dielectric constant tensor:
#      x y z
#    x 1.772460 0.000000 0.000000 
#    y 0.000000 1.738740 0.000000 
#    z 0.000000 0.000000 1.769820 
# 
# From -- ./inp_files/15897.got.cif
#   From: 2010.03.12/outbox.cif.g09.slc.cpg/sg20_8_cif.got.tgz:15897.got - 2010.04.14 01:38:04.
