data_PCOD8158455
_publ_section_title
;
Structure prediction by ZEFSAII (Michael W. Deem and Ramdas Pophale) SiO2 
 PCOD8158455
Probable space group: C 2 2 21
;
_chemical_formula_sum "Si O2"
_cell_formula_units_Z 52
_cell_length_a 18.470441
_cell_length_b 9.455695
_cell_length_c 15.026018
_cell_angle_alpha 90.000000
_cell_angle_beta 90.000000
_cell_angle_gamma 90.000000
_cell_volume 2624.306915
_symmetry_space_group_name_H-M "C 2 2 21"
_symmetry_group_IT_number 20
_symmetry_cell_setting 'orthorhombic'
loop_
_space_group_symop_operation_xyz
x,y,z
-x,-y,1/2+z
x,-y,-z
-x,y,1/2-z
1/2+x,1/2+y,z
1/2-x,1/2-y,1/2+z
1/2+x,1/2-y,-z
1/2-x,1/2+y,1/2-z
loop_
_atom_site_type_symbol
_atom_site_label
_atom_site_fract_x
_atom_site_fract_y
_atom_site_fract_z
Si Si1 0.312763 0.153707 0.488025
Si Si2 0.982669 0.136128 0.050800
Si Si3 0.117804 0.710908 0.693144
Si Si4 0.361995 0.363718 0.634579
Si Si5 0.530949 0.879403 0.932619
Si Si6 0.500000 0.993182 0.250000
Si Si7 0.260306 0.917193 0.084890
O O1 0.335921 0.225335 0.581083
O O2 0.382428 0.126147 0.426240
O O3 0.257889 0.255517 0.438028
O O4 0.274777 0.000000 0.500000
O O5 0.055413 0.099294 0.107005
O O6 0.923178 0.209596 0.113176
O O7 0.999948 0.233668 0.967136
O O8 0.950522 0.000000 0.000000
O O9 0.146510 0.830833 0.760733
O O10 0.179238 0.601568 0.659813
O O11 0.067962 0.610806 0.752912
O O12 0.311784 0.499880 0.615780
O O13 0.498376 0.907638 0.835858
O O14 0.504464 0.000000 0.000000
O O15 0.293562 0.000000 0.000000
#
# Coordination Sequence:
#
# PCOD8158455 Si02
#       7
#     8   8   8   8   8   4   8
#     4   9  18  37  64  89 123 169 216 252 314 396
#     4  11  22  41  64  91 132 171 213 265 333 387
#     4  12  23  39  66  96 129 167 216 276 325 377
#     4  10  20  42  64  90 126 178 216 258 325 400
#     4  10  19  37  64  89 123 168 215 260 320 391
#     4  12  22  38  62  98 128 168 214 272 326 384
#     4  10  24  41  64  90 130 172 212 265 328 384
#
# _framework density 19.814755999999999
#
# number of rings (size 3 to 8) (size 9 to 14) (size 15 to 20)
#    0.000    1.538    3.077    4.154    2.154    3.077 
#    5.538    1.538    0.000    0.000    0.000    0.000 
#    0.000    0.000    0.000    0.000    0.000    0.000 
#
# Total GULP energy -322369.612711 kJ/mol
# GULP energy per Si atom -12398.831258 kJ/mol
# Density = 1.976966 g / cm^3
# Si number density = 19.814756 Si / 1000 Ang^3
#
#
#
# Elastic Constant Matrix: (Units=GPa)
#
#
# Indices 1 2 3 4 5 6 
#
# 1 65.7783 26.4291 25.7135 0.0000 0.0000 0.0000
# 2 26.4291 120.6093 30.1711 0.0000 0.0000 0.0000
# 3 25.7135 30.1711 109.0783 0.0000 0.0000 0.0000
# 4 0.0000 0.0000 0.0000 24.4019 0.0000 0.0000
# 5 0.0000 0.0000 0.0000 0.0000 28.2202 0.0000
# 6 0.0000 0.0000 0.0000 0.0000 0.0000 27.9248
#
#
#
# Elastic Compliance Matrix: (Units=1/GPa)
#
#
# Indices 1 2 3 4 5 6 
#
# 1 0.017733 -0.003051 -0.003336 0.000000 0.000000 0.000000
# 2 -0.003051 0.009433 -0.001890 0.000000 0.000000 0.000000
# 3 -0.003336 -0.001890 0.010477 0.000000 0.000000 0.000000
# 4 0.000000 0.000000 0.000000 0.040980 0.000000 0.000000
# 5 0.000000 0.000000 0.000000 0.000000 0.035436 0.000000
# 6 0.000000 0.000000 0.000000 0.000000 0.000000 0.035810
#
#
# Mechanical properties :
#
#
# Convention : Reuss Voigt Hill
#
# Bulk Modulus (GPa) = 47.42089 51.12148 49.27118
# Shear Modulus (GPa) = 28.82636 30.31953 29.57295
#
# Velocity S-wave (km/s) = 3.81831 3.91596 3.86744
# Velocity P-wave (km/s) = 6.58964 6.80456 6.69796
#
# Compressibility (1/GPa) = 0.02108775
#
# Stress axis : x y z
#
# Youngs Moduli (GPa) = 56.39305 106.01551 95.44808
#
# Poissons Ratio (x) = 0.32347 0.31844
# Poissons Ratio (y) = 0.17207 0.18038
# Poissons Ratio (z) = 0.18814 0.20035
#
# Static dielectric constant tensor:
#      x y z
#    x 3.451460 0.000000 0.000000 
#    y 0.000000 3.737360 0.000000 
#    z 0.000000 0.000000 3.218920 
# 
# 
# High freq. dielectric constant tensor:
#      x y z
#    x 1.755980 0.000000 0.000000 
#    y 0.000000 1.780350 0.000000 
#    z 0.000000 0.000000 1.768800 
# 
# From -- ./inp_files/21714.got.cif
#   From: 2010.03.12/outbox.cif.g09.slc.cpg/sg20_11_cif.got.tgz:21714.got - 2010.04.14 01:38:04.
