data_PCOD8158193
_publ_section_title
;
Structure prediction by ZEFSAII (Michael W. Deem and Ramdas Pophale) SiO2 
 PCOD8158193
Probable space group: C 2 2 21
;
_chemical_formula_sum "Si O2"
_cell_formula_units_Z 44
_cell_length_a 19.719096
_cell_length_b 11.412171
_cell_length_c 10.325775
_cell_angle_alpha 90.000000
_cell_angle_beta 90.000000
_cell_angle_gamma 90.000000
_cell_volume 2323.688610
_symmetry_space_group_name_H-M "C 2 2 21"
_symmetry_group_IT_number 20
_symmetry_cell_setting 'orthorhombic'
loop_
_space_group_symop_operation_xyz
x,y,z
-x,-y,1/2+z
x,-y,-z
-x,y,1/2-z
1/2+x,1/2+y,z
1/2-x,1/2-y,1/2+z
1/2+x,1/2-y,-z
1/2-x,1/2+y,1/2-z
loop_
_atom_site_type_symbol
_atom_site_label
_atom_site_fract_x
_atom_site_fract_y
_atom_site_fract_z
Si Si1 0.316687 0.266832 0.197207
Si Si2 0.704574 0.278782 0.595969
Si Si3 0.619717 0.490581 0.645144
Si Si4 0.064053 0.344448 0.388049
Si Si5 0.435791 0.095988 0.179618
Si Si6 0.000000 0.851137 0.750000
O O1 0.264919 0.269939 0.316196
O O2 0.362351 0.383211 0.202204
O O3 0.365289 0.155473 0.221649
O O4 0.278785 0.260551 0.057231
O O5 0.688915 0.414649 0.630476
O O6 0.637719 0.209027 0.632582
O O7 0.586823 0.500000 0.500000
O O8 0.566529 0.433333 0.746916
O O9 0.051297 0.387326 0.530181
O O10 0.063938 0.456102 0.290720
O O11 0.006824 0.243239 0.367355
O O12 0.500000 0.155126 0.250000
#
# Coordination Sequence:
#
# PCOD8158193 Si02
#       6
#     8   8   8   8   8   4
#     4  10  21  38  59  85 116 151 192 241 284 348
#     4   9  20  39  59  80 114 153 192 230 297 335
#     4   9  20  38  58  81 116 154 186 238 294 338
#     4   9  19  37  59  81 117 152 184 239 287 342
#     4  10  20  36  59  84 117 150 189 237 290 337
#     4  10  18  38  62  82 110 154 190 228 288 352
#
# _framework density 18.935410999999998
#
# number of rings (size 3 to 8) (size 9 to 14) (size 15 to 20)
#    0.000    2.545    0.909    1.091    3.818    0.000 
#    6.545    0.000    0.000    0.000    0.000    0.000 
#    0.000    0.000    0.000    0.000    0.000    0.000 
#
# Total GULP energy -272542.167672 kJ/mol
# GULP energy per Si atom -12388.280349 kJ/mol
# Density = 1.889231 g / cm^3
# Si number density = 18.935411 Si / 1000 Ang^3
#
#
#
# Elastic Constant Matrix: (Units=GPa)
#
#
# Indices 1 2 3 4 5 6 
#
# 1 89.4070 45.5800 67.3566 0.0000 0.0000 0.0000
# 2 45.5800 119.3481 40.3821 0.0000 0.0000 0.0000
# 3 67.3566 40.3821 69.4054 0.0000 0.0000 0.0000
# 4 0.0000 0.0000 0.0000 21.8692 0.0000 0.0000
# 5 0.0000 0.0000 0.0000 0.0000 36.7032 0.0000
# 6 0.0000 0.0000 0.0000 0.0000 0.0000 9.2027
#
#
#
# Elastic Compliance Matrix: (Units=1/GPa)
#
#
# Indices 1 2 3 4 5 6 
#
# 1 0.042350 -0.002823 -0.039457 0.000000 0.000000 0.000000
# 2 -0.002823 0.010621 -0.003440 0.000000 0.000000 0.000000
# 3 -0.039457 -0.003440 0.054702 0.000000 0.000000 0.000000
# 4 0.000000 0.000000 0.000000 0.045726 0.000000 0.000000
# 5 0.000000 0.000000 0.000000 0.000000 0.027246 0.000000
# 6 0.000000 0.000000 0.000000 0.000000 0.000000 0.108664
#
#
# Mechanical properties :
#
#
# Convention : Reuss Voigt Hill
#
# Bulk Modulus (GPa) = 61.60461 64.97754 63.29107
# Shear Modulus (GPa) = 12.94801 21.87780 17.41291
#
# Velocity S-wave (km/s) = 2.61779 3.40279 3.03577
# Velocity P-wave (km/s) = 6.46079 7.05893 6.76647
#
# Compressibility (1/GPa) = 0.01623255
#
# Stress axis : x y z
#
# Youngs Moduli (GPa) = 23.61274 94.15409 18.28090
#
# Poissons Ratio (x) = 0.26582 0.72131
# Poissons Ratio (y) = 0.06666 0.06288
# Poissons Ratio (z) = 0.93169 0.32386
#
# Static dielectric constant tensor:
#      x y z
#    x 3.256040 0.000000 0.000000 
#    y 0.000000 4.154850 0.000000 
#    z 0.000000 0.000000 3.487750 
# 
# 
# High freq. dielectric constant tensor:
#      x y z
#    x 1.713500 0.000000 0.000000 
#    y 0.000000 1.759720 0.000000 
#    z 0.000000 0.000000 1.716090 
# 
# From -- ./inp_files/16220.got.cif
#   From: 2010.03.12/outbox.cif.g09.slc.cpg/sg20_9_cif.got.tgz:16220.got - 2010.04.14 01:38:04.
