data_PCOD8158691
_publ_section_title
;
Structure prediction by ZEFSAII (Michael W. Deem and Ramdas Pophale) SiO2 
 PCOD8158691
Probable space group: C 2 2 21
;
_chemical_formula_sum "Si O2"
_cell_formula_units_Z 64
_cell_length_a 5.166070
_cell_length_b 17.576383
_cell_length_c 33.425666
_cell_angle_alpha 90.000000
_cell_angle_beta 90.000000
_cell_angle_gamma 90.000000
_cell_volume 3035.078046
_symmetry_space_group_name_H-M "C 2 2 21"
_symmetry_group_IT_number 20
_symmetry_cell_setting 'orthorhombic'
loop_
_space_group_symop_operation_xyz
x,y,z
-x,-y,1/2+z
x,-y,-z
-x,y,1/2-z
1/2+x,1/2+y,z
1/2-x,1/2-y,1/2+z
1/2+x,1/2-y,-z
1/2-x,1/2+y,1/2-z
loop_
_atom_site_type_symbol
_atom_site_label
_atom_site_fract_x
_atom_site_fract_y
_atom_site_fract_z
Si Si1 0.873059 0.203341 0.994922
Si Si2 0.148172 0.787205 0.407269
Si Si3 0.676278 0.968200 0.616862
Si Si4 0.027290 0.857693 0.926111
Si Si5 0.694380 0.558783 0.636178
Si Si6 0.636337 0.836469 0.861056
Si Si7 0.747578 0.345973 0.726548
Si Si8 0.748562 0.526436 0.726496
O O1 0.911179 0.138940 0.029011
O O2 0.574442 0.228250 0.997320
O O3 0.937555 0.174940 0.949797
O O4 0.378313 0.727980 0.416510
O O5 0.215464 0.854658 0.377667
O O6 0.924089 0.739958 0.385454
O O7 0.602973 0.896363 0.646769
O O8 0.752366 0.923633 0.575686
O O9 0.418169 0.017257 0.610508
O O10 0.909982 0.021206 0.632285
O O11 0.833903 0.881745 0.890178
O O12 0.768506 0.560593 0.682478
O O13 0.755404 0.812732 0.818487
O O14 0.500000 0.313229 0.750000
O O15 0.735340 0.436168 0.723300
O O16 0.000000 0.317396 0.750000
O O17 0.500000 0.558500 0.750000
O O18 0.000000 0.554494 0.750000
#
# Coordination Sequence:
#
# PCOD8158691 Si02
#       8
#     8   8   8   8   8   8   8   8
#     4  10  20  39  65  97 122 166 218 261 304 379
#     4  10  25  39  68  96 133 169 210 263 321 390
#     4  11  23  38  67  92 126 170 210 263 312 385
#     4  10  21  41  71  93 124 166 221 262 309 376
#     4  12  24  41  64  96 131 167 211 259 329 385
#     4  11  21  42  67  96 124 171 216 260 322 375
#     4  10  22  34  60  92 119 152 213 272 305 357
#     4  10  20  36  60  88 118 162 213 259 306 374
#
# _framework density 21.086770000000001
#
# number of rings (size 3 to 8) (size 9 to 14) (size 15 to 20)
#    0.000    1.500    3.750    0.750    8.750    0.000 
#    0.000    1.250    2.750    0.000    0.000    0.000 
#    0.000    0.000    0.000    0.000    0.000    0.000 
#
# Total GULP energy -396508.795138 kJ/mol
# GULP energy per Si atom -12390.899848 kJ/mol
# Density = 2.103878 g / cm^3
# Si number density = 21.086770 Si / 1000 Ang^3
#
#
#
# Elastic Constant Matrix: (Units=GPa)
#
#
# Indices 1 2 3 4 5 6 
#
# 1 114.6934 22.9923 36.7009 0.0000 0.0000 0.0000
# 2 22.9923 58.8296 11.1801 0.0000 0.0000 0.0000
# 3 36.7009 11.1801 107.3884 0.0000 0.0000 0.0000
# 4 0.0000 0.0000 0.0000 23.3557 0.0000 0.0000
# 5 0.0000 0.0000 0.0000 0.0000 33.1285 0.0000
# 6 0.0000 0.0000 0.0000 0.0000 0.0000 14.5211
#
#
#
# Elastic Compliance Matrix: (Units=1/GPa)
#
#
# Indices 1 2 3 4 5 6 
#
# 1 0.010441 -0.003471 -0.003207 0.000000 0.000000 0.000000
# 2 -0.003471 0.018495 -0.000739 0.000000 0.000000 0.000000
# 3 -0.003207 -0.000739 0.010485 0.000000 0.000000 0.000000
# 4 0.000000 0.000000 0.000000 0.042816 0.000000 0.000000
# 5 0.000000 0.000000 0.000000 0.000000 0.030185 0.000000
# 6 0.000000 0.000000 0.000000 0.000000 0.000000 0.068865
#
#
# Mechanical properties :
#
#
# Convention : Reuss Voigt Hill
#
# Bulk Modulus (GPa) = 40.67252 46.96200 43.81726
# Shear Modulus (GPa) = 24.47162 28.20361 26.33762
#
# Velocity S-wave (km/s) = 3.41034 3.66116 3.53797
# Velocity P-wave (km/s) = 5.90231 6.33966 6.12489
#
# Compressibility (1/GPa) = 0.02458663
#
# Stress axis : x y z
#
# Youngs Moduli (GPa) = 95.77690 54.06762 95.37490
#
# Poissons Ratio (x) = 0.18768 0.30586
# Poissons Ratio (y) = 0.33246 0.07051
# Poissons Ratio (z) = 0.30715 0.03997
#
# Static dielectric constant tensor:
#      x y z
#    x 4.053270 0.000000 0.000000 
#    y 0.000000 3.387290 0.000000 
#    z 0.000000 0.000000 4.010850 
# 
# 
# High freq. dielectric constant tensor:
#      x y z
#    x 1.839560 0.000000 0.000000 
#    y 0.000000 1.783490 0.000000 
#    z 0.000000 0.000000 1.827370 
# 
# From -- ./inp_files/30842.got.cif
#   From: 2010.03.12/outbox.cif.g09.slc.cpg/sg20_16_cif.got.tgz:30842.got - 2010.04.14 01:38:04.
