data_PCOD8158218
_publ_section_title
;
Structure prediction by ZEFSAII (Michael W. Deem and Ramdas Pophale) SiO2 
 PCOD8158218
Probable space group: C 2 2 21
;
_chemical_formula_sum "Si O2"
_cell_formula_units_Z 48
_cell_length_a 9.059497
_cell_length_b 23.037361
_cell_length_c 11.272557
_cell_angle_alpha 90.000000
_cell_angle_beta 90.000000
_cell_angle_gamma 90.000000
_cell_volume 2352.660459
_symmetry_space_group_name_H-M "C 2 2 21"
_symmetry_group_IT_number 20
_symmetry_cell_setting 'orthorhombic'
loop_
_space_group_symop_operation_xyz
x,y,z
-x,-y,1/2+z
x,-y,-z
-x,y,1/2-z
1/2+x,1/2+y,z
1/2-x,1/2-y,1/2+z
1/2+x,1/2-y,-z
1/2-x,1/2+y,1/2-z
loop_
_atom_site_type_symbol
_atom_site_label
_atom_site_fract_x
_atom_site_fract_y
_atom_site_fract_z
Si Si1 0.844272 0.451601 0.310125
Si Si2 0.671408 0.078337 0.222154
Si Si3 0.254478 0.149379 0.067614
Si Si4 0.843888 0.266469 0.313470
Si Si5 0.592273 0.861988 0.998793
Si Si6 0.155459 0.855645 0.185789
O O1 0.769811 0.515482 0.322416
O O2 0.874584 0.422903 0.436721
O O3 0.742997 0.411958 0.227520
O O4 0.000000 0.458505 0.250000
O O5 0.500000 0.072274 0.250000
O O6 0.763939 0.096561 0.338906
O O7 0.682708 0.129866 0.123883
O O8 0.224139 0.207125 0.141523
O O9 0.419462 0.149486 0.017032
O O10 0.140624 0.141872 0.957924
O O11 0.846464 0.308362 0.427326
O O12 0.737884 0.295621 0.216231
O O13 0.000000 0.256736 0.250000
O O14 0.000000 0.855450 0.250000
#
# Coordination Sequence:
#
# PCOD8158218 Si02
#       6
#     8   8   8   8   8   8
#     4  10  18  40  67  91 128 163 217 272 329 396
#     4   9  21  34  64  98 121 165 215 271 325 391
#     4  11  23  39  62  96 132 161 221 281 329 392
#     4  11  24  41  65  86 129 177 215 274 328 395
#     4  10  19  39  64  97 122 166 217 276 326 392
#     4  11  24  40  64  93 127 181 219 267 339 401
#
# _framework density 20.402435000000001
#
# number of rings (size 3 to 8) (size 9 to 14) (size 15 to 20)
#    0.000    1.667    3.333    1.500    4.667    1.333 
#    3.000    0.833    7.333    0.000    0.000    0.000 
#    0.000    0.000    0.000    0.000    0.000    0.000 
#
# Total GULP energy -297495.686341 kJ/mol
# GULP energy per Si atom -12395.653598 kJ/mol
# Density = 2.035600 g / cm^3
# Si number density = 20.402435 Si / 1000 Ang^3
#
#
#
# Elastic Constant Matrix: (Units=GPa)
#
#
# Indices 1 2 3 4 5 6 
#
# 1 53.8063 44.1675 43.4240 0.0000 0.0000 0.0000
# 2 44.1675 138.9014 56.7414 0.0000 0.0000 0.0000
# 3 43.4240 56.7414 135.4984 0.0000 0.0000 0.0000
# 4 0.0000 0.0000 0.0000 23.7016 0.0000 0.0000
# 5 0.0000 0.0000 0.0000 0.0000 32.2891 0.0000
# 6 0.0000 0.0000 0.0000 0.0000 0.0000 8.2936
#
#
#
# Elastic Compliance Matrix: (Units=1/GPa)
#
#
# Indices 1 2 3 4 5 6 
#
# 1 0.029389 -0.006632 -0.006641 0.000000 0.000000 0.000000
# 2 -0.006632 0.010182 -0.002138 0.000000 0.000000 0.000000
# 3 -0.006641 -0.002138 0.010404 0.000000 0.000000 0.000000
# 4 0.000000 0.000000 0.000000 0.042191 0.000000 0.000000
# 5 0.000000 0.000000 0.000000 0.000000 0.030970 0.000000
# 6 0.000000 0.000000 0.000000 0.000000 0.000000 0.120574
#
#
# Mechanical properties :
#
#
# Convention : Reuss Voigt Hill
#
# Bulk Modulus (GPa) = 52.21531 68.54130 60.37830
# Shear Modulus (GPa) = 17.79883 25.11508 21.45695
#
# Velocity S-wave (km/s) = 2.95683 3.51234 3.24649
# Velocity P-wave (km/s) = 6.10781 7.07929 6.61142
#
# Compressibility (1/GPa) = 0.01915147
#
# Stress axis : x y z
#
# Youngs Moduli (GPa) = 34.02638 98.21557 96.11751
#
# Poissons Ratio (x) = 0.65137 0.63834
# Poissons Ratio (y) = 0.22567 0.20552
# Poissons Ratio (z) = 0.22598 0.21001
#
# Static dielectric constant tensor:
#      x y z
#    x 3.332480 0.000000 0.000000 
#    y 0.000000 4.011260 0.000000 
#    z 0.000000 0.000000 4.005960 
# 
# 
# High freq. dielectric constant tensor:
#      x y z
#    x 1.761490 0.000000 0.000000 
#    y 0.000000 1.804760 0.000000 
#    z 0.000000 0.000000 1.815750 
# 
# From -- ./inp_files/13083.got.cif
#   From: 2010.03.12/outbox.cif.g09.slc.cpg/sg20_7_cif.got.tgz:13083.got - 2010.04.14 01:38:04.
