data_PCOD8158031
_publ_section_title
;
Structure prediction by ZEFSAII (Michael W. Deem and Ramdas Pophale) SiO2 
 PCOD8158031
Probable space group: C 2 2 21
;
_chemical_formula_sum "Si O2"
_cell_formula_units_Z 40
_cell_length_a 26.169759
_cell_length_b 10.109337
_cell_length_c 8.380769
_cell_angle_alpha 90.000000
_cell_angle_beta 90.000000
_cell_angle_gamma 90.000000
_cell_volume 2217.207136
_symmetry_space_group_name_H-M "C 2 2 21"
_symmetry_group_IT_number 20
_symmetry_cell_setting 'orthorhombic'
loop_
_space_group_symop_operation_xyz
x,y,z
-x,-y,1/2+z
x,-y,-z
-x,y,1/2-z
1/2+x,1/2+y,z
1/2-x,1/2-y,1/2+z
1/2+x,1/2-y,-z
1/2-x,1/2+y,1/2-z
loop_
_atom_site_type_symbol
_atom_site_label
_atom_site_fract_x
_atom_site_fract_y
_atom_site_fract_z
Si Si1 0.698889 0.637490 0.088789
Si Si2 0.231549 0.376549 0.883245
Si Si3 0.378787 0.074888 0.278438
Si Si4 0.558819 0.000000 0.500000
Si Si5 0.000000 0.674935 0.750000
Si Si6 0.901757 0.709708 0.587868
O O1 0.720105 0.627000 0.267662
O O2 0.639218 0.673855 0.103748
O O3 0.704895 0.500000 0.000000
O O4 0.730761 0.745378 0.990227
O O5 0.180424 0.384070 0.775918
O O6 0.236034 0.500000 0.000000
O O7 0.409441 0.167523 0.403449
O O8 0.404648 0.095789 0.105860
O O9 0.381534 0.919865 0.320763
O O10 0.522258 0.084195 0.611369
O O11 0.045137 0.760968 0.832225
#
# Coordination Sequence:
#
# PCOD8158031 Si02
#       6
#     8   8   8   4   4   8
#     4  11  23  35  58  83 115 155 193 232 288 341
#     4  11  21  39  58  83 118 153 187 242 287 345
#     4   9  17  32  52  78 115 138 177 241 285 335
#     4  10  18  26  54  88 106 142 188 238 292 342
#     4  10  18  30  52  76 110 148 186 238 282 336
#     4   9  18  35  51  75 112 143 188 232 281 323
#
# _framework density 18.040714000000001
#
# number of rings (size 3 to 8) (size 9 to 14) (size 15 to 20)
#    0.000    2.000    4.000    3.600    1.400    1.600 
#    0.000    0.000    0.000    6.000    0.000    0.000 
#    0.000    0.000    0.000    0.000    0.000    0.000 
#
# Total GULP energy -247948.071667 kJ/mol
# GULP energy per Si atom -12397.403583 kJ/mol
# Density = 1.799965 g / cm^3
# Si number density = 18.040714 Si / 1000 Ang^3
#
#
#
# Elastic Constant Matrix: (Units=GPa)
#
#
# Indices 1 2 3 4 5 6 
#
# 1 92.4517 39.2358 70.2216 0.0000 0.0000 0.0000
# 2 39.2358 94.3199 40.4289 0.0000 0.0000 0.0000
# 3 70.2216 40.4289 129.4833 0.0000 0.0000 0.0000
# 4 0.0000 0.0000 0.0000 15.7160 0.0000 0.0000
# 5 0.0000 0.0000 0.0000 0.0000 57.7743 0.0000
# 6 0.0000 0.0000 0.0000 0.0000 0.0000 61.4874
#
#
#
# Elastic Compliance Matrix: (Units=1/GPa)
#
#
# Indices 1 2 3 4 5 6 
#
# 1 0.019723 -0.004179 -0.009392 0.000000 0.000000 0.000000
# 2 -0.004179 0.013126 -0.001832 0.000000 0.000000 0.000000
# 3 -0.009392 -0.001832 0.013388 0.000000 0.000000 0.000000
# 4 0.000000 0.000000 0.000000 0.063630 0.000000 0.000000
# 5 0.000000 0.000000 0.000000 0.000000 0.017309 0.000000
# 6 0.000000 0.000000 0.000000 0.000000 0.000000 0.016263
#
#
# Mechanical properties :
#
#
# Convention : Reuss Voigt Hill
#
# Bulk Modulus (GPa) = 64.79894 68.44751 66.62322
# Shear Modulus (GPa) = 27.87245 38.08678 32.97961
#
# Velocity S-wave (km/s) = 3.93488 4.59972 4.28023
# Velocity P-wave (km/s) = 7.52599 8.13835 7.83815
#
# Compressibility (1/GPa) = 0.01543235
#
# Stress axis : x y z
#
# Youngs Moduli (GPa) = 50.70122 76.18536 74.69237
#
# Poissons Ratio (x) = 0.31838 0.70148
# Poissons Ratio (y) = 0.21188 0.13683
# Poissons Ratio (z) = 0.47616 0.13957
#
# Static dielectric constant tensor:
#      x y z
#    x 3.649990 0.000000 0.000000 
#    y 0.000000 2.958100 0.000000 
#    z 0.000000 0.000000 4.245840 
# 
# 
# High freq. dielectric constant tensor:
#      x y z
#    x 1.704450 0.000000 0.000000 
#    y 0.000000 1.656700 0.000000 
#    z 0.000000 0.000000 1.709810 
# 
# From -- ./inp_files/6166.got.cif
#   From: 2010.03.12/outbox.cif.g09.slc.cpg/sg20_4_cif.got.tgz:6166.got - 2010.04.14 01:38:04.
