data_PCOD8158154
_publ_section_title
;
Structure prediction by ZEFSAII (Michael W. Deem and Ramdas Pophale) SiO2 
 PCOD8158154
Probable space group: C 2 2 21
;
_chemical_formula_sum "Si O2"
_cell_formula_units_Z 48
_cell_length_a 15.577594
_cell_length_b 8.996789
_cell_length_c 18.117139
_cell_angle_alpha 90.000000
_cell_angle_beta 90.000000
_cell_angle_gamma 90.000000
_cell_volume 2539.086709
_symmetry_space_group_name_H-M "C 2 2 21"
_symmetry_group_IT_number 20
_symmetry_cell_setting 'orthorhombic'
loop_
_space_group_symop_operation_xyz
x,y,z
-x,-y,1/2+z
x,-y,-z
-x,y,1/2-z
1/2+x,1/2+y,z
1/2-x,1/2-y,1/2+z
1/2+x,1/2-y,-z
1/2-x,1/2+y,1/2-z
loop_
_atom_site_type_symbol
_atom_site_label
_atom_site_fract_x
_atom_site_fract_y
_atom_site_fract_z
Si Si1 0.811621 0.075213 0.164729
Si Si2 0.993849 0.099233 0.331176
Si Si3 0.144726 0.929118 0.078229
Si Si4 0.654737 0.085442 0.072790
Si Si5 0.747726 0.880403 0.284009
Si Si6 0.422997 0.077527 0.704570
O O1 0.754918 0.049421 0.091259
O O2 0.758276 0.202333 0.209313
O O3 0.907784 0.122114 0.140878
O O4 0.812773 0.930074 0.218134
O O5 0.943371 0.254363 0.321746
O O6 0.000000 0.023198 0.250000
O O7 0.943668 0.997820 0.389827
O O8 0.131664 0.756549 0.062257
O O9 0.220615 0.952317 0.138415
O O10 0.171082 0.000000 0.000000
O O11 0.591993 0.024276 0.134903
O O12 0.629276 0.000000 0.000000
O O13 0.654083 0.935439 0.262474
O O14 0.500000 0.006423 0.750000
#
# Coordination Sequence:
#
# PCOD8158154 Si02
#       6
#     8   8   8   8   8   8
#     4  10  20  35  62  87 115 149 194 238 289 352
#     4  11  19  37  63  91 117 153 192 246 294 349
#     4  11  23  37  60  82 120 156 198 241 294 351
#     4  10  23  40  57  83 120 156 195 241 299 353
#     4  10  18  36  56  90 109 153 193 236 286 352
#     4  10  19  36  65  86 119 153 193 241 297 350
#
# _framework density 18.904436
#
# number of rings (size 3 to 8) (size 9 to 14) (size 15 to 20)
#    0.000    1.667    5.000    1.000    0.000    2.667 
#    3.000    0.833    3.667    0.000    0.000    0.000 
#    0.000    0.000    0.000    0.000    0.000    0.000 
#
# Total GULP energy -297442.520159 kJ/mol
# GULP energy per Si atom -12393.438340 kJ/mol
# Density = 1.886141 g / cm^3
# Si number density = 18.904436 Si / 1000 Ang^3
#
#
#
# Elastic Constant Matrix: (Units=GPa)
#
#
# Indices 1 2 3 4 5 6 
#
# 1 117.9549 48.4690 53.4034 0.0000 0.0000 0.0000
# 2 48.4690 98.4102 61.5935 0.0000 0.0000 0.0000
# 3 53.4034 61.5935 112.2314 0.0000 0.0000 0.0000
# 4 0.0000 0.0000 0.0000 28.5994 0.0000 0.0000
# 5 0.0000 0.0000 0.0000 0.0000 21.6821 0.0000
# 6 0.0000 0.0000 0.0000 0.0000 0.0000 24.3793
#
#
#
# Elastic Compliance Matrix: (Units=1/GPa)
#
#
# Indices 1 2 3 4 5 6 
#
# 1 0.011513 -0.003414 -0.003604 0.000000 0.000000 0.000000
# 2 -0.003414 0.016491 -0.007426 0.000000 0.000000 0.000000
# 3 -0.003604 -0.007426 0.014700 0.000000 0.000000 0.000000
# 4 0.000000 0.000000 0.000000 0.034966 0.000000 0.000000
# 5 0.000000 0.000000 0.000000 0.000000 0.046121 0.000000
# 6 0.000000 0.000000 0.000000 0.000000 0.000000 0.041018
#
#
# Mechanical properties :
#
#
# Convention : Reuss Voigt Hill
#
# Bulk Modulus (GPa) = 72.38312 72.83648 72.60980
# Shear Modulus (GPa) = 25.21400 25.94086 25.57743
#
# Velocity S-wave (km/s) = 3.65603 3.70835 3.68229
# Velocity P-wave (km/s) = 7.49628 7.54641 7.52138
#
# Compressibility (1/GPa) = 0.01381538
#
# Stress axis : x y z
#
# Youngs Moduli (GPa) = 86.86119 60.64000 68.02526
#
# Poissons Ratio (x) = 0.20705 0.24518
# Poissons Ratio (y) = 0.29657 0.50513
# Poissons Ratio (z) = 0.31307 0.45029
#
# Static dielectric constant tensor:
#      x y z
#    x 3.569240 0.000000 0.000000 
#    y 0.000000 3.488530 0.000000 
#    z 0.000000 0.000000 3.487550 
# 
# 
# High freq. dielectric constant tensor:
#      x y z
#    x 1.734910 0.000000 0.000000 
#    y 0.000000 1.729370 0.000000 
#    z 0.000000 0.000000 1.727680 
# 
# From -- ./inp_files/24791.got.cif
#   From: 2010.03.12/outbox.cif.g09.slc.cpg/sg20_13_cif.got.tgz:24791.got - 2010.04.14 01:38:04.
