data_PCOD8158757
_publ_section_title
;
Structure prediction by ZEFSAII (Michael W. Deem and Ramdas Pophale) SiO2 
 PCOD8158757
Probable space group: C 2 2 21
;
_chemical_formula_sum "Si O2"
_cell_formula_units_Z 64
_cell_length_a 16.522633
_cell_length_b 8.216348
_cell_length_c 24.332280
_cell_angle_alpha 90.000000
_cell_angle_beta 90.000000
_cell_angle_gamma 90.000000
_cell_volume 3303.245767
_symmetry_space_group_name_H-M "C 2 2 21"
_symmetry_group_IT_number 20
_symmetry_cell_setting 'orthorhombic'
loop_
_space_group_symop_operation_xyz
x,y,z
-x,-y,1/2+z
x,-y,-z
-x,y,1/2-z
1/2+x,1/2+y,z
1/2-x,1/2-y,1/2+z
1/2+x,1/2-y,-z
1/2-x,1/2+y,1/2-z
loop_
_atom_site_type_symbol
_atom_site_label
_atom_site_fract_x
_atom_site_fract_y
_atom_site_fract_z
Si Si1 0.975251 0.336226 0.191620
Si Si2 0.159890 0.676679 0.123042
Si Si3 0.010146 0.304800 0.808814
Si Si4 0.912883 0.654808 0.590448
Si Si5 0.571870 0.171920 0.519747
Si Si6 0.553794 0.386882 0.412862
Si Si7 0.654321 0.671855 0.379808
Si Si8 0.614444 0.492634 0.937577
O O1 0.895052 0.245779 0.171151
O O2 0.000000 0.257493 0.250000
O O3 0.959535 0.528677 0.198571
O O4 0.048990 0.316695 0.149953
O O5 0.105852 0.673167 0.178450
O O6 0.135081 0.517468 0.086585
O O7 0.253192 0.669431 0.138936
O O8 0.148632 0.847635 0.091747
O O9 0.000000 0.210250 0.750000
O O10 0.972325 0.222186 0.861891
O O11 0.981121 0.652929 0.543147
O O12 0.854778 0.814251 0.583203
O O13 0.574271 0.287016 0.466970
O O14 0.636958 0.226949 0.564980
O O15 0.604915 0.000000 0.500000
O O16 0.631018 0.486051 0.392407
O O17 0.483008 0.513851 0.428995
O O18 0.640859 0.500000 0.000000
#
# Coordination Sequence:
#
# PCOD8158757 Si02
#       8
#     8   8   8   8   8   8   8   8
#     4   9  18  37  65  83 110 154 203 243 289 359
#     4  10  24  40  57  91 125 154 192 254 312 349
#     4   9  20  41  64  85 111 154 210 251 290 361
#     4  10  20  37  61  86 112 157 207 240 287 354
#     4  11  20  36  62  85 117 162 208 240 289 358
#     4  11  19  36  60  87 116 156 204 248 289 356
#     4  11  22  39  55  90 127 149 189 252 312 352
#     4  11  19  37  60  85 117 158 205 238 280 362
#
# _framework density 19.374881999999999
#
# number of rings (size 3 to 8) (size 9 to 14) (size 15 to 20)
#    0.000    1.750    3.750    3.375    0.000    1.000 
#    9.000    3.750    0.000    0.000    0.000    0.000 
#    0.000    0.000    0.000    0.000    0.000    0.000 
#
# Total GULP energy -396590.212323 kJ/mol
# GULP energy per Si atom -12393.444135 kJ/mol
# Density = 1.933078 g / cm^3
# Si number density = 19.374882 Si / 1000 Ang^3
#
#
#
# Elastic Constant Matrix: (Units=GPa)
#
#
# Indices 1 2 3 4 5 6 
#
# 1 108.7862 42.8448 44.7284 0.0000 0.0000 0.0000
# 2 42.8448 107.5004 34.2138 0.0000 0.0000 0.0000
# 3 44.7284 34.2138 134.1314 0.0000 0.0000 0.0000
# 4 0.0000 0.0000 0.0000 1.7574 0.0000 0.0000
# 5 0.0000 0.0000 0.0000 0.0000 13.9712 0.0000
# 6 0.0000 0.0000 0.0000 0.0000 0.0000 17.7647
#
#
#
# Elastic Compliance Matrix: (Units=1/GPa)
#
#
# Indices 1 2 3 4 5 6 
#
# 1 0.011924 -0.003795 -0.003008 0.000000 0.000000 0.000000
# 2 -0.003795 0.011332 -0.001625 0.000000 0.000000 0.000000
# 3 -0.003008 -0.001625 0.008873 0.000000 0.000000 0.000000
# 4 0.000000 0.000000 0.000000 0.569039 0.000000 0.000000
# 5 0.000000 0.000000 0.000000 0.000000 0.071576 0.000000
# 6 0.000000 0.000000 0.000000 0.000000 0.000000 0.056292
#
#
# Mechanical properties :
#
#
# Convention : Reuss Voigt Hill
#
# Bulk Modulus (GPa) = 65.47714 65.99912 65.73813
# Shear Modulus (GPa) = 6.65795 21.94071 14.29933
#
# Velocity S-wave (km/s) = 1.85576 3.36881 2.71963
# Velocity P-wave (km/s) = 6.20161 7.01926 6.62307
#
# Compressibility (1/GPa) = 0.01527250
#
# Stress axis : x y z
#
# Youngs Moduli (GPa) = 83.86607 88.24600 112.70111
#
# Poissons Ratio (x) = 0.33488 0.33903
# Poissons Ratio (y) = 0.31826 0.18315
# Poissons Ratio (z) = 0.25229 0.14341
#
# Static dielectric constant tensor:
#      x y z
#    x 3.258500 0.000000 0.000000 
#    y 0.000000 3.844040 0.000000 
#    z 0.000000 0.000000 3.714780 
# 
# 
# High freq. dielectric constant tensor:
#      x y z
#    x 1.711210 0.000000 0.000000 
#    y 0.000000 1.773550 0.000000 
#    z 0.000000 0.000000 1.757660 
# 
# From -- ./inp_files/29480.got.cif
#   From: 2010.03.12/outbox.cif.g09.slc.cpg/sg20_15_cif.got.tgz:29480.got - 2010.04.14 01:38:04.
