data_PCOD8158830
_publ_section_title
;
Structure prediction by ZEFSAII (Michael W. Deem and Ramdas Pophale) SiO2 
 PCOD8158830
Probable space group: C 2 2 21
;
_chemical_formula_sum "Si O2"
_cell_formula_units_Z 44
_cell_length_a 6.269560
_cell_length_b 16.396884
_cell_length_c 17.065781
_cell_angle_alpha 90.000000
_cell_angle_beta 90.000000
_cell_angle_gamma 90.000000
_cell_volume 1754.383586
_symmetry_space_group_name_H-M "C 2 2 21"
_symmetry_group_IT_number 20
_symmetry_cell_setting 'orthorhombic'
loop_
_space_group_symop_operation_xyz
x,y,z
-x,-y,1/2+z
x,-y,-z
-x,y,1/2-z
1/2+x,1/2+y,z
1/2-x,1/2-y,1/2+z
1/2+x,1/2-y,-z
1/2-x,1/2+y,1/2-z
loop_
_atom_site_type_symbol
_atom_site_label
_atom_site_fract_x
_atom_site_fract_y
_atom_site_fract_z
Si Si1 0.156774 0.543359 0.580266
Si Si2 0.500000 0.294232 0.750000
Si Si3 0.491371 0.212256 0.913250
Si Si4 0.324942 0.503247 0.109012
Si Si5 0.743873 0.945092 0.727174
Si Si6 0.612568 0.361857 0.487043
O O1 0.209951 0.500000 0.500000
O O2 0.191421 0.642603 0.570793
O O3 0.293213 0.495013 0.647348
O O4 0.908570 0.535832 0.603941
O O5 0.442207 0.238670 0.824316
O O6 0.301434 0.349497 0.720024
O O7 0.508252 0.284986 0.977077
O O8 0.719530 0.172059 0.924825
O O9 0.386585 0.521078 0.199357
O O10 0.300608 0.588621 0.062517
O O11 0.492688 0.435809 0.067596
O O12 0.500000 0.953887 0.750000
#
# Coordination Sequence:
#
# PCOD8158830 Si02
#       6
#     8   4   8   8   8   8
#     4  10  20  39  65  88 122 174 219 249 323 400
#     4  12  26  42  64 102 132 162 222 282 326 380
#     4  11  24  39  63  97 129 165 221 278 324 377
#     4   9  17  40  64  85 119 175 208 247 331 397
#     4  10  23  42  70  89 129 177 215 262 333 397
#     4  10  20  38  63  88 125 165 210 264 322 380
#
# _framework density 25.080034000000001
#
# number of rings (size 3 to 8) (size 9 to 14) (size 15 to 20)
#    0.000    1.818    5.455    0.000    8.909    0.000 
#    3.273    0.000    2.000    0.000    0.000    0.000 
#    0.000    0.000    0.000    0.000    0.000    0.000 
#
# Total GULP energy -272583.005629 kJ/mol
# GULP energy per Si atom -12390.136619 kJ/mol
# Density = 2.502295 g / cm^3
# Si number density = 25.080034 Si / 1000 Ang^3
#
#
#
# Elastic Constant Matrix: (Units=GPa)
#
#
# Indices 1 2 3 4 5 6 
#
# 1 42.1181 39.7897 37.2277 0.0000 0.0000 0.0000
# 2 39.7897 195.0869 101.4414 0.0000 0.0000 0.0000
# 3 37.2277 101.4414 211.1696 0.0000 0.0000 0.0000
# 4 0.0000 0.0000 0.0000 62.5693 0.0000 0.0000
# 5 0.0000 0.0000 0.0000 0.0000 34.0764 0.0000
# 6 0.0000 0.0000 0.0000 0.0000 0.0000 40.7064
#
#
#
# Elastic Compliance Matrix: (Units=1/GPa)
#
#
# Indices 1 2 3 4 5 6 
#
# 1 0.030983 -0.004637 -0.003234 0.000000 0.000000 0.000000
# 2 -0.004637 0.007527 -0.002798 0.000000 0.000000 0.000000
# 3 -0.003234 -0.002798 0.006650 0.000000 0.000000 0.000000
# 4 0.000000 0.000000 0.000000 0.015982 0.000000 0.000000
# 5 0.000000 0.000000 0.000000 0.000000 0.029346 0.000000
# 6 0.000000 0.000000 0.000000 0.000000 0.000000 0.024566
#
#
# Mechanical properties :
#
#
# Convention : Reuss Voigt Hill
#
# Bulk Modulus (GPa) = 41.98238 89.47693 65.72966
# Shear Modulus (GPa) = 34.64210 45.46480 40.05345
#
# Velocity S-wave (km/s) = 3.72057 4.26230 4.00062
# Velocity P-wave (km/s) = 5.93570 7.74448 6.89962
#
# Compressibility (1/GPa) = 0.02381952
#
# Stress axis : x y z
#
# Youngs Moduli (GPa) = 32.27618 132.85963 150.37850
#
# Poissons Ratio (x) = 0.61612 0.48637
# Poissons Ratio (y) = 0.14968 0.42078
# Poissons Ratio (z) = 0.10439 0.37176
#
# Static dielectric constant tensor:
#      x y z
#    x 4.805610 0.000000 0.000000 
#    y 0.000000 5.168030 0.000000 
#    z 0.000000 0.000000 4.864570 
# 
# 
# High freq. dielectric constant tensor:
#      x y z
#    x 2.033930 0.000000 0.000000 
#    y 0.000000 2.019830 0.000000 
#    z 0.000000 0.000000 2.016000 
# 
# From -- ./inp_files/23353.got.cif
#   From: 2010.03.12/outbox.cif.g09.slc.cpg/sg20_12_cif.got.tgz:23353.got - 2010.04.14 01:38:04.
