data_PCOD8158202
_publ_section_title
;
Structure prediction by ZEFSAII (Michael W. Deem and Ramdas Pophale) SiO2 
 PCOD8158202
Probable space group: C 2 2 21
;
_chemical_formula_sum "Si O2"
_cell_formula_units_Z 32
_cell_length_a 11.826546
_cell_length_b 9.162953
_cell_length_c 14.330736
_cell_angle_alpha 90.000000
_cell_angle_beta 90.000000
_cell_angle_gamma 90.000000
_cell_volume 1552.965758
_symmetry_space_group_name_H-M "C 2 2 21"
_symmetry_group_IT_number 20
_symmetry_cell_setting 'orthorhombic'
loop_
_space_group_symop_operation_xyz
x,y,z
-x,-y,1/2+z
x,-y,-z
-x,y,1/2-z
1/2+x,1/2+y,z
1/2-x,1/2-y,1/2+z
1/2+x,1/2-y,-z
1/2-x,1/2+y,1/2-z
loop_
_atom_site_type_symbol
_atom_site_label
_atom_site_fract_x
_atom_site_fract_y
_atom_site_fract_z
Si Si1 0.023085 0.000000 0.000000
Si Si2 0.309153 0.651529 0.970937
Si Si3 0.634465 0.089395 0.593286
Si Si4 0.813262 0.132871 0.353150
Si Si5 0.000000 0.274895 0.250000
O O1 0.099188 0.094979 0.066527
O O2 0.940701 0.885662 0.054299
O O3 0.252251 0.718927 0.879717
O O4 0.246507 0.500000 0.000000
O O5 0.303812 0.763927 0.058087
O O6 0.526203 0.125940 0.658631
O O7 0.597053 0.000000 0.500000
O O8 0.723628 0.998746 0.657676
O O9 0.888839 0.171731 0.262815
#
# Coordination Sequence:
#
# PCOD8158202 Si02
#       5
#     4   8   8   8   4
#     4  10  18  38  66  90 120 172 204 266 338 384
#     4   9  19  37  65  96 118 167 219 256 331 390
#     4  10  22  42  66  95 133 175 219 273 330 389
#     4  11  22  41  63  92 131 164 218 275 321 396
#     4  12  24  40  66  98 132 176 222 276 330 384
#
# _framework density 20.605734999999999
#
# number of rings (size 3 to 8) (size 9 to 14) (size 15 to 20)
#    0.750    1.000    6.250    0.000    0.000    5.000 
#    0.000    7.500    0.000    3.000    0.000    0.000 
#    0.000    0.000    0.000    0.000    0.000    0.000 
#
# Total GULP energy -198211.164169 kJ/mol
# GULP energy per Si atom -12388.197761 kJ/mol
# Density = 2.055884 g / cm^3
# Si number density = 20.605735 Si / 1000 Ang^3
#
#
#
# Elastic Constant Matrix: (Units=GPa)
#
#
# Indices 1 2 3 4 5 6 
#
# 1 74.3645 22.4259 18.9499 0.0000 0.0000 0.0000
# 2 22.4259 132.4025 27.4951 0.0000 0.0000 0.0000
# 3 18.9499 27.4951 74.1692 0.0000 0.0000 0.0000
# 4 0.0000 0.0000 0.0000 19.1650 0.0000 0.0000
# 5 0.0000 0.0000 0.0000 0.0000 45.6375 0.0000
# 6 0.0000 0.0000 0.0000 0.0000 0.0000 61.6395
#
#
#
# Elastic Compliance Matrix: (Units=1/GPa)
#
#
# Indices 1 2 3 4 5 6 
#
# 1 0.014797 -0.001865 -0.003089 0.000000 0.000000 0.000000
# 2 -0.001865 0.008418 -0.002644 0.000000 0.000000 0.000000
# 3 -0.003089 -0.002644 0.015252 0.000000 0.000000 0.000000
# 4 0.000000 0.000000 0.000000 0.052178 0.000000 0.000000
# 5 0.000000 0.000000 0.000000 0.000000 0.021912 0.000000
# 6 0.000000 0.000000 0.000000 0.000000 0.000000 0.016223
#
#
# Mechanical properties :
#
#
# Convention : Reuss Voigt Hill
#
# Bulk Modulus (GPa) = 42.97275 46.51978 44.74627
# Shear Modulus (GPa) = 32.95259 39.42609 36.18934
#
# Velocity S-wave (km/s) = 4.00333 4.37894 4.19534
# Velocity P-wave (km/s) = 6.50146 6.94204 6.72536
#
# Compressibility (1/GPa) = 0.02327056
#
# Stress axis : x y z
#
# Youngs Moduli (GPa) = 67.58206 118.79818 65.56453
#
# Poissons Ratio (x) = 0.22152 0.20255
# Poissons Ratio (y) = 0.12602 0.17336
# Poissons Ratio (z) = 0.20878 0.31411
#
# Static dielectric constant tensor:
#      x y z
#    x 3.782680 0.000000 0.000000 
#    y 0.000000 4.369840 0.000000 
#    z 0.000000 0.000000 1.468550 
# 
# 
# High freq. dielectric constant tensor:
#      x y z
#    x 1.801270 0.000000 0.000000 
#    y 0.000000 1.816790 0.000000 
#    z 0.000000 0.000000 1.769510 
# 
# From -- ./inp_files/18238.got.cif
#   From: 2010.03.12/outbox.cif.g09.slc.cpg/sg20_10_cif.got.tgz:18238.got - 2010.04.14 01:38:04.
