data_PCOD8158833
_publ_section_title
;
Structure prediction by ZEFSAII (Michael W. Deem and Ramdas Pophale) SiO2 
 PCOD8158833
Probable space group: C 2 2 21
;
_chemical_formula_sum "Si O2"
_cell_formula_units_Z 64
_cell_length_a 22.506745
_cell_length_b 15.413078
_cell_length_c 9.376323
_cell_angle_alpha 90.000000
_cell_angle_beta 90.000000
_cell_angle_gamma 90.000000
_cell_volume 3252.629723
_symmetry_space_group_name_H-M "C 2 2 21"
_symmetry_group_IT_number 20
_symmetry_cell_setting 'orthorhombic'
loop_
_space_group_symop_operation_xyz
x,y,z
-x,-y,1/2+z
x,-y,-z
-x,y,1/2-z
1/2+x,1/2+y,z
1/2-x,1/2-y,1/2+z
1/2+x,1/2-y,-z
1/2-x,1/2+y,1/2-z
loop_
_atom_site_type_symbol
_atom_site_label
_atom_site_fract_x
_atom_site_fract_y
_atom_site_fract_z
Si Si1 0.659285 0.101129 0.969903
Si Si2 0.432026 0.839086 0.242683
Si Si3 0.242269 0.124775 0.749340
Si Si4 0.358016 0.506348 0.837518
Si Si5 0.058659 0.147127 0.319083
Si Si6 0.157812 0.599825 0.521891
Si Si7 0.842351 0.287650 0.752677
Si Si8 0.942660 0.836905 0.153196
O O1 0.602827 0.114347 0.868958
O O2 0.720675 0.130530 0.896741
O O3 0.649768 0.158384 0.109241
O O4 0.663468 0.000000 0.000000
O O5 0.500000 0.871942 0.250000
O O6 0.428393 0.735720 0.265043
O O7 0.401839 0.860605 0.091011
O O8 0.198609 0.040593 0.750970
O O9 0.285169 0.113549 0.881001
O O10 0.207580 0.214676 0.765012
O O11 0.383264 0.412502 0.791007
O O12 0.411568 0.572363 0.815189
O O13 0.336990 0.500000 0.000000
O O14 0.044595 0.167076 0.484512
O O15 0.000000 0.103029 0.250000
O O16 0.144197 0.500000 0.500000
O O17 0.175294 0.644544 0.374301
O O18 0.903833 0.244363 0.798096
O O19 0.000000 0.832970 0.250000
#
# Coordination Sequence:
#
# PCOD8158833 Si02
#       8
#     8   8   8   8   8   8   8   8
#     4  11  24  43  64  89 121 161 207 256 301 365
#     4  10  23  42  63  91 121 157 209 249 308 367
#     4  10  22  42  62  91 122 159 208 247 301 369
#     4   9  19  37  61  91 127 165 204 243 307 367
#     4  10  20  38  63  89 128 167 198 250 303 367
#     4  11  23  43  61  88 125 155 200 262 303 347
#     4  11  22  39  65  89 121 164 201 250 308 356
#     4  10  21  36  60  93 125 162 206 251 302 368
#
# _framework density 19.676386000000001
#
# number of rings (size 3 to 8) (size 9 to 14) (size 15 to 20)
#    0.000    1.750    1.250    3.000    3.500    0.500 
#   11.250    1.250    0.000    0.000    0.000    0.000 
#    0.000    0.000    0.000    0.000    0.000    0.000 
#
# Total GULP energy -396809.732123 kJ/mol
# GULP energy per Si atom -12400.304129 kJ/mol
# Density = 1.963160 g / cm^3
# Si number density = 19.676386 Si / 1000 Ang^3
#
#
#
# Elastic Constant Matrix: (Units=GPa)
#
#
# Indices 1 2 3 4 5 6 
#
# 1 111.5610 28.6775 32.1731 0.0000 0.0000 0.0000
# 2 28.6775 87.2739 23.2530 0.0000 0.0000 0.0000
# 3 32.1731 23.2530 87.6849 0.0000 0.0000 0.0000
# 4 0.0000 0.0000 0.0000 32.3817 0.0000 0.0000
# 5 0.0000 0.0000 0.0000 0.0000 21.2931 0.0000
# 6 0.0000 0.0000 0.0000 0.0000 0.0000 24.1057
#
#
#
# Elastic Compliance Matrix: (Units=1/GPa)
#
#
# Indices 1 2 3 4 5 6 
#
# 1 0.010554 -0.002621 -0.003177 0.000000 0.000000 0.000000
# 2 -0.002621 0.012980 -0.002480 0.000000 0.000000 0.000000
# 3 -0.003177 -0.002480 0.013228 0.000000 0.000000 0.000000
# 4 0.000000 0.000000 0.000000 0.030882 0.000000 0.000000
# 5 0.000000 0.000000 0.000000 0.000000 0.046964 0.000000
# 6 0.000000 0.000000 0.000000 0.000000 0.000000 0.041484
#
#
# Mechanical properties :
#
#
# Convention : Reuss Voigt Hill
#
# Bulk Modulus (GPa) = 49.49460 50.52524 50.00992
# Shear Modulus (GPa) = 27.87315 29.05054 28.46184
#
# Velocity S-wave (km/s) = 3.76783 3.84658 3.80741
# Velocity P-wave (km/s) = 6.64362 6.74256 6.69327
#
# Compressibility (1/GPa) = 0.02020422
#
# Stress axis : x y z
#
# Youngs Moduli (GPa) = 94.75238 77.03916 75.59703
#
# Poissons Ratio (x) = 0.20195 0.24019
# Poissons Ratio (y) = 0.24838 0.18751
# Poissons Ratio (z) = 0.30105 0.19109
#
# Static dielectric constant tensor:
#      x y z
#    x 3.664240 0.000000 0.000000 
#    y 0.000000 3.830200 0.000000 
#    z 0.000000 0.000000 3.568290 
# 
# 
# High freq. dielectric constant tensor:
#      x y z
#    x 1.772960 0.000000 0.000000 
#    y 0.000000 1.777180 0.000000 
#    z 0.000000 0.000000 1.766260 
# 
# From -- ./inp_files/10817.got.cif
#   From: 2010.03.12/outbox.cif.g09.slc.cpg/sg20_6_cif.got.tgz:10817.got - 2010.04.14 01:38:04.
