data_PCOD8158403
_publ_section_title
;
Structure prediction by ZEFSAII (Michael W. Deem and Ramdas Pophale) SiO2 
 PCOD8158403
Probable space group: C 2 2 21
;
_chemical_formula_sum "Si O2"
_cell_formula_units_Z 48
_cell_length_a 13.703594
_cell_length_b 17.678697
_cell_length_c 9.796724
_cell_angle_alpha 90.000000
_cell_angle_beta 90.000000
_cell_angle_gamma 90.000000
_cell_volume 2373.370875
_symmetry_space_group_name_H-M "C 2 2 21"
_symmetry_group_IT_number 20
_symmetry_cell_setting 'orthorhombic'
loop_
_space_group_symop_operation_xyz
x,y,z
-x,-y,1/2+z
x,-y,-z
-x,y,1/2-z
1/2+x,1/2+y,z
1/2-x,1/2-y,1/2+z
1/2+x,1/2-y,-z
1/2-x,1/2+y,1/2-z
loop_
_atom_site_type_symbol
_atom_site_label
_atom_site_fract_x
_atom_site_fract_y
_atom_site_fract_z
Si Si1 0.220422 0.611920 0.734297
Si Si2 0.773299 0.963791 0.862170
Si Si3 0.621184 0.860960 0.982116
Si Si4 0.902421 0.681117 0.005270
Si Si5 0.396178 0.317596 0.818841
Si Si6 0.198095 0.260432 0.762393
O O1 0.261979 0.526057 0.741045
O O2 0.163685 0.628133 0.592554
O O3 0.313518 0.669386 0.747648
O O4 0.149176 0.626707 0.861421
O O5 0.666109 0.928133 0.888954
O O6 0.856081 0.902171 0.832760
O O7 0.813573 0.000000 0.000000
O O8 0.667637 0.784439 0.916595
O O9 0.505089 0.860362 0.976515
O O10 0.911685 0.768186 0.955975
O O11 0.859632 0.687681 0.156696
O O12 0.500000 0.320769 0.750000
O O13 0.314185 0.272455 0.733315
#
# Coordination Sequence:
#
# PCOD8158403 Si02
#       6
#     8   8   8   8   8   8
#     4  10  19  36  59  81 112 152 189 223 278 344
#     4   9  19  38  57  79 115 151 182 227 286 336
#     4  10  20  36  56  84 116 145 182 233 284 330
#     4  11  20  35  61  87 109 144 192 231 275 336
#     4  10  21  37  57  79 110 147 187 232 277 324
#     4  10  20  36  58  84 114 143 184 238 279 324
#
# _framework density 20.224398000000001
#
# number of rings (size 3 to 8) (size 9 to 14) (size 15 to 20)
#    0.000    2.000    0.000    7.000    0.000    0.000 
#    0.000   26.667    0.000    0.000    0.000    0.000 
#    0.000    0.000    0.000    0.000    0.000    0.000 
#
# Total GULP energy -297325.432300 kJ/mol
# GULP energy per Si atom -12388.559679 kJ/mol
# Density = 2.017837 g / cm^3
# Si number density = 20.224398 Si / 1000 Ang^3
#
#
#
# Elastic Constant Matrix: (Units=GPa)
#
#
# Indices 1 2 3 4 5 6 
#
# 1 46.7252 -6.9568 7.9076 0.0000 0.0000 0.0000
# 2 -6.9568 99.0670 5.6987 0.0000 0.0000 0.0000
# 3 7.9076 5.6987 42.9430 0.0000 0.0000 0.0000
# 4 0.0000 0.0000 0.0000 26.1888 0.0000 0.0000
# 5 0.0000 0.0000 0.0000 0.0000 26.5993 0.0000
# 6 0.0000 0.0000 0.0000 0.0000 0.0000 13.9725
#
#
#
# Elastic Compliance Matrix: (Units=1/GPa)
#
#
# Indices 1 2 3 4 5 6 
#
# 1 0.022413 0.001825 -0.004369 0.000000 0.000000 0.000000
# 2 0.001825 0.010320 -0.001706 0.000000 0.000000 0.000000
# 3 -0.004369 -0.001706 0.024318 0.000000 0.000000 0.000000
# 4 0.000000 0.000000 0.000000 0.038184 0.000000 0.000000
# 5 0.000000 0.000000 0.000000 0.000000 0.037595 0.000000
# 6 0.000000 0.000000 0.000000 0.000000 0.000000 0.071569
#
#
# Mechanical properties :
#
#
# Convention : Reuss Voigt Hill
#
# Bulk Modulus (GPa) = 20.59670 22.44824 21.52247
# Shear Modulus (GPa) = 21.82615 25.49115 23.65865
#
# Velocity S-wave (km/s) = 3.28868 3.55409 3.42396
# Velocity P-wave (km/s) = 4.96253 5.28826 5.12798
#
# Compressibility (1/GPa) = 0.04855147
#
# Stress axis : x y z
#
# Youngs Moduli (GPa) = 44.61708 96.89482 41.12243
#
# Poissons Ratio (x) = -0.17686 0.17968
# Poissons Ratio (y) = -0.08144 0.07014
# Poissons Ratio (z) = 0.19495 0.16527
#
# Static dielectric constant tensor:
#      x y z
#    x 3.529480 0.000000 0.000000 
#    y 0.000000 4.106390 0.000000 
#    z 0.000000 0.000000 3.677780 
# 
# 
# High freq. dielectric constant tensor:
#      x y z
#    x 1.772620 0.000000 0.000000 
#    y 0.000000 1.795330 0.000000 
#    z 0.000000 0.000000 1.783340 
# 
# From -- ./inp_files/8410.got.cif
#   From: 2010.03.12/outbox.cif.g09.slc.cpg/sg20_5_cif.got.tgz:8410.got - 2010.04.14 01:38:04.
