data_PCOD8158736
_publ_section_title
;
Structure prediction by ZEFSAII (Michael W. Deem and Ramdas Pophale) SiO2 
 PCOD8158736
Probable space group: C 2 2 21
;
_chemical_formula_sum "Si O2"
_cell_formula_units_Z 52
_cell_length_a 8.662645
_cell_length_b 19.576825
_cell_length_c 14.827179
_cell_angle_alpha 90.000000
_cell_angle_beta 90.000000
_cell_angle_gamma 90.000000
_cell_volume 2514.498068
_symmetry_space_group_name_H-M "C 2 2 21"
_symmetry_group_IT_number 20
_symmetry_cell_setting 'orthorhombic'
loop_
_space_group_symop_operation_xyz
x,y,z
-x,-y,1/2+z
x,-y,-z
-x,y,1/2-z
1/2+x,1/2+y,z
1/2-x,1/2-y,1/2+z
1/2+x,1/2-y,-z
1/2-x,1/2+y,1/2-z
loop_
_atom_site_type_symbol
_atom_site_label
_atom_site_fract_x
_atom_site_fract_y
_atom_site_fract_z
Si Si1 0.641908 0.359527 0.060375
Si Si2 0.634117 0.201470 0.045848
Si Si3 0.820378 0.665253 0.759343
Si Si4 0.801166 0.110452 0.914541
Si Si5 0.828614 0.695066 0.254200
Si Si6 0.129556 0.391496 0.582276
Si Si7 0.081069 0.500000 0.000000
O O1 0.606553 0.281402 0.037181
O O2 0.760113 0.358916 0.143798
O O3 0.484315 0.401127 0.076633
O O4 0.715505 0.399166 0.975682
O O5 0.699931 0.172673 0.142056
O O6 0.464750 0.169185 0.033180
O O7 0.752072 0.178599 0.968635
O O8 0.728048 0.618444 0.690676
O O9 0.792107 0.744910 0.733201
O O10 0.000000 0.650521 0.750000
O O11 0.696163 0.048699 0.947109
O O12 0.824094 0.630050 0.185475
O O13 0.000000 0.728606 0.250000
O O14 0.027162 0.460690 0.573709
#
# Coordination Sequence:
#
# PCOD8158736 Si02
#       7
#     8   8   8   8   8   8   4
#     4  11  21  35  62  91 114 147 192 242 302 351
#     4   9  18  34  58  91 120 148 182 233 302 357
#     4  11  21  35  59  92 122 147 183 237 301 360
#     4  11  22  39  57  81 121 158 193 242 283 340
#     4   9  18  34  58  87 119 148 184 235 291 349
#     4  10  20  37  57  83 117 156 195 242 286 340
#     4  10  24  42  58  78 114 164 210 236 280 340
#
# _framework density 20.680073
#
# number of rings (size 3 to 8) (size 9 to 14) (size 15 to 20)
#    0.000    1.846    0.000    6.923    0.000    4.308 
#    0.000   11.538    0.000    7.385    0.000    0.000 
#    0.000    0.000    0.000    0.000    0.000    0.000 
#
# Total GULP energy -322258.998617 kJ/mol
# GULP energy per Si atom -12394.576870 kJ/mol
# Density = 2.063300 g / cm^3
# Si number density = 20.680073 Si / 1000 Ang^3
#
#
#
# Elastic Constant Matrix: (Units=GPa)
#
#
# Indices 1 2 3 4 5 6 
#
# 1 117.5331 20.1913 23.6325 0.0000 0.0000 0.0000
# 2 20.1913 68.5058 20.0169 0.0000 0.0000 0.0000
# 3 23.6325 20.0169 78.7284 0.0000 0.0000 0.0000
# 4 0.0000 0.0000 0.0000 13.1718 0.0000 0.0000
# 5 0.0000 0.0000 0.0000 0.0000 31.1728 0.0000
# 6 0.0000 0.0000 0.0000 0.0000 0.0000 20.2483
#
#
#
# Elastic Compliance Matrix: (Units=1/GPa)
#
#
# Indices 1 2 3 4 5 6 
#
# 1 0.009323 -0.002085 -0.002268 0.000000 0.000000 0.000000
# 2 -0.002085 0.016235 -0.003502 0.000000 0.000000 0.000000
# 3 -0.002268 -0.003502 0.014273 0.000000 0.000000 0.000000
# 4 0.000000 0.000000 0.000000 0.075920 0.000000 0.000000
# 5 0.000000 0.000000 0.000000 0.000000 0.032079 0.000000
# 6 0.000000 0.000000 0.000000 0.000000 0.000000 0.049387
#
#
# Mechanical properties :
#
#
# Convention : Reuss Voigt Hill
#
# Bulk Modulus (GPa) = 41.45876 43.60542 42.53209
# Shear Modulus (GPa) = 22.62780 26.31369 24.47075
#
# Velocity S-wave (km/s) = 3.31143 3.57097 3.44365
# Velocity P-wave (km/s) = 5.89169 6.17526 6.03514
#
# Compressibility (1/GPa) = 0.02412035
#
# Stress axis : x y z
#
# Youngs Moduli (GPa) = 107.26736 61.59510 70.06151
#
# Poissons Ratio (x) = 0.12842 0.15892
# Poissons Ratio (y) = 0.22364 0.24535
# Poissons Ratio (z) = 0.24332 0.21570
#
# Static dielectric constant tensor:
#      x y z
#    x 3.806790 0.000000 0.000000 
#    y 0.000000 3.525920 0.000000 
#    z 0.000000 0.000000 3.883830 
# 
# 
# High freq. dielectric constant tensor:
#      x y z
#    x 1.812270 0.000000 0.000000 
#    y 0.000000 1.775690 0.000000 
#    z 0.000000 0.000000 1.815290 
# 
# From -- ./inp_files/19101.got.cif
#   From: 2010.03.12/outbox.cif.g09.slc.cpg/sg20_10_cif.got.tgz:19101.got - 2010.04.14 01:38:04.
