data_PCOD8158489
_publ_section_title
;
Structure prediction by ZEFSAII (Michael W. Deem and Ramdas Pophale) SiO2 
 PCOD8158489
Probable space group: C 2 2 21
;
_chemical_formula_sum "Si O2"
_cell_formula_units_Z 40
_cell_length_a 22.025421
_cell_length_b 8.002811
_cell_length_c 10.625221
_cell_angle_alpha 90.000000
_cell_angle_beta 90.000000
_cell_angle_gamma 90.000000
_cell_volume 1872.857570
_symmetry_space_group_name_H-M "C 2 2 21"
_symmetry_group_IT_number 20
_symmetry_cell_setting 'orthorhombic'
loop_
_space_group_symop_operation_xyz
x,y,z
-x,-y,1/2+z
x,-y,-z
-x,y,1/2-z
1/2+x,1/2+y,z
1/2-x,1/2-y,1/2+z
1/2+x,1/2-y,-z
1/2-x,1/2+y,1/2-z
loop_
_atom_site_type_symbol
_atom_site_label
_atom_site_fract_x
_atom_site_fract_y
_atom_site_fract_z
Si Si1 0.662705 0.173767 0.748389
Si Si2 0.740313 0.100375 0.126836
Si Si3 0.014748 0.303047 0.883774
Si Si4 0.138412 0.804940 0.016115
Si Si5 0.465364 0.171943 0.864229
O O1 0.699330 0.330284 0.691819
O O2 0.634211 0.220030 0.881167
O O3 0.606229 0.138125 0.655541
O O4 0.705708 0.012591 0.768898
O O5 0.700466 0.260462 0.087555
O O6 0.757587 0.000000 0.000000
O O7 0.001480 0.498745 0.874334
O O8 0.000000 0.214023 0.750000
O O9 0.976183 0.229427 0.003124
O O10 0.085788 0.275230 0.901179
O O11 0.131270 0.000000 0.000000
O O12 0.500000 0.270575 0.750000
#
# Coordination Sequence:
#
# PCOD8158489 Si02
#       5
#     8   8   8   8   8
#     4  11  22  44  71  96 136 178 228 279 335 413
#     4  10  23  42  68 102 134 179 225 280 342 406
#     4  10  21  39  63  98 126 169 220 272 335 407
#     4  11  23  43  68  95 138 176 221 282 345 401
#     4  10  19  38  69  95 122 173 220 265 337 407
#
# _framework density 21.357738000000001
#
# number of rings (size 3 to 8) (size 9 to 14) (size 15 to 20)
#    0.000    1.600    2.000    3.600    5.600    0.000 
#   32.400    0.000    0.000    0.000    0.000    0.000 
#    0.000    0.000    0.000    0.000    0.000    0.000 
#
# Total GULP energy -247913.302596 kJ/mol
# GULP energy per Si atom -12395.665130 kJ/mol
# Density = 2.130913 g / cm^3
# Si number density = 21.357738 Si / 1000 Ang^3
#
#
#
# Elastic Constant Matrix: (Units=GPa)
#
#
# Indices 1 2 3 4 5 6 
#
# 1 110.8747 40.9611 59.0659 0.0000 0.0000 0.0000
# 2 40.9611 77.3263 14.6161 0.0000 0.0000 0.0000
# 3 59.0659 14.6161 170.8044 0.0000 0.0000 0.0000
# 4 0.0000 0.0000 0.0000 16.3534 0.0000 0.0000
# 5 0.0000 0.0000 0.0000 0.0000 -24.7099 0.0000
# 6 0.0000 0.0000 0.0000 0.0000 0.0000 17.1668
#
#
#
# Elastic Compliance Matrix: (Units=1/GPa)
#
#
# Indices 1 2 3 4 5 6 
#
# 1 0.013605 -0.006421 -0.004155 0.000000 0.000000 0.000000
# 2 -0.006421 0.016176 0.000836 0.000000 0.000000 0.000000
# 3 -0.004155 0.000836 0.007220 0.000000 0.000000 0.000000
# 4 0.000000 0.000000 0.000000 0.061149 0.000000 0.000000
# 5 0.000000 0.000000 0.000000 0.000000 -0.040470 0.000000
# 6 0.000000 0.000000 0.000000 0.000000 0.000000 0.058252
#
#
# Mechanical properties :
#
#
# Convention : Reuss Voigt Hill
#
# Bulk Modulus (GPa) = 57.07710 65.36574 61.22142
# Shear Modulus (GPa) = 35.39746 18.05289 26.72517
#
# Velocity S-wave (km/s) = 4.07549 2.91049 3.54122
# Velocity P-wave (km/s) = 6.99489 6.47814 6.74146
#
# Compressibility (1/GPa) = 0.01752016
#
# Stress axis : x y z
#
# Youngs Moduli (GPa) = 73.50164 61.82128 138.50369
#
# Poissons Ratio (x) = 0.39698 0.57552
# Poissons Ratio (y) = 0.47199 -0.11585
# Poissons Ratio (z) = 0.30542 -0.05171
#
# Static dielectric constant tensor:
#      x y z
#    x 3.798800 0.000000 0.000000 
#    y 0.000000 4.149410 0.000000 
#    z 0.000000 0.000000 5.669280 
# 
# 
# High freq. dielectric constant tensor:
#      x y z
#    x 1.840140 0.000000 0.000000 
#    y 0.000000 1.803900 0.000000 
#    z 0.000000 0.000000 1.859780 
# 
# From -- ./inp_files/15564.got.cif
#   From: 2010.03.12/outbox.cif.g09.slc.cpg/sg20_8_cif.got.tgz:15564.got - 2010.04.14 01:38:04.
