data_PCOD8158115
_publ_section_title
;
Structure prediction by ZEFSAII (Michael W. Deem and Ramdas Pophale) SiO2 
 PCOD8158115
Probable space group: C 2 2 21
;
_chemical_formula_sum "Si O2"
_cell_formula_units_Z 40
_cell_length_a 17.164829
_cell_length_b 9.956053
_cell_length_c 13.126381
_cell_angle_alpha 90.000000
_cell_angle_beta 90.000000
_cell_angle_gamma 90.000000
_cell_volume 2243.219062
_symmetry_space_group_name_H-M "C 2 2 21"
_symmetry_group_IT_number 20
_symmetry_cell_setting 'orthorhombic'
loop_
_space_group_symop_operation_xyz
x,y,z
-x,-y,1/2+z
x,-y,-z
-x,y,1/2-z
1/2+x,1/2+y,z
1/2-x,1/2-y,1/2+z
1/2+x,1/2-y,-z
1/2-x,1/2+y,1/2-z
loop_
_atom_site_type_symbol
_atom_site_label
_atom_site_fract_x
_atom_site_fract_y
_atom_site_fract_z
Si Si1 0.333068 0.828404 0.287072
Si Si2 0.123163 0.348418 0.988441
Si Si3 0.997538 0.860130 0.529233
Si Si4 0.500000 0.254651 0.750000
Si Si5 0.355343 0.500000 0.000000
Si Si6 0.245064 0.408875 0.826247
O O1 0.331821 0.805382 0.408883
O O2 0.421884 0.836219 0.245245
O O3 0.287634 0.701120 0.241782
O O4 0.293624 0.971854 0.258452
O O5 0.045969 0.260063 0.971455
O O6 0.093377 0.500000 0.000000
O O7 0.180432 0.331069 0.892961
O O8 0.087854 0.868574 0.491145
O O9 0.994935 0.848075 0.651172
O O10 0.954438 0.000000 0.500000
O O11 0.303892 0.511971 0.100210
#
# Coordination Sequence:
#
# PCOD8158115 Si02
#       6
#     8   8   8   4   4   8
#     4  10  20  35  58  80 108 150 178 224 274 325
#     4   9  19  36  56  77 112 146 177 223 279 316
#     4   9  19  33  57  79 103 144 184 217 265 327
#     4  10  18  34  56  76 110 144 178 222 274 324
#     4  10  18  38  58  78 110 148 174 228 272 322
#     4  11  20  38  58  80 112 144 182 225 275 320
#
# _framework density 17.831517000000002
#
# number of rings (size 3 to 8) (size 9 to 14) (size 15 to 20)
#    0.600    1.600    5.000    0.000    0.000    3.200 
#    0.000    6.000    0.000    1.200    0.000    0.000 
#    0.000    0.000    0.000    0.000    0.000    0.000 
#
# Total GULP energy -247827.999343 kJ/mol
# GULP energy per Si atom -12391.399967 kJ/mol
# Density = 1.779093 g / cm^3
# Si number density = 17.831517 Si / 1000 Ang^3
#
#
#
# Elastic Constant Matrix: (Units=GPa)
#
#
# Indices 1 2 3 4 5 6 
#
# 1 131.0583 79.4889 41.4884 0.0000 0.0000 0.0000
# 2 79.4889 120.0225 60.5044 0.0000 0.0000 0.0000
# 3 41.4884 60.5044 76.2461 0.0000 0.0000 0.0000
# 4 0.0000 0.0000 0.0000 31.7535 0.0000 0.0000
# 5 0.0000 0.0000 0.0000 0.0000 6.8539 0.0000
# 6 0.0000 0.0000 0.0000 0.0000 0.0000 31.2796
#
#
#
# Elastic Compliance Matrix: (Units=1/GPa)
#
#
# Indices 1 2 3 4 5 6 
#
# 1 0.012760 -0.008251 -0.000395 0.000000 0.000000 0.000000
# 2 -0.008251 0.019223 -0.010764 0.000000 0.000000 0.000000
# 3 -0.000395 -0.010764 0.021872 0.000000 0.000000 0.000000
# 4 0.000000 0.000000 0.000000 0.031493 0.000000 0.000000
# 5 0.000000 0.000000 0.000000 0.000000 0.145903 0.000000
# 6 0.000000 0.000000 0.000000 0.000000 0.000000 0.031970
#
#
# Mechanical properties :
#
#
# Convention : Reuss Voigt Hill
#
# Bulk Modulus (GPa) = 66.51917 76.69893 71.60905
# Shear Modulus (GPa) = 16.28382 23.70040 19.99211
#
# Velocity S-wave (km/s) = 3.02521 3.64968 3.35202
# Velocity P-wave (km/s) = 7.04186 7.80171 7.43150
#
# Compressibility (1/GPa) = 0.01503326
#
# Stress axis : x y z
#
# Youngs Moduli (GPa) = 78.37027 52.02131 45.71968
#
# Poissons Ratio (x) = 0.42925 0.01807
# Poissons Ratio (y) = 0.64666 0.49214
# Poissons Ratio (z) = 0.03098 0.55997
#
# Static dielectric constant tensor:
#      x y z
#    x 3.556980 0.000000 0.000000 
#    y 0.000000 3.342720 0.000000 
#    z 0.000000 0.000000 3.243820 
# 
# 
# High freq. dielectric constant tensor:
#      x y z
#    x 1.699980 0.000000 0.000000 
#    y 0.000000 1.675770 0.000000 
#    z 0.000000 0.000000 1.675170 
# 
# From -- ./inp_files/21184.got.cif
#   From: 2010.03.12/outbox.cif.g09.slc.cpg/sg20_11_cif.got.tgz:21184.got - 2010.04.14 01:38:04.
