data_PCOD8158120
_publ_section_title
;
Structure prediction by ZEFSAII (Michael W. Deem and Ramdas Pophale) SiO2 
 PCOD8158120
Probable space group: C 2 2 21
;
_chemical_formula_sum "Si O2"
_cell_formula_units_Z 52
_cell_length_a 14.654583
_cell_length_b 8.779134
_cell_length_c 19.841244
_cell_angle_alpha 90.000000
_cell_angle_beta 90.000000
_cell_angle_gamma 90.000000
_cell_volume 2552.666276
_symmetry_space_group_name_H-M "C 2 2 21"
_symmetry_group_IT_number 20
_symmetry_cell_setting 'orthorhombic'
loop_
_space_group_symop_operation_xyz
x,y,z
-x,-y,1/2+z
x,-y,-z
-x,y,1/2-z
1/2+x,1/2+y,z
1/2-x,1/2-y,1/2+z
1/2+x,1/2-y,-z
1/2-x,1/2+y,1/2-z
loop_
_atom_site_type_symbol
_atom_site_label
_atom_site_fract_x
_atom_site_fract_y
_atom_site_fract_z
Si Si1 0.611564 0.937086 0.348879
Si Si2 0.894332 0.235658 0.902538
Si Si3 0.000000 0.249513 0.250000
Si Si4 0.496960 0.230824 0.539562
Si Si5 0.205705 0.237863 0.036057
Si Si6 0.518638 0.490200 0.864364
Si Si7 0.298022 0.594805 0.599424
O O1 0.575084 0.864768 0.279680
O O2 0.559378 0.876890 0.414940
O O3 0.716490 0.884024 0.347937
O O4 0.608358 0.119887 0.352493
O O5 0.795034 0.182843 0.931243
O O6 0.929816 0.096816 0.855484
O O7 0.964995 0.271164 0.963565
O O8 0.036532 0.138673 0.191769
O O9 0.390740 0.173817 0.547144
O O10 0.497012 0.405561 0.564460
O O11 0.204632 0.070432 0.066363
O O12 0.216436 0.226442 0.955635
O O13 0.604285 0.606261 0.864092
#
# Coordination Sequence:
#
# PCOD8158120 Si02
#       7
#     8   8   4   8   8   8   8
#     4  10  21  37  59  80 117 149 192 233 289 333
#     4  11  19  33  59  90 113 147 188 240 289 349
#     4  10  24  44  54  74 112 164 198 244 276 328
#     4  10  18  34  56  87 122 151 174 229 298 353
#     4   9  17  29  54  88 124 139 177 224 298 356
#     4  10  21  37  59  81 116 154 197 229 285 346
#     4   9  16  33  57  84 107 153 181 231 287 345
#
# _framework density 20.370857000000001
#
# number of rings (size 3 to 8) (size 9 to 14) (size 15 to 20)
#    0.000    2.154    3.077    0.923    0.000    0.615 
#    0.000   13.846    0.000    0.000    0.000    0.000 
#    0.000    0.000    0.000    0.000    0.000    0.000 
#
# Total GULP energy -322125.801534 kJ/mol
# GULP energy per Si atom -12389.453905 kJ/mol
# Density = 2.032449 g / cm^3
# Si number density = 20.370857 Si / 1000 Ang^3
#
#
#
# Elastic Constant Matrix: (Units=GPa)
#
#
# Indices 1 2 3 4 5 6 
#
# 1 131.0273 26.1459 4.6944 0.0000 0.0000 0.0000
# 2 26.1459 56.0797 12.1975 0.0000 0.0000 0.0000
# 3 4.6944 12.1975 47.0878 0.0000 0.0000 0.0000
# 4 0.0000 0.0000 0.0000 28.3433 0.0000 0.0000
# 5 0.0000 0.0000 0.0000 0.0000 17.8514 0.0000
# 6 0.0000 0.0000 0.0000 0.0000 0.0000 23.3995
#
#
#
# Elastic Compliance Matrix: (Units=1/GPa)
#
#
# Indices 1 2 3 4 5 6 
#
# 1 0.008416 -0.003965 0.000188 0.000000 0.000000 0.000000
# 2 -0.003965 0.020764 -0.004983 0.000000 0.000000 0.000000
# 3 0.000188 -0.004983 0.022509 0.000000 0.000000 0.000000
# 4 0.000000 0.000000 0.000000 0.035282 0.000000 0.000000
# 5 0.000000 0.000000 0.000000 0.000000 0.056018 0.000000
# 6 0.000000 0.000000 0.000000 0.000000 0.000000 0.042736
#
#
# Mechanical properties :
#
#
# Convention : Reuss Voigt Hill
#
# Bulk Modulus (GPa) = 29.26621 35.58560 32.42590
# Shear Modulus (GPa) = 23.29529 26.66264 24.97896
#
# Velocity S-wave (km/s) = 3.38532 3.62174 3.50553
# Velocity P-wave (km/s) = 5.44779 5.91576 5.68659
#
# Compressibility (1/GPa) = 0.03416910
#
# Stress axis : x y z
#
# Youngs Moduli (GPa) = 118.81516 48.15985 44.42654
#
# Poissons Ratio (x) = 0.19095 -0.00835
# Poissons Ratio (y) = 0.47109 0.22140
# Poissons Ratio (z) = -0.02233 0.24000
#
# Static dielectric constant tensor:
#      x y z
#    x 4.161160 0.000000 0.000000 
#    y 0.000000 3.518240 0.000000 
#    z 0.000000 0.000000 3.425420 
# 
# 
# High freq. dielectric constant tensor:
#      x y z
#    x 1.810630 0.000000 0.000000 
#    y 0.000000 1.774040 0.000000 
#    z 0.000000 0.000000 1.762410 
# 
# From -- ./inp_files/27509.got.cif
#   From: 2010.03.12/outbox.cif.g09.slc.cpg/sg20_14_cif.got.tgz:27509.got - 2010.04.14 01:38:04.
