data_PCOD8158993
_publ_section_title
;
Structure prediction by ZEFSAII (Michael W. Deem and Ramdas Pophale) SiO2 
 PCOD8158993
Probable space group: C 2 2 21
;
_chemical_formula_sum "Si O2"
_cell_formula_units_Z 48
_cell_length_a 9.205604
_cell_length_b 15.176642
_cell_length_c 15.980553
_cell_angle_alpha 90.000000
_cell_angle_beta 90.000000
_cell_angle_gamma 90.000000
_cell_volume 2232.645557
_symmetry_space_group_name_H-M "C 2 2 21"
_symmetry_group_IT_number 20
_symmetry_cell_setting 'orthorhombic'
loop_
_space_group_symop_operation_xyz
x,y,z
-x,-y,1/2+z
x,-y,-z
-x,y,1/2-z
1/2+x,1/2+y,z
1/2-x,1/2-y,1/2+z
1/2+x,1/2-y,-z
1/2-x,1/2+y,1/2-z
loop_
_atom_site_type_symbol
_atom_site_label
_atom_site_fract_x
_atom_site_fract_y
_atom_site_fract_z
Si Si1 0.280274 0.902695 0.642434
Si Si2 0.425717 0.597743 0.002746
Si Si3 0.225772 0.603256 0.858493
Si Si4 0.799252 0.822531 0.465167
Si Si5 0.834639 0.226827 0.722697
Si Si6 0.969408 0.650149 0.502737
O O1 0.142776 0.862922 0.588653
O O2 0.303009 0.832815 0.718466
O O3 0.420194 0.903279 0.580079
O O4 0.252052 0.002303 0.676174
O O5 0.353895 0.639848 0.919655
O O6 0.600025 0.596714 0.997121
O O7 0.361776 0.500000 0.000000
O O8 0.225112 0.674495 0.783948
O O9 0.074210 0.602101 0.910458
O O10 0.800920 0.816977 0.365922
O O11 0.886480 0.742375 0.505955
O O12 0.640762 0.834693 0.503185
O O13 0.000000 0.210010 0.750000
#
# Coordination Sequence:
#
# PCOD8158993 Si02
#       6
#     8   8   8   8   8   8
#     4   9  21  40  66  93 123 169 213 261 322 378
#     4   9  18  37  64  89 120 161 214 267 313 371
#     4  10  20  41  64  88 130 169 205 263 325 376
#     4  11  21  37  60  96 121 166 218 261 320 381
#     4  11  22  38  66  90 130 174 207 255 331 391
#     4  10  21  36  66  89 124 163 219 270 311 369
#
# _framework density 21.499158999999999
#
# number of rings (size 3 to 8) (size 9 to 14) (size 15 to 20)
#    0.000    2.000    1.667    4.500    2.333    2.000 
#    3.000    1.667    7.333    0.000    0.000    0.000 
#    0.000    0.000    0.000    0.000    0.000    0.000 
#
# Total GULP energy -297336.910796 kJ/mol
# GULP energy per Si atom -12389.037950 kJ/mol
# Density = 2.145023 g / cm^3
# Si number density = 21.499159 Si / 1000 Ang^3
#
#
#
# Elastic Constant Matrix: (Units=GPa)
#
#
# Indices 1 2 3 4 5 6 
#
# 1 158.4380 29.8205 26.1843 0.0000 0.0000 0.0000
# 2 29.8205 90.1942 52.2047 0.0000 0.0000 0.0000
# 3 26.1843 52.2047 79.9417 0.0000 0.0000 0.0000
# 4 0.0000 0.0000 0.0000 36.6678 0.0000 0.0000
# 5 0.0000 0.0000 0.0000 0.0000 21.7374 0.0000
# 6 0.0000 0.0000 0.0000 0.0000 0.0000 27.7014
#
#
#
# Elastic Compliance Matrix: (Units=1/GPa)
#
#
# Indices 1 2 3 4 5 6 
#
# 1 0.006804 -0.001543 -0.001221 0.000000 0.000000 0.000000
# 2 -0.001543 0.018174 -0.011363 0.000000 0.000000 0.000000
# 3 -0.001221 -0.011363 0.020330 0.000000 0.000000 0.000000
# 4 0.000000 0.000000 0.000000 0.027272 0.000000 0.000000
# 5 0.000000 0.000000 0.000000 0.000000 0.046004 0.000000
# 6 0.000000 0.000000 0.000000 0.000000 0.000000 0.036099
#
#
# Mechanical properties :
#
#
# Convention : Reuss Voigt Hill
#
# Bulk Modulus (GPa) = 58.63804 60.55479 59.59641
# Shear Modulus (GPa) = 26.50820 31.91227 29.21024
#
# Velocity S-wave (km/s) = 3.51520 3.85691 3.69001
# Velocity P-wave (km/s) = 6.61886 6.93264 6.77757
#
# Compressibility (1/GPa) = 0.01705378
#
# Stress axis : x y z
#
# Youngs Moduli (GPa) = 146.97700 55.02286 49.18942
#
# Poissons Ratio (x) = 0.08489 0.06006
# Poissons Ratio (y) = 0.22675 0.55895
# Poissons Ratio (z) = 0.17947 0.62523
#
# Static dielectric constant tensor:
#      x y z
#    x 3.876730 0.000000 0.000000 
#    y 0.000000 4.011210 0.000000 
#    z 0.000000 0.000000 3.682970 
# 
# 
# High freq. dielectric constant tensor:
#      x y z
#    x 1.832800 0.000000 0.000000 
#    y 0.000000 1.847860 0.000000 
#    z 0.000000 0.000000 1.819660 
# 
# From -- ./inp_files/18869.got.cif
#   From: 2010.03.12/outbox.cif.g09.slc.cpg/sg20_10_cif.got.tgz:18869.got - 2010.04.14 01:38:04.
