data_PCOD8158680
_publ_section_title
;
Structure prediction by ZEFSAII (Michael W. Deem and Ramdas Pophale) SiO2 
 PCOD8158680
Probable space group: C 2 2 21
;
_chemical_formula_sum "Si O2"
_cell_formula_units_Z 48
_cell_length_a 18.365496
_cell_length_b 8.727795
_cell_length_c 15.267955
_cell_angle_alpha 90.000000
_cell_angle_beta 90.000000
_cell_angle_gamma 90.000000
_cell_volume 2447.304846
_symmetry_space_group_name_H-M "C 2 2 21"
_symmetry_group_IT_number 20
_symmetry_cell_setting 'orthorhombic'
loop_
_space_group_symop_operation_xyz
x,y,z
-x,-y,1/2+z
x,-y,-z
-x,y,1/2-z
1/2+x,1/2+y,z
1/2-x,1/2-y,1/2+z
1/2+x,1/2-y,-z
1/2-x,1/2+y,1/2-z
loop_
_atom_site_type_symbol
_atom_site_label
_atom_site_fract_x
_atom_site_fract_y
_atom_site_fract_z
Si Si1 0.324633 0.918376 0.751956
Si Si2 0.570879 0.081851 0.090773
Si Si3 0.541193 0.623548 0.338783
Si Si4 0.917353 0.447509 0.097418
Si Si5 0.087793 0.064982 0.913137
Si Si6 0.329709 0.561525 0.759647
O O1 0.372920 0.957197 0.667311
O O2 0.323219 0.741276 0.779799
O O3 0.353606 0.011460 0.835227
O O4 0.245219 0.974493 0.724592
O O5 0.566612 0.260429 0.073358
O O6 0.491835 0.031046 0.124337
O O7 0.593611 0.000000 0.000000
O O8 0.500000 0.677941 0.250000
O O9 0.569003 0.765811 0.396302
O O10 0.485985 0.527123 0.396746
O O11 0.609150 0.512542 0.320820
O O12 0.893680 0.500000 0.000000
O O13 0.148342 0.039114 0.840511
O O14 0.125378 0.000000 0.000000
#
# Coordination Sequence:
#
# PCOD8158680 Si02
#       6
#     8   8   8   8   8   8
#     4  11  22  40  58  81 118 154 189 238 286 342
#     4  10  21  37  59  87 113 147 190 233 286 339
#     4  10  20  37  59  84 112 149 191 235 286 340
#     4  11  22  36  59  87 115 149 191 236 284 338
#     4  10  20  36  59  85 114 145 186 237 283 338
#     4  10  23  38  58  82 113 154 192 231 290 343
#
# _framework density 19.613412
#
# number of rings (size 3 to 8) (size 9 to 14) (size 15 to 20)
#    0.000    1.667    0.000    5.500    0.000    7.333 
#    0.000    4.167    0.000    0.000    0.000    0.000 
#    0.000    0.000    0.000    0.000    0.000    0.000 
#
# Total GULP energy -297659.255676 kJ/mol
# GULP energy per Si atom -12402.468986 kJ/mol
# Density = 1.956877 g / cm^3
# Si number density = 19.613412 Si / 1000 Ang^3
#
#
#
# Elastic Constant Matrix: (Units=GPa)
#
#
# Indices 1 2 3 4 5 6 
#
# 1 64.0593 2.2041 9.2334 0.0000 0.0000 0.0000
# 2 2.2041 69.7767 29.9305 0.0000 0.0000 0.0000
# 3 9.2334 29.9305 87.5733 0.0000 0.0000 0.0000
# 4 0.0000 0.0000 0.0000 34.8462 0.0000 0.0000
# 5 0.0000 0.0000 0.0000 0.0000 24.2631 0.0000
# 6 0.0000 0.0000 0.0000 0.0000 0.0000 31.5122
#
#
#
# Elastic Compliance Matrix: (Units=1/GPa)
#
#
# Indices 1 2 3 4 5 6 
#
# 1 0.015855 0.000253 -0.001758 0.000000 0.000000 0.000000
# 2 0.000253 0.016797 -0.005768 0.000000 0.000000 0.000000
# 3 -0.001758 -0.005768 0.013576 0.000000 0.000000 0.000000
# 4 0.000000 0.000000 0.000000 0.028698 0.000000 0.000000
# 5 0.000000 0.000000 0.000000 0.000000 0.041215 0.000000
# 6 0.000000 0.000000 0.000000 0.000000 0.000000 0.031734
#
#
# Mechanical properties :
#
#
# Convention : Reuss Voigt Hill
#
# Bulk Modulus (GPa) = 31.56254 33.79392 32.67823
# Shear Modulus (GPa) = 28.90496 30.12707 29.51602
#
# Velocity S-wave (km/s) = 3.84309 3.92349 3.88350
# Velocity P-wave (km/s) = 5.98496 6.14756 6.06680
#
# Compressibility (1/GPa) = 0.03168313
#
# Stress axis : x y z
#
# Youngs Moduli (GPa) = 63.07057 59.53282 73.66130
#
# Poissons Ratio (x) = -0.01508 0.12952
# Poissons Ratio (y) = -0.01598 0.42486
# Poissons Ratio (z) = 0.11090 0.34337
#
# Static dielectric constant tensor:
#      x y z
#    x 3.453730 0.000000 0.000000 
#    y 0.000000 3.738830 0.000000 
#    z 0.000000 0.000000 3.117950 
# 
# 
# High freq. dielectric constant tensor:
#      x y z
#    x 1.757810 0.000000 0.000000 
#    y 0.000000 1.781790 0.000000 
#    z 0.000000 0.000000 1.767830 
# 
# From -- ./inp_files/18882.got.cif
#   From: 2010.03.12/outbox.cif.g09.slc.cpg/sg20_10_cif.got.tgz:18882.got - 2010.04.14 01:38:04.
