data_PCOD8158151
_publ_section_title
;
Structure prediction by ZEFSAII (Michael W. Deem and Ramdas Pophale) SiO2 
 PCOD8158151
Probable space group: C 2 2 21
;
_chemical_formula_sum "Si O2"
_cell_formula_units_Z 52
_cell_length_a 9.094499
_cell_length_b 16.278482
_cell_length_c 18.998762
_cell_angle_alpha 90.000000
_cell_angle_beta 90.000000
_cell_angle_gamma 90.000000
_cell_volume 2812.664848
_symmetry_space_group_name_H-M "C 2 2 21"
_symmetry_group_IT_number 20
_symmetry_cell_setting 'orthorhombic'
loop_
_space_group_symop_operation_xyz
x,y,z
-x,-y,1/2+z
x,-y,-z
-x,y,1/2-z
1/2+x,1/2+y,z
1/2-x,1/2-y,1/2+z
1/2+x,1/2-y,-z
1/2-x,1/2+y,1/2-z
loop_
_atom_site_type_symbol
_atom_site_label
_atom_site_fract_x
_atom_site_fract_y
_atom_site_fract_z
Si Si1 0.011760 0.132560 0.830924
Si Si2 0.728864 0.501478 0.685545
Si Si3 0.000000 0.289128 0.250000
Si Si4 0.757432 0.331579 0.744534
Si Si5 0.479467 0.031011 0.421418
Si Si6 0.010578 0.305899 0.641726
Si Si7 0.164827 0.418797 0.324638
O O1 0.953239 0.210465 0.877869
O O2 0.176487 0.109543 0.852870
O O3 0.000000 0.163082 0.750000
O O4 0.912015 0.052204 0.840806
O O5 0.677301 0.415893 0.720815
O O6 0.823034 0.548898 0.744430
O O7 0.827023 0.487296 0.617251
O O8 0.137919 0.233250 0.228064
O O9 0.049787 0.343031 0.318042
O O10 0.850778 0.298383 0.678527
O O11 0.868704 0.348132 0.808234
O O12 0.610195 0.986083 0.379814
O O13 0.471282 0.000000 0.500000
O O14 0.504018 0.130346 0.423431
#
# Coordination Sequence:
#
# PCOD8158151 Si02
#       7
#     8   8   4   8   8   8   8
#     4  10  19  33  58  87 112 144 182 236 285 334
#     4  10  20  36  59  84 112 146 188 228 283 336
#     4  12  20  30  56  94 114 134 184 234 278 334
#     4  10  19  30  53  86 112 140 174 228 277 331
#     4  11  23  38  57  78 111 156 194 232 281 338
#     4  10  18  36  52  77 113 146 183 218 286 328
#     4  11  20  36  56  85 113 144 182 236 284 331
#
# _framework density 18.487805999999999
#
# number of rings (size 3 to 8) (size 9 to 14) (size 15 to 20)
#    0.000    1.538    6.154    0.923    3.231    0.000 
#    0.000    2.308    0.000    0.000    0.000    0.000 
#    0.000    0.000    0.000    0.000    0.000    0.000 
#
# Total GULP energy -322242.568760 kJ/mol
# GULP energy per Si atom -12393.944952 kJ/mol
# Density = 1.844573 g / cm^3
# Si number density = 18.487806 Si / 1000 Ang^3
#
#
#
# Elastic Constant Matrix: (Units=GPa)
#
#
# Indices 1 2 3 4 5 6 
#
# 1 95.6080 57.5041 25.7577 0.0000 0.0000 0.0000
# 2 57.5041 136.2853 19.5371 0.0000 0.0000 0.0000
# 3 25.7577 19.5371 52.2484 0.0000 0.0000 0.0000
# 4 0.0000 0.0000 0.0000 15.5216 0.0000 0.0000
# 5 0.0000 0.0000 0.0000 0.0000 7.8963 0.0000
# 6 0.0000 0.0000 0.0000 0.0000 0.0000 35.2521
#
#
#
# Elastic Compliance Matrix: (Units=1/GPa)
#
#
# Indices 1 2 3 4 5 6 
#
# 1 0.015351 -0.005698 -0.005437 0.000000 0.000000 0.000000
# 2 -0.005698 0.009868 -0.000881 0.000000 0.000000 0.000000
# 3 -0.005437 -0.000881 0.022149 0.000000 0.000000 0.000000
# 4 0.000000 0.000000 0.000000 0.064426 0.000000 0.000000
# 5 0.000000 0.000000 0.000000 0.000000 0.126641 0.000000
# 6 0.000000 0.000000 0.000000 0.000000 0.000000 0.028367
#
#
# Mechanical properties :
#
#
# Convention : Reuss Voigt Hill
#
# Bulk Modulus (GPa) = 42.85183 54.41551 48.63367
# Shear Modulus (GPa) = 16.74400 23.82352 20.28376
#
# Velocity S-wave (km/s) = 3.01271 3.59361 3.31591
# Velocity P-wave (km/s) = 5.94396 6.83490 6.40494
#
# Compressibility (1/GPa) = 0.02333623
#
# Stress axis : x y z
#
# Youngs Moduli (GPa) = 65.14127 101.33793 45.14812
#
# Poissons Ratio (x) = 0.57741 0.24549
# Poissons Ratio (y) = 0.37116 0.03977
# Poissons Ratio (z) = 0.35420 0.08928
#
# Static dielectric constant tensor:
#      x y z
#    x 3.395880 0.000000 0.000000 
#    y 0.000000 3.786330 0.000000 
#    z 0.000000 0.000000 2.778080 
# 
# 
# High freq. dielectric constant tensor:
#      x y z
#    x 1.722820 0.000000 0.000000 
#    y 0.000000 1.745850 0.000000 
#    z 0.000000 0.000000 1.639300 
# 
# From -- ./inp_files/23708.got.cif
#   From: 2010.03.12/outbox.cif.g09.slc.cpg/sg20_12_cif.got.tgz:23708.got - 2010.04.14 01:38:04.
