data_PCOD8158716
_publ_section_title
;
Structure prediction by ZEFSAII (Michael W. Deem and Ramdas Pophale) SiO2 
 PCOD8158716
Probable space group: C 2 2 21
;
_chemical_formula_sum "Si O2"
_cell_formula_units_Z 64
_cell_length_a 9.132655
_cell_length_b 19.068032
_cell_length_c 17.643136
_cell_angle_alpha 90.000000
_cell_angle_beta 90.000000
_cell_angle_gamma 90.000000
_cell_volume 3072.406716
_symmetry_space_group_name_H-M "C 2 2 21"
_symmetry_group_IT_number 20
_symmetry_cell_setting 'orthorhombic'
loop_
_space_group_symop_operation_xyz
x,y,z
-x,-y,1/2+z
x,-y,-z
-x,y,1/2-z
1/2+x,1/2+y,z
1/2-x,1/2-y,1/2+z
1/2+x,1/2-y,-z
1/2-x,1/2+y,1/2-z
loop_
_atom_site_type_symbol
_atom_site_label
_atom_site_fract_x
_atom_site_fract_y
_atom_site_fract_z
Si Si1 0.898098 0.943359 0.557048
Si Si2 0.136722 0.130512 0.799816
Si Si3 0.263420 0.532509 0.076514
Si Si4 0.050102 0.185122 0.961354
Si Si5 0.226679 0.192695 0.440572
Si Si6 0.151955 0.753491 0.721023
Si Si7 0.340685 0.399744 0.716444
Si Si8 0.665894 0.983618 0.228631
O O1 0.884983 0.865289 0.524849
O O2 0.812718 0.934818 0.635047
O O3 0.060782 0.969667 0.576900
O O4 0.824211 0.000000 0.500000
O O5 0.075030 0.141391 0.884144
O O6 0.217217 0.199444 0.769165
O O7 0.243896 0.064828 0.787279
O O8 0.000000 0.112800 0.750000
O O9 0.215739 0.614632 0.079185
O O10 0.198308 0.477266 0.138738
O O11 0.199687 0.500000 0.000000
O O12 0.132413 0.259451 0.958544
O O13 0.879652 0.196176 0.985353
O O14 0.138925 0.220876 0.366337
O O15 0.184925 0.816779 0.779116
O O16 0.000000 0.718441 0.750000
O O17 0.500000 0.418620 0.750000
O O18 0.213656 0.435167 0.765037
O O19 0.500000 0.970778 0.250000
#
# Coordination Sequence:
#
# PCOD8158716 Si02
#       8
#     8   8   8   8   8   8   8   8
#     4  10  20  36  64  93 120 161 218 260 310 373
#     4  11  26  40  63  94 128 166 222 265 326 383
#     4  10  21  41  65  91 122 169 214 254 317 392
#     4  10  22  41  63  94 127 168 207 272 314 387
#     4  10  21  42  64  95 127 165 218 255 324 379
#     4  10  20  40  64  92 131 163 212 261 319 392
#     4  11  19  38  67  91 122 164 215 255 317 384
#     4  12  25  43  62  93 131 170 209 275 327 369
#
# _framework density 20.830577000000002
#
# number of rings (size 3 to 8) (size 9 to 14) (size 15 to 20)
#    0.000    1.500    2.500    3.750    5.250    2.500 
#    6.750    0.625    0.000    0.000    0.000    0.000 
#    0.000    0.000    0.000    0.000    0.000    0.000 
#
# Total GULP energy -396496.027059 kJ/mol
# GULP energy per Si atom -12390.500846 kJ/mol
# Density = 2.078317 g / cm^3
# Si number density = 20.830577 Si / 1000 Ang^3
#
#
#
# Elastic Constant Matrix: (Units=GPa)
#
#
# Indices 1 2 3 4 5 6 
#
# 1 78.2236 28.9483 27.1397 0.0000 0.0000 0.0000
# 2 28.9483 78.8476 24.1153 0.0000 0.0000 0.0000
# 3 27.1397 24.1153 100.9681 0.0000 0.0000 0.0000
# 4 0.0000 0.0000 0.0000 36.0606 0.0000 0.0000
# 5 0.0000 0.0000 0.0000 0.0000 28.8346 0.0000
# 6 0.0000 0.0000 0.0000 0.0000 0.0000 14.3666
#
#
#
# Elastic Compliance Matrix: (Units=1/GPa)
#
#
# Indices 1 2 3 4 5 6 
#
# 1 0.015619 -0.004801 -0.003052 0.000000 0.000000 0.000000
# 2 -0.004801 0.015158 -0.002330 0.000000 0.000000 0.000000
# 3 -0.003052 -0.002330 0.011281 0.000000 0.000000 0.000000
# 4 0.000000 0.000000 0.000000 0.027731 0.000000 0.000000
# 5 0.000000 0.000000 0.000000 0.000000 0.034681 0.000000
# 6 0.000000 0.000000 0.000000 0.000000 0.000000 0.069606
#
#
# Mechanical properties :
#
#
# Convention : Reuss Voigt Hill
#
# Bulk Modulus (GPa) = 46.09813 46.49399 46.29606
# Shear Modulus (GPa) = 24.79268 27.70809 26.25039
#
# Velocity S-wave (km/s) = 3.45368 3.65110 3.55376
# Velocity P-wave (km/s) = 6.17106 6.33581 6.25398
#
# Compressibility (1/GPa) = 0.02169285
#
# Stress axis : x y z
#
# Youngs Moduli (GPa) = 64.02281 65.97186 88.64579
#
# Poissons Ratio (x) = 0.31674 0.27052
# Poissons Ratio (y) = 0.30739 0.20653
# Poissons Ratio (z) = 0.19538 0.15370
#
# Static dielectric constant tensor:
#      x y z
#    x 3.600650 0.000000 0.000000 
#    y 0.000000 3.947280 0.000000 
#    z 0.000000 0.000000 4.267610 
# 
# 
# High freq. dielectric constant tensor:
#      x y z
#    x 1.777560 0.000000 0.000000 
#    y 0.000000 1.826130 0.000000 
#    z 0.000000 0.000000 1.830720 
# 
# From -- ./inp_files/23935.got.cif
#   From: 2010.03.12/outbox.cif.g09.slc.cpg/sg20_12_cif.got.tgz:23935.got - 2010.04.14 01:38:04.
