data_PCOD8158201
_publ_section_title
;
Structure prediction by ZEFSAII (Michael W. Deem and Ramdas Pophale) SiO2 
 PCOD8158201
Probable space group: C 2 2 21
;
_chemical_formula_sum "Si O2"
_cell_formula_units_Z 40
_cell_length_a 9.222339
_cell_length_b 11.017001
_cell_length_c 18.148586
_cell_angle_alpha 90.000000
_cell_angle_beta 90.000000
_cell_angle_gamma 90.000000
_cell_volume 1843.942035
_symmetry_space_group_name_H-M "C 2 2 21"
_symmetry_group_IT_number 20
_symmetry_cell_setting 'orthorhombic'
loop_
_space_group_symop_operation_xyz
x,y,z
-x,-y,1/2+z
x,-y,-z
-x,y,1/2-z
1/2+x,1/2+y,z
1/2-x,1/2-y,1/2+z
1/2+x,1/2-y,-z
1/2-x,1/2+y,1/2-z
loop_
_atom_site_type_symbol
_atom_site_label
_atom_site_fract_x
_atom_site_fract_y
_atom_site_fract_z
Si Si1 0.686755 0.751117 0.523415
Si Si2 0.165522 0.500000 0.000000
Si Si3 0.500000 0.268204 0.750000
Si Si4 0.969143 0.649199 0.378619
Si Si5 0.775728 0.676653 0.860050
Si Si6 0.727218 0.594874 0.152216
O O1 0.735188 0.612973 0.521429
O O2 0.526377 0.753590 0.559868
O O3 0.671650 0.807970 0.443119
O O4 0.793432 0.836257 0.573595
O O5 0.073560 0.470322 0.926263
O O6 0.415624 0.182865 0.807322
O O7 0.382889 0.353357 0.711229
O O8 0.835377 0.714115 0.337561
O O9 0.101980 0.614064 0.323790
O O10 0.695563 0.548182 0.852010
#
# Coordination Sequence:
#
# PCOD8158201 Si02
#       6
#     8   4   4   8   8   8
#     4   9  22  41  71 104 128 173 231 280 328 392
#     4  10  18  38  66 110 136 156 220 294 330 384
#     4  12  30  42  64 102 140 182 220 272 360 392
#     4   9  22  39  68  99 127 173 221 272 334 384
#     4  11  24  45  69  97 137 180 224 281 335 405
#     4  10  25  44  67  98 135 175 230 276 333 406
#
# _framework density 21.692655999999999
#
# number of rings (size 3 to 8) (size 9 to 14) (size 15 to 20)
#    1.200    0.800    0.000    1.800    8.400    7.200 
#    3.600    0.000    0.000    0.000    0.000    0.000 
#    0.000    0.000    0.000    0.000    0.000    0.000 
#
# Total GULP energy -247825.236637 kJ/mol
# GULP energy per Si atom -12391.261832 kJ/mol
# Density = 2.164328 g / cm^3
# Si number density = 21.692656 Si / 1000 Ang^3
#
#
#
# Elastic Constant Matrix: (Units=GPa)
#
#
# Indices 1 2 3 4 5 6 
#
# 1 76.9595 30.7789 45.5425 0.0000 0.0000 0.0000
# 2 30.7789 137.3709 42.1612 0.0000 0.0000 0.0000
# 3 45.5425 42.1612 96.3372 0.0000 0.0000 0.0000
# 4 0.0000 0.0000 0.0000 9.1974 0.0000 0.0000
# 5 0.0000 0.0000 0.0000 0.0000 53.1564 0.0000
# 6 0.0000 0.0000 0.0000 0.0000 0.0000 22.5799
#
#
#
# Elastic Compliance Matrix: (Units=1/GPa)
#
#
# Indices 1 2 3 4 5 6 
#
# 1 0.018369 -0.001676 -0.007950 0.000000 0.000000 0.000000
# 2 -0.001676 0.008562 -0.002955 0.000000 0.000000 0.000000
# 3 -0.007950 -0.002955 0.015432 0.000000 0.000000 0.000000
# 4 0.000000 0.000000 0.000000 0.108726 0.000000 0.000000
# 5 0.000000 0.000000 0.000000 0.000000 0.018812 0.000000
# 6 0.000000 0.000000 0.000000 0.000000 0.000000 0.044287
#
#
# Mechanical properties :
#
#
# Convention : Reuss Voigt Hill
#
# Bulk Modulus (GPa) = 58.13684 60.84812 59.49248
# Shear Modulus (GPa) = 20.40121 29.79908 25.10014
#
# Velocity S-wave (km/s) = 3.07003 3.71036 3.40528
# Velocity P-wave (km/s) = 6.27895 6.81665 6.55331
#
# Compressibility (1/GPa) = 0.01720080
#
# Stress axis : x y z
#
# Youngs Moduli (GPa) = 54.44025 116.79649 64.80095
#
# Poissons Ratio (x) = 0.19570 0.51519
# Poissons Ratio (y) = 0.09122 0.19148
# Poissons Ratio (z) = 0.43282 0.34513
#
# Static dielectric constant tensor:
#      x y z
#    x 3.969970 0.000000 0.000000 
#    y 0.000000 3.786510 0.000000 
#    z 0.000000 0.000000 3.721080 
# 
# 
# High freq. dielectric constant tensor:
#      x y z
#    x 1.852650 0.000000 0.000000 
#    y 0.000000 1.852020 0.000000 
#    z 0.000000 0.000000 1.838920 
# 
# From -- ./inp_files/26513.got.cif
#   From: 2010.03.12/outbox.cif.g09.slc.cpg/sg20_14_cif.got.tgz:26513.got - 2010.04.14 01:38:04.
