data_PCOD8158884
_publ_section_title
;
Structure prediction by ZEFSAII (Michael W. Deem and Ramdas Pophale) SiO2 
 PCOD8158884
Probable space group: C 2 2 21
;
_chemical_formula_sum "Si O2"
_cell_formula_units_Z 48
_cell_length_a 13.660657
_cell_length_b 12.862176
_cell_length_c 13.927090
_cell_angle_alpha 90.000000
_cell_angle_beta 90.000000
_cell_angle_gamma 90.000000
_cell_volume 2447.070137
_symmetry_space_group_name_H-M "C 2 2 21"
_symmetry_group_IT_number 20
_symmetry_cell_setting 'orthorhombic'
loop_
_space_group_symop_operation_xyz
x,y,z
-x,-y,1/2+z
x,-y,-z
-x,y,1/2-z
1/2+x,1/2+y,z
1/2-x,1/2-y,1/2+z
1/2+x,1/2-y,-z
1/2-x,1/2+y,1/2-z
loop_
_atom_site_type_symbol
_atom_site_label
_atom_site_fract_x
_atom_site_fract_y
_atom_site_fract_z
Si Si1 0.898155 0.630845 0.793556
Si Si2 0.695991 0.396259 0.453613
Si Si3 0.249629 0.521231 0.386800
Si Si4 0.955258 0.171288 0.102894
Si Si5 0.602484 0.478162 0.270115
Si Si6 0.826611 0.764860 0.621020
O O1 0.845071 0.531944 0.839564
O O2 0.918045 0.712888 0.877569
O O3 0.836182 0.691836 0.713617
O O4 0.000000 0.589251 0.750000
O O5 0.741496 0.500000 0.500000
O O6 0.594302 0.367266 0.505379
O O7 0.669476 0.414145 0.342747
O O8 0.780422 0.308852 0.462214
O O9 0.257281 0.500000 0.500000
O O10 0.345433 0.478951 0.332833
O O11 0.245665 0.644588 0.364299
O O12 0.922800 0.094597 0.189581
O O13 0.072639 0.178620 0.089178
O O14 0.500000 0.419967 0.250000
#
# Coordination Sequence:
#
# PCOD8158884 Si02
#       6
#     8   8   8   8   8   8
#     4  10  21  42  64  83 123 174 208 251 318 389
#     4  10  23  39  63  92 124 158 211 261 309 379
#     4  12  24  37  66  98 125 162 217 272 315 379
#     4  10  20  39  63  87 120 168 210 243 312 394
#     4  11  20  37  61  94 122 160 204 260 320 373
#     4  11  21  40  65  90 122 167 208 254 319 378
#
# _framework density 19.615295
#
# number of rings (size 3 to 8) (size 9 to 14) (size 15 to 20)
#    0.000    1.333    5.000    1.500    2.333    0.000 
#    0.000    7.500    0.000    0.000    0.000    0.000 
#    0.000    0.000    0.000    0.000    0.000    0.000 
#
# Total GULP energy -297464.862737 kJ/mol
# GULP energy per Si atom -12394.369281 kJ/mol
# Density = 1.957065 g / cm^3
# Si number density = 19.615295 Si / 1000 Ang^3
#
#
#
# Elastic Constant Matrix: (Units=GPa)
#
#
# Indices 1 2 3 4 5 6 
#
# 1 104.5143 69.2067 50.3346 0.0000 0.0000 0.0000
# 2 69.2067 108.3269 38.1349 0.0000 0.0000 0.0000
# 3 50.3346 38.1349 117.0725 0.0000 0.0000 0.0000
# 4 0.0000 0.0000 0.0000 19.4266 0.0000 0.0000
# 5 0.0000 0.0000 0.0000 0.0000 30.3669 0.0000
# 6 0.0000 0.0000 0.0000 0.0000 0.0000 38.2196
#
#
#
# Elastic Compliance Matrix: (Units=1/GPa)
#
#
# Indices 1 2 3 4 5 6 
#
# 1 0.018590 -0.010237 -0.004658 0.000000 0.000000 0.000000
# 2 -0.010237 0.016064 -0.000831 0.000000 0.000000 0.000000
# 3 -0.004658 -0.000831 0.010815 0.000000 0.000000 0.000000
# 4 0.000000 0.000000 0.000000 0.051476 0.000000 0.000000
# 5 0.000000 0.000000 0.000000 0.000000 0.032931 0.000000
# 6 0.000000 0.000000 0.000000 0.000000 0.000000 0.026165
#
#
# Mechanical properties :
#
#
# Convention : Reuss Voigt Hill
#
# Bulk Modulus (GPa) = 71.34397 71.69624 71.52011
# Shear Modulus (GPa) = 26.01934 29.08514 27.55224
#
# Velocity S-wave (km/s) = 3.64604 3.85486 3.75191
# Velocity P-wave (km/s) = 7.36039 7.51291 7.43704
#
# Compressibility (1/GPa) = 0.01401660
#
# Stress axis : x y z
#
# Youngs Moduli (GPa) = 53.79250 62.25132 92.46172
#
# Poissons Ratio (x) = 0.63725 0.43070
# Poissons Ratio (y) = 0.55066 0.07687
# Poissons Ratio (z) = 0.25057 0.05176
#
# Static dielectric constant tensor:
#      x y z
#    x 3.611280 0.000000 0.000000 
#    y 0.000000 3.657830 0.000000 
#    z 0.000000 0.000000 3.509460 
# 
# 
# High freq. dielectric constant tensor:
#      x y z
#    x 1.760920 0.000000 0.000000 
#    y 0.000000 1.759990 0.000000 
#    z 0.000000 0.000000 1.759030 
# 
# From -- ./inp_files/20653.got.cif
#   From: 2010.03.12/outbox.cif.g09.slc.cpg/sg20_11_cif.got.tgz:20653.got - 2010.04.14 01:38:04.
