data_PCOD8158927
_publ_section_title
;
Structure prediction by ZEFSAII (Michael W. Deem and Ramdas Pophale) SiO2 
 PCOD8158927
Probable space group: C 2 2 21
;
_chemical_formula_sum "Si O2"
_cell_formula_units_Z 60
_cell_length_a 27.084716
_cell_length_b 11.861477
_cell_length_c 9.586810
_cell_angle_alpha 90.000000
_cell_angle_beta 90.000000
_cell_angle_gamma 90.000000
_cell_volume 3079.903983
_symmetry_space_group_name_H-M "C 2 2 21"
_symmetry_group_IT_number 20
_symmetry_cell_setting 'orthorhombic'
loop_
_space_group_symop_operation_xyz
x,y,z
-x,-y,1/2+z
x,-y,-z
-x,y,1/2-z
1/2+x,1/2+y,z
1/2-x,1/2-y,1/2+z
1/2+x,1/2-y,-z
1/2-x,1/2+y,1/2-z
loop_
_atom_site_type_symbol
_atom_site_label
_atom_site_fract_x
_atom_site_fract_y
_atom_site_fract_z
Si Si1 0.103204 0.129073 0.167434
Si Si2 0.278054 0.755584 0.579366
Si Si3 0.500000 0.721879 0.250000
Si Si4 0.129186 0.879171 0.147213
Si Si5 0.338095 0.969997 0.652752
Si Si6 0.421997 0.824714 0.755390
Si Si7 0.500709 0.868971 0.524683
Si Si8 0.691841 0.788384 0.226134
O O1 0.139763 0.222940 0.231035
O O2 0.048779 0.143882 0.234830
O O3 0.124121 0.005384 0.205541
O O4 0.101175 0.139382 0.000132
O O5 0.313231 0.653265 0.630224
O O6 0.296226 0.875516 0.637079
O O7 0.276934 0.755036 0.411367
O O8 0.222932 0.739223 0.635790
O O9 0.501816 0.803371 0.381099
O O10 0.104454 0.796627 0.259742
O O11 0.383262 0.925462 0.742828
O O12 0.358997 0.000000 0.500000
O O13 0.317028 0.078337 0.730607
O O14 0.457976 0.823126 0.623351
O O15 0.447342 0.845457 0.902331
O O16 0.492303 0.000000 0.500000
#
# Coordination Sequence:
#
# PCOD8158927 Si02
#       8
#     8   8   4   8   8   8   8   8
#     4  10  22  38  65  88 123 165 206 248 305 361
#     4   9  20  38  62  87 117 154 201 244 309 361
#     4  12  24  42  58  94 124 162 208 254 308 360
#     4   9  19  42  63  86 119 164 205 241 297 383
#     4   9  19  35  62  85 115 158 198 242 309 373
#     4  10  20  40  60  87 114 161 201 243 296 364
#     4  11  24  35  61  87 122 156 200 253 301 352
#     4  10  21  38  62  89 118 158 199 254 301 370
#
# _framework density 19.481127000000001
#
# number of rings (size 3 to 8) (size 9 to 14) (size 15 to 20)
#    0.000    2.133    1.333    2.000    5.600    1.067 
#    4.800    0.000    0.000    0.000    0.000    0.000 
#    0.000    0.000    0.000    0.000    0.000    0.000 
#
# Total GULP energy -372020.184282 kJ/mol
# GULP energy per Si atom -12400.672809 kJ/mol
# Density = 1.943679 g / cm^3
# Si number density = 19.481127 Si / 1000 Ang^3
#
#
#
# Elastic Constant Matrix: (Units=GPa)
#
#
# Indices 1 2 3 4 5 6 
#
# 1 90.6432 33.0478 29.0739 0.0000 0.0000 0.0000
# 2 33.0478 123.4969 21.0572 0.0000 0.0000 0.0000
# 3 29.0739 21.0572 63.8204 0.0000 0.0000 0.0000
# 4 0.0000 0.0000 0.0000 3.5576 0.0000 0.0000
# 5 0.0000 0.0000 0.0000 0.0000 22.6646 0.0000
# 6 0.0000 0.0000 0.0000 0.0000 0.0000 21.5441
#
#
#
# Elastic Compliance Matrix: (Units=1/GPa)
#
#
# Indices 1 2 3 4 5 6 
#
# 1 0.013759 -0.002769 -0.005355 0.000000 0.000000 0.000000
# 2 -0.002769 0.009137 -0.001753 0.000000 0.000000 0.000000
# 3 -0.005355 -0.001753 0.018687 0.000000 0.000000 0.000000
# 4 0.000000 0.000000 0.000000 0.281092 0.000000 0.000000
# 5 0.000000 0.000000 0.000000 0.000000 0.044122 0.000000
# 6 0.000000 0.000000 0.000000 0.000000 0.000000 0.046416
#
#
# Mechanical properties :
#
#
# Convention : Reuss Voigt Hill
#
# Bulk Modulus (GPa) = 45.80941 49.36872 47.58906
# Shear Modulus (GPa) = 11.35733 22.53869 16.94801
#
# Velocity S-wave (km/s) = 2.41714 3.40509 2.95273
# Velocity P-wave (km/s) = 5.59963 6.39189 6.00884
#
# Compressibility (1/GPa) = 0.02182958
#
# Stress axis : x y z
#
# Youngs Moduli (GPa) = 72.67819 109.44130 53.51379
#
# Poissons Ratio (x) = 0.30304 0.28654
# Poissons Ratio (y) = 0.20125 0.09383
# Poissons Ratio (z) = 0.38916 0.19189
#
# Static dielectric constant tensor:
#      x y z
#    x 3.536060 0.000000 0.000000 
#    y 0.000000 3.751950 0.000000 
#    z 0.000000 0.000000 3.328680 
# 
# 
# High freq. dielectric constant tensor:
#      x y z
#    x 1.755800 0.000000 0.000000 
#    y 0.000000 1.770270 0.000000 
#    z 0.000000 0.000000 1.737030 
# 
# From -- ./inp_files/7576.got.cif
#   From: 2010.03.12/outbox.cif.g09.slc.cpg/sg20_4_cif.got.tgz:7576.got - 2010.04.14 01:38:04.
