data_PCOD8158679
_publ_section_title
;
Structure prediction by ZEFSAII (Michael W. Deem and Ramdas Pophale) SiO2 
 PCOD8158679
Probable space group: C 2 2 21
;
_chemical_formula_sum "Si O2"
_cell_formula_units_Z 56
_cell_length_a 12.762931
_cell_length_b 12.583282
_cell_length_c 18.363638
_cell_angle_alpha 90.000000
_cell_angle_beta 90.000000
_cell_angle_gamma 90.000000
_cell_volume 2949.192181
_symmetry_space_group_name_H-M "C 2 2 21"
_symmetry_group_IT_number 20
_symmetry_cell_setting 'orthorhombic'
loop_
_space_group_symop_operation_xyz
x,y,z
-x,-y,1/2+z
x,-y,-z
-x,y,1/2-z
1/2+x,1/2+y,z
1/2-x,1/2-y,1/2+z
1/2+x,1/2-y,-z
1/2-x,1/2+y,1/2-z
loop_
_atom_site_type_symbol
_atom_site_label
_atom_site_fract_x
_atom_site_fract_y
_atom_site_fract_z
Si Si1 0.771109 0.021533 0.682876
Si Si2 0.290078 0.236891 0.874916
Si Si3 0.051257 0.397425 0.456701
Si Si4 0.539640 0.539811 0.918217
Si Si5 0.040575 0.539301 0.329410
Si Si6 0.405473 0.572050 0.195865
Si Si7 0.433045 0.787338 0.579962
O O1 0.746617 0.147249 0.682438
O O2 0.853660 0.996316 0.618466
O O3 0.666883 0.952613 0.668601
O O4 0.816096 0.993652 0.762099
O O5 0.352977 0.182591 0.941605
O O6 0.363215 0.315820 0.830945
O O7 0.191425 0.299017 0.909022
O O8 0.096052 0.500000 0.500000
O O9 0.002523 0.441952 0.381173
O O10 0.960991 0.337454 0.501578
O O11 0.440472 0.496339 0.873661
O O12 0.531719 0.666219 0.916258
O O13 0.534199 0.500000 0.000000
O O14 0.000000 0.511103 0.250000
O O15 0.993877 0.651185 0.355885
O O16 0.500000 0.596787 0.250000
#
# Coordination Sequence:
#
# PCOD8158679 Si02
#       7
#     8   8   8   8   8   8   8
#     4   9  21  37  58  80 110 152 185 222 276 344
#     4  10  20  36  59  84 113 147 188 233 280 330
#     4   9  20  39  57  80 111 149 188 227 278 338
#     4  10  21  38  58  82 111 147 186 229 278 329
#     4  10  20  36  59  84 111 144 187 231 277 330
#     4  10  21  38  57  84 116 144 185 236 281 327
#     4  10  21  36  58  82 110 147 187 232 276 330
#
# _framework density 18.988250000000001
#
# number of rings (size 3 to 8) (size 9 to 14) (size 15 to 20)
#    0.000    2.286    0.000    1.714    0.000   14.857 
#    0.000    9.286    0.000    1.714    0.000    0.000 
#    0.000    0.000    0.000    0.000    0.000    0.000 
#
# Total GULP energy -347217.040527 kJ/mol
# GULP energy per Si atom -12400.608590 kJ/mol
# Density = 1.894503 g / cm^3
# Si number density = 18.988250 Si / 1000 Ang^3
#
#
#
# Elastic Constant Matrix: (Units=GPa)
#
#
# Indices 1 2 3 4 5 6 
#
# 1 103.0770 61.9950 57.4195 0.0000 0.0000 0.0000
# 2 61.9950 101.7751 60.0980 0.0000 0.0000 0.0000
# 3 57.4195 60.0980 148.3376 0.0000 0.0000 0.0000
# 4 0.0000 0.0000 0.0000 30.7605 0.0000 0.0000
# 5 0.0000 0.0000 0.0000 0.0000 27.0415 0.0000
# 6 0.0000 0.0000 0.0000 0.0000 0.0000 39.0506
#
#
#
# Elastic Compliance Matrix: (Units=1/GPa)
#
#
# Indices 1 2 3 4 5 6 
#
# 1 0.016267 -0.008137 -0.003000 0.000000 0.000000 0.000000
# 2 -0.008137 0.016986 -0.003732 0.000000 0.000000 0.000000
# 3 -0.003000 -0.003732 0.009415 0.000000 0.000000 0.000000
# 4 0.000000 0.000000 0.000000 0.032509 0.000000 0.000000
# 5 0.000000 0.000000 0.000000 0.000000 0.036980 0.000000
# 6 0.000000 0.000000 0.000000 0.000000 0.000000 0.025608
#
#
# Mechanical properties :
#
#
# Convention : Reuss Voigt Hill
#
# Bulk Modulus (GPa) = 77.34469 79.13496 78.23982
# Shear Modulus (GPa) = 29.10155 30.94900 30.02528
#
# Velocity S-wave (km/s) = 3.91910 4.04159 3.98081
# Velocity P-wave (km/s) = 7.82946 7.97154 7.90082
#
# Compressibility (1/GPa) = 0.01292914
#
# Stress axis : x y z
#
# Youngs Moduli (GPa) = 61.47548 58.87207 106.21844
#
# Poissons Ratio (x) = 0.47905 0.31864
# Poissons Ratio (y) = 0.50024 0.39640
# Poissons Ratio (z) = 0.18442 0.21971
#
# Static dielectric constant tensor:
#      x y z
#    x 3.562870 0.000000 0.000000 
#    y 0.000000 3.477470 0.000000 
#    z 0.000000 0.000000 3.661330 
# 
# 
# High freq. dielectric constant tensor:
#      x y z
#    x 1.737210 0.000000 0.000000 
#    y 0.000000 1.738380 0.000000 
#    z 0.000000 0.000000 1.742670 
# 
# From -- ./inp_files/27190.got.cif
#   From: 2010.03.12/outbox.cif.g09.slc.cpg/sg20_14_cif.got.tgz:27190.got - 2010.04.14 01:38:04.
