data_PCOD8158666
_publ_section_title
;
Structure prediction by ZEFSAII (Michael W. Deem and Ramdas Pophale) SiO2 
 PCOD8158666
Probable space group: C 2 2 21
;
_chemical_formula_sum "Si O2"
_cell_formula_units_Z 48
_cell_length_a 16.065399
_cell_length_b 18.681842
_cell_length_c 8.430149
_cell_angle_alpha 90.000000
_cell_angle_beta 90.000000
_cell_angle_gamma 90.000000
_cell_volume 2530.151122
_symmetry_space_group_name_H-M "C 2 2 21"
_symmetry_group_IT_number 20
_symmetry_cell_setting 'orthorhombic'
loop_
_space_group_symop_operation_xyz
x,y,z
-x,-y,1/2+z
x,-y,-z
-x,y,1/2-z
1/2+x,1/2+y,z
1/2-x,1/2-y,1/2+z
1/2+x,1/2-y,-z
1/2-x,1/2+y,1/2-z
loop_
_atom_site_type_symbol
_atom_site_label
_atom_site_fract_x
_atom_site_fract_y
_atom_site_fract_z
Si Si1 0.812435 0.805256 0.950587
Si Si2 0.465704 0.214311 0.921508
Si Si3 0.852502 0.426285 0.077596
Si Si4 0.706849 0.927148 0.067200
Si Si5 0.228873 0.674497 0.367969
Si Si6 0.577864 0.851776 0.844727
O O1 0.907574 0.781286 0.971224
O O2 0.799474 0.825004 0.765651
O O3 0.783105 0.870960 0.060159
O O4 0.755125 0.738440 0.006965
O O5 0.500000 0.231722 0.750000
O O6 0.420775 0.136626 0.921043
O O7 0.541570 0.211552 0.045103
O O8 0.822612 0.439486 0.254858
O O9 0.887535 0.500000 0.000000
O O10 0.774888 0.399945 0.966792
O O11 0.628382 0.906928 0.955100
O O12 0.744741 0.000000 0.000000
O O13 0.138761 0.684990 0.282546
O O14 0.500000 0.889151 0.750000
#
# Coordination Sequence:
#
# PCOD8158666 Si02
#       6
#     8   8   8   8   8   8
#     4  10  20  36  57  82 111 158 194 250 282 342
#     4  11  22  38  56  87 120 158 197 237 296 352
#     4  11  21  37  54  82 120 156 193 237 292 356
#     4  11  24  39  58  83 118 156 200 241 297 352
#     4  10  21  34  57  78 118 149 202 236 283 347
#     4  11  20  37  54  85 116 151 192 231 291 350
#
# _framework density 18.971198999999999
#
# number of rings (size 3 to 8) (size 9 to 14) (size 15 to 20)
#    0.000    1.333    5.000    4.000    2.333    0.667 
#    3.000    0.000    0.000    0.000    4.333    0.000 
#    0.000    0.000    0.000    0.000    0.000    0.000 
#
# Total GULP energy -297381.573934 kJ/mol
# GULP energy per Si atom -12390.898914 kJ/mol
# Density = 1.892802 g / cm^3
# Si number density = 18.971199 Si / 1000 Ang^3
#
#
#
# Elastic Constant Matrix: (Units=GPa)
#
#
# Indices 1 2 3 4 5 6 
#
# 1 57.5442 49.4046 23.0237 0.0000 0.0000 0.0000
# 2 49.4046 85.7179 27.7063 0.0000 0.0000 0.0000
# 3 23.0237 27.7063 119.8085 0.0000 0.0000 0.0000
# 4 0.0000 0.0000 0.0000 32.1850 0.0000 0.0000
# 5 0.0000 0.0000 0.0000 0.0000 27.8904 0.0000
# 6 0.0000 0.0000 0.0000 0.0000 0.0000 23.6983
#
#
#
# Elastic Compliance Matrix: (Units=1/GPa)
#
#
# Indices 1 2 3 4 5 6 
#
# 1 0.034940 -0.019420 -0.002224 0.000000 0.000000 0.000000
# 2 -0.019420 0.023402 -0.001680 0.000000 0.000000 0.000000
# 3 -0.002224 -0.001680 0.009162 0.000000 0.000000 0.000000
# 4 0.000000 0.000000 0.000000 0.031070 0.000000 0.000000
# 5 0.000000 0.000000 0.000000 0.000000 0.035855 0.000000
# 6 0.000000 0.000000 0.000000 0.000000 0.000000 0.042197
#
#
# Mechanical properties :
#
#
# Convention : Reuss Voigt Hill
#
# Bulk Modulus (GPa) = 47.94231 51.48221 49.71226
# Shear Modulus (GPa) = 21.71780 27.61715 24.66747
#
# Velocity S-wave (km/s) = 3.38713 3.81956 3.60982
# Velocity P-wave (km/s) = 6.37360 6.82993 6.60571
#
# Compressibility (1/GPa) = 0.02085840
#
# Stress axis : x y z
#
# Youngs Moduli (GPa) = 28.62020 42.73157 109.14092
#
# Poissons Ratio (x) = 0.82983 0.24269
# Poissons Ratio (y) = 0.55579 0.18335
# Poissons Ratio (z) = 0.06364 0.07179
#
# Static dielectric constant tensor:
#      x y z
#    x 3.338740 0.000000 0.000000 
#    y 0.000000 3.347590 0.000000 
#    z 0.000000 0.000000 4.026340 
# 
# 
# High freq. dielectric constant tensor:
#      x y z
#    x 1.698950 0.000000 0.000000 
#    y 0.000000 1.710260 0.000000 
#    z 0.000000 0.000000 1.774170 
# 
# From -- ./inp_files/8428.got.cif
#   From: 2010.03.12/outbox.cif.g09.slc.cpg/sg20_5_cif.got.tgz:8428.got - 2010.04.14 01:38:04.
