data_PCOD8158577
_publ_section_title
;
Structure prediction by ZEFSAII (Michael W. Deem and Ramdas Pophale) SiO2 
 PCOD8158577
Probable space group: C 2 2 21
;
_chemical_formula_sum "Si O2"
_cell_formula_units_Z 64
_cell_length_a 19.874701
_cell_length_b 8.863920
_cell_length_c 19.729759
_cell_angle_alpha 90.000000
_cell_angle_beta 90.000000
_cell_angle_gamma 90.000000
_cell_volume 3475.747442
_symmetry_space_group_name_H-M "C 2 2 21"
_symmetry_group_IT_number 20
_symmetry_cell_setting 'orthorhombic'
loop_
_space_group_symop_operation_xyz
x,y,z
-x,-y,1/2+z
x,-y,-z
-x,y,1/2-z
1/2+x,1/2+y,z
1/2-x,1/2-y,1/2+z
1/2+x,1/2-y,-z
1/2-x,1/2+y,1/2-z
loop_
_atom_site_type_symbol
_atom_site_label
_atom_site_fract_x
_atom_site_fract_y
_atom_site_fract_z
Si Si1 0.800493 0.927096 0.156628
Si Si2 0.528393 0.426353 0.822202
Si Si3 0.913732 0.927281 0.928640
Si Si4 0.666184 0.573252 0.809242
Si Si5 0.413732 0.072719 0.928640
Si Si6 0.028393 0.426353 0.177798
Si Si7 0.333816 0.926748 0.690758
Si Si8 0.699507 0.927096 0.656628
O O1 0.844327 0.005979 0.099102
O O2 0.830545 0.970274 0.229954
O O3 0.724753 0.988030 0.150083
O O4 0.800763 0.750000 0.143835
O O5 0.500000 0.479665 0.750000
O O6 0.474263 0.469218 0.878618
O O7 0.595532 0.518657 0.839369
O O8 0.545934 0.250000 0.821184
O O9 0.904872 0.750000 0.936680
O O10 0.931940 0.000000 0.000000
O O11 0.675374 0.750000 0.820612
O O12 0.724753 0.488030 0.849917
O O13 0.474263 0.030782 0.878618
O O14 0.344327 0.005979 0.900898
O O15 0.431940 0.000000 0.000000
O O16 0.095532 0.518657 0.160631
O O17 0.000000 0.479665 0.250000
O O18 0.330545 0.970274 0.770046
#
# Coordination Sequence:
#
# PCOD8158577 Si02
#       8
#     8   8   8   8   8   8   8   8
#     4  10  20  35  56  83 115 149 188 234 285 341
#     4  10  20  36  58  84 115 151 191 239 290 342
#     4  11  23  39  59  83 116 154 192 235 288 348
#     4  10  20  33  56  87 116 145 186 240 288 335
#     4  11  23  39  59  83 116 154 192 235 288 348
#     4  10  20  36  58  84 115 151 191 239 290 342
#     4  10  20  33  56  87 116 145 186 240 288 335
#     4  10  20  35  56  83 115 149 188 234 285 341
#
# _framework density 18.413305999999999
#
# number of rings (size 3 to 8) (size 9 to 14) (size 15 to 20)
#    0.000    1.750    2.500    2.250    0.000    4.500 
#    0.000    1.250    0.000    3.000    0.000    0.000 
#    0.000    0.000    0.000    0.000    0.000    0.000 
#
# Total GULP energy -397004.173303 kJ/mol
# GULP energy per Si atom -12406.380416 kJ/mol
# Density = 1.837140 g / cm^3
# Si number density = 18.413306 Si / 1000 Ang^3
#
#
#
# Elastic Constant Matrix: (Units=GPa)
#
#
# Indices 1 2 3 4 5 6 
#
# 1 141.2761 58.6173 62.6579 0.0000 0.0000 0.0000
# 2 58.6173 83.4168 52.0340 0.0000 0.0000 0.0000
# 3 62.6579 52.0340 113.3754 0.0000 0.0000 0.0000
# 4 0.0000 0.0000 0.0000 29.9265 0.0000 0.0000
# 5 0.0000 0.0000 0.0000 0.0000 25.6499 0.0000
# 6 0.0000 0.0000 0.0000 0.0000 0.0000 37.5029
#
#
#
# Elastic Compliance Matrix: (Units=1/GPa)
#
#
# Indices 1 2 3 4 5 6 
#
# 1 0.010909 -0.005471 -0.003518 0.000000 0.000000 0.000000
# 2 -0.005471 0.019541 -0.005945 0.000000 0.000000 0.000000
# 3 -0.003518 -0.005945 0.013493 0.000000 0.000000 0.000000
# 4 0.000000 0.000000 0.000000 0.033415 0.000000 0.000000
# 5 0.000000 0.000000 0.000000 0.000000 0.038987 0.000000
# 6 0.000000 0.000000 0.000000 0.000000 0.000000 0.026665
#
#
# Mechanical properties :
#
#
# Convention : Reuss Voigt Hill
#
# Bulk Modulus (GPa) = 71.04801 76.07630 73.56216
# Shear Modulus (GPa) = 28.15842 29.59982 28.87912
#
# Velocity S-wave (km/s) = 3.91480 4.01374 3.96458
# Velocity P-wave (km/s) = 7.68785 7.93006 7.80989
#
# Compressibility (1/GPa) = 0.01407499
#
# Stress axis : x y z
#
# Youngs Moduli (GPa) = 91.67119 51.17514 74.11468
#
# Poissons Ratio (x) = 0.27999 0.26071
# Poissons Ratio (y) = 0.50155 0.44058
# Poissons Ratio (z) = 0.32247 0.30421
#
# Static dielectric constant tensor:
#      x y z
#    x 3.413140 0.000000 0.000000 
#    y 0.000000 3.377440 0.000000 
#    z 0.000000 0.000000 3.223740 
# 
# 
# High freq. dielectric constant tensor:
#      x y z
#    x 1.725560 0.000000 0.000000 
#    y 0.000000 1.724980 0.000000 
#    z 0.000000 0.000000 1.688970 
# 
# From -- ./inp_files/23926.got.cif
#   From: 2010.03.12/outbox.cif.g09.slc.cpg/sg20_12_cif.got.tgz:23926.got - 2010.04.14 01:38:04.
