data_PCOD8158608
_publ_section_title
;
Structure prediction by ZEFSAII (Michael W. Deem and Ramdas Pophale) SiO2 
 PCOD8158608
Probable space group: C 2 2 21
;
_chemical_formula_sum "Si O2"
_cell_formula_units_Z 52
_cell_length_a 23.125393
_cell_length_b 5.093073
_cell_length_c 21.769425
_cell_angle_alpha 90.000000
_cell_angle_beta 90.000000
_cell_angle_gamma 90.000000
_cell_volume 2563.987958
_symmetry_space_group_name_H-M "C 2 2 21"
_symmetry_group_IT_number 20
_symmetry_cell_setting 'orthorhombic'
loop_
_space_group_symop_operation_xyz
x,y,z
-x,-y,1/2+z
x,-y,-z
-x,y,1/2-z
1/2+x,1/2+y,z
1/2-x,1/2-y,1/2+z
1/2+x,1/2-y,-z
1/2-x,1/2+y,1/2-z
loop_
_atom_site_type_symbol
_atom_site_label
_atom_site_fract_x
_atom_site_fract_y
_atom_site_fract_z
Si Si1 0.878002 0.000000 0.500000
Si Si2 0.072143 0.771035 0.359869
Si Si3 0.449392 0.383991 0.396956
Si Si4 0.799146 0.352055 0.435603
Si Si5 0.605903 0.096253 0.845381
Si Si6 0.937041 0.261452 0.221181
Si Si7 0.329192 0.255169 0.042124
O O1 0.921164 0.801937 0.463101
O O2 0.835424 0.911343 0.554440
O O3 0.057427 0.504214 0.324725
O O4 0.125175 0.711069 0.404601
O O5 0.018463 0.866451 0.401348
O O6 0.087187 0.004157 0.312783
O O7 0.431133 0.683204 0.381670
O O8 0.428660 0.178240 0.345680
O O9 0.809480 0.500000 0.500000
O O10 0.830530 0.468982 0.374852
O O11 0.731760 0.307467 0.423517
O O12 0.610254 0.177821 0.774118
O O13 0.000000 0.199139 0.250000
O O14 0.346986 0.500000 0.000000
O O15 0.323424 0.000000 0.000000
#
# Coordination Sequence:
#
# PCOD8158608 Si02
#       7
#     4   8   8   8   8   8   8
#     4  10  20  34  60  88 124 148 204 258 306 362
#     4  12  24  41  61  92 127 166 203 248 307 378
#     4  11  21  35  57  92 124 153 195 256 311 359
#     4  10  20  40  62  87 120 158 208 252 310 357
#     4  11  22  36  63  92 117 159 206 255 304 357
#     4  12  22  41  62  89 128 165 207 247 310 372
#     4  11  25  44  65  88 124 168 203 248 308 378
#
# _framework density 20.280906000000002
#
# number of rings (size 3 to 8) (size 9 to 14) (size 15 to 20)
#    0.000    0.923    5.385    2.308    1.077    0.000 
#    2.769    1.538    0.000    0.000    0.000    0.000 
#    0.000    0.000    0.000    0.000    0.000    0.000 
#
# Total GULP energy -322208.232404 kJ/mol
# GULP energy per Si atom -12392.624323 kJ/mol
# Density = 2.023475 g / cm^3
# Si number density = 20.280906 Si / 1000 Ang^3
#
#
#
# Elastic Constant Matrix: (Units=GPa)
#
#
# Indices 1 2 3 4 5 6 
#
# 1 116.7051 3.7866 44.0068 0.0000 0.0000 0.0000
# 2 3.7866 74.4767 2.0712 0.0000 0.0000 0.0000
# 3 44.0068 2.0712 62.6187 0.0000 0.0000 0.0000
# 4 0.0000 0.0000 0.0000 32.3153 0.0000 0.0000
# 5 0.0000 0.0000 0.0000 0.0000-1960.8229 0.0000
# 6 0.0000 0.0000 0.0000 0.0000 0.0000 28.7598
#
#
#
# Elastic Compliance Matrix: (Units=1/GPa)
#
#
# Indices 1 2 3 4 5 6 
#
# 1 0.011668 -0.000366 -0.008188 0.000000 0.000000 0.000000
# 2 -0.000366 0.013451 -0.000188 0.000000 0.000000 0.000000
# 3 -0.008188 -0.000188 0.021730 0.000000 0.000000 0.000000
# 4 0.000000 0.000000 0.000000 0.030945 0.000000 0.000000
# 5 0.000000 0.000000 0.000000 0.000000 -0.000510 0.000000
# 6 0.000000 0.000000 0.000000 0.000000 0.000000 0.034771
#
#
# Mechanical properties :
#
#
# Convention : Reuss Voigt Hill
#
# Bulk Modulus (GPa) = 34.05288 39.28108 36.66698
# Shear Modulus (GPa) = 35.88701 -366.35385 -165.23342
#
# Velocity S-wave (km/s) = 4.21110 -13.45481 -9.03600
# Velocity P-wave (km/s) = 6.36173 14.89850 9.52612
#
# Compressibility (1/GPa) = 0.02936609
#
# Stress axis : x y z
#
# Youngs Moduli (GPa) = 85.70520 74.34486 46.01918
#
# Poissons Ratio (x) = 0.02718 0.37680
# Poissons Ratio (y) = 0.03133 0.00865
# Poissons Ratio (z) = 0.70174 0.01398
#
# Static dielectric constant tensor:
#      x y z
#    x 3.641440 0.000000 0.000000 
#    y 0.000000 11.607530 0.000000 
#    z 0.000000 0.000000 3.838870 
# 
# 
# High freq. dielectric constant tensor:
#      x y z
#    x 1.781250 0.000000 0.000000 
#    y 0.000000 1.800180 0.000000 
#    z 0.000000 0.000000 1.784740 
# 
# From -- ./inp_files/27913.got.cif
#   From: 2010.03.12/outbox.cif.g09.slc.cpg/sg20_14_cif.got.tgz:27913.got - 2010.04.14 01:38:04.
