data_PCOD8158456
_publ_section_title
;
Structure prediction by ZEFSAII (Michael W. Deem and Ramdas Pophale) SiO2 
 PCOD8158456
Probable space group: C 2 2 21
;
_chemical_formula_sum "Si O2"
_cell_formula_units_Z 64
_cell_length_a 19.563167
_cell_length_b 17.319410
_cell_length_c 8.992484
_cell_angle_alpha 90.000000
_cell_angle_beta 90.000000
_cell_angle_gamma 90.000000
_cell_volume 3046.856002
_symmetry_space_group_name_H-M "C 2 2 21"
_symmetry_group_IT_number 20
_symmetry_cell_setting 'orthorhombic'
loop_
_space_group_symop_operation_xyz
x,y,z
-x,-y,1/2+z
x,-y,-z
-x,y,1/2-z
1/2+x,1/2+y,z
1/2-x,1/2-y,1/2+z
1/2+x,1/2-y,-z
1/2-x,1/2+y,1/2-z
loop_
_atom_site_type_symbol
_atom_site_label
_atom_site_fract_x
_atom_site_fract_y
_atom_site_fract_z
Si Si1 0.458069 0.663412 0.391385
Si Si2 0.828958 0.328694 0.776879
Si Si3 0.951516 0.434601 0.880190
Si Si4 0.317908 0.828896 0.434386
Si Si5 0.461977 0.153228 0.605188
Si Si6 0.820910 0.170124 0.277145
Si Si7 0.958448 0.930537 0.109599
Si Si8 0.667500 0.334404 0.433894
O O1 0.500000 0.633662 0.250000
O O2 0.455149 0.755275 0.396322
O O3 0.380159 0.630657 0.377254
O O4 0.491554 0.633422 0.540969
O O5 0.883718 0.394887 0.814471
O O6 0.830135 0.301775 0.604909
O O7 0.753787 0.367250 0.805131
O O8 0.840837 0.253014 0.876213
O O9 0.000000 0.469761 0.750000
O O10 0.931431 0.500000 0.000000
O O11 0.997309 0.369624 0.958560
O O12 0.384052 0.881724 0.392765
O O13 0.313789 0.759190 0.319623
O O14 0.244169 0.870146 0.413935
O O15 0.500000 0.121444 0.750000
O O16 0.848731 0.166598 0.108793
O O17 0.886222 0.890060 0.149923
O O18 0.000000 0.963360 0.250000
O O19 0.942578 0.000000 0.000000
#
# Coordination Sequence:
#
# PCOD8158456 Si02
#       8
#     8   8   8   8   8   8   8   8
#     4  10  19  37  64  93 119 154 198 246 306 365
#     4  10  21  38  64  94 123 156 203 252 302 361
#     4  12  25  42  59  85 123 166 207 256 301 355
#     4   9  19  37  63  96 127 151 196 247 308 358
#     4  10  21  37  64  94 120 158 201 248 305 366
#     4   9  19  36  64  94 128 152 192 248 310 359
#     4  12  27  42  60  86 121 165 209 254 303 357
#     4  10  21  39  66  93 124 158 198 249 307 367
#
# _framework density 21.00526
#
# number of rings (size 3 to 8) (size 9 to 14) (size 15 to 20)
#    0.000    1.750    2.500    1.500    7.000    1.000 
#    0.000    1.250    2.750    0.000    0.000    0.000 
#    0.000    0.000    0.000    0.000    0.000    0.000 
#
# Total GULP energy -396562.602503 kJ/mol
# GULP energy per Si atom -12392.581328 kJ/mol
# Density = 2.095745 g / cm^3
# Si number density = 21.005260 Si / 1000 Ang^3
#
#
#
# Elastic Constant Matrix: (Units=GPa)
#
#
# Indices 1 2 3 4 5 6 
#
# 1 180.4730 34.7639 32.9364 0.0000 0.0000 0.0000
# 2 34.7639 49.1729 13.6167 0.0000 0.0000 0.0000
# 3 32.9364 13.6167 62.0591 0.0000 0.0000 0.0000
# 4 0.0000 0.0000 0.0000 16.5477 0.0000 0.0000
# 5 0.0000 0.0000 0.0000 0.0000 33.9348 0.0000
# 6 0.0000 0.0000 0.0000 0.0000 0.0000 9.0727
#
#
#
# Elastic Compliance Matrix: (Units=1/GPa)
#
#
# Indices 1 2 3 4 5 6 
#
# 1 0.006822 -0.004068 -0.002728 0.000000 0.000000 0.000000
# 2 -0.004068 0.024077 -0.003124 0.000000 0.000000 0.000000
# 3 -0.002728 -0.003124 0.018247 0.000000 0.000000 0.000000
# 4 0.000000 0.000000 0.000000 0.060431 0.000000 0.000000
# 5 0.000000 0.000000 0.000000 0.000000 0.029468 0.000000
# 6 0.000000 0.000000 0.000000 0.000000 0.000000 0.110221
#
#
# Mechanical properties :
#
#
# Convention : Reuss Voigt Hill
#
# Bulk Modulus (GPa) = 34.12203 50.48212 42.30207
# Shear Modulus (GPa) = 17.92908 25.93691 21.93299
#
# Velocity S-wave (km/s) = 2.92473 3.51776 3.23486
# Velocity P-wave (km/s) = 5.26167 6.37062 5.84251
#
# Compressibility (1/GPa) = 0.02930658
#
# Stress axis : x y z
#
# Youngs Moduli (GPa) = 146.57421 41.53285 54.80312
#
# Poissons Ratio (x) = 0.16895 0.14952
# Poissons Ratio (y) = 0.59623 0.17121
# Poissons Ratio (z) = 0.39990 0.12975
#
# Static dielectric constant tensor:
#      x y z
#    x 4.547940 0.000000 0.000000 
#    y 0.000000 3.247250 0.000000 
#    z 0.000000 0.000000 3.939290 
# 
# 
# High freq. dielectric constant tensor:
#      x y z
#    x 1.853340 0.000000 0.000000 
#    y 0.000000 1.773700 0.000000 
#    z 0.000000 0.000000 1.825810 
# 
# From -- ./inp_files/10332.got.cif
#   From: 2010.03.12/outbox.cif.g09.slc.cpg/sg20_6_cif.got.tgz:10332.got - 2010.04.14 01:38:04.
