data_PCOD8158269
_publ_section_title
;
Structure prediction by ZEFSAII (Michael W. Deem and Ramdas Pophale) SiO2 
 PCOD8158269
Probable space group: C 2 2 21
;
_chemical_formula_sum "Si O2"
_cell_formula_units_Z 64
_cell_length_a 17.293319
_cell_length_b 19.594562
_cell_length_c 9.414570
_cell_angle_alpha 90.000000
_cell_angle_beta 90.000000
_cell_angle_gamma 90.000000
_cell_volume 3190.174224
_symmetry_space_group_name_H-M "C 2 2 21"
_symmetry_group_IT_number 20
_symmetry_cell_setting 'orthorhombic'
loop_
_space_group_symop_operation_xyz
x,y,z
-x,-y,1/2+z
x,-y,-z
-x,y,1/2-z
1/2+x,1/2+y,z
1/2-x,1/2-y,1/2+z
1/2+x,1/2-y,-z
1/2-x,1/2+y,1/2-z
loop_
_atom_site_type_symbol
_atom_site_label
_atom_site_fract_x
_atom_site_fract_y
_atom_site_fract_z
Si Si1 0.086762 0.038968 0.278966
Si Si2 0.742800 0.869839 0.283071
Si Si3 0.371812 0.592151 0.917188
Si Si4 0.415997 0.826667 0.237345
Si Si5 0.823090 0.126985 0.432962
Si Si6 0.706333 0.217846 0.270659
Si Si7 0.574090 0.742062 0.534934
Si Si8 0.902766 0.259423 0.528663
O O1 0.127884 0.067270 0.420861
O O2 0.135511 0.062615 0.141737
O O3 0.000000 0.065893 0.250000
O O4 0.083825 0.957459 0.305493
O O5 0.784167 0.903355 0.145372
O O6 0.650158 0.882815 0.297153
O O7 0.776066 0.899904 0.430548
O O8 0.751863 0.788548 0.265529
O O9 0.415504 0.663812 0.920716
O O10 0.500000 0.863083 0.250000
O O11 0.389700 0.798341 0.385716
O O12 0.422463 0.761131 0.131659
O O13 0.769932 0.161805 0.311197
O O14 0.884426 0.179837 0.500295
O O15 0.645367 0.217318 0.398975
O O16 0.656545 0.200977 0.131203
O O17 0.489572 0.764199 0.592079
#
# Coordination Sequence:
#
# PCOD8158269 Si02
#       8
#     8   8   8   8   8   8   8   8
#     4  11  25  42  59  84 116 161 211 249 282 339
#     4  10  21  36  56  85 115 154 195 246 299 356
#     4  10  24  39  61  82 115 159 203 252 289 340
#     4  10  19  32  54  86 120 151 187 233 298 365
#     4  11  21  35  54  81 115 160 200 240 293 347
#     4  10  20  31  51  80 115 147 191 238 299 354
#     4  10  19  36  55  81 119 148 194 236 299 359
#     4  10  20  30  52  82 111 157 182 238 297 351
#
# _framework density 20.061599999999999
#
# number of rings (size 3 to 8) (size 9 to 14) (size 15 to 20)
#    0.000    1.750    2.500    1.875    1.750    6.500 
#    0.000    0.000    0.000    0.000    0.000    5.250 
#    0.000    0.000    0.000    0.000    0.000    0.000 
#
# Total GULP energy -396441.179348 kJ/mol
# GULP energy per Si atom -12388.786855 kJ/mol
# Density = 2.001594 g / cm^3
# Si number density = 20.061600 Si / 1000 Ang^3
#
#
#
# Elastic Constant Matrix: (Units=GPa)
#
#
# Indices 1 2 3 4 5 6 
#
# 1 140.2195 30.8094 54.4312 0.0000 0.0000 0.0000
# 2 30.8094 39.6043 30.5086 0.0000 0.0000 0.0000
# 3 54.4312 30.5086 106.1493 0.0000 0.0000 0.0000
# 4 0.0000 0.0000 0.0000 26.6889 0.0000 0.0000
# 5 0.0000 0.0000 0.0000 0.0000 27.0561 0.0000
# 6 0.0000 0.0000 0.0000 0.0000 0.0000 16.3275
#
#
#
# Elastic Compliance Matrix: (Units=1/GPa)
#
#
# Indices 1 2 3 4 5 6 
#
# 1 0.009537 -0.004691 -0.003542 0.000000 0.000000 0.000000
# 2 -0.004691 0.034737 -0.007579 0.000000 0.000000 0.000000
# 3 -0.003542 -0.007579 0.013415 0.000000 0.000000 0.000000
# 4 0.000000 0.000000 0.000000 0.037469 0.000000 0.000000
# 5 0.000000 0.000000 0.000000 0.000000 0.036960 0.000000
# 6 0.000000 0.000000 0.000000 0.000000 0.000000 0.061246
#
#
# Mechanical properties :
#
#
# Convention : Reuss Voigt Hill
#
# Bulk Modulus (GPa) = 38.36361 57.49684 47.93023
# Shear Modulus (GPa) = 21.39709 25.36278 23.37993
#
# Velocity S-wave (km/s) = 3.26938 3.55948 3.41751
# Velocity P-wave (km/s) = 5.78068 6.75393 6.28617
#
# Compressibility (1/GPa) = 0.02606637
#
# Stress axis : x y z
#
# Youngs Moduli (GPa) = 104.85001 28.78798 74.54138
#
# Poissons Ratio (x) = 0.13503 0.26406
# Poissons Ratio (y) = 0.49181 0.56492
# Poissons Ratio (z) = 0.37143 0.21817
#
# Static dielectric constant tensor:
#      x y z
#    x 4.029650 0.000000 0.000000 
#    y 0.000000 3.303110 0.000000 
#    z 0.000000 0.000000 3.888890 
# 
# 
# High freq. dielectric constant tensor:
#      x y z
#    x 1.797570 0.000000 0.000000 
#    y 0.000000 1.717990 0.000000 
#    z 0.000000 0.000000 1.803250 
# 
# From -- ./inp_files/9644.got.cif
#   From: 2010.03.12/outbox.cif.g09.slc.cpg/sg20_5_cif.got.tgz:9644.got - 2010.04.14 01:38:04.
