data_PCOD8158566
_publ_section_title
;
Structure prediction by ZEFSAII (Michael W. Deem and Ramdas Pophale) SiO2 
 PCOD8158566
Probable space group: C 2 2 21
;
_chemical_formula_sum "Si O2"
_cell_formula_units_Z 32
_cell_length_a 22.061357
_cell_length_b 16.361236
_cell_length_c 4.867678
_cell_angle_alpha 90.000000
_cell_angle_beta 90.000000
_cell_angle_gamma 90.000000
_cell_volume 1756.993575
_symmetry_space_group_name_H-M "C 2 2 21"
_symmetry_group_IT_number 20
_symmetry_cell_setting 'orthorhombic'
loop_
_space_group_symop_operation_xyz
x,y,z
-x,-y,1/2+z
x,-y,-z
-x,y,1/2-z
1/2+x,1/2+y,z
1/2-x,1/2-y,1/2+z
1/2+x,1/2-y,-z
1/2-x,1/2+y,1/2-z
loop_
_atom_site_type_symbol
_atom_site_label
_atom_site_fract_x
_atom_site_fract_y
_atom_site_fract_z
Si Si1 0.940834 0.090458 0.399361
Si Si2 0.711871 0.226108 0.595735
Si Si3 0.867467 0.862087 0.095592
Si Si4 0.258448 0.056637 0.743653
O O1 0.918105 0.142451 0.663079
O O2 0.000000 0.129922 0.250000
O O3 0.957004 0.000000 0.500000
O O4 0.889443 0.087027 0.167842
O O5 0.759386 0.220424 0.342991
O O6 0.649850 0.269634 0.496124
O O7 0.697352 0.134249 0.701707
O O8 0.807981 0.907940 0.194303
O O9 0.283763 0.000000 0.500000
O O10 0.254691 0.000000 0.000000
#
# Coordination Sequence:
#
# PCOD8158566 Si02
#       4
#     8   8   8   8
#     4  12  23  34  49  71  99 134 179 223 251 285
#     4  10  20  33  49  72 101 134 173 215 254 305
#     4  11  21  34  50  69 100 140 173 207 259 304
#     4  11  20  31  50  74 100 132 171 209 251 306
#
# _framework density 18.212931000000001
#
# number of rings (size 3 to 8) (size 9 to 14) (size 15 to 20)
#    0.000    1.000    0.000   12.750    0.000    0.000 
#    0.000    0.000    0.000    0.000    0.000    0.000 
#    0.000    6.000    0.000    9.750    0.000    6.250 
#
# Total GULP energy -198360.174538 kJ/mol
# GULP energy per Si atom -12397.510909 kJ/mol
# Density = 1.817148 g / cm^3
# Si number density = 18.212931 Si / 1000 Ang^3
#
#
#
# Elastic Constant Matrix: (Units=GPa)
#
#
# Indices 1 2 3 4 5 6 
#
# 1 49.2498 42.2631 35.4565 0.0000 0.0000 0.0000
# 2 42.2631 119.3543 52.0304 0.0000 0.0000 0.0000
# 3 35.4565 52.0304 140.0658 0.0000 0.0000 0.0000
# 4 0.0000 0.0000 0.0000 37.9501 0.0000 0.0000
# 5 0.0000 0.0000 0.0000 0.0000 33.7145 0.0000
# 6 0.0000 0.0000 0.0000 0.0000 0.0000 18.8887
#
#
#
# Elastic Compliance Matrix: (Units=1/GPa)
#
#
# Indices 1 2 3 4 5 6 
#
# 1 0.031434 -0.009142 -0.004561 0.000000 0.000000 0.000000
# 2 -0.009142 0.012656 -0.002387 0.000000 0.000000 0.000000
# 3 -0.004561 -0.002387 0.009181 0.000000 0.000000 0.000000
# 4 0.000000 0.000000 0.000000 0.026350 0.000000 0.000000
# 5 0.000000 0.000000 0.000000 0.000000 0.029661 0.000000
# 6 0.000000 0.000000 0.000000 0.000000 0.000000 0.052942
#
#
# Mechanical properties :
#
#
# Convention : Reuss Voigt Hill
#
# Bulk Modulus (GPa) = 47.41631 63.13000 55.27316
# Shear Modulus (GPa) = 24.82193 30.03864 27.43028
#
# Velocity S-wave (km/s) = 3.69572 4.06557 3.88505
# Velocity P-wave (km/s) = 6.65598 7.53498 7.10908
#
# Compressibility (1/GPa) = 0.02108979
#
# Stress axis : x y z
#
# Youngs Moduli (GPa) = 31.81307 79.01197 108.92216
#
# Poissons Ratio (x) = 0.72235 0.49680
# Poissons Ratio (y) = 0.29084 0.26002
# Poissons Ratio (z) = 0.14510 0.18861
#
# Static dielectric constant tensor:
#      x y z
#    x 3.163390 0.000000 0.000000 
#    y 0.000000 3.557100 0.000000 
#    z 0.000000 0.000000 3.950660 
# 
# 
# High freq. dielectric constant tensor:
#      x y z
#    x 1.654720 0.000000 0.000000 
#    y 0.000000 1.685830 0.000000 
#    z 0.000000 0.000000 1.747120 
# 
# From -- ./inp_files/3609.got.cif
#   From: 2010.03.12/outbox.cif.g09.slc.cpg/sg20_2_cif.got.tgz:3609.got - 2010.04.14 01:38:04.
