data_PCOD8158221
_publ_section_title
;
Structure prediction by ZEFSAII (Michael W. Deem and Ramdas Pophale) SiO2 
 PCOD8158221
Probable space group: C 2 2 21
;
_chemical_formula_sum "Si O2"
_cell_formula_units_Z 64
_cell_length_a 9.512049
_cell_length_b 16.117381
_cell_length_c 21.486710
_cell_angle_alpha 90.000000
_cell_angle_beta 90.000000
_cell_angle_gamma 90.000000
_cell_volume 3294.112852
_symmetry_space_group_name_H-M "C 2 2 21"
_symmetry_group_IT_number 20
_symmetry_cell_setting 'orthorhombic'
loop_
_space_group_symop_operation_xyz
x,y,z
-x,-y,1/2+z
x,-y,-z
-x,y,1/2-z
1/2+x,1/2+y,z
1/2-x,1/2-y,1/2+z
1/2+x,1/2-y,-z
1/2-x,1/2+y,1/2-z
loop_
_atom_site_type_symbol
_atom_site_label
_atom_site_fract_x
_atom_site_fract_y
_atom_site_fract_z
Si Si1 0.256871 0.801872 0.137389
Si Si2 0.970311 0.712326 0.438505
Si Si3 0.258700 0.151348 0.127441
Si Si4 0.853621 0.474703 0.687738
Si Si5 0.348643 0.795176 0.741045
Si Si6 0.759662 0.563874 0.443302
Si Si7 0.669006 0.020150 0.677497
Si Si8 0.474134 0.302852 0.936428
O O1 0.262912 0.762639 0.206012
O O2 0.266940 0.900082 0.143935
O O3 0.385084 0.768378 0.097035
O O4 0.106790 0.772680 0.110328
O O5 0.129490 0.693744 0.418591
O O6 0.966537 0.763698 0.501377
O O7 0.892772 0.624667 0.446987
O O8 0.271374 0.189183 0.195211
O O9 0.103048 0.169815 0.105440
O O10 0.278975 0.052987 0.132640
O O11 0.883854 0.377598 0.700387
O O12 0.761240 0.482854 0.624447
O O13 0.778103 0.511662 0.750049
O O14 0.999988 0.522219 0.677316
O O15 0.500000 0.750892 0.750000
O O16 0.769360 0.500000 0.500000
O O17 0.616956 0.615500 0.450296
#
# Coordination Sequence:
#
# PCOD8158221 Si02
#       8
#     8   8   8   8   8   8   8   8
#     4  11  23  41  63  96 131 152 215 269 311 370
#     4  11  22  45  65  89 126 176 217 252 311 394
#     4  11  21  40  70  89 122 172 209 252 326 375
#     4  10  18  41  65  90 121 165 216 247 315 389
#     4  11  17  40  71  88 119 171 205 252 315 386
#     4  11  23  43  66  87 127 176 212 259 319 382
#     4  10  21  37  67  94 121 159 211 267 304 383
#     4  11  26  41  60  97 131 162 212 267 318 368
#
# _framework density 19.428598999999998
#
# number of rings (size 3 to 8) (size 9 to 14) (size 15 to 20)
#    0.000    1.250    7.500    1.500    1.750    3.500 
#    2.250    3.125    0.000    0.000    0.000    0.000 
#    0.000    0.000    0.000    0.000    0.000    0.000 
#
# Total GULP energy -396775.384528 kJ/mol
# GULP energy per Si atom -12399.230767 kJ/mol
# Density = 1.938438 g / cm^3
# Si number density = 19.428599 Si / 1000 Ang^3
#
#
#
# Elastic Constant Matrix: (Units=GPa)
#
#
# Indices 1 2 3 4 5 6 
#
# 1 56.5591 13.1130 23.1474 0.0000 0.0000 0.0000
# 2 13.1130 89.5974 45.5478 0.0000 0.0000 0.0000
# 3 23.1474 45.5478 110.0539 0.0000 0.0000 0.0000
# 4 0.0000 0.0000 0.0000 38.4602 0.0000 0.0000
# 5 0.0000 0.0000 0.0000 0.0000 25.3202 0.0000
# 6 0.0000 0.0000 0.0000 0.0000 0.0000 24.0021
#
#
#
# Elastic Compliance Matrix: (Units=1/GPa)
#
#
# Indices 1 2 3 4 5 6 
#
# 1 0.019412 -0.000969 -0.003682 0.000000 0.000000 0.000000
# 2 -0.000969 0.014183 -0.005666 0.000000 0.000000 0.000000
# 3 -0.003682 -0.005666 0.012206 0.000000 0.000000 0.000000
# 4 0.000000 0.000000 0.000000 0.026001 0.000000 0.000000
# 5 0.000000 0.000000 0.000000 0.000000 0.039494 0.000000
# 6 0.000000 0.000000 0.000000 0.000000 0.000000 0.041663
#
#
# Mechanical properties :
#
#
# Convention : Reuss Voigt Hill
#
# Bulk Modulus (GPa) = 39.73484 46.64742 43.19113
# Shear Modulus (GPa) = 27.47508 29.18330 28.32919
#
# Velocity S-wave (km/s) = 3.76461 3.87987 3.82267
# Velocity P-wave (km/s) = 6.27634 6.64327 6.46241
#
# Compressibility (1/GPa) = 0.02516683
#
# Stress axis : x y z
#
# Youngs Moduli (GPa) = 51.51408 70.50515 81.92784
#
# Poissons Ratio (x) = 0.06835 0.30163
# Poissons Ratio (y) = 0.04994 0.46422
# Poissons Ratio (z) = 0.18966 0.39949
#
# Static dielectric constant tensor:
#      x y z
#    x 3.367450 0.000000 0.000000 
#    y 0.000000 3.428970 0.000000 
#    z 0.000000 0.000000 3.850470 
# 
# 
# High freq. dielectric constant tensor:
#      x y z
#    x 1.744280 0.000000 0.000000 
#    y 0.000000 1.743190 0.000000 
#    z 0.000000 0.000000 1.774600 
# 
# From -- ./inp_files/26890.got.cif
#   From: 2010.03.12/outbox.cif.g09.slc.cpg/sg20_14_cif.got.tgz:26890.got - 2010.04.14 01:38:04.
