data_PCOD8158645
_publ_section_title
;
Structure prediction by ZEFSAII (Michael W. Deem and Ramdas Pophale) SiO2 
 PCOD8158645
Probable space group: C 2 2 21
;
_chemical_formula_sum "Si O2"
_cell_formula_units_Z 48
_cell_length_a 18.698185
_cell_length_b 15.192203
_cell_length_c 7.839152
_cell_angle_alpha 90.000000
_cell_angle_beta 90.000000
_cell_angle_gamma 90.000000
_cell_volume 2226.841430
_symmetry_space_group_name_H-M "C 2 2 21"
_symmetry_group_IT_number 20
_symmetry_cell_setting 'orthorhombic'
loop_
_space_group_symop_operation_xyz
x,y,z
-x,-y,1/2+z
x,-y,-z
-x,y,1/2-z
1/2+x,1/2+y,z
1/2-x,1/2-y,1/2+z
1/2+x,1/2-y,-z
1/2-x,1/2+y,1/2-z
loop_
_atom_site_type_symbol
_atom_site_label
_atom_site_fract_x
_atom_site_fract_y
_atom_site_fract_z
Si Si1 0.500000 0.096189 0.750000
Si Si2 0.425867 0.772883 0.507532
Si Si3 0.599877 0.000000 0.500000
Si Si4 0.324493 0.124550 0.242554
Si Si5 0.500000 0.648047 0.750000
Si Si6 0.753211 0.500000 0.500000
Si Si7 0.147442 0.053813 0.755154
Si Si8 0.824847 0.865068 0.609600
O O1 0.463094 0.151467 0.600157
O O2 0.444197 0.031960 0.837683
O O3 0.378990 0.807913 0.668203
O O4 0.486254 0.708977 0.585325
O O5 0.377863 0.717612 0.375008
O O6 0.645344 0.917903 0.568990
O O7 0.306918 0.047781 0.374020
O O8 0.250414 0.170081 0.183916
O O9 0.568014 0.586450 0.709662
O O10 0.701822 0.569755 0.598356
O O11 0.144830 0.948554 0.786453
O O12 0.180954 0.106866 0.912232
#
# Coordination Sequence:
#
# PCOD8158645 Si02
#       8
#     4   8   4   8   4   4   8   8
#     4  12  26  42  62  88 118 154 200 240 300 358
#     4  11  24  39  60  90 124 154 190 249 303 352
#     4  12  24  43  66  83 114 158 202 246 286 360
#     4  11  22  39  63  87 117 155 199 249 299 348
#     4  10  22  40  60  86 124 162 200 236 292 352
#     4  10  20  35  60  91 114 152 208 248 292 346
#     4   9  19  37  60  86 120 162 202 241 281 353
#     4   9  21  39  59  87 120 157 200 242 294 348
#
# _framework density 21.555195000000001
#
# number of rings (size 3 to 8) (size 9 to 14) (size 15 to 20)
#    0.000    1.667    0.000    5.000    0.000   10.000 
#    0.000    0.000    0.000    0.000    0.000    0.000 
#    0.000    0.000    0.000    0.000    0.000    0.000 
#
# Total GULP energy -297595.915747 kJ/mol
# GULP energy per Si atom -12399.829823 kJ/mol
# Density = 2.150613 g / cm^3
# Si number density = 21.555195 Si / 1000 Ang^3
#
#
#
# Elastic Constant Matrix: (Units=GPa)
#
#
# Indices 1 2 3 4 5 6 
#
# 1 105.0761 31.8530 39.1902 0.0000 0.0000 0.0000
# 2 31.8530 61.2089 11.1506 0.0000 0.0000 0.0000
# 3 39.1902 11.1506 77.0194 0.0000 0.0000 0.0000
# 4 0.0000 0.0000 0.0000 33.9682 0.0000 0.0000
# 5 0.0000 0.0000 0.0000 0.0000 51.0509 0.0000
# 6 0.0000 0.0000 0.0000 0.0000 0.0000 20.1153
#
#
#
# Elastic Compliance Matrix: (Units=1/GPa)
#
#
# Indices 1 2 3 4 5 6 
#
# 1 0.013581 -0.005966 -0.006047 0.000000 0.000000 0.000000
# 2 -0.005966 0.019401 0.000227 0.000000 0.000000 0.000000
# 3 -0.006047 0.000227 0.016028 0.000000 0.000000 0.000000
# 4 0.000000 0.000000 0.000000 0.029439 0.000000 0.000000
# 5 0.000000 0.000000 0.000000 0.000000 0.019588 0.000000
# 6 0.000000 0.000000 0.000000 0.000000 0.000000 0.049713
#
#
# Mechanical properties :
#
#
# Convention : Reuss Voigt Hill
#
# Bulk Modulus (GPa) = 39.31144 45.29911 42.30528
# Shear Modulus (GPa) = 27.80862 31.76759 29.78810
#
# Velocity S-wave (km/s) = 3.59571 3.84315 3.72149
# Velocity P-wave (km/s) = 5.95953 6.38389 6.17536
#
# Compressibility (1/GPa) = 0.02543789
#
# Stress axis : x y z
#
# Youngs Moduli (GPa) = 73.63449 51.54438 62.39230
#
# Poissons Ratio (x) = 0.30750 0.37726
# Poissons Ratio (y) = 0.43929 -0.01415
# Poissons Ratio (z) = 0.44524 -0.01169
#
# Static dielectric constant tensor:
#      x y z
#    x 4.041600 0.000000 0.000000 
#    y 0.000000 3.827880 0.000000 
#    z 0.000000 0.000000 3.999870 
# 
# 
# High freq. dielectric constant tensor:
#      x y z
#    x 1.854820 0.000000 0.000000 
#    y 0.000000 1.837220 0.000000 
#    z 0.000000 0.000000 1.851900 
# 
# From -- ./inp_files/8505.got.cif
#   From: 2010.03.12/outbox.cif.g09.slc.cpg/sg20_5_cif.got.tgz:8505.got - 2010.04.14 01:38:04.
