data_PCOD8158525
_publ_section_title
;
Structure prediction by ZEFSAII (Michael W. Deem and Ramdas Pophale) SiO2 
 PCOD8158525
Probable space group: C 2 2 21
;
_chemical_formula_sum "Si O2"
_cell_formula_units_Z 40
_cell_length_a 23.761012
_cell_length_b 9.583487
_cell_length_c 7.979366
_cell_angle_alpha 90.000000
_cell_angle_beta 90.000000
_cell_angle_gamma 90.000000
_cell_volume 1817.008160
_symmetry_space_group_name_H-M "C 2 2 21"
_symmetry_group_IT_number 20
_symmetry_cell_setting 'orthorhombic'
loop_
_space_group_symop_operation_xyz
x,y,z
-x,-y,1/2+z
x,-y,-z
-x,y,1/2-z
1/2+x,1/2+y,z
1/2-x,1/2-y,1/2+z
1/2+x,1/2-y,-z
1/2-x,1/2+y,1/2-z
loop_
_atom_site_type_symbol
_atom_site_label
_atom_site_fract_x
_atom_site_fract_y
_atom_site_fract_z
Si Si1 0.774383 0.897749 0.746461
Si Si2 0.888226 0.862437 0.603141
Si Si3 0.424221 0.650389 0.013120
Si Si4 0.195911 0.185802 0.612569
Si Si5 0.480256 0.155201 0.559774
O O1 0.820307 0.849689 0.605801
O O2 0.714476 0.838552 0.680245
O O3 0.775951 0.065437 0.770341
O O4 0.784572 0.825876 0.923246
O O5 0.904654 0.854223 0.796363
O O6 0.920883 0.731553 0.520935
O O7 0.906714 0.000000 0.500000
O O8 0.469154 0.767791 0.961027
O O9 0.453880 0.500000 0.000000
O O10 0.371750 0.668468 0.884120
O O11 0.500000 0.159952 0.750000
O O12 0.472912 0.000000 0.500000
#
# Coordination Sequence:
#
# PCOD8158525 Si02
#       5
#     8   8   8   8   8
#     4  10  22  40  61  90 124 159 206 251 304 362
#     4  10  21  39  62  90 119 159 206 252 298 363
#     4  10  19  41  64  86 120 160 207 248 300 369
#     4  10  21  41  60  92 122 159 206 254 301 367
#     4  10  23  42  60  89 124 158 204 255 308 361
#
# _framework density 22.014211
#
# number of rings (size 3 to 8) (size 9 to 14) (size 15 to 20)
#    0.000    2.000    4.000    0.600    2.800    1.600 
#   14.400    0.000    0.000    0.000    0.000    0.000 
#    0.000    0.000    0.000    0.000    0.000    0.000 
#
# Total GULP energy -247764.844108 kJ/mol
# GULP energy per Si atom -12388.242205 kJ/mol
# Density = 2.196411 g / cm^3
# Si number density = 22.014211 Si / 1000 Ang^3
#
#
#
# Elastic Constant Matrix: (Units=GPa)
#
#
# Indices 1 2 3 4 5 6 
#
# 1 105.7914 84.9634 33.9210 0.0000 0.0000 0.0000
# 2 84.9634 172.7340 34.9261 0.0000 0.0000 0.0000
# 3 33.9210 34.9261 22.2911 0.0000 0.0000 0.0000
# 4 0.0000 0.0000 0.0000 37.6502 0.0000 0.0000
# 5 0.0000 0.0000 0.0000 0.0000 28.4680 0.0000
# 6 0.0000 0.0000 0.0000 0.0000 0.0000 30.8423
#
#
#
# Elastic Compliance Matrix: (Units=1/GPa)
#
#
# Indices 1 2 3 4 5 6 
#
# 1 0.021932 -0.005913 -0.024110 0.000000 0.000000 0.000000
# 2 -0.005913 0.010068 -0.006777 0.000000 0.000000 0.000000
# 3 -0.024110 -0.006777 0.092169 0.000000 0.000000 0.000000
# 4 0.000000 0.000000 0.000000 0.026560 0.000000 0.000000
# 5 0.000000 0.000000 0.000000 0.000000 0.035127 0.000000
# 6 0.000000 0.000000 0.000000 0.000000 0.000000 0.032423
#
#
# Mechanical properties :
#
#
# Convention : Reuss Voigt Hill
#
# Bulk Modulus (GPa) = 19.77515 67.60417 43.68966
# Shear Modulus (GPa) = 16.19511 29.19249 22.69380
#
# Velocity S-wave (km/s) = 2.71526 3.64548 3.21420
# Velocity P-wave (km/s) = 4.33965 6.96386 5.80207
#
# Compressibility (1/GPa) = 0.05056851
#
# Stress axis : x y z
#
# Youngs Moduli (GPa) = 45.59548 99.32611 10.84968
#
# Poissons Ratio (x) = 0.58729 0.26159
# Poissons Ratio (y) = 0.26960 0.07353
# Poissons Ratio (z) = 1.09932 0.67312
#
# Static dielectric constant tensor:
#      x y z
#    x 4.322440 0.000000 0.000000 
#    y 0.000000 3.797610 0.000000 
#    z 0.000000 0.000000 3.933980 
# 
# 
# High freq. dielectric constant tensor:
#      x y z
#    x 1.856510 0.000000 0.000000 
#    y 0.000000 1.855520 0.000000 
#    z 0.000000 0.000000 1.866700 
# 
# From -- ./inp_files/10482.got.cif
#   From: 2010.03.12/outbox.cif.g09.slc.cpg/sg20_6_cif.got.tgz:10482.got - 2010.04.14 01:38:04.
