data_PCOD8158465
_publ_section_title
;
Structure prediction by ZEFSAII (Michael W. Deem and Ramdas Pophale) SiO2 
 PCOD8158465
Probable space group: C 2 2 21
;
_chemical_formula_sum "Si O2"
_cell_formula_units_Z 48
_cell_length_a 16.364170
_cell_length_b 8.824949
_cell_length_c 17.490934
_cell_angle_alpha 90.000000
_cell_angle_beta 90.000000
_cell_angle_gamma 90.000000
_cell_volume 2525.917651
_symmetry_space_group_name_H-M "C 2 2 21"
_symmetry_group_IT_number 20
_symmetry_cell_setting 'orthorhombic'
loop_
_space_group_symop_operation_xyz
x,y,z
-x,-y,1/2+z
x,-y,-z
-x,y,1/2-z
1/2+x,1/2+y,z
1/2-x,1/2-y,1/2+z
1/2+x,1/2-y,-z
1/2-x,1/2+y,1/2-z
loop_
_atom_site_type_symbol
_atom_site_label
_atom_site_fract_x
_atom_site_fract_y
_atom_site_fract_z
Si Si1 0.000000 0.669875 0.250000
Si Si2 0.180597 0.974076 0.288849
Si Si3 0.326266 0.112329 0.203201
Si Si4 0.648205 0.623812 0.446904
Si Si5 0.591659 0.396758 0.148855
Si Si6 0.253082 0.914763 0.073913
Si Si7 0.504686 0.500000 0.000000
O O1 0.921421 0.572791 0.222909
O O2 0.971034 0.769314 0.323012
O O3 0.185723 0.793242 0.302357
O O4 0.115080 0.006426 0.220331
O O5 0.269656 0.041553 0.269655
O O6 0.144571 0.061557 0.360866
O O7 0.303313 0.036385 0.123343
O O8 0.696301 0.500000 0.500000
O O9 0.686477 0.786668 0.454621
O O10 0.555835 0.641340 0.480976
O O11 0.680347 0.333175 0.121364
O O12 0.557195 0.482713 0.076053
O O13 0.217025 0.000000 0.000000
#
# Coordination Sequence:
#
# PCOD8158465 Si02
#       7
#     4   8   8   8   8   8   4
#     4  10  20  36  60  86 120 156 190 254 304 336
#     4  10  19  38  58  91 113 159 196 240 294 357
#     4  10  21  36  64  86 118 155 195 244 291 359
#     4  10  22  36  61  84 117 152 200 243 295 350
#     4  10  20  35  61  84 120 153 199 239 294 364
#     4  11  22  39  60  87 119 162 202 243 295 364
#     4  10  20  36  56  92 110 158 196 244 294 350
#
# _framework density 19.002996
#
# number of rings (size 3 to 8) (size 9 to 14) (size 15 to 20)
#    0.500    1.333    0.833    6.000    2.333    0.000 
#    0.000    5.000    3.667    1.000    0.000    0.000 
#    0.000    0.000    0.000    0.000    0.000    0.000 
#
# Total GULP energy -297314.422720 kJ/mol
# GULP energy per Si atom -12388.100947 kJ/mol
# Density = 1.895974 g / cm^3
# Si number density = 19.002996 Si / 1000 Ang^3
#
#
#
# Elastic Constant Matrix: (Units=GPa)
#
#
# Indices 1 2 3 4 5 6 
#
# 1 111.7313 24.5221 37.5680 0.0000 0.0000 0.0000
# 2 24.5221 73.0781 28.3502 0.0000 0.0000 0.0000
# 3 37.5680 28.3502 128.7071 0.0000 0.0000 0.0000
# 4 0.0000 0.0000 0.0000 27.6409 0.0000 0.0000
# 5 0.0000 0.0000 0.0000 0.0000 27.4832 0.0000
# 6 0.0000 0.0000 0.0000 0.0000 0.0000 23.6524
#
#
#
# Elastic Compliance Matrix: (Units=1/GPa)
#
#
# Indices 1 2 3 4 5 6 
#
# 1 0.010329 -0.002511 -0.002462 0.000000 0.000000 0.000000
# 2 -0.002511 0.015573 -0.002697 0.000000 0.000000 0.000000
# 3 -0.002462 -0.002697 0.009082 0.000000 0.000000 0.000000
# 4 0.000000 0.000000 0.000000 0.036178 0.000000 0.000000
# 5 0.000000 0.000000 0.000000 0.000000 0.036386 0.000000
# 6 0.000000 0.000000 0.000000 0.000000 0.000000 0.042279
#
#
# Mechanical properties :
#
#
# Convention : Reuss Voigt Hill
#
# Bulk Modulus (GPa) = 50.90608 54.93303 52.91956
# Shear Modulus (GPa) = 29.11793 30.62703 29.87248
#
# Velocity S-wave (km/s) = 3.91868 4.01895 3.96913
# Velocity P-wave (km/s) = 6.87905 7.10677 6.99384
#
# Compressibility (1/GPa) = 0.01964402
#
# Stress axis : x y z
#
# Youngs Moduli (GPa) = 96.81608 64.21382 110.10446
#
# Poissons Ratio (x) = 0.16124 0.27105
# Poissons Ratio (y) = 0.24310 0.29699
# Poissons Ratio (z) = 0.23834 0.17321
#
# Static dielectric constant tensor:
#      x y z
#    x 3.651510 0.000000 0.000000 
#    y 0.000000 3.135650 0.000000 
#    z 0.000000 0.000000 3.768930 
# 
# 
# High freq. dielectric constant tensor:
#      x y z
#    x 1.745510 0.000000 0.000000 
#    y 0.000000 1.697980 0.000000 
#    z 0.000000 0.000000 1.762530 
# 
# From -- ./inp_files/25200.got.cif
#   From: 2010.03.12/outbox.cif.g09.slc.cpg/sg20_13_cif.got.tgz:25200.got - 2010.04.14 01:38:04.
