data_PCOD8158655
_publ_section_title
;
Structure prediction by ZEFSAII (Michael W. Deem and Ramdas Pophale) SiO2 
 PCOD8158655
Probable space group: C 2 2 21
;
_chemical_formula_sum "Si O2"
_cell_formula_units_Z 56
_cell_length_a 32.648080
_cell_length_b 17.311620
_cell_length_c 5.104518
_cell_angle_alpha 90.000000
_cell_angle_beta 90.000000
_cell_angle_gamma 90.000000
_cell_volume 2885.028423
_symmetry_space_group_name_H-M "C 2 2 21"
_symmetry_group_IT_number 20
_symmetry_cell_setting 'orthorhombic'
loop_
_space_group_symop_operation_xyz
x,y,z
-x,-y,1/2+z
x,-y,-z
-x,y,1/2-z
1/2+x,1/2+y,z
1/2-x,1/2-y,1/2+z
1/2+x,1/2-y,-z
1/2-x,1/2+y,1/2-z
loop_
_atom_site_type_symbol
_atom_site_label
_atom_site_fract_x
_atom_site_fract_y
_atom_site_fract_z
Si Si1 0.325327 0.450783 0.235565
Si Si2 0.133422 0.273338 0.294886
Si Si3 0.352325 0.951136 0.266507
Si Si4 0.263437 0.931718 0.193422
Si Si5 0.726886 0.230698 0.628246
Si Si6 0.611313 0.682978 0.786554
Si Si7 0.047853 0.049992 0.750895
O O1 0.328010 0.500000 0.500000
O O2 0.278983 0.428436 0.143333
O O3 0.348979 0.371008 0.271983
O O4 0.345605 0.500000 0.000000
O O5 0.128216 0.366008 0.266091
O O6 0.180502 0.244214 0.315482
O O7 0.110727 0.246515 0.557331
O O8 0.111587 0.230621 0.055185
O O9 0.304898 0.941275 0.361884
O O10 0.374189 0.000000 0.500000
O O11 0.355984 0.000000 0.000000
O O12 0.270729 0.856020 0.013296
O O13 0.256633 0.000000 0.000000
O O14 0.749401 0.279943 0.406371
O O15 0.570609 0.631728 0.761446
O O16 0.000000 0.069231 0.750000
O O17 0.060830 0.000000 0.500000
O O18 0.061268 0.000000 0.000000
#
# Coordination Sequence:
#
# PCOD8158655 Si02
#       7
#     8   8   8   8   8   8   8
#     4  11  21  32  47  69  99 138 179 219 267 313
#     4  11  23  35  54  80 106 141 181 232 287 331
#     4  10  20  36  53  71  99 135 179 227 273 321
#     4   9  20  33  49  68  91 129 180 226 263 310
#     4  11  22  36  51  69 100 140 182 227 281 332
#     4  12  22  37  54  80 115 141 178 229 279 330
#     4  10  21  39  63  89 118 156 193 222 266 331
#
# _framework density 19.410554000000001
#
# number of rings (size 3 to 8) (size 9 to 14) (size 15 to 20)
#    0.000    1.429    0.000    6.429    0.000    9.143 
#    0.000    0.000    0.000    0.000    0.000    0.000 
#    0.000   11.429    0.000    0.000    0.000    0.000 
#
# Total GULP energy -347031.073164 kJ/mol
# GULP energy per Si atom -12393.966899 kJ/mol
# Density = 1.936637 g / cm^3
# Si number density = 19.410554 Si / 1000 Ang^3
#
#
#
# Elastic Constant Matrix: (Units=GPa)
#
#
# Indices 1 2 3 4 5 6 
#
# 1 63.6905 37.1912 24.5077 0.0000 0.0000 0.0000
# 2 37.1912 119.6586 44.8185 0.0000 0.0000 0.0000
# 3 24.5077 44.8185 130.4920 0.0000 0.0000 0.0000
# 4 0.0000 0.0000 0.0000 38.3881 0.0000 0.0000
# 5 0.0000 0.0000 0.0000 0.0000 -6.7602 0.0000
# 6 0.0000 0.0000 0.0000 0.0000 0.0000 30.3864
#
#
#
# Elastic Compliance Matrix: (Units=1/GPa)
#
#
# Indices 1 2 3 4 5 6 
#
# 1 0.019551 -0.005396 -0.001819 0.000000 0.000000 0.000000
# 2 -0.005396 0.011080 -0.002792 0.000000 0.000000 0.000000
# 3 -0.001819 -0.002792 0.008964 0.000000 0.000000 0.000000
# 4 0.000000 0.000000 0.000000 0.026050 0.000000 0.000000
# 5 0.000000 0.000000 0.000000 0.000000 -0.147925 0.000000
# 6 0.000000 0.000000 0.000000 0.000000 0.000000 0.032909
#
#
# Mechanical properties :
#
#
# Convention : Reuss Voigt Hill
#
# Bulk Modulus (GPa) = 51.06673 58.54178 54.80425
# Shear Modulus (GPa) = -219.00996 26.22445 -96.39275
#
# Velocity S-wave (km/s) = -10.63369 3.67964 -7.05463
# Velocity P-wave (km/s) = 11.15353 6.94825 6.16940
#
# Compressibility (1/GPa) = 0.01958222
#
# Stress axis : x y z
#
# Youngs Moduli (GPa) = 51.14702 90.25334 111.55889
#
# Poissons Ratio (x) = 0.48697 0.20290
# Poissons Ratio (y) = 0.27597 0.31149
# Poissons Ratio (z) = 0.09303 0.25200
#
# Static dielectric constant tensor:
#      x y z
#    x 3.269360 0.000000 0.000000 
#    y 0.000000 3.791560 0.000000 
#    z 0.000000 0.000000 3.432500 
# 
# 
# High freq. dielectric constant tensor:
#      x y z
#    x 1.704570 0.000000 0.000000 
#    y 0.000000 1.773710 0.000000 
#    z 0.000000 0.000000 1.763210 
# 
# From -- ./inp_files/4682.got.cif
#   From: 2010.03.12/outbox.cif.g09.slc.cpg/sg20_3_cif.got.tgz:4682.got - 2010.04.14 01:38:04.
