data_PCOD8158584
_publ_section_title
;
Structure prediction by ZEFSAII (Michael W. Deem and Ramdas Pophale) SiO2 
 PCOD8158584
Probable space group: C 2 2 21
;
_chemical_formula_sum "Si O2"
_cell_formula_units_Z 48
_cell_length_a 8.101304
_cell_length_b 28.770143
_cell_length_c 9.839724
_cell_angle_alpha 90.000000
_cell_angle_beta 90.000000
_cell_angle_gamma 90.000000
_cell_volume 2293.400309
_symmetry_space_group_name_H-M "C 2 2 21"
_symmetry_group_IT_number 20
_symmetry_cell_setting 'orthorhombic'
loop_
_space_group_symop_operation_xyz
x,y,z
-x,-y,1/2+z
x,-y,-z
-x,y,1/2-z
1/2+x,1/2+y,z
1/2-x,1/2-y,1/2+z
1/2+x,1/2-y,-z
1/2-x,1/2+y,1/2-z
loop_
_atom_site_type_symbol
_atom_site_label
_atom_site_fract_x
_atom_site_fract_y
_atom_site_fract_z
Si Si1 0.469977 0.767405 0.098491
Si Si2 0.417442 0.136210 0.603952
Si Si3 0.049839 0.897761 0.390996
Si Si4 0.865147 0.386886 0.866614
Si Si5 0.094084 0.960691 0.888503
Si Si6 0.651366 0.684195 0.990901
O O1 0.500000 0.752576 0.250000
O O2 0.589248 0.810138 0.051880
O O3 0.282958 0.784308 0.086383
O O4 0.503137 0.719332 0.022366
O O5 0.500000 0.135486 0.750000
O O6 0.239644 0.114462 0.608496
O O7 0.535083 0.106028 0.506487
O O8 0.000000 0.924300 0.250000
O O9 0.026328 0.926730 0.528303
O O10 0.927762 0.853536 0.390635
O O11 0.760143 0.433863 0.841428
O O12 0.000000 0.377830 0.750000
O O13 0.740156 0.342429 0.881247
O O14 0.000000 0.977752 0.750000
O O15 0.140133 0.000000 0.000000
#
# Coordination Sequence:
#
# PCOD8158584 Si02
#       6
#     8   8   8   8   8   8
#     4  10  20  34  50  79 118 157 206 254 299 350
#     4  10  20  37  59  85 120 160 203 252 303 356
#     4  11  21  39  64  87 117 159 203 248 304 365
#     4  10  22  41  61  89 123 160 203 251 305 366
#     4  11  24  43  67  95 124 155 195 245 306 377
#     4  10  22  34  55  85 118 163 209 256 304 354
#
# _framework density 20.929622999999999
#
# number of rings (size 3 to 8) (size 9 to 14) (size 15 to 20)
#    0.000    1.667    0.000    6.500    0.000    6.667 
#    0.000    7.500    0.000    0.000    0.000    0.000 
#    0.000    0.000    0.000    0.000    0.000    0.000 
#
# Total GULP energy -297376.392687 kJ/mol
# GULP energy per Si atom -12390.683029 kJ/mol
# Density = 2.088199 g / cm^3
# Si number density = 20.929623 Si / 1000 Ang^3
#
#
#
# Elastic Constant Matrix: (Units=GPa)
#
#
# Indices 1 2 3 4 5 6 
#
# 1 106.7955 37.1331 21.6820 0.0000 0.0000 0.0000
# 2 37.1331 73.7919 27.3612 0.0000 0.0000 0.0000
# 3 21.6820 27.3612 100.5944 0.0000 0.0000 0.0000
# 4 0.0000 0.0000 0.0000 22.6114 0.0000 0.0000
# 5 0.0000 0.0000 0.0000 0.0000 35.7526 0.0000
# 6 0.0000 0.0000 0.0000 0.0000 0.0000 28.7435
#
#
#
# Elastic Compliance Matrix: (Units=1/GPa)
#
#
# Indices 1 2 3 4 5 6 
#
# 1 0.011439 -0.005385 -0.001001 0.000000 0.000000 0.000000
# 2 -0.005385 0.017607 -0.003628 0.000000 0.000000 0.000000
# 3 -0.001001 -0.003628 0.011143 0.000000 0.000000 0.000000
# 4 0.000000 0.000000 0.000000 0.044225 0.000000 0.000000
# 5 0.000000 0.000000 0.000000 0.000000 0.027970 0.000000
# 6 0.000000 0.000000 0.000000 0.000000 0.000000 0.034790
#
#
# Mechanical properties :
#
#
# Convention : Reuss Voigt Hill
#
# Bulk Modulus (GPa) = 49.60091 50.39271 49.99681
# Shear Modulus (GPa) = 28.74804 30.42187 29.58495
#
# Velocity S-wave (km/s) = 3.71017 3.81666 3.76379
# Velocity P-wave (km/s) = 6.48878 6.59939 6.54432
#
# Compressibility (1/GPa) = 0.02016092
#
# Stress axis : x y z
#
# Youngs Moduli (GPa) = 87.41722 56.79583 89.73846
#
# Poissons Ratio (x) = 0.30587 0.08981
# Poissons Ratio (y) = 0.47077 0.32559
# Poissons Ratio (z) = 0.08749 0.20607
#
# Static dielectric constant tensor:
#      x y z
#    x 5.256770 0.000000 0.000000 
#    y 0.000000 3.834650 0.000000 
#    z 0.000000 0.000000 3.888640 
# 
# 
# High freq. dielectric constant tensor:
#      x y z
#    x 1.826500 0.000000 0.000000 
#    y 0.000000 1.806750 0.000000 
#    z 0.000000 0.000000 1.820600 
# 
# From -- ./inp_files/6457.got.cif
#   From: 2010.03.12/outbox.cif.g09.slc.cpg/sg20_4_cif.got.tgz:6457.got - 2010.04.14 01:38:04.
