data_PCOD8158388
_publ_section_title
;
Structure prediction by ZEFSAII (Michael W. Deem and Ramdas Pophale) SiO2 
 PCOD8158388
Probable space group: C 2 2 21
;
_chemical_formula_sum "Si O2"
_cell_formula_units_Z 40
_cell_length_a 22.189866
_cell_length_b 7.153724
_cell_length_c 10.981633
_cell_angle_alpha 90.000000
_cell_angle_beta 90.000000
_cell_angle_gamma 90.000000
_cell_volume 1743.226366
_symmetry_space_group_name_H-M "C 2 2 21"
_symmetry_group_IT_number 20
_symmetry_cell_setting 'orthorhombic'
loop_
_space_group_symop_operation_xyz
x,y,z
-x,-y,1/2+z
x,-y,-z
-x,y,1/2-z
1/2+x,1/2+y,z
1/2-x,1/2-y,1/2+z
1/2+x,1/2-y,-z
1/2-x,1/2+y,1/2-z
loop_
_atom_site_type_symbol
_atom_site_label
_atom_site_fract_x
_atom_site_fract_y
_atom_site_fract_z
Si Si1 0.505791 0.181296 0.618422
Si Si2 0.332616 0.242407 0.297332
Si Si3 0.140663 0.422330 0.379349
Si Si4 0.461498 0.767896 0.632492
Si Si5 0.213983 0.930834 0.631687
O O1 0.500000 0.289053 0.750000
O O2 0.574011 0.137543 0.586315
O O3 0.484762 0.302789 0.501042
O O4 0.465281 0.994068 0.632198
O O5 0.392344 0.309812 0.368342
O O6 0.283931 0.130350 0.378213
O O7 0.297138 0.410322 0.231822
O O8 0.363135 0.096519 0.207931
O O9 0.174318 0.500000 0.500000
O O10 0.176029 0.247257 0.324060
O O11 0.500000 0.691130 0.750000
O O12 0.191924 0.000000 0.500000
#
# Coordination Sequence:
#
# PCOD8158388 Si02
#       5
#     8   8   8   8   8
#     4  10  19  35  69 103 128 186 226 282 373 415
#     4  12  24  44  65 102 142 181 242 297 356 433
#     4  12  21  42  70  96 138 176 239 289 353 440
#     4  10  19  36  67  97 132 181 228 287 359 418
#     4  12  28  41  70 102 135 195 237 294 364 428
#
# _framework density 22.945957
#
# number of rings (size 3 to 8) (size 9 to 14) (size 15 to 20)
#    0.000    0.800   10.000    0.000    2.800    0.000 
#    0.000    1.000    0.000    0.000    0.000    0.000 
#    0.000    0.000    0.000    0.000    0.000    0.000 
#
# Total GULP energy -247825.165672 kJ/mol
# GULP energy per Si atom -12391.258284 kJ/mol
# Density = 2.289373 g / cm^3
# Si number density = 22.945957 Si / 1000 Ang^3
#
#
#
# Elastic Constant Matrix: (Units=GPa)
#
#
# Indices 1 2 3 4 5 6 
#
# 1 142.4818 32.7956 26.9586 0.0000 0.0000 0.0000
# 2 32.7956 69.1487 14.8308 0.0000 0.0000 0.0000
# 3 26.9586 14.8308 158.6497 0.0000 0.0000 0.0000
# 4 0.0000 0.0000 0.0000 4.7870 0.0000 0.0000
# 5 0.0000 0.0000 0.0000 0.0000 -6.0552 0.0000
# 6 0.0000 0.0000 0.0000 0.0000 0.0000 -4.0459
#
#
#
# Elastic Compliance Matrix: (Units=1/GPa)
#
#
# Indices 1 2 3 4 5 6 
#
# 1 0.008040 -0.003592 -0.001030 0.000000 0.000000 0.000000
# 2 -0.003592 0.016362 -0.000919 0.000000 0.000000 0.000000
# 3 -0.001030 -0.000919 0.006564 0.000000 0.000000 0.000000
# 4 0.000000 0.000000 0.000000 0.208900 0.000000 0.000000
# 5 0.000000 0.000000 0.000000 0.000000 -0.165148 0.000000
# 6 0.000000 0.000000 0.000000 0.000000 0.000000 -0.247162
#
#
# Mechanical properties :
#
#
# Convention : Reuss Voigt Hill
#
# Bulk Modulus (GPa) = 50.29384 57.71669 54.00526
# Shear Modulus (GPa) = -32.31379 18.65020 -6.83179
#
# Velocity S-wave (km/s) = -3.75675 2.85404 -1.72737
# Velocity P-wave (km/s) = 1.77439 6.00572 4.42815
#
# Compressibility (1/GPa) = 0.01988315
#
# Stress axis : x y z
#
# Youngs Moduli (GPa) = 124.37416 61.11553 152.34110
#
# Poissons Ratio (x) = 0.21954 0.15698
# Poissons Ratio (y) = 0.44679 0.14003
# Poissons Ratio (z) = 0.12816 0.05617
#
# Static dielectric constant tensor:
#      x y z
#    x 4.045020 0.000000 0.000000 
#    y 0.000000 3.791700 0.000000 
#    z 0.000000 0.000000 5.313410 
# 
# 
# High freq. dielectric constant tensor:
#      x y z
#    x 1.909660 0.000000 0.000000 
#    y 0.000000 1.876670 0.000000 
#    z 0.000000 0.000000 1.910360 
# 
# From -- ./inp_files/16175.got.cif
#   From: 2010.03.12/outbox.cif.g09.slc.cpg/sg20_9_cif.got.tgz:16175.got - 2010.04.14 01:38:04.
