data_PCOD8158316
_publ_section_title
;
Structure prediction by ZEFSAII (Michael W. Deem and Ramdas Pophale) SiO2 
 PCOD8158316
Probable space group: C 2 2 21
;
_chemical_formula_sum "Si O2"
_cell_formula_units_Z 64
_cell_length_a 24.219049
_cell_length_b 9.000835
_cell_length_c 15.394528
_cell_angle_alpha 90.000000
_cell_angle_beta 90.000000
_cell_angle_gamma 90.000000
_cell_volume 3355.878774
_symmetry_space_group_name_H-M "C 2 2 21"
_symmetry_group_IT_number 20
_symmetry_cell_setting 'orthorhombic'
loop_
_space_group_symop_operation_xyz
x,y,z
-x,-y,1/2+z
x,-y,-z
-x,y,1/2-z
1/2+x,1/2+y,z
1/2-x,1/2-y,1/2+z
1/2+x,1/2-y,-z
1/2-x,1/2+y,1/2-z
loop_
_atom_site_type_symbol
_atom_site_label
_atom_site_fract_x
_atom_site_fract_y
_atom_site_fract_z
Si Si1 0.872554 0.167111 0.899063
Si Si2 0.303639 0.676595 0.500014
Si Si3 0.928895 0.822579 0.499999
Si Si4 0.127443 0.832848 0.600922
Si Si5 0.993113 0.823563 0.152812
Si Si6 0.267972 0.824671 0.837832
Si Si7 0.506884 0.323545 0.652811
Si Si8 0.732018 0.824724 0.337820
O O1 0.933869 0.227873 0.882395
O O2 0.830984 0.279392 0.853499
O O3 0.865640 0.999974 0.860816
O O4 0.859796 0.165866 0.999993
O O5 0.304115 0.500000 0.500000
O O6 0.366258 0.738910 0.500007
O O7 0.271577 0.734975 0.414910
O O8 0.271591 0.734947 0.585138
O O9 0.959913 0.762784 0.413203
O O10 0.959907 0.762778 0.586799
O O11 0.929462 0.000000 0.500000
O O12 0.066125 0.772101 0.617591
O O13 0.169009 0.720531 0.646462
O O14 0.000000 0.758105 0.250000
O O15 0.997058 0.000009 0.154650
O O16 0.249971 0.749966 0.750021
O O17 0.263866 0.999973 0.829098
O O18 0.500000 0.258089 0.750000
#
# Coordination Sequence:
#
# PCOD8158316 Si02
#       8
#     8   8   8   8   8   8   8   8
#     4  10  19  34  56  83 112 144 184 231 279 332
#     4   9  20  35  53  79 113 145 182 229 280 330
#     4   9  16  29  46  73 109 139 172 223 272 318
#     4  10  19  34  56  83 112 144 184 231 279 332
#     4   9  17  28  48  79 110 139 176 224 277 323
#     4  11  23  39  57  83 112 148 191 232 280 334
#     4   9  17  28  48  79 110 139 176 224 277 323
#     4  11  23  39  57  83 112 148 191 232 280 334
#
# _framework density 19.071010999999999
#
# number of rings (size 3 to 8) (size 9 to 14) (size 15 to 20)
#    0.000    2.250    2.500    0.750    3.500    0.000 
#    0.000    0.000    0.000    0.750    0.000    0.000 
#    0.000    0.000    0.000    0.000    0.000    0.000 
#
# Total GULP energy -396763.109274 kJ/mol
# GULP energy per Si atom -12398.847165 kJ/mol
# Density = 1.902760 g / cm^3
# Si number density = 19.071011 Si / 1000 Ang^3
#
#
#
# Elastic Constant Matrix: (Units=GPa)
#
#
# Indices 1 2 3 4 5 6 
#
# 1 137.1307 29.5346 55.0771 0.0000 0.0000 0.0000
# 2 29.5346 37.9047 29.7713 0.0000 0.0000 0.0000
# 3 55.0771 29.7713 140.1706 0.0000 0.0000 0.0000
# 4 0.0000 0.0000 0.0000 19.8634 0.0000 0.0000
# 5 0.0000 0.0000 0.0000 0.0000 35.4802 0.0000
# 6 0.0000 0.0000 0.0000 0.0000 0.0000 22.1096
#
#
#
# Elastic Compliance Matrix: (Units=1/GPa)
#
#
# Indices 1 2 3 4 5 6 
#
# 1 0.009486 -0.005358 -0.002589 0.000000 0.000000 0.000000
# 2 -0.005358 0.034690 -0.005263 0.000000 0.000000 0.000000
# 3 -0.002589 -0.005263 0.009269 0.000000 0.000000 0.000000
# 4 0.000000 0.000000 0.000000 0.050344 0.000000 0.000000
# 5 0.000000 0.000000 0.000000 0.000000 0.028185 0.000000
# 6 0.000000 0.000000 0.000000 0.000000 0.000000 0.045229
#
#
# Mechanical properties :
#
#
# Convention : Reuss Voigt Hill
#
# Bulk Modulus (GPa) = 37.00153 60.44136 48.72144
# Shear Modulus (GPa) = 23.51479 28.87883 26.19681
#
# Velocity S-wave (km/s) = 3.51524 3.89560 3.71029
# Velocity P-wave (km/s) = 5.99333 7.21081 6.63007
#
# Compressibility (1/GPa) = 0.02702591
#
# Stress axis : x y z
#
# Youngs Moduli (GPa) = 105.41545 28.82669 107.88148
#
# Poissons Ratio (x) = 0.15444 0.27936
# Poissons Ratio (y) = 0.56478 0.56775
# Poissons Ratio (z) = 0.27297 0.15171
#
# Static dielectric constant tensor:
#      x y z
#    x 4.041300 0.000000 0.000000 
#    y 0.000000 2.993530 0.000000 
#    z 0.000000 0.000000 3.673740 
# 
# 
# High freq. dielectric constant tensor:
#      x y z
#    x 1.755980 0.000000 0.000000 
#    y 0.000000 1.680290 0.000000 
#    z 0.000000 0.000000 1.754670 
# 
# From -- ./inp_files/22045.got.cif
#   From: 2010.03.12/outbox.cif.g09.slc.cpg/sg20_12_cif.got.tgz:22045.got - 2010.04.14 01:38:04.
