data_PCOD8158143
_publ_section_title
;
Structure prediction by ZEFSAII (Michael W. Deem and Ramdas Pophale) SiO2 
 PCOD8158143
Probable space group: C 2 2 21
;
_chemical_formula_sum "Si O2"
_cell_formula_units_Z 64
_cell_length_a 12.264031
_cell_length_b 17.855921
_cell_length_c 15.775241
_cell_angle_alpha 90.000000
_cell_angle_beta 90.000000
_cell_angle_gamma 90.000000
_cell_volume 3454.550121
_symmetry_space_group_name_H-M "C 2 2 21"
_symmetry_group_IT_number 20
_symmetry_cell_setting 'orthorhombic'
loop_
_space_group_symop_operation_xyz
x,y,z
-x,-y,1/2+z
x,-y,-z
-x,y,1/2-z
1/2+x,1/2+y,z
1/2-x,1/2-y,1/2+z
1/2+x,1/2-y,-z
1/2-x,1/2+y,1/2-z
loop_
_atom_site_type_symbol
_atom_site_label
_atom_site_fract_x
_atom_site_fract_y
_atom_site_fract_z
Si Si1 0.259670 0.419452 0.861276
Si Si2 0.861222 0.327636 0.031272
Si Si3 0.400531 0.345832 0.000141
Si Si4 0.365548 0.687500 0.465984
Si Si5 0.593850 0.856341 0.983085
Si Si6 0.238732 0.592966 0.871134
Si Si7 0.882727 0.168630 0.267688
Si Si8 0.617675 0.835091 0.278594
O O1 0.143772 0.387173 0.895015
O O2 0.259224 0.507536 0.848202
O O3 0.286972 0.383622 0.769613
O O4 0.353783 0.401013 0.928923
O O5 0.873252 0.238335 0.027490
O O6 0.861449 0.361151 0.125737
O O7 0.746300 0.353340 0.992102
O O8 0.962868 0.363424 0.979615
O O9 0.346740 0.367030 0.090406
O O10 0.531187 0.357104 0.004685
O O11 0.366390 0.771664 0.501493
O O12 0.367335 0.687859 0.365229
O O13 0.640028 0.904544 0.061497
O O14 0.210690 0.635022 0.784032
O O15 0.880706 0.245770 0.216489
O O16 0.000000 0.129699 0.250000
O O17 0.500000 0.865911 0.250000
#
# Coordination Sequence:
#
# PCOD8158143 Si02
#       8
#     8   8   8   8   8   8   8   8
#     4  11  21  36  60  85 115 155 197 235 286 350
#     4  11  19  33  61  90 116 143 192 249 292 324
#     4  10  18  35  57  90 113 150 194 237 282 346
#     4  11  19  33  61  90 116 143 192 249 292 324
#     4  10  18  35  57  90 113 150 194 237 282 346
#     4  11  21  36  60  85 115 155 197 235 286 350
#     4  11  18  35  60  87 112 147 199 244 275 335
#     4  11  18  35  60  87 112 147 199 244 275 335
#
# _framework density 18.526292000000002
#
# number of rings (size 3 to 8) (size 9 to 14) (size 15 to 20)
#    0.000    1.250    7.500    3.000    0.000    0.000 
#    0.000    3.750    0.000    4.500    0.000    0.000 
#    0.000    0.000    0.000    0.000    0.000    0.000 
#
# Total GULP energy -396755.624261 kJ/mol
# GULP energy per Si atom -12398.613258 kJ/mol
# Density = 1.848412 g / cm^3
# Si number density = 18.526292 Si / 1000 Ang^3
#
#
#
# Elastic Constant Matrix: (Units=GPa)
#
#
# Indices 1 2 3 4 5 6 
#
# 1 152.2571 20.8423 41.5860 0.0000 0.0000 0.0000
# 2 20.8423 56.6520 15.9921 0.0000 0.0000 0.0000
# 3 41.5860 15.9921 74.3904 0.0000 0.0000 0.0000
# 4 0.0000 0.0000 0.0000 14.5298 0.0000 0.0000
# 5 0.0000 0.0000 0.0000 0.0000 31.8106 0.0000
# 6 0.0000 0.0000 0.0000 0.0000 0.0000 14.3215
#
#
#
# Elastic Compliance Matrix: (Units=1/GPa)
#
#
# Indices 1 2 3 4 5 6 
#
# 1 0.007915 -0.001770 -0.004044 0.000000 0.000000 0.000000
# 2 -0.001770 0.019188 -0.003135 0.000000 0.000000 0.000000
# 3 -0.004044 -0.003135 0.016377 0.000000 0.000000 0.000000
# 4 0.000000 0.000000 0.000000 0.068824 0.000000 0.000000
# 5 0.000000 0.000000 0.000000 0.000000 0.031436 0.000000
# 6 0.000000 0.000000 0.000000 0.000000 0.000000 0.069825
#
#
# Mechanical properties :
#
#
# Convention : Reuss Voigt Hill
#
# Bulk Modulus (GPa) = 39.09170 48.90448 43.99809
# Shear Modulus (GPa) = 20.83412 25.79099 23.31255
#
# Velocity S-wave (km/s) = 3.35710 3.73517 3.55117
# Velocity P-wave (km/s) = 6.01442 6.71243 6.37299
#
# Compressibility (1/GPa) = 0.02558088
#
# Stress axis : x y z
#
# Youngs Moduli (GPa) = 126.34734 52.11599 61.06020
#
# Poissons Ratio (x) = 0.09226 0.24692
# Poissons Ratio (y) = 0.22367 0.19144
# Poissons Ratio (z) = 0.51094 0.16340
#
# Static dielectric constant tensor:
#      x y z
#    x 3.749000 0.000000 0.000000 
#    y 0.000000 3.133780 0.000000 
#    z 0.000000 0.000000 3.306650 
# 
# 
# High freq. dielectric constant tensor:
#      x y z
#    x 1.721260 0.000000 0.000000 
#    y 0.000000 1.688090 0.000000 
#    z 0.000000 0.000000 1.709270 
# 
# From -- ./inp_files/20286.got.cif
#   From: 2010.03.12/outbox.cif.g09.slc.cpg/sg20_11_cif.got.tgz:20286.got - 2010.04.14 01:38:04.
