data_PCOD8158886
_publ_section_title
;
Structure prediction by ZEFSAII (Michael W. Deem and Ramdas Pophale) SiO2 
 PCOD8158886
Probable space group: C 2 2 21
;
_chemical_formula_sum "Si O2"
_cell_formula_units_Z 64
_cell_length_a 10.526046
_cell_length_b 12.543191
_cell_length_c 22.888622
_cell_angle_alpha 90.000000
_cell_angle_beta 90.000000
_cell_angle_gamma 90.000000
_cell_volume 3021.989465
_symmetry_space_group_name_H-M "C 2 2 21"
_symmetry_group_IT_number 20
_symmetry_cell_setting 'orthorhombic'
loop_
_space_group_symop_operation_xyz
x,y,z
-x,-y,1/2+z
x,-y,-z
-x,y,1/2-z
1/2+x,1/2+y,z
1/2-x,1/2-y,1/2+z
1/2+x,1/2-y,-z
1/2-x,1/2+y,1/2-z
loop_
_atom_site_type_symbol
_atom_site_label
_atom_site_fract_x
_atom_site_fract_y
_atom_site_fract_z
Si Si1 0.386169 0.913227 0.121935
Si Si2 0.923481 0.999517 0.190774
Si Si3 0.768169 0.207409 0.176488
Si Si4 0.496733 0.874839 0.628145
Si Si5 0.922258 0.324027 0.000297
Si Si6 0.129435 0.980781 0.094409
Si Si7 0.871672 0.228287 0.786171
Si Si8 0.356638 0.671832 0.493527
O O1 0.368903 0.793948 0.149414
O O2 0.252048 0.969627 0.135713
O O3 0.493139 0.997579 0.146898
O O4 0.405366 0.910959 0.051612
O O5 0.829162 0.093427 0.178329
O O6 0.000000 0.019096 0.250000
O O7 0.842646 0.890298 0.190736
O O8 0.011022 0.996567 0.134758
O O9 0.636748 0.185551 0.140840
O O10 0.742508 0.240025 0.243372
O O11 0.523723 0.873195 0.559202
O O12 0.610341 0.812038 0.661268
O O13 0.782093 0.269816 0.992139
O O14 0.027406 0.244857 0.026407
O O15 0.152520 0.077718 0.052006
O O16 0.110930 0.871368 0.058149
O O17 0.000000 0.223668 0.750000
#
# Coordination Sequence:
#
# PCOD8158886 Si02
#       8
#     8   8   8   8   8   8   8   8
#     4  11  22  41  67  92 137 174 222 275 340 416
#     4  11  23  42  66  94 128 169 226 277 335 407
#     4  11  25  43  65  99 137 172 221 294 342 402
#     4  11  22  42  68  94 130 182 223 270 347 425
#     4  11  21  39  63  98 128 177 218 280 343 406
#     4  10  20  39  63  88 121 176 215 260 329 403
#     4   9  21  41  66  89 122 173 217 268 342 401
#     4  10  21  37  64  89 130 167 223 266 332 410
#
# _framework density 21.178101999999999
#
# number of rings (size 3 to 8) (size 9 to 14) (size 15 to 20)
#    0.000    1.500    1.250    5.625    3.500    0.000 
#    6.750    0.000    0.000    0.000    0.000    0.000 
#    0.000    0.000    0.000    0.000    0.000    0.000 
#
# Total GULP energy -396460.673500 kJ/mol
# GULP energy per Si atom -12389.396047 kJ/mol
# Density = 2.112990 g / cm^3
# Si number density = 21.178102 Si / 1000 Ang^3
#
#
#
# Elastic Constant Matrix: (Units=GPa)
#
#
# Indices 1 2 3 4 5 6 
#
# 1 96.9174 47.5923 39.0154 0.0000 0.0000 0.0000
# 2 47.5923 131.7983 44.6874 0.0000 0.0000 0.0000
# 3 39.0154 44.6874 115.5270 0.0000 0.0000 0.0000
# 4 0.0000 0.0000 0.0000 11.6045 0.0000 0.0000
# 5 0.0000 0.0000 0.0000 0.0000 29.7024 0.0000
# 6 0.0000 0.0000 0.0000 0.0000 0.0000 46.3909
#
#
#
# Elastic Compliance Matrix: (Units=1/GPa)
#
#
# Indices 1 2 3 4 5 6 
#
# 1 0.013420 -0.003809 -0.003059 0.000000 0.000000 0.000000
# 2 -0.003809 0.009814 -0.002510 0.000000 0.000000 0.000000
# 3 -0.003059 -0.002510 0.010660 0.000000 0.000000 0.000000
# 4 0.000000 0.000000 0.000000 0.086174 0.000000 0.000000
# 5 0.000000 0.000000 0.000000 0.000000 0.033667 0.000000
# 6 0.000000 0.000000 0.000000 0.000000 0.000000 0.021556
#
#
# Mechanical properties :
#
#
# Convention : Reuss Voigt Hill
#
# Bulk Modulus (GPa) = 66.05650 67.42590 66.74120
# Shear Modulus (GPa) = 25.11416 31.73607 28.42511
#
# Velocity S-wave (km/s) = 3.44736 3.87529 3.66757
# Velocity P-wave (km/s) = 6.86326 7.20628 7.03686
#
# Compressibility (1/GPa) = 0.01513856
#
# Stress axis : x y z
#
# Youngs Moduli (GPa) = 74.51703 101.89882 93.81035
#
# Poissons Ratio (x) = 0.38811 0.28695
# Poissons Ratio (y) = 0.28382 0.23544
# Poissons Ratio (z) = 0.22793 0.25574
#
# Static dielectric constant tensor:
#      x y z
#    x 3.809140 0.000000 0.000000 
#    y 0.000000 4.087650 0.000000 
#    z 0.000000 0.000000 3.855570 
# 
# 
# High freq. dielectric constant tensor:
#      x y z
#    x 1.814320 0.000000 0.000000 
#    y 0.000000 1.834090 0.000000 
#    z 0.000000 0.000000 1.832860 
# 
# From -- ./inp_files/29157.got.cif
#   From: 2010.03.12/outbox.cif.g09.slc.cpg/sg20_15_cif.got.tgz:29157.got - 2010.04.14 01:38:04.
