data_PCOD8158911
_publ_section_title
;
Structure prediction by ZEFSAII (Michael W. Deem and Ramdas Pophale) SiO2 
 PCOD8158911
Probable space group: C 2 2 21
;
_chemical_formula_sum "Si O2"
_cell_formula_units_Z 56
_cell_length_a 17.145370
_cell_length_b 7.426098
_cell_length_c 20.258312
_cell_angle_alpha 90.000000
_cell_angle_beta 90.000000
_cell_angle_gamma 90.000000
_cell_volume 2579.353067
_symmetry_space_group_name_H-M "C 2 2 21"
_symmetry_group_IT_number 20
_symmetry_cell_setting 'orthorhombic'
loop_
_space_group_symop_operation_xyz
x,y,z
-x,-y,1/2+z
x,-y,-z
-x,y,1/2-z
1/2+x,1/2+y,z
1/2-x,1/2-y,1/2+z
1/2+x,1/2-y,-z
1/2-x,1/2+y,1/2-z
loop_
_atom_site_type_symbol
_atom_site_label
_atom_site_fract_x
_atom_site_fract_y
_atom_site_fract_z
Si Si1 0.393814 0.803479 0.071754
Si Si2 0.667411 0.531339 0.208168
Si Si3 0.329937 0.055197 0.411575
Si Si4 0.078642 0.317704 0.280306
Si Si5 0.675819 0.882513 0.769191
Si Si6 0.765879 0.948988 0.427496
Si Si7 0.027564 0.500000 0.000000
Si Si8 0.202506 0.000000 0.500000
O O1 0.421671 0.742402 0.144779
O O2 0.329285 0.965751 0.075318
O O3 0.472093 0.850688 0.032008
O O4 0.354299 0.644652 0.030831
O O5 0.595252 0.655286 0.228587
O O6 0.647231 0.323934 0.225993
O O7 0.732761 0.616314 0.255671
O O8 0.691397 0.560439 0.131120
O O9 0.342133 0.004133 0.335858
O O10 0.284407 0.242740 0.413376
O O11 0.415103 0.077289 0.443881
O O12 0.266844 0.918176 0.446616
O O13 0.134512 0.493590 0.285336
O O14 0.000000 0.398628 0.250000
O O15 0.798240 0.000000 0.500000
#
# Coordination Sequence:
#
# PCOD8158911 Si02
#       8
#     8   8   8   8   8   8   4   4
#     4  11  22  43  61  96 128 165 218 262 329 393
#     4  11  22  42  70  99 127 173 228 272 323 399
#     4   9  21  40  65  94 124 171 219 258 328 388
#     4  12  26  44  65  98 136 170 218 276 336 393
#     4  11  21  43  70  96 131 172 224 272 321 394
#     4  10  20  39  66  95 126 166 226 262 312 398
#     4  11  22  42  62  91 134 168 204 273 332 380
#     4   9  20  40  64  87 124 162 210 265 294 390
#
# _framework density 21.71087
#
# number of rings (size 3 to 8) (size 9 to 14) (size 15 to 20)
#    0.000    1.429    3.571    2.571    0.000    5.143 
#   16.714    0.000    0.000    0.000    0.000    0.000 
#    0.000    0.000    0.000    0.000    0.000    0.000 
#
# Total GULP energy -346895.855624 kJ/mol
# GULP energy per Si atom -12389.137701 kJ/mol
# Density = 2.166145 g / cm^3
# Si number density = 21.710870 Si / 1000 Ang^3
#
#
#
# Elastic Constant Matrix: (Units=GPa)
#
#
# Indices 1 2 3 4 5 6 
#
# 1 104.5298 13.7607 40.5781 0.0000 0.0000 0.0000
# 2 13.7607 51.1424 32.0887 0.0000 0.0000 0.0000
# 3 40.5781 32.0887 144.3259 0.0000 0.0000 0.0000
# 4 0.0000 0.0000 0.0000 30.9453 0.0000 0.0000
# 5 0.0000 0.0000 0.0000 0.0000 29.2091 0.0000
# 6 0.0000 0.0000 0.0000 0.0000 0.0000 19.4835
#
#
#
# Elastic Compliance Matrix: (Units=1/GPa)
#
#
# Indices 1 2 3 4 5 6 
#
# 1 0.010798 -0.001163 -0.002777 0.000000 0.000000 0.000000
# 2 -0.001163 0.022848 -0.004753 0.000000 0.000000 0.000000
# 3 -0.002777 -0.004753 0.008766 0.000000 0.000000 0.000000
# 4 0.000000 0.000000 0.000000 0.032315 0.000000 0.000000
# 5 0.000000 0.000000 0.000000 0.000000 0.034236 0.000000
# 6 0.000000 0.000000 0.000000 0.000000 0.000000 0.051326
#
#
# Mechanical properties :
#
#
# Convention : Reuss Voigt Hill
#
# Bulk Modulus (GPa) = 39.95799 52.53925 46.24862
# Shear Modulus (GPa) = 26.87917 30.16562 28.52239
#
# Velocity S-wave (km/s) = 3.52241 3.73154 3.62848
# Velocity P-wave (km/s) = 5.91504 6.54354 6.23721
#
# Compressibility (1/GPa) = 0.02502628
#
# Stress axis : x y z
#
# Youngs Moduli (GPa) = 92.61074 43.76684 114.07171
#
# Poissons Ratio (x) = 0.05089 0.31682
# Poissons Ratio (y) = 0.10768 0.54219
# Poissons Ratio (z) = 0.25721 0.20803
#
# Static dielectric constant tensor:
#      x y z
#    x 3.970120 0.000000 0.000000 
#    y 0.000000 3.559830 0.000000 
#    z 0.000000 0.000000 4.466300 
# 
# 
# High freq. dielectric constant tensor:
#      x y z
#    x 1.847620 0.000000 0.000000 
#    y 0.000000 1.827750 0.000000 
#    z 0.000000 0.000000 1.874330 
# 
# From -- ./inp_files/27600.got.cif
#   From: 2010.03.12/outbox.cif.g09.slc.cpg/sg20_14_cif.got.tgz:27600.got - 2010.04.14 01:38:04.
