data_PCOD8158820
_publ_section_title
;
Structure prediction by ZEFSAII (Michael W. Deem and Ramdas Pophale) SiO2 
 PCOD8158820
Probable space group: C 2 2 21
;
_chemical_formula_sum "Si O2"
_cell_formula_units_Z 48
_cell_length_a 5.245082
_cell_length_b 21.636623
_cell_length_c 18.199128
_cell_angle_alpha 90.000000
_cell_angle_beta 90.000000
_cell_angle_gamma 90.000000
_cell_volume 2065.343726
_symmetry_space_group_name_H-M "C 2 2 21"
_symmetry_group_IT_number 20
_symmetry_cell_setting 'orthorhombic'
loop_
_space_group_symop_operation_xyz
x,y,z
-x,-y,1/2+z
x,-y,-z
-x,y,1/2-z
1/2+x,1/2+y,z
1/2-x,1/2-y,1/2+z
1/2+x,1/2-y,-z
1/2-x,1/2+y,1/2-z
loop_
_atom_site_type_symbol
_atom_site_label
_atom_site_fract_x
_atom_site_fract_y
_atom_site_fract_z
Si Si1 0.023239 0.000000 0.000000
Si Si2 0.500000 0.555864 0.750000
Si Si3 0.000000 0.711796 0.250000
Si Si4 0.206734 0.620746 0.633653
Si Si5 0.879326 0.365011 0.609514
Si Si6 0.336868 0.991623 0.368682
Si Si7 0.500000 0.210044 0.750000
Si Si8 0.642249 0.368455 0.976080
O O1 0.861184 0.027093 0.932204
O O2 0.187972 0.942627 0.971256
O O3 0.436545 0.603213 0.685858
O O4 0.275752 0.514023 0.785163
O O5 0.119089 0.669527 0.186358
O O6 0.246223 0.751995 0.271390
O O7 0.029675 0.669139 0.676361
O O8 0.327871 0.652341 0.561024
O O9 0.068525 0.555225 0.617578
O O10 0.916790 0.437593 0.622819
O O11 0.625878 0.349838 0.561567
O O12 0.122951 0.337895 0.566582
#
# Coordination Sequence:
#
# PCOD8158820 Si02
#       8
#     4   4   4   8   8   8   4   8
#     4  10  20  38  62 102 152 182 214 270 368 442
#     4  12  23  37  64 106 151 181 238 282 358 426
#     4  12  29  53  72 103 140 193 260 306 354 434
#     4  12  24  43  71 107 146 179 244 298 367 434
#     4  11  27  45  74 103 148 192 237 290 364 431
#     4  11  23  39  66 107 145 187 224 290 359 445
#     4  12  28  48  78  99 141 194 248 322 370 394
#     4  11  23  43  70 106 143 191 228 293 359 445
#
# _framework density 23.240684000000002
#
# number of rings (size 3 to 8) (size 9 to 14) (size 15 to 20)
#    0.000    0.667    3.333    4.500    4.667    1.333 
#    0.000    3.333    0.000    0.000    0.000    0.000 
#    0.000    0.000    0.000    0.000    0.000    0.000 
#
# Total GULP energy -297480.826407 kJ/mol
# GULP energy per Si atom -12395.034434 kJ/mol
# Density = 2.318779 g / cm^3
# Si number density = 23.240684 Si / 1000 Ang^3
#
#
#
# Elastic Constant Matrix: (Units=GPa)
#
#
# Indices 1 2 3 4 5 6 
#
# 1 145.5846 39.6376 61.6785 0.0000 0.0000 0.0000
# 2 39.6376 71.1685 46.6442 0.0000 0.0000 0.0000
# 3 61.6785 46.6442 173.0952 0.0000 0.0000 0.0000
# 4 0.0000 0.0000 0.0000 14.4017 0.0000 0.0000
# 5 0.0000 0.0000 0.0000 0.0000 52.2268 0.0000
# 6 0.0000 0.0000 0.0000 0.0000 0.0000 16.2441
#
#
#
# Elastic Compliance Matrix: (Units=1/GPa)
#
#
# Indices 1 2 3 4 5 6 
#
# 1 0.008729 -0.003428 -0.002186 0.000000 0.000000 0.000000
# 2 -0.003428 0.018412 -0.003740 0.000000 0.000000 0.000000
# 3 -0.002186 -0.003740 0.007564 0.000000 0.000000 0.000000
# 4 0.000000 0.000000 0.000000 0.069436 0.000000 0.000000
# 5 0.000000 0.000000 0.000000 0.000000 0.019147 0.000000
# 6 0.000000 0.000000 0.000000 0.000000 0.000000 0.061561
#
#
# Mechanical properties :
#
#
# Convention : Reuss Voigt Hill
#
# Bulk Modulus (GPa) = 62.51917 76.19655 69.35786
# Shear Modulus (GPa) = 23.93610 32.70038 28.31824
#
# Velocity S-wave (km/s) = 3.21272 3.75511 3.49446
# Velocity P-wave (km/s) = 6.38132 7.18736 6.79630
#
# Compressibility (1/GPa) = 0.01599509
#
# Stress axis : x y z
#
# Youngs Moduli (GPa) = 114.56612 54.31321 132.20528
#
# Poissons Ratio (x) = 0.18621 0.28905
# Poissons Ratio (y) = 0.39279 0.49442
# Poissons Ratio (z) = 0.25048 0.20312
#
# Static dielectric constant tensor:
#      x y z
#    x 4.167610 0.000000 0.000000 
#    y 0.000000 3.974380 0.000000 
#    z 0.000000 0.000000 4.682870 
# 
# 
# High freq. dielectric constant tensor:
#      x y z
#    x 1.928240 0.000000 0.000000 
#    y 0.000000 1.891600 0.000000 
#    z 0.000000 0.000000 1.937880 
# 
# From -- ./inp_files/22848.got.cif
#   From: 2010.03.12/outbox.cif.g09.slc.cpg/sg20_12_cif.got.tgz:22848.got - 2010.04.14 01:38:04.
