data_PCOD8158229
_publ_section_title
;
Structure prediction by ZEFSAII (Michael W. Deem and Ramdas Pophale) SiO2 
 PCOD8158229
Probable space group: C 2 2 21
;
_chemical_formula_sum "Si O2"
_cell_formula_units_Z 48
_cell_length_a 25.644780
_cell_length_b 9.060233
_cell_length_c 10.173755
_cell_angle_alpha 90.000000
_cell_angle_beta 90.000000
_cell_angle_gamma 90.000000
_cell_volume 2363.848392
_symmetry_space_group_name_H-M "C 2 2 21"
_symmetry_group_IT_number 20
_symmetry_cell_setting 'orthorhombic'
loop_
_space_group_symop_operation_xyz
x,y,z
-x,-y,1/2+z
x,-y,-z
-x,y,1/2-z
1/2+x,1/2+y,z
1/2-x,1/2-y,1/2+z
1/2+x,1/2-y,-z
1/2-x,1/2+y,1/2-z
loop_
_atom_site_type_symbol
_atom_site_label
_atom_site_fract_x
_atom_site_fract_y
_atom_site_fract_z
Si Si1 0.758005 0.993364 0.147813
Si Si2 0.869741 0.911665 0.864968
Si Si3 0.887202 0.900624 0.383758
Si Si4 0.090992 0.331932 0.524386
Si Si5 0.502050 0.377098 0.397642
Si Si6 0.816361 0.292402 0.773145
O O1 0.772933 0.826544 0.184421
O O2 0.808224 0.100118 0.165150
O O3 0.712120 0.054023 0.241178
O O4 0.736831 0.000000 0.000000
O O5 0.895904 0.750657 0.885909
O O6 0.897398 0.001243 0.747775
O O7 0.878022 0.000000 0.000000
O O8 0.942333 0.833882 0.434409
O O9 0.846878 0.768970 0.354920
O O10 0.862707 0.000000 0.500000
O O11 0.076493 0.500000 0.500000
O O12 0.142617 0.318763 0.611882
O O13 0.040299 0.263245 0.595389
O O14 0.522951 0.500000 0.500000
O O15 0.500000 0.440316 0.250000
#
# Coordination Sequence:
#
# PCOD8158229 Si02
#       6
#     8   8   8   8   8   8
#     4  10  22  38  62  89 124 165 213 260 314 374
#     4  10  18  43  67  87 123 170 218 255 300 384
#     4  10  21  39  67  96 125 162 213 267 318 372
#     4  12  24  40  65  95 127 171 214 264 313 382
#     4  11  21  40  72  94 124 168 219 261 311 381
#     4  11  23  41  62  94 128 168 209 268 312 379
#
# _framework density 20.305869999999999
#
# number of rings (size 3 to 8) (size 9 to 14) (size 15 to 20)
#    0.000    1.333    6.667    1.500    2.333    2.667 
#    0.000    5.000    0.000    0.000    0.000    0.000 
#    0.000    0.000    0.000    0.000    0.000    0.000 
#
# Total GULP energy -297530.119261 kJ/mol
# GULP energy per Si atom -12397.088303 kJ/mol
# Density = 2.025965 g / cm^3
# Si number density = 20.305870 Si / 1000 Ang^3
#
#
#
# Elastic Constant Matrix: (Units=GPa)
#
#
# Indices 1 2 3 4 5 6 
#
# 1 100.9859 49.0946 36.0754 0.0000 0.0000 0.0000
# 2 49.0946 109.9382 42.4620 0.0000 0.0000 0.0000
# 3 36.0754 42.4620 88.5717 0.0000 0.0000 0.0000
# 4 0.0000 0.0000 0.0000 24.3948 0.0000 0.0000
# 5 0.0000 0.0000 0.0000 0.0000 15.7012 0.0000
# 6 0.0000 0.0000 0.0000 0.0000 0.0000 100.0598
#
#
#
# Elastic Compliance Matrix: (Units=1/GPa)
#
#
# Indices 1 2 3 4 5 6 
#
# 1 0.013333 -0.004733 -0.003161 0.000000 0.000000 0.000000
# 2 -0.004733 0.012843 -0.004229 0.000000 0.000000 0.000000
# 3 -0.003161 -0.004229 0.014606 0.000000 0.000000 0.000000
# 4 0.000000 0.000000 0.000000 0.040992 0.000000 0.000000
# 5 0.000000 0.000000 0.000000 0.000000 0.063689 0.000000
# 6 0.000000 0.000000 0.000000 0.000000 0.000000 0.009994
#
#
# Mechanical properties :
#
#
# Convention : Reuss Voigt Hill
#
# Bulk Modulus (GPa) = 60.48170 61.64000 61.06085
# Shear Modulus (GPa) = 26.99555 39.48873 33.24214
#
# Velocity S-wave (km/s) = 3.65011 4.41465 4.05046
# Velocity P-wave (km/s) = 6.90032 7.51047 7.21185
#
# Compressibility (1/GPa) = 0.01653393
#
# Stress axis : x y z
#
# Youngs Moduli (GPa) = 75.00404 77.86296 68.46708
#
# Poissons Ratio (x) = 0.36851 0.21645
# Poissons Ratio (y) = 0.35498 0.28957
# Poissons Ratio (z) = 0.23712 0.32931
#
# Static dielectric constant tensor:
#      x y z
#    x 3.832590 0.000000 0.000000 
#    y 0.000000 3.581650 0.000000 
#    z 0.000000 0.000000 2.976850 
# 
# 
# High freq. dielectric constant tensor:
#      x y z
#    x 1.808280 0.000000 0.000000 
#    y 0.000000 1.760370 0.000000 
#    z 0.000000 0.000000 1.787210 
# 
# From -- ./inp_files/11444.got.cif
#   From: 2010.03.12/outbox.cif.g09.slc.cpg/sg20_6_cif.got.tgz:11444.got - 2010.04.14 01:38:04.
