data_PCOD8158871
_publ_section_title
;
Structure prediction by ZEFSAII (Michael W. Deem and Ramdas Pophale) SiO2 
 PCOD8158871
Probable space group: C 2 2 21
;
_chemical_formula_sum "Si O2"
_cell_formula_units_Z 52
_cell_length_a 27.427552
_cell_length_b 8.142311
_cell_length_c 10.749850
_cell_angle_alpha 90.000000
_cell_angle_beta 90.000000
_cell_angle_gamma 90.000000
_cell_volume 2400.695829
_symmetry_space_group_name_H-M "C 2 2 21"
_symmetry_group_IT_number 20
_symmetry_cell_setting 'orthorhombic'
loop_
_space_group_symop_operation_xyz
x,y,z
-x,-y,1/2+z
x,-y,-z
-x,y,1/2-z
1/2+x,1/2+y,z
1/2-x,1/2-y,1/2+z
1/2+x,1/2-y,-z
1/2-x,1/2+y,1/2-z
loop_
_atom_site_type_symbol
_atom_site_label
_atom_site_fract_x
_atom_site_fract_y
_atom_site_fract_z
Si Si1 0.619582 0.210601 0.824310
Si Si2 0.985063 0.374746 0.386562
Si Si3 0.821437 0.500000 0.500000
Si Si4 0.168723 0.161076 0.574062
Si Si5 0.197398 0.040723 0.208874
Si Si6 0.753437 0.268934 0.089799
Si Si7 0.413563 0.181253 0.947700
O O1 0.564180 0.231520 0.873449
O O2 0.644214 0.049404 0.883995
O O3 0.651060 0.373181 0.858030
O O4 0.619805 0.187094 0.675433
O O5 0.976527 0.500000 0.500000
O O6 0.000000 0.455535 0.250000
O O7 0.031046 0.257200 0.422297
O O8 0.789730 0.342825 0.535858
O O9 0.176945 0.118850 0.717193
O O10 0.205929 0.296298 0.518671
O O11 0.112201 0.206463 0.551623
O O12 0.184313 0.000000 0.500000
O O13 0.234637 0.954551 0.114257
O O14 0.224585 0.182913 0.286891
O O15 0.417336 0.000000 0.000000
#
# Coordination Sequence:
#
# PCOD8158871 Si02
#       7
#     8   8   4   8   8   8   8
#     4  11  22  41  64  92 130 167 214 272 329 396
#     4   9  19  39  67  97 130 170 221 276 339 403
#     4  12  24  40  62  88 128 172 206 272 322 384
#     4  10  20  39  59  90 126 161 216 267 314 379
#     4  11  23  40  64  88 128 172 218 264 329 382
#     4  11  23  40  59  89 129 169 214 265 317 387
#     4  10  21  37  67  97 121 168 216 266 325 385
#
# _framework density 21.660385000000002
#
# number of rings (size 3 to 8) (size 9 to 14) (size 15 to 20)
#    0.000    1.538    6.154    0.923    2.154    0.615 
#    0.000    0.000    3.385    0.000    0.000    0.000 
#    0.000    0.000    0.000    0.000    0.000    0.000 
#
# Total GULP energy -322175.099080 kJ/mol
# GULP energy per Si atom -12391.349965 kJ/mol
# Density = 2.161109 g / cm^3
# Si number density = 21.660385 Si / 1000 Ang^3
#
#
#
# Elastic Constant Matrix: (Units=GPa)
#
#
# Indices 1 2 3 4 5 6 
#
# 1 153.5792 49.0297 41.9089 0.0000 0.0000 0.0000
# 2 49.0297 54.3688 24.7405 0.0000 0.0000 0.0000
# 3 41.9089 24.7405 71.2897 0.0000 0.0000 0.0000
# 4 0.0000 0.0000 0.0000 25.8444 0.0000 0.0000
# 5 0.0000 0.0000 0.0000 0.0000 15.0009 0.0000
# 6 0.0000 0.0000 0.0000 0.0000 0.0000 21.4359
#
#
#
# Elastic Compliance Matrix: (Units=1/GPa)
#
#
# Indices 1 2 3 4 5 6 
#
# 1 0.009712 -0.007315 -0.003171 0.000000 0.000000 0.000000
# 2 -0.007315 0.027353 -0.005192 0.000000 0.000000 0.000000
# 3 -0.003171 -0.005192 0.017693 0.000000 0.000000 0.000000
# 4 0.000000 0.000000 0.000000 0.038693 0.000000 0.000000
# 5 0.000000 0.000000 0.000000 0.000000 0.066663 0.000000
# 6 0.000000 0.000000 0.000000 0.000000 0.000000 0.046651
#
#
# Mechanical properties :
#
#
# Convention : Reuss Voigt Hill
#
# Bulk Modulus (GPa) = 42.73227 56.73287 49.73257
# Shear Modulus (GPa) = 20.33180 23.36016 21.84598
#
# Velocity S-wave (km/s) = 3.06708 3.28758 3.17924
# Velocity P-wave (km/s) = 5.68452 6.37650 6.04043
#
# Compressibility (1/GPa) = 0.02340152
#
# Stress axis : x y z
#
# Youngs Moduli (GPa) = 102.96636 36.55965 56.51959
#
# Poissons Ratio (x) = 0.26745 0.17920
# Poissons Ratio (y) = 0.75324 0.29345
# Poissons Ratio (z) = 0.32646 0.18982
#
# Static dielectric constant tensor:
#      x y z
#    x 4.397210 0.000000 0.000000 
#    y 0.000000 3.600740 0.000000 
#    z 0.000000 0.000000 4.187140 
# 
# 
# High freq. dielectric constant tensor:
#      x y z
#    x 1.867110 0.000000 0.000000 
#    y 0.000000 1.812650 0.000000 
#    z 0.000000 0.000000 1.856070 
# 
# From -- ./inp_files/17003.got.cif
#   From: 2010.03.12/outbox.cif.g09.slc.cpg/sg20_9_cif.got.tgz:17003.got - 2010.04.14 01:38:04.
