data_PCOD8158821
_publ_section_title
;
Structure prediction by ZEFSAII (Michael W. Deem and Ramdas Pophale) SiO2 
 PCOD8158821
Probable space group: C 2 2 21
;
_chemical_formula_sum "Si O2"
_cell_formula_units_Z 52
_cell_length_a 11.642025
_cell_length_b 15.817698
_cell_length_c 14.960137
_cell_angle_alpha 90.000000
_cell_angle_beta 90.000000
_cell_angle_gamma 90.000000
_cell_volume 2754.909761
_symmetry_space_group_name_H-M "C 2 2 21"
_symmetry_group_IT_number 20
_symmetry_cell_setting 'orthorhombic'
loop_
_space_group_symop_operation_xyz
x,y,z
-x,-y,1/2+z
x,-y,-z
-x,y,1/2-z
1/2+x,1/2+y,z
1/2-x,1/2-y,1/2+z
1/2+x,1/2-y,-z
1/2-x,1/2+y,1/2-z
loop_
_atom_site_type_symbol
_atom_site_label
_atom_site_fract_x
_atom_site_fract_y
_atom_site_fract_z
Si Si1 0.292522 0.132174 0.596093
Si Si2 0.870654 0.972469 0.341601
Si Si3 0.444284 0.859998 0.077757
Si Si4 0.294997 0.000000 0.000000
Si Si5 0.266846 0.819763 0.209497
Si Si6 0.376670 0.513615 0.144736
Si Si7 0.670403 0.306256 0.572642
O O1 0.425665 0.109468 0.583718
O O2 0.274074 0.190218 0.683892
O O3 0.253663 0.187200 0.512049
O O4 0.223800 0.044090 0.603283
O O5 0.843183 0.875035 0.318628
O O6 0.785803 0.012930 0.413963
O O7 0.858305 0.027072 0.250681
O O8 0.001068 0.970883 0.376638
O O9 0.375788 0.917789 0.006886
O O10 0.381887 0.869182 0.174790
O O11 0.431437 0.760773 0.048656
O O12 0.257621 0.729548 0.158448
O O13 0.381079 0.603555 0.096695
#
# Coordination Sequence:
#
# PCOD8158821 Si02
#       7
#     8   8   8   4   8   8   8
#     4  11  21  38  65  86 129 160 197 259 304 360
#     4   9  20  39  61  85 122 159 206 245 298 368
#     4   9  22  38  59  89 120 158 204 245 304 360
#     4  10  20  38  62  86 118 164 208 244 306 366
#     4   8  20  42  58  88 119 162 204 244 301 359
#     4  10  22  37  61  94 119 162 198 253 307 355
#     4  10  23  36  56  98 114 157 205 245 302 356
#
# _framework density 18.875392000000002
#
# number of rings (size 3 to 8) (size 9 to 14) (size 15 to 20)
#    0.923    1.538    0.000    0.923    4.308    6.154 
#    0.000    0.000    0.000    1.846    0.000    0.000 
#    0.000    0.000    0.000    0.000    0.000    0.000 
#
# Total GULP energy -322224.621732 kJ/mol
# GULP energy per Si atom -12393.254682 kJ/mol
# Density = 1.883243 g / cm^3
# Si number density = 18.875392 Si / 1000 Ang^3
#
#
#
# Elastic Constant Matrix: (Units=GPa)
#
#
# Indices 1 2 3 4 5 6 
#
# 1 148.3382 64.3300 56.9818 0.0000 0.0000 0.0000
# 2 64.3300 90.9444 37.0860 0.0000 0.0000 0.0000
# 3 56.9818 37.0860 106.9751 0.0000 0.0000 0.0000
# 4 0.0000 0.0000 0.0000 32.0665 0.0000 0.0000
# 5 0.0000 0.0000 0.0000 0.0000 25.1839 0.0000
# 6 0.0000 0.0000 0.0000 0.0000 0.0000 23.6228
#
#
#
# Elastic Compliance Matrix: (Units=1/GPa)
#
#
# Indices 1 2 3 4 5 6 
#
# 1 0.010806 -0.006169 -0.003618 0.000000 0.000000 0.000000
# 2 -0.006169 0.016327 -0.002375 0.000000 0.000000 0.000000
# 3 -0.003618 -0.002375 0.012098 0.000000 0.000000 0.000000
# 4 0.000000 0.000000 0.000000 0.031185 0.000000 0.000000
# 5 0.000000 0.000000 0.000000 0.000000 0.039708 0.000000
# 6 0.000000 0.000000 0.000000 0.000000 0.000000 0.042332
#
#
# Mechanical properties :
#
#
# Convention : Reuss Voigt Hill
#
# Bulk Modulus (GPa) = 67.06784 73.67261 70.37022
# Shear Modulus (GPa) = 27.51060 28.69864 28.10462
#
# Velocity S-wave (km/s) = 3.82184 3.90349 3.86289
# Velocity P-wave (km/s) = 7.42188 7.70922 7.56692
#
# Compressibility (1/GPa) = 0.01491028
#
# Stress axis : x y z
#
# Youngs Moduli (GPa) = 92.54049 61.24669 82.65756
#
# Poissons Ratio (x) = 0.37780 0.29901
# Poissons Ratio (y) = 0.57084 0.19628
# Poissons Ratio (z) = 0.33477 0.14544
#
# Static dielectric constant tensor:
#      x y z
#    x 3.344370 0.000000 0.000000 
#    y 0.000000 3.220820 0.000000 
#    z 0.000000 0.000000 3.580110 
# 
# 
# High freq. dielectric constant tensor:
#      x y z
#    x 1.727900 0.000000 0.000000 
#    y 0.000000 1.714110 0.000000 
#    z 0.000000 0.000000 1.739660 
# 
# From -- ./inp_files/20199.got.cif
#   From: 2010.03.12/outbox.cif.g09.slc.cpg/sg20_11_cif.got.tgz:20199.got - 2010.04.14 01:38:04.
