data_PCOD8158052
_publ_section_title
;
Structure prediction by ZEFSAII (Michael W. Deem and Ramdas Pophale) SiO2 
 PCOD8158052
Probable space group: C 2 2 21
;
_chemical_formula_sum "Si O2"
_cell_formula_units_Z 64
_cell_length_a 14.092382
_cell_length_b 15.153212
_cell_length_c 16.151127
_cell_angle_alpha 90.000000
_cell_angle_beta 90.000000
_cell_angle_gamma 90.000000
_cell_volume 3448.990025
_symmetry_space_group_name_H-M "C 2 2 21"
_symmetry_group_IT_number 20
_symmetry_cell_setting 'orthorhombic'
loop_
_space_group_symop_operation_xyz
x,y,z
-x,-y,1/2+z
x,-y,-z
-x,y,1/2-z
1/2+x,1/2+y,z
1/2-x,1/2-y,1/2+z
1/2+x,1/2-y,-z
1/2-x,1/2+y,1/2-z
loop_
_atom_site_type_symbol
_atom_site_label
_atom_site_fract_x
_atom_site_fract_y
_atom_site_fract_z
Si Si1 0.392526 0.452031 0.249187
Si Si2 0.062580 0.157246 0.066793
Si Si3 0.272862 0.689565 0.164084
Si Si4 0.162295 0.159228 0.899970
Si Si5 0.843312 0.459866 0.084843
Si Si6 0.546073 0.193873 0.661922
Si Si7 0.731042 0.600059 0.174354
Si Si8 0.884740 0.034573 0.088833
O O1 0.500000 0.476268 0.250000
O O2 0.368820 0.368073 0.306168
O O3 0.344215 0.539141 0.281317
O O4 0.370841 0.449544 0.150176
O O5 0.169498 0.147315 0.102539
O O6 0.020397 0.250179 0.099344
O O7 0.991355 0.077208 0.090530
O O8 0.076310 0.156380 0.966439
O O9 0.194836 0.739736 0.108782
O O10 0.359069 0.754495 0.182566
O O11 0.230307 0.666025 0.254793
O O12 0.306037 0.606956 0.110555
O O13 0.246705 0.095256 0.930272
O O14 0.927472 0.400298 0.121657
O O15 0.820596 0.544203 0.142479
O O16 0.881864 0.500000 0.000000
O O17 0.500000 0.174255 0.750000
O O18 0.857914 0.000000 0.000000
#
# Coordination Sequence:
#
# PCOD8158052 Si02
#       8
#     8   8   8   8   8   8   8   8
#     4  10  18  30  52  80 112 134 173 229 282 334
#     4  11  19  32  58  82 108 144 185 231 287 338
#     4   9  20  37  52  80 113 142 187 231 280 341
#     4  10  21  35  53  84 113 145 186 233 285 344
#     4  10  20  35  55  83 111 142 192 236 274 337
#     4  10  20  36  56  81 112 148 192 232 280 346
#     4  10  18  32  57  79 106 144 178 230 281 325
#     4  10  20  32  53  82 111 142 179 233 290 334
#
# _framework density 18.556156000000001
#
# number of rings (size 3 to 8) (size 9 to 14) (size 15 to 20)
#    0.000    2.000    3.750    0.750    1.750    0.000 
#    2.250    3.750    0.000    0.000    0.000    0.000 
#    0.000    0.000    0.000    0.000    0.000    0.000 
#
# Total GULP energy -396497.206713 kJ/mol
# GULP energy per Si atom -12390.537710 kJ/mol
# Density = 1.851392 g / cm^3
# Si number density = 18.556156 Si / 1000 Ang^3
#
#
#
# Elastic Constant Matrix: (Units=GPa)
#
#
# Indices 1 2 3 4 5 6 
#
# 1 40.6389 25.4908 44.5075 0.0000 0.0000 0.0000
# 2 25.4908 76.0621 78.5001 0.0000 0.0000 0.0000
# 3 44.5075 78.5001 146.5720 0.0000 0.0000 0.0000
# 4 0.0000 0.0000 0.0000 33.8295 0.0000 0.0000
# 5 0.0000 0.0000 0.0000 0.0000 30.6401 0.0000
# 6 0.0000 0.0000 0.0000 0.0000 0.0000 31.3404
#
#
#
# Elastic Compliance Matrix: (Units=1/GPa)
#
#
# Indices 1 2 3 4 5 6 
#
# 1 0.036977 -0.001797 -0.010266 0.000000 0.000000 0.000000
# 2 -0.001797 0.029482 -0.015244 0.000000 0.000000 0.000000
# 3 -0.010266 -0.015244 0.018104 0.000000 0.000000 0.000000
# 4 0.000000 0.000000 0.000000 0.029560 0.000000 0.000000
# 5 0.000000 0.000000 0.000000 0.000000 0.032637 0.000000
# 6 0.000000 0.000000 0.000000 0.000000 0.000000 0.031908
#
#
# Mechanical properties :
#
#
# Convention : Reuss Voigt Hill
#
# Bulk Modulus (GPa) = 33.38989 62.25221 47.82105
# Shear Modulus (GPa) = 20.55361 26.81366 23.68364
#
# Velocity S-wave (km/s) = 3.33174 3.80544 3.57644
# Velocity P-wave (km/s) = 5.73007 7.27526 6.54840
#
# Compressibility (1/GPa) = 0.02994919
#
# Stress axis : x y z
#
# Youngs Moduli (GPa) = 27.04357 33.91863 55.23578
#
# Poissons Ratio (x) = 0.06097 0.56704
# Poissons Ratio (y) = 0.04861 0.84202
# Poissons Ratio (z) = 0.27762 0.51706
#
# Static dielectric constant tensor:
#      x y z
#    x 3.074110 0.000000 0.000000 
#    y 0.000000 3.409020 0.000000 
#    z 0.000000 0.000000 3.626160 
# 
# 
# High freq. dielectric constant tensor:
#      x y z
#    x 1.684750 0.000000 0.000000 
#    y 0.000000 1.703890 0.000000 
#    z 0.000000 0.000000 1.735150 
# 
# From -- ./inp_files/20971.got.cif
#   From: 2010.03.12/outbox.cif.g09.slc.cpg/sg20_11_cif.got.tgz:20971.got - 2010.04.14 01:38:04.
