data_PCOD8158053
_publ_section_title
;
Structure prediction by ZEFSAII (Michael W. Deem and Ramdas Pophale) SiO2 
 PCOD8158053
Probable space group: C 2 2 21
;
_chemical_formula_sum "Si O2"
_cell_formula_units_Z 48
_cell_length_a 31.173153
_cell_length_b 8.912931
_cell_length_c 8.653326
_cell_angle_alpha 90.000000
_cell_angle_beta 90.000000
_cell_angle_gamma 90.000000
_cell_volume 2404.276109
_symmetry_space_group_name_H-M "C 2 2 21"
_symmetry_group_IT_number 20
_symmetry_cell_setting 'orthorhombic'
loop_
_space_group_symop_operation_xyz
x,y,z
-x,-y,1/2+z
x,-y,-z
-x,y,1/2-z
1/2+x,1/2+y,z
1/2-x,1/2-y,1/2+z
1/2+x,1/2-y,-z
1/2-x,1/2+y,1/2-z
loop_
_atom_site_type_symbol
_atom_site_label
_atom_site_fract_x
_atom_site_fract_y
_atom_site_fract_z
Si Si1 0.400462 0.902208 0.271969
Si Si2 0.082571 0.726067 0.090109
Si Si3 0.694384 0.817963 0.186592
Si Si4 0.546510 0.000000 0.500000
Si Si5 0.000000 0.304667 0.750000
Si Si6 0.225731 0.993470 0.677111
Si Si7 0.329536 0.646814 0.595696
O O1 0.421985 0.796264 0.404212
O O2 0.351604 0.853665 0.238170
O O3 0.403045 0.072457 0.329063
O O4 0.424849 0.889306 0.107735
O O5 0.039058 0.789432 0.172339
O O6 0.119609 0.845482 0.127188
O O7 0.716026 0.671984 0.261422
O O8 0.724848 0.961511 0.210778
O O9 0.687069 0.790771 0.002167
O O10 0.515797 0.094702 0.391034
O O11 0.214383 0.000000 0.500000
O O12 0.196044 0.126586 0.746083
O O13 0.318499 0.500000 0.500000
#
# Coordination Sequence:
#
# PCOD8158053 Si02
#       7
#     8   8   8   4   4   8   8
#     4   9  19  32  52  79 110 148 179 224 287 341
#     4   9  18  33  57  76 106 146 183 230 281 344
#     4  10  22  38  56  81 112 152 194 228 287 331
#     4  10  18  32  50  82 116 140 178 236 280 342
#     4  10  18  30  52  82 106 138 182 228 286 334
#     4  11  23  36  57  83 110 149 195 243 275 334
#     4   9  20  39  55  75 109 151 188 225 290 343
#
# _framework density 19.96443
#
# number of rings (size 3 to 8) (size 9 to 14) (size 15 to 20)
#    0.000    2.333    0.000    3.000    7.000    2.667 
#    4.500    0.000    0.000    7.000    0.000    0.000 
#    0.000    0.000    0.000    0.000    0.000    0.000 
#
# Total GULP energy -297451.645335 kJ/mol
# GULP energy per Si atom -12393.818556 kJ/mol
# Density = 1.991899 g / cm^3
# Si number density = 19.964430 Si / 1000 Ang^3
#
#
#
# Elastic Constant Matrix: (Units=GPa)
#
#
# Indices 1 2 3 4 5 6 
#
# 1 138.9427 23.9031 61.2413 0.0000 0.0000 0.0000
# 2 23.9031 29.8708 8.6847 0.0000 0.0000 0.0000
# 3 61.2413 8.6847 117.8243 0.0000 0.0000 0.0000
# 4 0.0000 0.0000 0.0000 18.5009 0.0000 0.0000
# 5 0.0000 0.0000 0.0000 0.0000 37.2651 0.0000
# 6 0.0000 0.0000 0.0000 0.0000 0.0000 33.9606
#
#
#
# Elastic Compliance Matrix: (Units=1/GPa)
#
#
# Indices 1 2 3 4 5 6 
#
# 1 0.010610 -0.007038 -0.004996 0.000000 0.000000 0.000000
# 2 -0.007038 0.038879 0.000792 0.000000 0.000000 0.000000
# 3 -0.004996 0.000792 0.011026 0.000000 0.000000 0.000000
# 4 0.000000 0.000000 0.000000 0.054051 0.000000 0.000000
# 5 0.000000 0.000000 0.000000 0.000000 0.026835 0.000000
# 6 0.000000 0.000000 0.000000 0.000000 0.000000 0.029446
#
#
# Mechanical properties :
#
#
# Convention : Reuss Voigt Hill
#
# Bulk Modulus (GPa) = 26.29398 52.69955 39.49677
# Shear Modulus (GPa) = 24.27105 30.79923 27.53514
#
# Velocity S-wave (km/s) = 3.49049 3.93199 3.71780
# Velocity P-wave (km/s) = 5.42621 6.86062 6.18514
#
# Compressibility (1/GPa) = 0.03803152
#
# Stress axis : x y z
#
# Youngs Moduli (GPa) = 94.25039 25.72091 90.69813
#
# Poissons Ratio (x) = 0.18102 0.45313
# Poissons Ratio (y) = 0.66331 -0.07186
# Poissons Ratio (z) = 0.47088 -0.02038
#
# Static dielectric constant tensor:
#      x y z
#    x 3.909030 0.000000 0.000000 
#    y 0.000000 3.345950 0.000000 
#    z 0.000000 0.000000 4.139070 
# 
# 
# High freq. dielectric constant tensor:
#      x y z
#    x 1.791690 0.000000 0.000000 
#    y 0.000000 1.741050 0.000000 
#    z 0.000000 0.000000 1.781840 
# 
# From -- ./inp_files/11489.got.cif
#   From: 2010.03.12/outbox.cif.g09.slc.cpg/sg20_6_cif.got.tgz:11489.got - 2010.04.14 01:38:04.
