data_PCOD8158261
_publ_section_title
;
Structure prediction by ZEFSAII (Michael W. Deem and Ramdas Pophale) SiO2 
 PCOD8158261
Probable space group: C 2 2 21
;
_chemical_formula_sum "Si O2"
_cell_formula_units_Z 40
_cell_length_a 6.300059
_cell_length_b 33.408346
_cell_length_c 10.786573
_cell_angle_alpha 90.000000
_cell_angle_beta 90.000000
_cell_angle_gamma 90.000000
_cell_volume 2270.299108
_symmetry_space_group_name_H-M "C 2 2 21"
_symmetry_group_IT_number 20
_symmetry_cell_setting 'orthorhombic'
loop_
_space_group_symop_operation_xyz
x,y,z
-x,-y,1/2+z
x,-y,-z
-x,y,1/2-z
1/2+x,1/2+y,z
1/2-x,1/2-y,1/2+z
1/2+x,1/2-y,-z
1/2-x,1/2+y,1/2-z
loop_
_atom_site_type_symbol
_atom_site_label
_atom_site_fract_x
_atom_site_fract_y
_atom_site_fract_z
Si Si1 0.500000 0.213391 0.750000
Si Si2 0.878204 0.106198 0.629772
Si Si3 0.500000 0.062900 0.750000
Si Si4 0.116125 0.972583 0.378036
Si Si5 0.870308 0.253719 0.870318
Si Si6 0.193498 0.811368 0.052444
O O1 0.627591 0.241651 0.844625
O O2 0.676604 0.186746 0.681729
O O3 0.643578 0.091084 0.663753
O O4 0.870729 0.142307 0.528550
O O5 0.000000 0.123445 0.750000
O O6 0.011718 0.069014 0.576703
O O7 0.639091 0.034645 0.840918
O O8 0.000000 0.988232 0.250000
O O9 0.098137 0.000000 0.500000
O O10 0.000000 0.266642 0.750000
O O11 0.988290 0.217199 0.939353
O O12 0.855957 0.294130 0.950983
#
# Coordination Sequence:
#
# PCOD8158261 Si02
#       6
#     4   8   4   8   8   8
#     4  10  19  32  50  74  98 130 184 222 266 306
#     4   9  18  32  53  82 106 132 177 225 262 301
#     4   8  17  32  54  88 104 136 176 220 262 314
#     4   9  19  36  59  85 113 140 173 218 273 329
#     4  10  21  33  49  74 100 141 179 217 267 313
#     4  11  19  34  53  75 104 139 179 222 267 306
#
# _framework density 17.618822999999999
#
# number of rings (size 3 to 8) (size 9 to 14) (size 15 to 20)
#    0.000    2.800    2.000    2.400    0.000    4.800 
#    0.000    0.000    6.600    0.000    0.000    0.000 
#    0.000    0.000    0.000    0.000    0.000    0.000 
#
# Total GULP energy -247796.630599 kJ/mol
# GULP energy per Si atom -12389.831530 kJ/mol
# Density = 1.757872 g / cm^3
# Si number density = 17.618823 Si / 1000 Ang^3
#
#
#
# Elastic Constant Matrix: (Units=GPa)
#
#
# Indices 1 2 3 4 5 6 
#
# 1 110.6512 45.1857 33.1946 0.0000 0.0000 0.0000
# 2 45.1857 131.1809 64.9453 0.0000 0.0000 0.0000
# 3 33.1946 64.9453 78.8014 0.0000 0.0000 0.0000
# 4 0.0000 0.0000 0.0000 34.3471 0.0000 0.0000
# 5 0.0000 0.0000 0.0000 0.0000 22.4028 0.0000
# 6 0.0000 0.0000 0.0000 0.0000 0.0000 17.2242
#
#
#
# Elastic Compliance Matrix: (Units=1/GPa)
#
#
# Indices 1 2 3 4 5 6 
#
# 1 0.010802 -0.002480 -0.002506 0.000000 0.000000 0.000000
# 2 -0.002480 0.013447 -0.010038 0.000000 0.000000 0.000000
# 3 -0.002506 -0.010038 0.022019 0.000000 0.000000 0.000000
# 4 0.000000 0.000000 0.000000 0.029115 0.000000 0.000000
# 5 0.000000 0.000000 0.000000 0.000000 0.044637 0.000000
# 6 0.000000 0.000000 0.000000 0.000000 0.000000 0.058058
#
#
# Mechanical properties :
#
#
# Convention : Reuss Voigt Hill
#
# Bulk Modulus (GPa) = 61.65470 67.47608 64.56539
# Shear Modulus (GPa) = 23.41573 26.61534 25.01553
#
# Velocity S-wave (km/s) = 3.64952 3.89089 3.77214
# Velocity P-wave (km/s) = 7.26831 7.65285 7.46306
#
# Compressibility (1/GPa) = 0.01621936
#
# Stress axis : x y z
#
# Youngs Moduli (GPa) = 92.57533 74.36737 45.41602
#
# Poissons Ratio (x) = 0.18442 0.11383
# Poissons Ratio (y) = 0.22958 0.45587
# Poissons Ratio (z) = 0.23203 0.74648
#
# Static dielectric constant tensor:
#      x y z
#    x 3.432740 0.000000 0.000000 
#    y 0.000000 3.069520 0.000000 
#    z 0.000000 0.000000 3.112200 
# 
# 
# High freq. dielectric constant tensor:
#      x y z
#    x 1.701380 0.000000 0.000000 
#    y 0.000000 1.660690 0.000000 
#    z 0.000000 0.000000 1.650360 
# 
# From -- ./inp_files/12188.got.cif
#   From: 2010.03.12/outbox.cif.g09.slc.cpg/sg20_7_cif.got.tgz:12188.got - 2010.04.14 01:38:04.
