data_PCOD8158130
_publ_section_title
;
Structure prediction by ZEFSAII (Michael W. Deem and Ramdas Pophale) SiO2 
 PCOD8158130
Probable space group: C 2 2 21
;
_chemical_formula_sum "Si O2"
_cell_formula_units_Z 64
_cell_length_a 18.513717
_cell_length_b 9.288271
_cell_length_c 19.785667
_cell_angle_alpha 90.000000
_cell_angle_beta 90.000000
_cell_angle_gamma 90.000000
_cell_volume 3402.351621
_symmetry_space_group_name_H-M "C 2 2 21"
_symmetry_group_IT_number 20
_symmetry_cell_setting 'orthorhombic'
loop_
_space_group_symop_operation_xyz
x,y,z
-x,-y,1/2+z
x,-y,-z
-x,y,1/2-z
1/2+x,1/2+y,z
1/2-x,1/2-y,1/2+z
1/2+x,1/2-y,-z
1/2-x,1/2+y,1/2-z
loop_
_atom_site_type_symbol
_atom_site_label
_atom_site_fract_x
_atom_site_fract_y
_atom_site_fract_z
Si Si1 0.458817 0.239573 0.186987
Si Si2 0.693489 0.361497 0.453876
Si Si3 0.528809 0.552613 0.180769
Si Si4 0.299073 0.657391 0.799586
Si Si5 0.298450 0.621944 0.452879
Si Si6 0.198212 0.085841 0.194900
Si Si7 0.968916 0.140689 0.461620
Si Si8 0.939326 0.351437 0.961018
O O1 0.500000 0.160883 0.250000
O O2 0.503588 0.386742 0.172438
O O3 0.377680 0.272300 0.213135
O O4 0.458257 0.137938 0.119726
O O5 0.685255 0.500000 0.500000
O O6 0.698902 0.406904 0.375372
O O7 0.766157 0.276543 0.472956
O O8 0.627320 0.255732 0.468459
O O9 0.500000 0.621692 0.250000
O O10 0.613169 0.578326 0.186349
O O11 0.499666 0.637477 0.114978
O O12 0.232900 0.763472 0.782484
O O13 0.278469 0.531728 0.748459
O O14 0.266109 0.500000 0.500000
O O15 0.269980 0.565666 0.380292
O O16 0.383285 0.638220 0.459831
O O17 0.992707 0.284318 0.499694
O O18 0.998996 0.000000 0.500000
O O19 0.921810 0.500000 0.000000
#
# Coordination Sequence:
#
# PCOD8158130 Si02
#       8
#     8   8   8   8   8   8   8   8
#     4  10  19  37  64  85 113 156 206 237 291 365
#     4  10  22  38  59  82 114 156 200 237 287 362
#     4  10  18  34  62  84 110 149 207 240 282 349
#     4  10  21  37  58  90 116 153 197 245 297 354
#     4   9  20  36  56  81 117 150 190 237 298 346
#     4  10  20  36  56  86 118 150 190 249 288 354
#     4  10  19  34  58  87 110 149 198 239 287 356
#     4  11  23  37  57  88 122 152 194 254 301 343
#
# _framework density 18.810518999999999
#
# number of rings (size 3 to 8) (size 9 to 14) (size 15 to 20)
#    0.000    2.000    3.750    0.750    1.750    1.500 
#    0.000    8.125    0.000    0.000    0.000    0.000 
#    0.000    0.000    0.000    0.000    0.000    0.000 
#
# Total GULP energy -396470.074572 kJ/mol
# GULP energy per Si atom -12389.689830 kJ/mol
# Density = 1.876771 g / cm^3
# Si number density = 18.810519 Si / 1000 Ang^3
#
#
#
# Elastic Constant Matrix: (Units=GPa)
#
#
# Indices 1 2 3 4 5 6 
#
# 1 53.5226 34.9710 28.6552 0.0000 0.0000 0.0000
# 2 34.9710 99.8453 71.2438 0.0000 0.0000 0.0000
# 3 28.6552 71.2438 135.1771 0.0000 0.0000 0.0000
# 4 0.0000 0.0000 0.0000 26.7950 0.0000 0.0000
# 5 0.0000 0.0000 0.0000 0.0000 83.9975 0.0000
# 6 0.0000 0.0000 0.0000 0.0000 0.0000 29.3957
#
#
#
# Elastic Compliance Matrix: (Units=1/GPa)
#
#
# Indices 1 2 3 4 5 6 
#
# 1 0.024324 -0.007758 -0.001068 0.000000 0.000000 0.000000
# 2 -0.007758 0.018526 -0.008120 0.000000 0.000000 0.000000
# 3 -0.001068 -0.008120 0.011903 0.000000 0.000000 0.000000
# 4 0.000000 0.000000 0.000000 0.037320 0.000000 0.000000
# 5 0.000000 0.000000 0.000000 0.000000 0.011905 0.000000
# 6 0.000000 0.000000 0.000000 0.000000 0.000000 0.034019
#
#
# Mechanical properties :
#
#
# Convention : Reuss Voigt Hill
#
# Bulk Modulus (GPa) = 47.92988 62.03167 54.98077
# Shear Modulus (GPa) = 27.95753 38.28265 33.12009
#
# Velocity S-wave (km/s) = 3.85940 4.51618 4.20065
# Velocity P-wave (km/s) = 6.73763 7.76165 7.26770
#
# Compressibility (1/GPa) = 0.02086381
#
# Stress axis : x y z
#
# Youngs Moduli (GPa) = 41.11144 53.97711 84.00964
#
# Poissons Ratio (x) = 0.41874 0.08969
# Poissons Ratio (y) = 0.31893 0.68213
# Poissons Ratio (z) = 0.04389 0.43827
#
# Static dielectric constant tensor:
#      x y z
#    x 3.607020 0.000000 0.000000 
#    y 0.000000 3.204100 0.000000 
#    z 0.000000 0.000000 4.809100 
# 
# 
# High freq. dielectric constant tensor:
#      x y z
#    x 1.735920 0.000000 0.000000 
#    y 0.000000 1.694520 0.000000 
#    z 0.000000 0.000000 1.752080 
# 
# From -- ./inp_files/27766.got.cif
#   From: 2010.03.12/outbox.cif.g09.slc.cpg/sg20_14_cif.got.tgz:27766.got - 2010.04.14 01:38:04.
