data_PCOD8158197
_publ_section_title
;
Structure prediction by ZEFSAII (Michael W. Deem and Ramdas Pophale) SiO2 
 PCOD8158197
Probable space group: C 2 2 21
;
_chemical_formula_sum "Si O2"
_cell_formula_units_Z 48
_cell_length_a 16.790917
_cell_length_b 9.858293
_cell_length_c 14.949974
_cell_angle_alpha 90.000000
_cell_angle_beta 90.000000
_cell_angle_gamma 90.000000
_cell_volume 2474.665900
_symmetry_space_group_name_H-M "C 2 2 21"
_symmetry_group_IT_number 20
_symmetry_cell_setting 'orthorhombic'
loop_
_space_group_symop_operation_xyz
x,y,z
-x,-y,1/2+z
x,-y,-z
-x,y,1/2-z
1/2+x,1/2+y,z
1/2-x,1/2-y,1/2+z
1/2+x,1/2-y,-z
1/2-x,1/2+y,1/2-z
loop_
_atom_site_type_symbol
_atom_site_label
_atom_site_fract_x
_atom_site_fract_y
_atom_site_fract_z
Si Si1 0.224431 0.615964 0.835086
Si Si2 0.713424 0.907667 0.684036
Si Si3 0.679843 0.500000 0.500000
Si Si4 0.423720 0.748778 0.021358
Si Si5 0.810556 0.500000 0.000000
Si Si6 0.964461 0.654450 0.160646
Si Si7 0.537743 0.123235 0.845835
O O1 0.261169 0.754484 0.797921
O O2 0.246733 0.502972 0.761786
O O3 0.264343 0.572913 0.927896
O O4 0.131743 0.643886 0.848636
O O5 0.618124 0.917892 0.686219
O O6 0.743445 0.957546 0.585407
O O7 0.623463 0.387707 0.546555
O O8 0.499175 0.769408 0.085430
O O9 0.365454 0.876015 0.031285
O O10 0.454406 0.736182 0.918232
O O11 0.000000 0.725581 0.250000
O O12 0.021310 0.532807 0.126584
O O13 0.500000 0.155794 0.750000
#
# Coordination Sequence:
#
# PCOD8158197 Si02
#       7
#     8   8   4   8   4   8   8
#     4  12  26  40  66 102 130 168 225 273 324 390
#     4  11  23  41  64  98 131 170 213 275 328 382
#     4  12  28  41  63 100 134 168 214 276 336 381
#     4  11  21  42  66  89 128 172 211 268 325 385
#     4  10  18  41  65  84 122 182 210 242 332 391
#     4  10  18  38  64  92 115 166 220 249 312 385
#     4  11  21  39  68  95 120 169 223 258 309 401
#
# _framework density 19.396557999999999
#
# number of rings (size 3 to 8) (size 9 to 14) (size 15 to 20)
#    0.000    1.000   10.000    0.000    7.000    0.000 
#    0.000    3.333    0.000    0.000    0.000    0.000 
#    0.000    0.000    0.000    0.000    0.000    0.000 
#
# Total GULP energy -297598.808497 kJ/mol
# GULP energy per Si atom -12399.950354 kJ/mol
# Density = 1.935241 g / cm^3
# Si number density = 19.396558 Si / 1000 Ang^3
#
#
#
# Elastic Constant Matrix: (Units=GPa)
#
#
# Indices 1 2 3 4 5 6 
#
# 1 69.0491 34.7456 40.5681 0.0000 0.0000 0.0000
# 2 34.7456 113.8809 40.9855 0.0000 0.0000 0.0000
# 3 40.5681 40.9855 108.9744 0.0000 0.0000 0.0000
# 4 0.0000 0.0000 0.0000 29.3577 0.0000 0.0000
# 5 0.0000 0.0000 0.0000 0.0000 26.8897 0.0000
# 6 0.0000 0.0000 0.0000 0.0000 0.0000 21.7728
#
#
#
# Elastic Compliance Matrix: (Units=1/GPa)
#
#
# Indices 1 2 3 4 5 6 
#
# 1 0.019964 -0.003951 -0.005946 0.000000 0.000000 0.000000
# 2 -0.003951 0.010938 -0.002643 0.000000 0.000000 0.000000
# 3 -0.005946 -0.002643 0.012384 0.000000 0.000000 0.000000
# 4 0.000000 0.000000 0.000000 0.034063 0.000000 0.000000
# 5 0.000000 0.000000 0.000000 0.000000 0.037189 0.000000
# 6 0.000000 0.000000 0.000000 0.000000 0.000000 0.045929
#
#
# Mechanical properties :
#
#
# Convention : Reuss Voigt Hill
#
# Bulk Modulus (GPa) = 54.92747 58.27809 56.60278
# Shear Modulus (GPa) = 26.09400 27.31106 26.70253
#
# Velocity S-wave (km/s) = 3.67180 3.75645 3.71437
# Velocity P-wave (km/s) = 6.80851 6.99467 6.90222
#
# Compressibility (1/GPa) = 0.01820583
#
# Stress axis : x y z
#
# Youngs Moduli (GPa) = 50.08984 91.42632 80.74955
#
# Poissons Ratio (x) = 0.36124 0.48014
# Poissons Ratio (y) = 0.19791 0.21341
# Poissons Ratio (z) = 0.29784 0.24162
#
# Static dielectric constant tensor:
#      x y z
#    x 3.449390 0.000000 0.000000 
#    y 0.000000 3.407350 0.000000 
#    z 0.000000 0.000000 3.791190 
# 
# 
# High freq. dielectric constant tensor:
#      x y z
#    x 1.739530 0.000000 0.000000 
#    y 0.000000 1.737940 0.000000 
#    z 0.000000 0.000000 1.767580 
# 
# From -- ./inp_files/18967.got.cif
#   From: 2010.03.12/outbox.cif.g09.slc.cpg/sg20_10_cif.got.tgz:18967.got - 2010.04.14 01:38:04.
