data_PCOD8158380
_publ_section_title
;
Structure prediction by ZEFSAII (Michael W. Deem and Ramdas Pophale) SiO2 
 PCOD8158380
Probable space group: C 2 2 21
;
_chemical_formula_sum "Si O2"
_cell_formula_units_Z 24
_cell_length_a 7.555358
_cell_length_b 13.960150
_cell_length_c 8.299441
_cell_angle_alpha 90.000000
_cell_angle_beta 90.000000
_cell_angle_gamma 90.000000
_cell_volume 875.374667
_symmetry_space_group_name_H-M "C 2 2 21"
_symmetry_group_IT_number 20
_symmetry_cell_setting 'orthorhombic'
loop_
_space_group_symop_operation_xyz
x,y,z
-x,-y,1/2+z
x,-y,-z
-x,y,1/2-z
1/2+x,1/2+y,z
1/2-x,1/2-y,1/2+z
1/2+x,1/2-y,-z
1/2-x,1/2+y,1/2-z
loop_
_atom_site_type_symbol
_atom_site_label
_atom_site_fract_x
_atom_site_fract_y
_atom_site_fract_z
Si Si1 0.106245 0.897075 0.433137
Si Si2 0.658764 0.926108 0.361265
Si Si3 0.445724 0.794029 0.569093
O O1 0.165215 0.908886 0.246230
O O2 0.266815 0.850103 0.531884
O O3 0.941313 0.822258 0.451835
O O4 0.050815 0.000000 0.500000
O O5 0.500000 0.968360 0.250000
O O6 0.595036 0.827073 0.441458
O O7 0.707323 0.000000 0.500000
O O8 0.500000 0.820945 0.750000
#
# Coordination Sequence:
#
# PCOD8158380 Si02
#       3
#     8   8   8
#     4  11  24  43  68  98 132 172 218 270 327 388
#     4  10  19  35  63  94 127 171 216 264 323 386
#     4  11  22  42  67  96 133 171 218 270 324 388
#
# _framework density 27.416831999999999
#
# number of rings (size 3 to 8) (size 9 to 14) (size 15 to 20)
#    0.000    1.333    0.000    9.000    0.000    0.000 
#    0.000   20.000    0.000    0.000    0.000    0.000 
#    0.000    0.000    0.000    0.000    0.000    0.000 
#
# Total GULP energy -148801.474817 kJ/mol
# GULP energy per Si atom -12400.122901 kJ/mol
# Density = 2.735443 g / cm^3
# Si number density = 27.416832 Si / 1000 Ang^3
#
#
#
# Elastic Constant Matrix: (Units=GPa)
#
#
# Indices 1 2 3 4 5 6 
#
# 1 113.7708 40.9490 25.8264 0.0000 0.0000 0.0000
# 2 40.9490 187.1453 56.9535 0.0000 0.0000 0.0000
# 3 25.8264 56.9535 166.4262 0.0000 0.0000 0.0000
# 4 0.0000 0.0000 0.0000 63.4126 0.0000 0.0000
# 5 0.0000 0.0000 0.0000 0.0000 37.5116 0.0000
# 6 0.0000 0.0000 0.0000 0.0000 0.0000 35.0840
#
#
#
# Elastic Compliance Matrix: (Units=1/GPa)
#
#
# Indices 1 2 3 4 5 6 
#
# 1 0.009651 -0.001849 -0.000865 0.000000 0.000000 0.000000
# 2 -0.001849 0.006319 -0.001875 0.000000 0.000000 0.000000
# 3 -0.000865 -0.001875 0.006785 0.000000 0.000000 0.000000
# 4 0.000000 0.000000 0.000000 0.015770 0.000000 0.000000
# 5 0.000000 0.000000 0.000000 0.000000 0.026658 0.000000
# 6 0.000000 0.000000 0.000000 0.000000 0.000000 0.028503
#
#
# Mechanical properties :
#
#
# Convention : Reuss Voigt Hill
#
# Bulk Modulus (GPa) = 73.65680 79.42226 76.53953
# Shear Modulus (GPa) = 46.55943 50.10920 48.33432
#
# Velocity S-wave (km/s) = 4.12540 4.27978 4.20330
# Velocity P-wave (km/s) = 7.04385 7.31118 7.17876
#
# Compressibility (1/GPa) = 0.01357648
#
# Stress axis : x y z
#
# Youngs Moduli (GPa) = 103.61285 158.26104 147.38954
#
# Poissons Ratio (x) = 0.29255 0.12751
# Poissons Ratio (y) = 0.19153 0.27643
# Poissons Ratio (z) = 0.08964 0.29682
#
# Static dielectric constant tensor:
#      x y z
#    x 5.070160 0.000000 0.000000 
#    y 0.000000 5.004850 0.000000 
#    z 0.000000 0.000000 5.247170 
# 
# 
# High freq. dielectric constant tensor:
#      x y z
#    x 2.132760 0.000000 0.000000 
#    y 0.000000 2.117660 0.000000 
#    z 0.000000 0.000000 2.122930 
# 
# From -- ./inp_files/5522.got.cif
#   From: 2010.03.12/outbox.cif.g09.slc.cpg/sg20_3_cif.got.tgz:5522.got - 2010.04.14 01:38:04.
