data_PCOD8158627
_publ_section_title
;
Structure prediction by ZEFSAII (Michael W. Deem and Ramdas Pophale) SiO2 
 PCOD8158627
Probable space group: C 2 2 21
;
_chemical_formula_sum "Si O2"
_cell_formula_units_Z 64
_cell_length_a 27.763838
_cell_length_b 5.808817
_cell_length_c 21.390936
_cell_angle_alpha 90.000000
_cell_angle_beta 90.000000
_cell_angle_gamma 90.000000
_cell_volume 3449.824362
_symmetry_space_group_name_H-M "C 2 2 21"
_symmetry_group_IT_number 20
_symmetry_cell_setting 'orthorhombic'
loop_
_space_group_symop_operation_xyz
x,y,z
-x,-y,1/2+z
x,-y,-z
-x,y,1/2-z
1/2+x,1/2+y,z
1/2-x,1/2-y,1/2+z
1/2+x,1/2-y,-z
1/2-x,1/2+y,1/2-z
loop_
_atom_site_type_symbol
_atom_site_label
_atom_site_fract_x
_atom_site_fract_y
_atom_site_fract_z
Si Si1 0.348733 0.715863 0.174066
Si Si2 0.979217 0.205457 0.843190
Si Si3 0.557833 0.347800 0.840265
Si Si4 0.750185 0.375415 0.214827
Si Si5 0.997297 0.594319 0.565801
Si Si6 0.853460 0.906188 0.294087
Si Si7 0.586362 0.591097 0.431865
Si Si8 0.083313 0.473158 0.748498
O O1 0.297042 0.844339 0.171147
O O2 0.347780 0.505757 0.223392
O O3 0.363314 0.642552 0.103810
O O4 0.391363 0.886419 0.193583
O O5 0.951878 0.287351 0.781529
O O6 0.005407 0.405392 0.880708
O O7 0.941725 0.093291 0.890720
O O8 0.020904 0.041071 0.816938
O O9 0.541848 0.283901 0.911151
O O10 0.613306 0.432519 0.837801
O O11 0.551669 0.136175 0.792626
O O12 0.754827 0.631866 0.246313
O O13 0.699985 0.388635 0.175904
O O14 0.978724 0.500000 0.500000
O O15 0.051489 0.689786 0.559252
O O16 0.876249 0.653074 0.290219
O O17 0.600556 0.500000 0.500000
#
# Coordination Sequence:
#
# PCOD8158627 Si02
#       8
#     8   8   8   8   8   8   8   8
#     4  10  20  35  56  88 117 155 196 244 307 372
#     4  11  22  37  53  81 119 157 197 241 297 360
#     4  10  25  35  52  85 116 158 201 244 303 356
#     4  10  20  36  61  89 123 158 197 247 306 377
#     4  11  22  38  56  77 115 160 205 246 289 358
#     4  10  20  36  55  82 123 151 195 248 305 367
#     4  11  21  36  56  83 118 154 202 246 296 361
#     4  11  20  37  54  79 126 152 195 237 306 368
#
# _framework density 18.551669
#
# number of rings (size 3 to 8) (size 9 to 14) (size 15 to 20)
#    0.000    1.500    5.000    0.750    0.000    3.000 
#    0.000    0.000    0.000    0.000    0.000    5.250 
#    3.750    0.000    0.000    0.000    0.000    0.000 
#
# Total GULP energy -396539.433403 kJ/mol
# GULP energy per Si atom -12391.857294 kJ/mol
# Density = 1.850944 g / cm^3
# Si number density = 18.551669 Si / 1000 Ang^3
#
#
#
# Elastic Constant Matrix: (Units=GPa)
#
#
# Indices 1 2 3 4 5 6 
#
# 1 128.2419 31.7758 58.2706 0.0000 0.0000 0.0000
# 2 31.7758 86.3137 24.1974 0.0000 0.0000 0.0000
# 3 58.2706 24.1974 77.5986 0.0000 0.0000 0.0000
# 4 0.0000 0.0000 0.0000 28.3090 0.0000 0.0000
# 5 0.0000 0.0000 0.0000 0.0000 14.3235 0.0000
# 6 0.0000 0.0000 0.0000 0.0000 0.0000 24.0375
#
#
#
# Elastic Compliance Matrix: (Units=1/GPa)
#
#
# Indices 1 2 3 4 5 6 
#
# 1 0.012175 -0.002103 -0.008487 0.000000 0.000000 0.000000
# 2 -0.002103 0.013059 -0.002493 0.000000 0.000000 0.000000
# 3 -0.008487 -0.002493 0.020037 0.000000 0.000000 0.000000
# 4 0.000000 0.000000 0.000000 0.035324 0.000000 0.000000
# 5 0.000000 0.000000 0.000000 0.000000 0.069815 0.000000
# 6 0.000000 0.000000 0.000000 0.000000 0.000000 0.041602
#
#
# Mechanical properties :
#
#
# Convention : Reuss Voigt Hill
#
# Bulk Modulus (GPa) = 52.34071 57.84908 55.09489
# Shear Modulus (GPa) = 22.26715 25.19471 23.73093
#
# Velocity S-wave (km/s) = 3.46826 3.68922 3.58044
# Velocity P-wave (km/s) = 6.65681 7.02833 6.84509
#
# Compressibility (1/GPa) = 0.01910559
#
# Stress axis : x y z
#
# Youngs Moduli (GPa) = 82.13507 76.57726 49.90740
#
# Poissons Ratio (x) = 0.16104 0.42355
# Poissons Ratio (y) = 0.17273 0.12441
# Poissons Ratio (z) = 0.69706 0.19090
#
# Static dielectric constant tensor:
#      x y z
#    x 3.604160 0.000000 0.000000 
#    y 0.000000 3.807290 0.000000 
#    z 0.000000 0.000000 3.120140 
# 
# 
# High freq. dielectric constant tensor:
#      x y z
#    x 1.716290 0.000000 0.000000 
#    y 0.000000 1.744150 0.000000 
#    z 0.000000 0.000000 1.675830 
# 
# From -- ./inp_files/26283.got.cif
#   From: 2010.03.12/outbox.cif.g09.slc.cpg/sg20_14_cif.got.tgz:26283.got - 2010.04.14 01:38:04.
