data_PCOD8158690
_publ_section_title
;
Structure prediction by ZEFSAII (Michael W. Deem and Ramdas Pophale) SiO2 
 PCOD8158690
Probable space group: C 2 2 21
;
_chemical_formula_sum "Si O2"
_cell_formula_units_Z 44
_cell_length_a 10.451938
_cell_length_b 24.834240
_cell_length_c 8.549490
_cell_angle_alpha 90.000000
_cell_angle_beta 90.000000
_cell_angle_gamma 90.000000
_cell_volume 2219.156381
_symmetry_space_group_name_H-M "C 2 2 21"
_symmetry_group_IT_number 20
_symmetry_cell_setting 'orthorhombic'
loop_
_space_group_symop_operation_xyz
x,y,z
-x,-y,1/2+z
x,-y,-z
-x,y,1/2-z
1/2+x,1/2+y,z
1/2-x,1/2-y,1/2+z
1/2+x,1/2-y,-z
1/2-x,1/2+y,1/2-z
loop_
_atom_site_type_symbol
_atom_site_label
_atom_site_fract_x
_atom_site_fract_y
_atom_site_fract_z
Si Si1 0.620651 0.860457 0.169041
Si Si2 0.388437 0.790597 0.623108
Si Si3 0.000000 0.091667 0.750000
Si Si4 0.187782 0.829016 0.094210
Si Si5 0.686835 0.439387 0.492350
Si Si6 0.849959 0.147288 0.249079
O O1 0.500000 0.889245 0.250000
O O2 0.682477 0.823498 0.306569
O O3 0.571409 0.821022 0.033269
O O4 0.706744 0.907472 0.101690
O O5 0.500000 0.802165 0.750000
O O6 0.384365 0.727662 0.582758
O O7 0.244030 0.809287 0.667873
O O8 0.888025 0.129635 0.697812
O O9 0.053807 0.056764 0.605409
O O10 0.203802 0.856428 0.924714
O O11 0.738828 0.500000 0.500000
O O12 0.661769 0.410359 0.659881
O O13 0.000000 0.165627 0.250000
#
# Coordination Sequence:
#
# PCOD8158690 Si02
#       6
#     8   8   4   8   8   8
#     4  10  23  42  59  90 128 167 212 266 313 386
#     4  11  23  38  62  91 131 177 216 254 317 387
#     4  10  20  36  60  86 126 150 202 264 304 374
#     4  11  21  37  60  89 129 167 208 256 319 377
#     4  10  23  42  65  91 120 161 213 270 326 382
#     4  11  23  39  61  92 127 162 216 269 319 386
#
# _framework density 19.827355000000001
#
# number of rings (size 3 to 8) (size 9 to 14) (size 15 to 20)
#    0.000    1.455    2.727    2.182    1.273    4.364 
#    0.000    8.182    0.000    0.000    0.000    0.000 
#    0.000    0.000    0.000    0.000    0.000    0.000 
#
# Total GULP energy -272615.399660 kJ/mol
# GULP energy per Si atom -12391.609075 kJ/mol
# Density = 1.978223 g / cm^3
# Si number density = 19.827355 Si / 1000 Ang^3
#
#
#
# Elastic Constant Matrix: (Units=GPa)
#
#
# Indices 1 2 3 4 5 6 
#
# 1 101.1891 30.8377 52.4655 0.0000 0.0000 0.0000
# 2 30.8377 104.4456 51.9696 0.0000 0.0000 0.0000
# 3 52.4655 51.9696 160.0673 0.0000 0.0000 0.0000
# 4 0.0000 0.0000 0.0000 21.0217 0.0000 0.0000
# 5 0.0000 0.0000 0.0000 0.0000 38.9492 0.0000
# 6 0.0000 0.0000 0.0000 0.0000 0.0000 12.3253
#
#
#
# Elastic Compliance Matrix: (Units=1/GPa)
#
#
# Indices 1 2 3 4 5 6 
#
# 1 0.012222 -0.001927 -0.003381 0.000000 0.000000 0.000000
# 2 -0.001927 0.011723 -0.003175 0.000000 0.000000 0.000000
# 3 -0.003381 -0.003175 0.008386 0.000000 0.000000 0.000000
# 4 0.000000 0.000000 0.000000 0.047570 0.000000 0.000000
# 5 0.000000 0.000000 0.000000 0.000000 0.025674 0.000000
# 6 0.000000 0.000000 0.000000 0.000000 0.000000 0.081134
#
#
# Mechanical properties :
#
#
# Convention : Reuss Voigt Hill
#
# Bulk Modulus (GPa) = 65.07133 70.69417 67.88275
# Shear Modulus (GPa) = 23.94679 29.82117 26.88398
#
# Velocity S-wave (km/s) = 3.47906 3.88241 3.68625
# Velocity P-wave (km/s) = 7.00205 7.47193 7.24080
#
# Compressibility (1/GPa) = 0.01536775
#
# Stress axis : x y z
#
# Youngs Moduli (GPa) = 81.81660 85.30393 119.24396
#
# Poissons Ratio (x) = 0.16434 0.40312
# Poissons Ratio (y) = 0.15762 0.37855
# Poissons Ratio (z) = 0.27660 0.27081
#
# Static dielectric constant tensor:
#      x y z
#    x 3.603340 0.000000 0.000000 
#    y 0.000000 3.282450 0.000000 
#    z 0.000000 0.000000 4.040240 
# 
# 
# High freq. dielectric constant tensor:
#      x y z
#    x 1.779380 0.000000 0.000000 
#    y 0.000000 1.746140 0.000000 
#    z 0.000000 0.000000 1.793810 
# 
# From -- ./inp_files/7336.got.cif
#   From: 2010.03.12/outbox.cif.g09.slc.cpg/sg20_4_cif.got.tgz:7336.got - 2010.04.14 01:38:04.
