data_PCOD8158519
_publ_section_title
;
Structure prediction by ZEFSAII (Michael W. Deem and Ramdas Pophale) SiO2 
 PCOD8158519
Probable space group: C 2 2 21
;
_chemical_formula_sum "Si O2"
_cell_formula_units_Z 48
_cell_length_a 27.357662
_cell_length_b 8.424679
_cell_length_c 9.184380
_cell_angle_alpha 90.000000
_cell_angle_beta 90.000000
_cell_angle_gamma 90.000000
_cell_volume 2116.811499
_symmetry_space_group_name_H-M "C 2 2 21"
_symmetry_group_IT_number 20
_symmetry_cell_setting 'orthorhombic'
loop_
_space_group_symop_operation_xyz
x,y,z
-x,-y,1/2+z
x,-y,-z
-x,y,1/2-z
1/2+x,1/2+y,z
1/2-x,1/2-y,1/2+z
1/2+x,1/2-y,-z
1/2-x,1/2+y,1/2-z
loop_
_atom_site_type_symbol
_atom_site_label
_atom_site_fract_x
_atom_site_fract_y
_atom_site_fract_z
Si Si1 0.737246 0.366229 0.901278
Si Si2 0.905565 0.165245 0.768991
Si Si3 0.302608 0.576383 0.852865
Si Si4 0.568051 0.672903 0.169742
Si Si5 0.648333 0.817019 0.988975
Si Si6 0.470118 0.316497 0.977244
O O1 0.708280 0.452408 0.773448
O O2 0.775805 0.245612 0.831035
O O3 0.764422 0.500000 0.000000
O O4 0.698616 0.280792 0.009743
O O5 0.860714 0.100906 0.865726
O O6 0.883144 0.290846 0.656354
O O7 0.929306 0.019435 0.677448
O O8 0.945443 0.255591 0.874771
O O9 0.282677 0.500000 0.000000
O O10 0.555140 0.742726 0.328498
O O11 0.527753 0.717482 0.044753
O O12 0.618106 0.757073 0.128247
O O13 0.661732 0.000000 0.000000
O O14 0.458451 0.500000 0.000000
#
# Coordination Sequence:
#
# PCOD8158519 Si02
#       6
#     8   8   8   8   8   8
#     4  12  25  47  70 100 136 187 232 287 359 421
#     4  11  22  42  67 101 136 181 232 294 352 419
#     4  12  25  42  70 103 140 178 236 289 346 426
#     4  10  19  40  67  96 133 173 227 291 347 421
#     4  12  25  42  65  92 135 186 238 284 353 418
#     4   9  19  35  67 102 128 169 229 288 353 418
#
# _framework density 22.675612999999998
#
# number of rings (size 3 to 8) (size 9 to 14) (size 15 to 20)
#    0.000    1.000    3.333    4.500    2.333    2.000 
#    0.000    4.167    0.000    0.000    0.000    0.000 
#    0.000    0.000    0.000    0.000    0.000    0.000 
#
# Total GULP energy -297523.506366 kJ/mol
# GULP energy per Si atom -12396.812765 kJ/mol
# Density = 2.262400 g / cm^3
# Si number density = 22.675613 Si / 1000 Ang^3
#
#
#
# Elastic Constant Matrix: (Units=GPa)
#
#
# Indices 1 2 3 4 5 6 
#
# 1 96.5512 25.1644 27.4419 0.0000 0.0000 0.0000
# 2 25.1644 95.6213 37.8879 0.0000 0.0000 0.0000
# 3 27.4419 37.8879 100.7822 0.0000 0.0000 0.0000
# 4 0.0000 0.0000 0.0000 19.5905 0.0000 0.0000
# 5 0.0000 0.0000 0.0000 0.0000 27.0746 0.0000
# 6 0.0000 0.0000 0.0000 0.0000 0.0000 21.7635
#
#
#
# Elastic Compliance Matrix: (Units=1/GPa)
#
#
# Indices 1 2 3 4 5 6 
#
# 1 0.011578 -0.002113 -0.002358 0.000000 0.000000 0.000000
# 2 -0.002113 0.012674 -0.004189 0.000000 0.000000 0.000000
# 3 -0.002358 -0.004189 0.012140 0.000000 0.000000 0.000000
# 4 0.000000 0.000000 0.000000 0.051045 0.000000 0.000000
# 5 0.000000 0.000000 0.000000 0.000000 0.036935 0.000000
# 6 0.000000 0.000000 0.000000 0.000000 0.000000 0.045949
#
#
# Mechanical properties :
#
#
# Convention : Reuss Voigt Hill
#
# Bulk Modulus (GPa) = 52.43608 52.66035 52.54822
# Shear Modulus (GPa) = 25.77351 27.18308 26.47829
#
# Velocity S-wave (km/s) = 3.37503 3.46610 3.42087
# Velocity P-wave (km/s) = 6.19374 6.26835 6.23116
#
# Compressibility (1/GPa) = 0.01907084
#
# Stress axis : x y z
#
# Youngs Moduli (GPa) = 86.36993 78.90286 82.37568
#
# Poissons Ratio (x) = 0.16668 0.19428
# Poissons Ratio (y) = 0.18246 0.34510
# Poissons Ratio (z) = 0.20370 0.33055
#
# Static dielectric constant tensor:
#      x y z
#    x 4.111690 0.000000 0.000000 
#    y 0.000000 3.641900 0.000000 
#    z 0.000000 0.000000 4.385710 
# 
# 
# High freq. dielectric constant tensor:
#      x y z
#    x 1.899100 0.000000 0.000000 
#    y 0.000000 1.847980 0.000000 
#    z 0.000000 0.000000 1.912290 
# 
# From -- ./inp_files/11467.got.cif
#   From: 2010.03.12/outbox.cif.g09.slc.cpg/sg20_6_cif.got.tgz:11467.got - 2010.04.14 01:38:04.
