data_PCOD8158743
_publ_section_title
;
Structure prediction by ZEFSAII (Michael W. Deem and Ramdas Pophale) SiO2 
 PCOD8158743
Probable space group: C 2 2 21
;
_chemical_formula_sum "Si O2"
_cell_formula_units_Z 60
_cell_length_a 14.249801
_cell_length_b 7.855486
_cell_length_c 25.359478
_cell_angle_alpha 90.000000
_cell_angle_beta 90.000000
_cell_angle_gamma 90.000000
_cell_volume 2838.717455
_symmetry_space_group_name_H-M "C 2 2 21"
_symmetry_group_IT_number 20
_symmetry_cell_setting 'orthorhombic'
loop_
_space_group_symop_operation_xyz
x,y,z
-x,-y,1/2+z
x,-y,-z
-x,y,1/2-z
1/2+x,1/2+y,z
1/2-x,1/2-y,1/2+z
1/2+x,1/2-y,-z
1/2-x,1/2+y,1/2-z
loop_
_atom_site_type_symbol
_atom_site_label
_atom_site_fract_x
_atom_site_fract_y
_atom_site_fract_z
Si Si1 0.133872 0.720867 0.367033
Si Si2 0.223784 0.000000 0.500000
Si Si3 0.872403 0.890735 0.899117
Si Si4 0.708614 0.797276 0.202324
Si Si5 0.574017 0.638740 0.128471
Si Si6 0.960476 0.796171 0.308843
Si Si7 0.734174 0.644241 0.044687
Si Si8 0.251517 0.826931 0.690150
O O1 0.213635 0.670456 0.323848
O O2 0.167157 0.634784 0.422269
O O3 0.030842 0.674929 0.343755
O O4 0.126714 0.922061 0.375515
O O5 0.158573 0.102368 0.459399
O O6 0.283004 0.157684 0.525354
O O7 0.797690 0.776957 0.865372
O O8 0.974603 0.802266 0.895852
O O9 0.614042 0.785271 0.167384
O O10 0.690656 0.757651 0.263352
O O11 0.759367 0.975070 0.198911
O O12 0.556964 0.476544 0.164751
O O13 0.645220 0.598895 0.080870
O O14 0.860854 0.707704 0.307237
O O15 0.000000 0.821240 0.250000
O O16 0.740186 0.500000 0.000000
#
# Coordination Sequence:
#
# PCOD8158743 Si02
#       8
#     8   4   8   8   8   8   8   8
#     4   8  18  40  60  85 127 163 207 265 319 387
#     4  10  22  46  68  84 136 170 212 276 336 382
#     4   9  21  39  65  87 120 174 206 258 333 383
#     4  10  20  37  58  87 125 164 206 262 313 387
#     4  10  23  40  65  93 125 161 224 261 321 404
#     4  11  21  39  65  92 127 176 208 259 332 389
#     4  10  22  42  71  98 123 172 224 274 329 387
#     4  11  22  38  61  91 127 174 211 255 325 378
#
# _framework density 21.136306000000001
#
# number of rings (size 3 to 8) (size 9 to 14) (size 15 to 20)
#    0.000    2.133    1.333    1.600    6.533    0.000 
#    4.800    0.000    2.933    0.000    0.000    0.000 
#    0.000    0.000    0.000    0.000    0.000    0.000 
#
# Total GULP energy -371642.084679 kJ/mol
# GULP energy per Si atom -12388.069489 kJ/mol
# Density = 2.108820 g / cm^3
# Si number density = 21.136306 Si / 1000 Ang^3
#
#
#
# Elastic Constant Matrix: (Units=GPa)
#
#
# Indices 1 2 3 4 5 6 
#
# 1 120.6735 10.5911 56.5964 0.0000 0.0000 0.0000
# 2 10.5911 29.0898 12.7738 0.0000 0.0000 0.0000
# 3 56.5964 12.7738 126.8740 0.0000 0.0000 0.0000
# 4 0.0000 0.0000 0.0000 24.4811 0.0000 0.0000
# 5 0.0000 0.0000 0.0000 0.0000 25.5465 0.0000
# 6 0.0000 0.0000 0.0000 0.0000 0.0000 17.9477
#
#
#
# Elastic Compliance Matrix: (Units=1/GPa)
#
#
# Indices 1 2 3 4 5 6 
#
# 1 0.010575 -0.001861 -0.004530 0.000000 0.000000 0.000000
# 2 -0.001861 0.036294 -0.002824 0.000000 0.000000 0.000000
# 3 -0.004530 -0.002824 0.010187 0.000000 0.000000 0.000000
# 4 0.000000 0.000000 0.000000 0.040848 0.000000 0.000000
# 5 0.000000 0.000000 0.000000 0.000000 0.039144 0.000000
# 6 0.000000 0.000000 0.000000 0.000000 0.000000 0.055717
#
#
# Mechanical properties :
#
#
# Convention : Reuss Voigt Hill
#
# Bulk Modulus (GPa) = 25.88937 48.50664 37.19800
# Shear Modulus (GPa) = 22.31450 26.70681 24.51065
#
# Velocity S-wave (km/s) = 3.25274 3.55850 3.40905
# Velocity P-wave (km/s) = 5.13639 6.31531 5.75611
#
# Compressibility (1/GPa) = 0.03862590
#
# Stress axis : x y z
#
# Youngs Moduli (GPa) = 94.56572 27.55290 98.16601
#
# Poissons Ratio (x) = 0.05127 0.44467
# Poissons Ratio (y) = 0.17598 0.27722
# Poissons Ratio (z) = 0.42837 0.07781
#
# Static dielectric constant tensor:
#      x y z
#    x 4.395000 0.000000 0.000000 
#    y 0.000000 3.575940 0.000000 
#    z 0.000000 0.000000 4.233650 
# 
# 
# High freq. dielectric constant tensor:
#      x y z
#    x 1.825860 0.000000 0.000000 
#    y 0.000000 1.801880 0.000000 
#    z 0.000000 0.000000 1.842330 
# 
# From -- ./inp_files/29311.got.cif
#   From: 2010.03.12/outbox.cif.g09.slc.cpg/sg20_15_cif.got.tgz:29311.got - 2010.04.14 01:38:04.
