data_PCOD8158050
_publ_section_title
;
Structure prediction by ZEFSAII (Michael W. Deem and Ramdas Pophale) SiO2 
 PCOD8158050
Probable space group: C 2 2 21
;
_chemical_formula_sum "Si O2"
_cell_formula_units_Z 48
_cell_length_a 13.285862
_cell_length_b 21.602117
_cell_length_c 9.158288
_cell_angle_alpha 90.000000
_cell_angle_beta 90.000000
_cell_angle_gamma 90.000000
_cell_volume 2628.453799
_symmetry_space_group_name_H-M "C 2 2 21"
_symmetry_group_IT_number 20
_symmetry_cell_setting 'orthorhombic'
loop_
_space_group_symop_operation_xyz
x,y,z
-x,-y,1/2+z
x,-y,-z
-x,y,1/2-z
1/2+x,1/2+y,z
1/2-x,1/2-y,1/2+z
1/2+x,1/2-y,-z
1/2-x,1/2+y,1/2-z
loop_
_atom_site_type_symbol
_atom_site_label
_atom_site_fract_x
_atom_site_fract_y
_atom_site_fract_z
Si Si1 0.394706 0.384781 0.824687
Si Si2 0.210341 0.933952 0.944140
Si Si3 0.969032 0.738660 0.415093
Si Si4 0.980885 0.878814 0.419775
Si Si5 0.168171 0.315937 0.512406
Si Si6 0.759931 0.723435 0.316455
O O1 0.500000 0.365737 0.750000
O O2 0.332795 0.433651 0.723284
O O3 0.326448 0.325163 0.850456
O O4 0.426983 0.409826 0.986035
O O5 0.305087 0.887524 0.959223
O O6 0.122259 0.914254 0.052554
O O7 0.249820 0.000000 0.000000
O O8 0.968569 0.808329 0.479686
O O9 0.857995 0.708182 0.416930
O O10 0.000000 0.747229 0.250000
O O11 0.047294 0.693336 0.498099
O O12 0.000000 0.885343 0.250000
O O13 0.211717 0.274356 0.645886
O O14 0.218840 0.291238 0.363292
#
# Coordination Sequence:
#
# PCOD8158050 Si02
#       6
#     8   8   8   8   8   8
#     4   9  19  33  51  78 110 141 178 228 277 325
#     4  10  21  35  49  74 110 147 180 213 270 339
#     4   9  17  29  47  78 107 134 174 225 287 322
#     4  10  18  30  52  76 109 141 176 224 272 330
#     4  10  19  31  52  75 103 137 176 226 275 329
#     4  10  18  30  50  77 105 136 175 225 281 324
#
# _framework density 18.261687999999999
#
# number of rings (size 3 to 8) (size 9 to 14) (size 15 to 20)
#    0.000    2.333    3.333    0.000    0.000    2.000 
#    0.000    0.000    0.000    0.000    0.000   33.833 
#    0.000    0.000    0.000    0.000    0.000    0.000 
#
# Total GULP energy -297356.859900 kJ/mol
# GULP energy per Si atom -12389.869163 kJ/mol
# Density = 1.822012 g / cm^3
# Si number density = 18.261688 Si / 1000 Ang^3
#
#
#
# Elastic Constant Matrix: (Units=GPa)
#
#
# Indices 1 2 3 4 5 6 
#
# 1 74.4916 34.3458 12.3631 0.0000 0.0000 0.0000
# 2 34.3458 91.9563 30.6711 0.0000 0.0000 0.0000
# 3 12.3631 30.6711 83.2137 0.0000 0.0000 0.0000
# 4 0.0000 0.0000 0.0000 17.6289 0.0000 0.0000
# 5 0.0000 0.0000 0.0000 0.0000 15.0951 0.0000
# 6 0.0000 0.0000 0.0000 0.0000 0.0000 20.7977
#
#
#
# Elastic Compliance Matrix: (Units=1/GPa)
#
#
# Indices 1 2 3 4 5 6 
#
# 1 0.016220 -0.005991 -0.000202 0.000000 0.000000 0.000000
# 2 -0.005991 0.014612 -0.004496 0.000000 0.000000 0.000000
# 3 -0.000202 -0.004496 0.013704 0.000000 0.000000 0.000000
# 4 0.000000 0.000000 0.000000 0.056725 0.000000 0.000000
# 5 0.000000 0.000000 0.000000 0.000000 0.066247 0.000000
# 6 0.000000 0.000000 0.000000 0.000000 0.000000 0.048082
#
#
# Mechanical properties :
#
#
# Convention : Reuss Voigt Hill
#
# Bulk Modulus (GPa) = 43.17848 44.93574 44.05711
# Shear Modulus (GPa) = 20.43432 22.18977 21.31205
#
# Velocity S-wave (km/s) = 3.34873 3.48961 3.41990
# Velocity P-wave (km/s) = 6.21672 6.39504 6.30651
#
# Compressibility (1/GPa) = 0.02315968
#
# Stress axis : x y z
#
# Youngs Moduli (GPa) = 61.65209 68.43778 72.97033
#
# Poissons Ratio (x) = 0.41001 0.01472
# Poissons Ratio (y) = 0.36935 0.32804
# Poissons Ratio (z) = 0.01243 0.30767
#
# Static dielectric constant tensor:
#      x y z
#    x 3.717810 0.000000 0.000000 
#    y 0.000000 3.050390 0.000000 
#    z 0.000000 0.000000 3.515550 
# 
# 
# High freq. dielectric constant tensor:
#      x y z
#    x 1.708120 0.000000 0.000000 
#    y 0.000000 1.660300 0.000000 
#    z 0.000000 0.000000 1.708620 
# 
# From -- ./inp_files/7370.got.cif
#   From: 2010.03.12/outbox.cif.g09.slc.cpg/sg20_4_cif.got.tgz:7370.got - 2010.04.14 01:38:04.
