data_PCOD8158997
_publ_section_title
;
Structure prediction by ZEFSAII (Michael W. Deem and Ramdas Pophale) SiO2 
 PCOD8158997
Probable space group: C 2 2 21
;
_chemical_formula_sum "Si O2"
_cell_formula_units_Z 48
_cell_length_a 17.190191
_cell_length_b 14.909172
_cell_length_c 9.511183
_cell_angle_alpha 90.000000
_cell_angle_beta 90.000000
_cell_angle_gamma 90.000000
_cell_volume 2437.635494
_symmetry_space_group_name_H-M "C 2 2 21"
_symmetry_group_IT_number 20
_symmetry_cell_setting 'orthorhombic'
loop_
_space_group_symop_operation_xyz
x,y,z
-x,-y,1/2+z
x,-y,-z
-x,y,1/2-z
1/2+x,1/2+y,z
1/2-x,1/2-y,1/2+z
1/2+x,1/2-y,-z
1/2-x,1/2+y,1/2-z
loop_
_atom_site_type_symbol
_atom_site_label
_atom_site_fract_x
_atom_site_fract_y
_atom_site_fract_z
Si Si1 0.411584 0.779363 0.983122
Si Si2 0.088899 0.728314 0.030667
Si Si3 0.914844 0.875989 0.231211
Si Si4 0.236007 0.029609 0.661834
Si Si5 0.684944 0.214358 0.767405
Si Si6 0.682624 0.858361 0.751020
O O1 0.501780 0.802602 0.006639
O O2 0.406241 0.681277 0.912236
O O3 0.374386 0.854921 0.882717
O O4 0.364813 0.781634 0.126738
O O5 0.094995 0.811900 0.135272
O O6 0.131533 0.644410 0.106221
O O7 0.132065 0.756843 0.888871
O O8 0.850299 0.953089 0.223244
O O9 0.000000 0.921301 0.250000
O O10 0.291484 0.114305 0.687327
O O11 0.232001 0.000000 0.500000
O O12 0.268776 0.949086 0.755960
O O13 0.762446 0.271292 0.749624
#
# Coordination Sequence:
#
# PCOD8158997 Si02
#       6
#     8   8   8   8   8   8
#     4  10  21  39  65  93 125 167 209 262 326 377
#     4  10  20  41  65  92 124 168 208 260 322 380
#     4   9  20  41  67  92 130 170 209 263 330 386
#     4  12  23  39  66  96 129 170 220 263 324 387
#     4  12  22  40  64  96 128 163 218 267 317 383
#     4  11  22  39  64  90 125 171 212 256 324 383
#
# _framework density 19.691215
#
# number of rings (size 3 to 8) (size 9 to 14) (size 15 to 20)
#    0.000    1.333    5.000    4.000    0.000    0.667 
#    0.000   10.000    0.000    0.000    0.000    0.000 
#    0.000    0.000    0.000    0.000    0.000    0.000 
#
# Total GULP energy -297607.946483 kJ/mol
# GULP energy per Si atom -12400.331103 kJ/mol
# Density = 1.964640 g / cm^3
# Si number density = 19.691215 Si / 1000 Ang^3
#
#
#
# Elastic Constant Matrix: (Units=GPa)
#
#
# Indices 1 2 3 4 5 6 
#
# 1 128.9523 17.5488 26.0795 0.0000 0.0000 0.0000
# 2 17.5488 64.9948 -10.4101 0.0000 0.0000 0.0000
# 3 26.0795 -10.4101 81.0542 0.0000 0.0000 0.0000
# 4 0.0000 0.0000 0.0000 14.0523 0.0000 0.0000
# 5 0.0000 0.0000 0.0000 0.0000 4.6907 0.0000
# 6 0.0000 0.0000 0.0000 0.0000 0.0000 36.2874
#
#
#
# Elastic Compliance Matrix: (Units=1/GPa)
#
#
# Indices 1 2 3 4 5 6 
#
# 1 0.008795 -0.002887 -0.003201 0.000000 0.000000 0.000000
# 2 -0.002887 0.016657 0.003068 0.000000 0.000000 0.000000
# 3 -0.003201 0.003068 0.013761 0.000000 0.000000 0.000000
# 4 0.000000 0.000000 0.000000 0.071163 0.000000 0.000000
# 5 0.000000 0.000000 0.000000 0.000000 0.213187 0.000000
# 6 0.000000 0.000000 0.000000 0.000000 0.000000 0.027558
#
#
# Mechanical properties :
#
#
# Convention : Reuss Voigt Hill
#
# Bulk Modulus (GPa) = 30.14418 37.93753 34.04085
# Shear Modulus (GPa) = 13.57891 27.12495 20.35193
#
# Velocity S-wave (km/s) = 2.62886 3.71552 3.21838
# Velocity P-wave (km/s) = 4.95542 6.14124 5.57992
#
# Compressibility (1/GPa) = 0.03317390
#
# Stress axis : x y z
#
# Youngs Moduli (GPa) = 113.70035 60.03518 72.66739
#
# Poissons Ratio (x) = 0.17334 0.23258
# Poissons Ratio (y) = 0.32829 -0.22297
# Poissons Ratio (z) = 0.36392 -0.18421
#
# Static dielectric constant tensor:
#      x y z
#    x 3.995420 0.000000 0.000000 
#    y 0.000000 3.316370 0.000000 
#    z 0.000000 0.000000 3.664910 
# 
# 
# High freq. dielectric constant tensor:
#      x y z
#    x 1.791960 0.000000 0.000000 
#    y 0.000000 1.734300 0.000000 
#    z 0.000000 0.000000 1.774590 
# 
# From -- ./inp_files/8412.got.cif
#   From: 2010.03.12/outbox.cif.g09.slc.cpg/sg20_5_cif.got.tgz:8412.got - 2010.04.14 01:38:04.
