data_PCOD8158988
_publ_section_title
;
Structure prediction by ZEFSAII (Michael W. Deem and Ramdas Pophale) SiO2 
 PCOD8158988
Probable space group: C 2 2 21
;
_chemical_formula_sum "Si O2"
_cell_formula_units_Z 36
_cell_length_a 15.147091
_cell_length_b 12.592314
_cell_length_c 9.024521
_cell_angle_alpha 90.000000
_cell_angle_beta 90.000000
_cell_angle_gamma 90.000000
_cell_volume 1721.309395
_symmetry_space_group_name_H-M "C 2 2 21"
_symmetry_group_IT_number 20
_symmetry_cell_setting 'orthorhombic'
loop_
_space_group_symop_operation_xyz
x,y,z
-x,-y,1/2+z
x,-y,-z
-x,y,1/2-z
1/2+x,1/2+y,z
1/2-x,1/2-y,1/2+z
1/2+x,1/2-y,-z
1/2-x,1/2+y,1/2-z
loop_
_atom_site_type_symbol
_atom_site_label
_atom_site_fract_x
_atom_site_fract_y
_atom_site_fract_z
Si Si1 0.225858 0.661872 0.955769
Si Si2 0.621754 0.500000 0.000000
Si Si3 0.561324 0.726436 0.943241
Si Si4 0.118194 0.696704 0.368659
Si Si5 0.234720 0.528740 0.249559
O O1 0.297025 0.754259 0.946103
O O2 0.221312 0.589767 0.809243
O O3 0.130522 0.715718 0.951348
O O4 0.251493 0.602084 0.106600
O O5 0.556775 0.399710 0.024561
O O6 0.682051 0.527033 0.141669
O O7 0.468470 0.788554 0.971238
O O8 0.595260 0.736703 0.776529
O O9 0.145983 0.574207 0.332134
#
# Coordination Sequence:
#
# PCOD8158988 Si02
#       5
#     8   4   8   8   8
#     4  10  20  41  64  92 127 170 215 270 326 390
#     4  12  20  38  64  98 120 168 218 258 330 394
#     4  10  22  37  65  93 132 168 215 270 332 382
#     4  10  20  41  62  92 130 168 210 277 323 382
#     4  10  22  37  68  89 125 170 214 261 333 385
#
# _framework density 20.91431
#
# number of rings (size 3 to 8) (size 9 to 14) (size 15 to 20)
#    0.000    1.778    4.444    0.000    0.000    1.778 
#    0.000    8.889    0.000    0.000    0.000    0.000 
#    0.000    0.000    0.000    0.000    0.000    0.000 
#
# Total GULP energy -223079.805118 kJ/mol
# GULP energy per Si atom -12393.322507 kJ/mol
# Density = 2.086671 g / cm^3
# Si number density = 20.914310 Si / 1000 Ang^3
#
#
#
# Elastic Constant Matrix: (Units=GPa)
#
#
# Indices 1 2 3 4 5 6 
#
# 1 143.0890 24.7511 31.4541 0.0000 0.0000 0.0000
# 2 24.7511 46.1222 20.9741 0.0000 0.0000 0.0000
# 3 31.4541 20.9741 42.0083 0.0000 0.0000 0.0000
# 4 0.0000 0.0000 0.0000 22.9970 0.0000 0.0000
# 5 0.0000 0.0000 0.0000 0.0000 29.8599 0.0000
# 6 0.0000 0.0000 0.0000 0.0000 0.0000 31.8291
#
#
#
# Elastic Compliance Matrix: (Units=1/GPa)
#
#
# Indices 1 2 3 4 5 6 
#
# 1 0.008529 -0.002164 -0.005306 0.000000 0.000000 0.000000
# 2 -0.002164 0.028600 -0.012659 0.000000 0.000000 0.000000
# 3 -0.005306 -0.012659 0.034098 0.000000 0.000000 0.000000
# 4 0.000000 0.000000 0.000000 0.043484 0.000000 0.000000
# 5 0.000000 0.000000 0.000000 0.000000 0.033490 0.000000
# 6 0.000000 0.000000 0.000000 0.000000 0.000000 0.031418
#
#
# Mechanical properties :
#
#
# Convention : Reuss Voigt Hill
#
# Bulk Modulus (GPa) = 32.29034 42.84201 37.56618
# Shear Modulus (GPa) = 21.72032 27.20656 24.46344
#
# Velocity S-wave (km/s) = 3.22613 3.61065 3.42380
# Velocity P-wave (km/s) = 5.41757 6.15723 5.79921
#
# Compressibility (1/GPa) = 0.03096901
#
# Stress axis : x y z
#
# Youngs Moduli (GPa) = 117.24181 34.96553 29.32728
#
# Poissons Ratio (x) = 0.07568 0.15560
# Poissons Ratio (y) = 0.25376 0.37125
# Poissons Ratio (z) = 0.62206 0.44262
#
# Static dielectric constant tensor:
#      x y z
#    x 4.062080 0.000000 0.000000 
#    y 0.000000 3.963100 0.000000 
#    z 0.000000 0.000000 3.811420 
# 
# 
# High freq. dielectric constant tensor:
#      x y z
#    x 1.808760 0.000000 0.000000 
#    y 0.000000 1.824740 0.000000 
#    z 0.000000 0.000000 1.813230 
# 
# From -- ./inp_files/8036.got.cif
#   From: 2010.03.12/outbox.cif.g09.slc.cpg/sg20_5_cif.got.tgz:8036.got - 2010.04.14 01:38:04.
