data_PCOD8158523
_publ_section_title
;
Structure prediction by ZEFSAII (Michael W. Deem and Ramdas Pophale) SiO2 
 PCOD8158523
Probable space group: C 2 2 21
;
_chemical_formula_sum "Si O2"
_cell_formula_units_Z 48
_cell_length_a 8.119696
_cell_length_b 31.651626
_cell_length_c 8.706750
_cell_angle_alpha 90.000000
_cell_angle_beta 90.000000
_cell_angle_gamma 90.000000
_cell_volume 2237.648516
_symmetry_space_group_name_H-M "C 2 2 21"
_symmetry_group_IT_number 20
_symmetry_cell_setting 'orthorhombic'
loop_
_space_group_symop_operation_xyz
x,y,z
-x,-y,1/2+z
x,-y,-z
-x,y,1/2-z
1/2+x,1/2+y,z
1/2-x,1/2-y,1/2+z
1/2+x,1/2-y,-z
1/2-x,1/2+y,1/2-z
loop_
_atom_site_type_symbol
_atom_site_label
_atom_site_fract_x
_atom_site_fract_y
_atom_site_fract_z
Si Si1 0.947745 0.880084 0.416391
Si Si2 0.776796 0.546432 0.989965
Si Si3 0.305860 0.129333 0.473085
Si Si4 0.500000 0.913399 0.250000
Si Si5 0.254059 0.706351 0.644408
Si Si6 0.386415 0.782884 0.467315
Si Si7 0.000000 0.573768 0.250000
O O1 0.857504 0.916989 0.511671
O O2 0.827556 0.839751 0.395167
O O3 0.000000 0.897532 0.250000
O O4 0.109755 0.870911 0.513225
O O5 0.868452 0.555947 0.829847
O O6 0.693242 0.500000 0.000000
O O7 0.911092 0.545095 0.124953
O O8 0.403088 0.116660 0.629944
O O9 0.350868 0.176980 0.425455
O O10 0.358636 0.101154 0.330474
O O11 0.372026 0.740315 0.564451
O O12 0.246357 0.714269 0.827302
O O13 0.072345 0.713040 0.584738
#
# Coordination Sequence:
#
# PCOD8158523 Si02
#       7
#     8   8   8   4   8   8   4
#     4  12  23  43  70  96 131 183 220 270 332 409
#     4  11  23  43  67 100 131 172 226 277 339 400
#     4  11  22  42  67  96 132 174 220 262 334 393
#     4  10  19  40  70  90 132 180 218 262 331 408
#     4  11  24  40  65  95 131 169 226 266 332 389
#     4  11  23  40  63  96 130 175 217 278 316 395
#     4  10  25  44  66 100 134 172 216 288 331 390
#
# _framework density 21.451091999999999
#
# number of rings (size 3 to 8) (size 9 to 14) (size 15 to 20)
#    0.000    1.000    3.333    4.500    0.000    3.333 
#    3.000    0.833    0.000    0.000    0.000    0.000 
#    0.000    0.000    0.000    0.000    0.000    0.000 
#
# Total GULP energy -297576.400193 kJ/mol
# GULP energy per Si atom -12399.016675 kJ/mol
# Density = 2.140227 g / cm^3
# Si number density = 21.451092 Si / 1000 Ang^3
#
#
#
# Elastic Constant Matrix: (Units=GPa)
#
#
# Indices 1 2 3 4 5 6 
#
# 1 88.2199 28.6791 14.5672 0.0000 0.0000 0.0000
# 2 28.6791 139.1832 14.5878 0.0000 0.0000 0.0000
# 3 14.5672 14.5878 51.4161 0.0000 0.0000 0.0000
# 4 0.0000 0.0000 0.0000 18.7486 0.0000 0.0000
# 5 0.0000 0.0000 0.0000 0.0000 29.0035 0.0000
# 6 0.0000 0.0000 0.0000 0.0000 0.0000 22.6765
#
#
#
# Elastic Compliance Matrix: (Units=1/GPa)
#
#
# Indices 1 2 3 4 5 6 
#
# 1 0.012558 -0.002283 -0.002910 0.000000 0.000000 0.000000
# 2 -0.002283 0.007820 -0.001572 0.000000 0.000000 0.000000
# 3 -0.002910 -0.001572 0.020720 0.000000 0.000000 0.000000
# 4 0.000000 0.000000 0.000000 0.053337 0.000000 0.000000
# 5 0.000000 0.000000 0.000000 0.000000 0.034479 0.000000
# 6 0.000000 0.000000 0.000000 0.000000 0.000000 0.044098
#
#
# Mechanical properties :
#
#
# Convention : Reuss Voigt Hill
#
# Bulk Modulus (GPa) = 36.27415 43.83192 40.05304
# Shear Modulus (GPa) = 25.54530 28.81807 27.18168
#
# Velocity S-wave (km/s) = 3.45463 3.66926 3.56356
# Velocity P-wave (km/s) = 5.73232 6.19912 5.97028
#
# Compressibility (1/GPa) = 0.02756784
#
# Stress axis : x y z
#
# Youngs Moduli (GPa) = 79.63115 127.87954 48.26327
#
# Poissons Ratio (x) = 0.29189 0.14046
# Poissons Ratio (y) = 0.18176 0.07587
# Poissons Ratio (z) = 0.23175 0.20102
#
# Static dielectric constant tensor:
#      x y z
#    x 3.963180 0.000000 0.000000 
#    y 0.000000 3.859530 0.000000 
#    z 0.000000 0.000000 4.010810 
# 
# 
# High freq. dielectric constant tensor:
#      x y z
#    x 1.853320 0.000000 0.000000 
#    y 0.000000 1.841800 0.000000 
#    z 0.000000 0.000000 1.832380 
# 
# From -- ./inp_files/6570.got.cif
#   From: 2010.03.12/outbox.cif.g09.slc.cpg/sg20_4_cif.got.tgz:6570.got - 2010.04.14 01:38:04.
