data_PCOD8158426
_publ_section_title
;
Structure prediction by ZEFSAII (Michael W. Deem and Ramdas Pophale) SiO2 
 PCOD8158426
Probable space group: C 2 2 21
;
_chemical_formula_sum "Si O2"
_cell_formula_units_Z 52
_cell_length_a 21.089754
_cell_length_b 15.320773
_cell_length_c 7.819981
_cell_angle_alpha 90.000000
_cell_angle_beta 90.000000
_cell_angle_gamma 90.000000
_cell_volume 2526.724490
_symmetry_space_group_name_H-M "C 2 2 21"
_symmetry_group_IT_number 20
_symmetry_cell_setting 'orthorhombic'
loop_
_space_group_symop_operation_xyz
x,y,z
-x,-y,1/2+z
x,-y,-z
-x,y,1/2-z
1/2+x,1/2+y,z
1/2-x,1/2-y,1/2+z
1/2+x,1/2-y,-z
1/2-x,1/2+y,1/2-z
loop_
_atom_site_type_symbol
_atom_site_label
_atom_site_fract_x
_atom_site_fract_y
_atom_site_fract_z
Si Si1 0.175639 0.707095 0.971369
Si Si2 0.949600 0.202963 0.510174
Si Si3 0.500000 0.162866 0.250000
Si Si4 0.685458 0.000000 0.500000
Si Si5 0.611045 0.449487 0.178582
Si Si6 0.737314 0.636764 0.829136
Si Si7 0.000000 0.930985 0.750000
Si Si8 0.881640 0.444034 0.667320
O O1 0.107641 0.747477 0.908221
O O2 0.215118 0.668930 0.815467
O O3 0.212187 0.779572 0.074886
O O4 0.167243 0.628651 0.104724
O O5 0.919306 0.146747 0.663465
O O6 0.990336 0.133197 0.407076
O O7 0.997055 0.276298 0.581530
O O8 0.559913 0.101200 0.260509
O O9 0.727692 0.086090 0.517843
O O10 0.647343 0.999519 0.320834
O O11 0.681829 0.427560 0.250900
O O12 0.562832 0.509737 0.290631
O O13 0.618734 0.500000 0.000000
O O14 0.902133 0.500000 0.500000
#
# Coordination Sequence:
#
# PCOD8158426 Si02
#       8
#     8   8   4   4   8   8   4   8
#     4  10  22  42  65  92 135 170 223 277 325 403
#     4   9  20  38  61  88 129 168 212 273 326 393
#     4  10  23  42  65  88 130 170 208 276 341 381
#     4  12  24  40  72  96 132 174 220 270 344 390
#     4   9  18  35  62  89 128 169 212 271 325 395
#     4  11  21  40  66  95 130 181 219 270 339 399
#     4  10  19  36  63  96 126 166 224 268 329 401
#     4  11  24  45  67  99 130 168 225 284 324 405
#
# _framework density 20.580005
#
# number of rings (size 3 to 8) (size 9 to 14) (size 15 to 20)
#    0.000    1.846    2.308    1.385    1.077    1.231 
#    0.000    4.615   10.154    0.000    0.000    0.000 
#    0.000    0.000    0.000    0.000    0.000    0.000 
#
# Total GULP energy -322091.804207 kJ/mol
# GULP energy per Si atom -12388.146316 kJ/mol
# Density = 2.053316 g / cm^3
# Si number density = 20.580005 Si / 1000 Ang^3
#
#
#
# Elastic Constant Matrix: (Units=GPa)
#
#
# Indices 1 2 3 4 5 6 
#
# 1 126.0171 66.5863 64.6260 0.0000 0.0000 0.0000
# 2 66.5863 124.0830 45.2934 0.0000 0.0000 0.0000
# 3 64.6260 45.2934 86.8953 0.0000 0.0000 0.0000
# 4 0.0000 0.0000 0.0000 46.3910 0.0000 0.0000
# 5 0.0000 0.0000 0.0000 0.0000 32.1508 0.0000
# 6 0.0000 0.0000 0.0000 0.0000 0.0000 19.4785
#
#
#
# Elastic Compliance Matrix: (Units=1/GPa)
#
#
# Indices 1 2 3 4 5 6 
#
# 1 0.014885 -0.004874 -0.008530 0.000000 0.000000 0.000000
# 2 -0.004874 0.011549 -0.002395 0.000000 0.000000 0.000000
# 3 -0.008530 -0.002395 0.019100 0.000000 0.000000 0.000000
# 4 0.000000 0.000000 0.000000 0.021556 0.000000 0.000000
# 5 0.000000 0.000000 0.000000 0.000000 0.031103 0.000000
# 6 0.000000 0.000000 0.000000 0.000000 0.000000 0.051339
#
#
# Mechanical properties :
#
#
# Convention : Reuss Voigt Hill
#
# Bulk Modulus (GPa) = 71.75259 76.66740 74.21000
# Shear Modulus (GPa) = 26.91415 30.30337 28.60876
#
# Velocity S-wave (km/s) = 3.62025 3.84144 3.73248
# Velocity P-wave (km/s) = 7.23988 7.55048 7.39681
#
# Compressibility (1/GPa) = 0.01393678
#
# Stress axis : x y z
#
# Youngs Moduli (GPa) = 67.17982 86.58837 52.35539
#
# Poissons Ratio (x) = 0.42206 0.44659
# Poissons Ratio (y) = 0.32745 0.12537
# Poissons Ratio (z) = 0.57304 0.20735
#
# Static dielectric constant tensor:
#      x y z
#    x 3.482440 0.000000 0.000000 
#    y 0.000000 4.122760 0.000000 
#    z 0.000000 0.000000 2.336290 
# 
# 
# High freq. dielectric constant tensor:
#      x y z
#    x 1.810150 0.000000 0.000000 
#    y 0.000000 1.831000 0.000000 
#    z 0.000000 0.000000 1.769220 
# 
# From -- ./inp_files/10171.got.cif
#   From: 2010.03.12/outbox.cif.g09.slc.cpg/sg20_6_cif.got.tgz:10171.got - 2010.04.14 01:38:04.
