data_PCOD8158268
_publ_section_title
;
Structure prediction by ZEFSAII (Michael W. Deem and Ramdas Pophale) SiO2 
 PCOD8158268
Probable space group: C 2 2 21
;
_chemical_formula_sum "Si O2"
_cell_formula_units_Z 48
_cell_length_a 16.549710
_cell_length_b 9.554051
_cell_length_c 16.306895
_cell_angle_alpha 90.000000
_cell_angle_beta 90.000000
_cell_angle_gamma 90.000000
_cell_volume 2578.393621
_symmetry_space_group_name_H-M "C 2 2 21"
_symmetry_group_IT_number 20
_symmetry_cell_setting 'orthorhombic'
loop_
_space_group_symop_operation_xyz
x,y,z
-x,-y,1/2+z
x,-y,-z
-x,y,1/2-z
1/2+x,1/2+y,z
1/2-x,1/2-y,1/2+z
1/2+x,1/2-y,-z
1/2-x,1/2+y,1/2-z
loop_
_atom_site_type_symbol
_atom_site_label
_atom_site_fract_x
_atom_site_fract_y
_atom_site_fract_z
Si Si1 0.019105 0.357127 0.336394
Si Si2 0.209307 0.354809 0.600704
Si Si3 0.853352 0.325124 0.430308
Si Si4 0.418825 0.847216 0.772312
Si Si5 0.181935 0.324898 0.413086
Si Si6 0.821023 0.375440 0.607881
O O1 0.044327 0.516901 0.318457
O O2 0.093594 0.283366 0.381199
O O3 0.000000 0.280758 0.250000
O O4 0.942206 0.341918 0.394581
O O5 0.301455 0.300043 0.611170
O O6 0.147511 0.281282 0.665853
O O7 0.178509 0.313949 0.510921
O O8 0.289185 0.021290 0.884322
O O9 0.863478 0.302648 0.528493
O O10 0.800413 0.464236 0.413621
O O11 0.500000 0.754746 0.750000
O O12 0.377550 0.881011 0.686477
O O13 0.240371 0.210897 0.372102
#
# Coordination Sequence:
#
# PCOD8158268 Si02
#       6
#     8   8   8   8   8   8
#     4  10  19  33  54  80 102 137 183 219 261 312
#     4   9  20  34  56  77 108 141 180 216 275 325
#     4  10  20  35  56  80 107 140 179 225 268 318
#     4  10  19  32  53  83 102 135 183 224 258 311
#     4   9  20  36  54  77 106 143 175 219 271 328
#     4  10  20  33  56  80 107 137 178 223 271 309
#
# _framework density 18.616240999999999
#
# number of rings (size 3 to 8) (size 9 to 14) (size 15 to 20)
#    0.000    2.333    3.333    0.000    4.667    1.333 
#    0.000    0.000    3.667    4.000    0.000    0.000 
#    0.000    0.000    0.000    0.000    0.000    0.000 
#
# Total GULP energy -297334.382211 kJ/mol
# GULP energy per Si atom -12388.932592 kJ/mol
# Density = 1.857387 g / cm^3
# Si number density = 18.616241 Si / 1000 Ang^3
#
#
#
# Elastic Constant Matrix: (Units=GPa)
#
#
# Indices 1 2 3 4 5 6 
#
# 1 161.2486 48.8571 62.2421 0.0000 0.0000 0.0000
# 2 48.8571 46.2348 17.2749 0.0000 0.0000 0.0000
# 3 62.2421 17.2749 86.4087 0.0000 0.0000 0.0000
# 4 0.0000 0.0000 0.0000 14.2068 0.0000 0.0000
# 5 0.0000 0.0000 0.0000 0.0000 39.1257 0.0000
# 6 0.0000 0.0000 0.0000 0.0000 0.0000 20.4130
#
#
#
# Elastic Compliance Matrix: (Units=1/GPa)
#
#
# Indices 1 2 3 4 5 6 
#
# 1 0.011707 -0.009964 -0.006441 0.000000 0.000000 0.000000
# 2 -0.009964 0.031856 0.000809 0.000000 0.000000 0.000000
# 3 -0.006441 0.000809 0.016050 0.000000 0.000000 0.000000
# 4 0.000000 0.000000 0.000000 0.070389 0.000000 0.000000
# 5 0.000000 0.000000 0.000000 0.000000 0.025559 0.000000
# 6 0.000000 0.000000 0.000000 0.000000 0.000000 0.048988
#
#
# Mechanical properties :
#
#
# Convention : Reuss Voigt Hill
#
# Bulk Modulus (GPa) = 35.18512 61.18225 48.18368
# Shear Modulus (GPa) = 20.39026 25.78363 23.08695
#
# Velocity S-wave (km/s) = 3.31311 3.72561 3.52540
# Velocity P-wave (km/s) = 5.79456 7.17239 6.51997
#
# Compressibility (1/GPa) = 0.02842111
#
# Stress axis : x y z
#
# Youngs Moduli (GPa) = 85.42065 31.39133 62.30338
#
# Poissons Ratio (x) = 0.31279 0.40127
# Poissons Ratio (y) = 0.85116 -0.05039
# Poissons Ratio (z) = 0.55016 -0.02539
#
# Static dielectric constant tensor:
#      x y z
#    x 3.735980 0.000000 0.000000 
#    y 0.000000 3.156020 0.000000 
#    z 0.000000 0.000000 3.724980 
# 
# 
# High freq. dielectric constant tensor:
#      x y z
#    x 1.730100 0.000000 0.000000 
#    y 0.000000 1.667450 0.000000 
#    z 0.000000 0.000000 1.740910 
# 
# From -- ./inp_files/20794.got.cif
#   From: 2010.03.12/outbox.cif.g09.slc.cpg/sg20_11_cif.got.tgz:20794.got - 2010.04.14 01:38:04.
