data_PCOD8158411
_publ_section_title
;
Structure prediction by ZEFSAII (Michael W. Deem and Ramdas Pophale) SiO2 
 PCOD8158411
Probable space group: C 2 2 21
;
_chemical_formula_sum "Si O2"
_cell_formula_units_Z 48
_cell_length_a 13.601840
_cell_length_b 18.030571
_cell_length_c 10.261249
_cell_angle_alpha 90.000000
_cell_angle_beta 90.000000
_cell_angle_gamma 90.000000
_cell_volume 2516.560459
_symmetry_space_group_name_H-M "C 2 2 21"
_symmetry_group_IT_number 20
_symmetry_cell_setting 'orthorhombic'
loop_
_space_group_symop_operation_xyz
x,y,z
-x,-y,1/2+z
x,-y,-z
-x,y,1/2-z
1/2+x,1/2+y,z
1/2-x,1/2-y,1/2+z
1/2+x,1/2-y,-z
1/2-x,1/2+y,1/2-z
loop_
_atom_site_type_symbol
_atom_site_label
_atom_site_fract_x
_atom_site_fract_y
_atom_site_fract_z
Si Si1 0.000000 0.626567 0.250000
Si Si2 0.334142 0.758490 0.513772
Si Si3 0.153535 0.577644 0.069829
Si Si4 0.479234 0.340792 0.036406
Si Si5 0.335062 0.759810 0.815227
Si Si6 0.000000 0.952619 0.250000
Si Si7 0.360715 0.553898 0.123265
O O1 0.947807 0.573442 0.352384
O O2 0.914961 0.674574 0.181183
O O3 0.346512 0.846745 0.482698
O O4 0.440103 0.719691 0.494345
O O5 0.300548 0.746671 0.665170
O O6 0.257099 0.723310 0.411115
O O7 0.251555 0.582859 0.160708
O O8 0.158221 0.500000 0.000000
O O9 0.391844 0.311075 0.128947
O O10 0.527706 0.405727 0.122126
O O11 0.429885 0.375040 0.907251
O O12 0.094999 0.005860 0.260249
O O13 0.353375 0.500000 0.000000
#
# Coordination Sequence:
#
# PCOD8158411 Si02
#       7
#     4   8   8   8   8   4   8
#     4  10  21  40  62  79 116 168 198 244 307 366
#     4  11  22  36  66  91 119 160 208 251 298 367
#     4  10  20  37  57  82 115 159 202 241 298 369
#     4  11  18  38  62  87 122 164 199 248 312 362
#     4  11  20  39  63  91 119 160 203 248 305 357
#     4  10  19  36  60  89 122 158 188 252 317 364
#     4   9  20  32  58  86 117 153 197 242 303 365
#
# _framework density 19.073651000000002
#
# number of rings (size 3 to 8) (size 9 to 14) (size 15 to 20)
#    0.000    1.667    6.667    0.000    0.000    2.667 
#    0.000    3.333    0.000    0.000    0.000    0.000 
#    0.000    0.000    0.000    0.000    0.000    0.000 
#
# Total GULP energy -297335.206988 kJ/mol
# GULP energy per Si atom -12388.966958 kJ/mol
# Density = 1.903024 g / cm^3
# Si number density = 19.073651 Si / 1000 Ang^3
#
#
#
# Elastic Constant Matrix: (Units=GPa)
#
#
# Indices 1 2 3 4 5 6 
#
# 1 117.4108 40.1793 39.5155 0.0000 0.0000 0.0000
# 2 40.1793 102.2536 21.4357 0.0000 0.0000 0.0000
# 3 39.5155 21.4357 62.2413 0.0000 0.0000 0.0000
# 4 0.0000 0.0000 0.0000 22.0253 0.0000 0.0000
# 5 0.0000 0.0000 0.0000 0.0000 33.6649 0.0000
# 6 0.0000 0.0000 0.0000 0.0000 0.0000 25.4098
#
#
#
# Elastic Compliance Matrix: (Units=1/GPa)
#
#
# Indices 1 2 3 4 5 6 
#
# 1 0.011781 -0.003299 -0.006343 0.000000 0.000000 0.000000
# 2 -0.003299 0.011465 -0.001854 0.000000 0.000000 0.000000
# 3 -0.006343 -0.001854 0.020732 0.000000 0.000000 0.000000
# 4 0.000000 0.000000 0.000000 0.045402 0.000000 0.000000
# 5 0.000000 0.000000 0.000000 0.000000 0.029705 0.000000
# 6 0.000000 0.000000 0.000000 0.000000 0.000000 0.039355
#
#
# Mechanical properties :
#
#
# Convention : Reuss Voigt Hill
#
# Bulk Modulus (GPa) = 47.65274 53.79632 50.72453
# Shear Modulus (GPa) = 26.53543 28.27166 27.40355
#
# Velocity S-wave (km/s) = 3.73394 3.85416 3.79452
# Velocity P-wave (km/s) = 6.60511 6.93338 6.77124
#
# Compressibility (1/GPa) = 0.02098515
#
# Stress axis : x y z
#
# Youngs Moduli (GPa) = 84.88188 87.22433 48.23456
#
# Poissons Ratio (x) = 0.28780 0.30596
# Poissons Ratio (y) = 0.28007 0.08941
# Poissons Ratio (z) = 0.53842 0.16168
#
# Static dielectric constant tensor:
#      x y z
#    x 3.901170 0.000000 0.000000 
#    y 0.000000 3.613360 0.000000 
#    z 0.000000 0.000000 3.311040 
# 
# 
# High freq. dielectric constant tensor:
#      x y z
#    x 1.749100 0.000000 0.000000 
#    y 0.000000 1.748640 0.000000 
#    z 0.000000 0.000000 1.704870 
# 
# From -- ./inp_files/14176.got.cif
#   From: 2010.03.12/outbox.cif.g09.slc.cpg/sg20_8_cif.got.tgz:14176.got - 2010.04.14 01:38:04.
