data_PCOD8158026
_publ_section_title
;
Structure prediction by ZEFSAII (Michael W. Deem and Ramdas Pophale) SiO2 
 PCOD8158026
Probable space group: C 2 2 21
;
_chemical_formula_sum "Si O2"
_cell_formula_units_Z 60
_cell_length_a 11.522570
_cell_length_b 13.098201
_cell_length_c 19.793128
_cell_angle_alpha 90.000000
_cell_angle_beta 90.000000
_cell_angle_gamma 90.000000
_cell_volume 2987.276614
_symmetry_space_group_name_H-M "C 2 2 21"
_symmetry_group_IT_number 20
_symmetry_cell_setting 'orthorhombic'
loop_
_space_group_symop_operation_xyz
x,y,z
-x,-y,1/2+z
x,-y,-z
-x,y,1/2-z
1/2+x,1/2+y,z
1/2-x,1/2-y,1/2+z
1/2+x,1/2-y,-z
1/2-x,1/2+y,1/2-z
loop_
_atom_site_type_symbol
_atom_site_label
_atom_site_fract_x
_atom_site_fract_y
_atom_site_fract_z
Si Si1 0.682854 0.032165 0.656614
Si Si2 0.787801 0.269817 0.078544
Si Si3 0.500000 0.050437 0.250000
Si Si4 0.044698 0.114919 0.484371
Si Si5 0.627315 0.418553 0.253365
Si Si6 0.634507 0.701975 0.620154
Si Si7 0.090701 0.716664 0.169613
Si Si8 0.218881 0.136955 0.059319
O O1 0.671448 0.150462 0.635275
O O2 0.779519 0.011770 0.715045
O O3 0.557693 0.013877 0.689696
O O4 0.717815 0.960334 0.593167
O O5 0.875906 0.175411 0.069270
O O6 0.668003 0.215415 0.101718
O O7 0.775263 0.339822 0.012718
O O8 0.604176 0.115618 0.214882
O O9 0.057174 0.168961 0.556187
O O10 0.916583 0.115396 0.451925
O O11 0.086495 0.000000 0.500000
O O12 0.500000 0.471843 0.250000
O O13 0.662857 0.394604 0.331272
O O14 0.624303 0.313197 0.213516
O O15 0.547533 0.781745 0.655253
O O16 0.754989 0.760464 0.603304
#
# Coordination Sequence:
#
# PCOD8158026 Si02
#       8
#     8   8   4   8   8   8   8   8
#     4  11  23  38  61  92 122 160 203 249 301 366
#     4  10  23  40  61  90 125 160 199 260 308 355
#     4  12  22  38  64  90 120 162 208 248 296 374
#     4  11  24  38  61  88 120 158 202 255 303 355
#     4   9  19  35  61  83 116 162 198 237 299 352
#     4  10  19  38  62  85 118 158 200 248 301 359
#     4  10  17  38  60  84 118 160 201 241 293 364
#     4  11  21  38  66  90 120 161 206 246 304 370
#
# _framework density 20.085183000000001
#
# number of rings (size 3 to 8) (size 9 to 14) (size 15 to 20)
#    0.000    1.600    4.667    1.200    3.733    2.133 
#    0.000    1.333    0.000    0.000    0.000    0.000 
#    0.000    0.000    0.000    0.000    0.000    0.000 
#
# Total GULP energy -371697.203478 kJ/mol
# GULP energy per Si atom -12389.906783 kJ/mol
# Density = 2.003947 g / cm^3
# Si number density = 20.085183 Si / 1000 Ang^3
#
#
#
# Elastic Constant Matrix: (Units=GPa)
#
#
# Indices 1 2 3 4 5 6 
#
# 1 89.0149 44.5295 40.7579 0.0000 0.0000 0.0000
# 2 44.5295 81.0422 31.5436 0.0000 0.0000 0.0000
# 3 40.7579 31.5436 94.1120 0.0000 0.0000 0.0000
# 4 0.0000 0.0000 0.0000 28.1530 0.0000 0.0000
# 5 0.0000 0.0000 0.0000 0.0000 35.7768 0.0000
# 6 0.0000 0.0000 0.0000 0.0000 0.0000 21.8380
#
#
#
# Elastic Compliance Matrix: (Units=1/GPa)
#
#
# Indices 1 2 3 4 5 6 
#
# 1 0.017289 -0.007573 -0.004949 0.000000 0.000000 0.000000
# 2 -0.007573 0.017508 -0.002588 0.000000 0.000000 0.000000
# 3 -0.004949 -0.002588 0.013636 0.000000 0.000000 0.000000
# 4 0.000000 0.000000 0.000000 0.035520 0.000000 0.000000
# 5 0.000000 0.000000 0.000000 0.000000 0.027951 0.000000
# 6 0.000000 0.000000 0.000000 0.000000 0.000000 0.045792
#
#
# Mechanical properties :
#
#
# Convention : Reuss Voigt Hill
#
# Bulk Modulus (GPa) = 54.90916 55.31459 55.11187
# Shear Modulus (GPa) = 25.77487 26.97611 26.37549
#
# Velocity S-wave (km/s) = 3.58617 3.66879 3.62772
# Velocity P-wave (km/s) = 6.67420 6.74881 6.71161
#
# Compressibility (1/GPa) = 0.01821190
#
# Stress axis : x y z
#
# Youngs Moduli (GPa) = 57.84180 57.11726 73.33261
#
# Poissons Ratio (x) = 0.43255 0.36292
# Poissons Ratio (y) = 0.43804 0.18981
# Poissons Ratio (z) = 0.28626 0.14784
#
# Static dielectric constant tensor:
#      x y z
#    x 3.660560 0.000000 0.000000 
#    y 0.000000 3.501740 0.000000 
#    z 0.000000 0.000000 4.034740 
# 
# 
# High freq. dielectric constant tensor:
#      x y z
#    x 1.765490 0.000000 0.000000 
#    y 0.000000 1.767240 0.000000 
#    z 0.000000 0.000000 1.800020 
# 
# From -- ./inp_files/27288.got.cif
#   From: 2010.03.12/outbox.cif.g09.slc.cpg/sg20_14_cif.got.tgz:27288.got - 2010.04.14 01:38:04.
