data_PCOD8158010
_publ_section_title
;
Structure prediction by ZEFSAII (Michael W. Deem and Ramdas Pophale) SiO2 
 PCOD8158010
Probable space group: C 2 2 21
;
_chemical_formula_sum "Si O2"
_cell_formula_units_Z 64
_cell_length_a 15.449355
_cell_length_b 8.854538
_cell_length_c 23.882747
_cell_angle_alpha 90.000000
_cell_angle_beta 90.000000
_cell_angle_gamma 90.000000
_cell_volume 3267.085775
_symmetry_space_group_name_H-M "C 2 2 21"
_symmetry_group_IT_number 20
_symmetry_cell_setting 'orthorhombic'
loop_
_space_group_symop_operation_xyz
x,y,z
-x,-y,1/2+z
x,-y,-z
-x,y,1/2-z
1/2+x,1/2+y,z
1/2-x,1/2-y,1/2+z
1/2+x,1/2-y,-z
1/2-x,1/2+y,1/2-z
loop_
_atom_site_type_symbol
_atom_site_label
_atom_site_fract_x
_atom_site_fract_y
_atom_site_fract_z
Si Si1 0.414933 0.328635 0.118406
Si Si2 0.108136 0.162899 0.875280
Si Si3 0.412384 0.686892 0.115997
Si Si4 0.757643 0.813719 0.806474
Si Si5 0.395548 0.684729 0.383292
Si Si6 0.751564 0.829854 0.186837
Si Si7 0.351438 0.322241 0.001590
Si Si8 0.673296 0.670234 0.997800
O O1 0.510469 0.284766 0.139738
O O2 0.407044 0.507499 0.113123
O O3 0.342534 0.269018 0.161751
O O4 0.397499 0.256009 0.057130
O O5 0.170790 0.255847 0.835441
O O6 0.122909 0.201204 0.940335
O O7 0.122192 0.985947 0.862804
O O8 0.340999 0.747924 0.159506
O O9 0.508264 0.738212 0.135003
O O10 0.391474 0.753119 0.054264
O O11 0.766731 0.753611 0.744258
O O12 0.755452 0.992832 0.803611
O O13 0.325631 0.795053 0.356184
O O14 0.392847 0.693499 0.450810
O O15 0.364450 0.500000 0.000000
O O16 0.250026 0.288372 0.004124
O O17 0.710873 0.500000 0.000000
#
# Coordination Sequence:
#
# PCOD8158010 Si02
#       8
#     8   8   8   8   8   8   8   8
#     4   9  19  35  59  84 110 147 188 225 271 334
#     4  10  20  37  59  85 114 147 185 228 276 333
#     4   9  19  35  59  84 110 147 188 225 271 334
#     4  11  23  40  59  82 110 148 192 238 284 330
#     4  10  20  37  59  85 114 147 185 228 276 333
#     4  11  23  40  59  82 110 148 192 238 284 330
#     4  10  17  33  59  84 112 148 187 223 267 338
#     4  10  19  31  55  88 118 142 173 225 285 326
#
# _framework density 19.589324000000001
#
# number of rings (size 3 to 8) (size 9 to 14) (size 15 to 20)
#    0.000    2.000    2.500    1.500    0.000    4.000 
#    0.000    8.750    0.000    1.500    0.000    0.000 
#    0.000    0.000    0.000    0.000    0.000    0.000 
#
# Total GULP energy -396799.176697 kJ/mol
# GULP energy per Si atom -12399.974272 kJ/mol
# Density = 1.954474 g / cm^3
# Si number density = 19.589324 Si / 1000 Ang^3
#
#
#
# Elastic Constant Matrix: (Units=GPa)
#
#
# Indices 1 2 3 4 5 6 
#
# 1 126.8891 10.7088 24.6106 0.0000 0.0000 0.0000
# 2 10.7088 30.4433 12.8302 0.0000 0.0000 0.0000
# 3 24.6106 12.8302 84.7572 0.0000 0.0000 0.0000
# 4 0.0000 0.0000 0.0000 28.0124 0.0000 0.0000
# 5 0.0000 0.0000 0.0000 0.0000 17.4438 0.0000
# 6 0.0000 0.0000 0.0000 0.0000 0.0000 26.1146
#
#
#
# Elastic Compliance Matrix: (Units=1/GPa)
#
#
# Indices 1 2 3 4 5 6 
#
# 1 0.008472 -0.002076 -0.002146 0.000000 0.000000 0.000000
# 2 -0.002076 0.035595 -0.004785 0.000000 0.000000 0.000000
# 3 -0.002146 -0.004785 0.013146 0.000000 0.000000 0.000000
# 4 0.000000 0.000000 0.000000 0.035699 0.000000 0.000000
# 5 0.000000 0.000000 0.000000 0.000000 0.057327 0.000000
# 6 0.000000 0.000000 0.000000 0.000000 0.000000 0.038293
#
#
# Mechanical properties :
#
#
# Convention : Reuss Voigt Hill
#
# Bulk Modulus (GPa) = 25.51096 37.59876 31.55486
# Shear Modulus (GPa) = 22.76742 27.24349 25.00545
#
# Velocity S-wave (km/s) = 3.41286 3.73330 3.57667
# Velocity P-wave (km/s) = 5.34615 6.14968 5.76193
#
# Compressibility (1/GPa) = 0.03919884
#
# Stress axis : x y z
#
# Youngs Moduli (GPa) = 118.03201 28.09380 76.06942
#
# Poissons Ratio (x) = 0.05832 0.16323
# Poissons Ratio (y) = 0.24502 0.36403
# Poissons Ratio (z) = 0.25328 0.13444
#
# Static dielectric constant tensor:
#      x y z
#    x 3.731210 0.000000 0.000000 
#    y 0.000000 3.259720 0.000000 
#    z 0.000000 0.000000 3.706340 
# 
# 
# High freq. dielectric constant tensor:
#      x y z
#    x 1.772960 0.000000 0.000000 
#    y 0.000000 1.728130 0.000000 
#    z 0.000000 0.000000 1.768270 
# 
# From -- ./inp_files/29370.got.cif
#   From: 2010.03.12/outbox.cif.g09.slc.cpg/sg20_15_cif.got.tgz:29370.got - 2010.04.14 01:38:04.
