data_PCOD8158536
_publ_section_title
;
Structure prediction by ZEFSAII (Michael W. Deem and Ramdas Pophale) SiO2 
 PCOD8158536
Probable space group: C 2 2 21
;
_chemical_formula_sum "Si O2"
_cell_formula_units_Z 60
_cell_length_a 22.211583
_cell_length_b 11.407592
_cell_length_c 11.090227
_cell_angle_alpha 90.000000
_cell_angle_beta 90.000000
_cell_angle_gamma 90.000000
_cell_volume 2810.049220
_symmetry_space_group_name_H-M "C 2 2 21"
_symmetry_group_IT_number 20
_symmetry_cell_setting 'orthorhombic'
loop_
_space_group_symop_operation_xyz
x,y,z
-x,-y,1/2+z
x,-y,-z
-x,y,1/2-z
1/2+x,1/2+y,z
1/2-x,1/2-y,1/2+z
1/2+x,1/2-y,-z
1/2-x,1/2+y,1/2-z
loop_
_atom_site_type_symbol
_atom_site_label
_atom_site_fract_x
_atom_site_fract_y
_atom_site_fract_z
Si Si1 0.419093 0.372928 0.444582
Si Si2 0.169628 0.379771 0.349161
Si Si3 0.025011 0.709989 0.373348
Si Si4 0.928522 0.500000 0.000000
Si Si5 0.834146 0.234805 0.375343
Si Si6 0.350278 0.292637 0.215663
Si Si7 0.243633 0.585423 0.244836
Si Si8 0.725129 0.326941 0.500955
O O1 0.429243 0.500000 0.500000
O O2 0.483999 0.319984 0.411548
O O3 0.393595 0.295186 0.551999
O O4 0.373287 0.370573 0.329472
O O5 0.115347 0.461560 0.391912
O O6 0.143086 0.297414 0.245599
O O7 0.221324 0.459547 0.288631
O O8 0.199230 0.300416 0.454354
O O9 0.025964 0.605034 0.468837
O O10 0.093248 0.748375 0.359401
O O11 0.000000 0.655810 0.250000
O O12 0.794814 0.120881 0.340326
O O13 0.793927 0.317615 0.459270
O O14 0.308558 0.185078 0.260212
O O15 0.313489 0.369021 0.116271
O O16 0.273417 0.579123 0.110358
#
# Coordination Sequence:
#
# PCOD8158536 Si02
#       8
#     8   8   8   4   8   8   8   8
#     4  11  25  45  67  93 132 183 228 281 336 399
#     4  11  22  38  66 100 135 175 217 275 342 404
#     4  10  23  42  68  96 125 175 232 282 335 396
#     4  12  20  42  72  98 132 174 218 286 354 400
#     4  10  23  36  61  99 133 169 221 269 330 406
#     4  10  19  42  69  93 126 174 230 266 334 393
#     4  10  20  36  67  98 137 175 210 270 336 407
#     4  10  20  38  63  99 137 170 220 268 323 418
#
# _framework density 21.351939000000002
#
# number of rings (size 3 to 8) (size 9 to 14) (size 15 to 20)
#    0.000    1.600    4.000    0.800    1.867    1.600 
#    0.000    5.333    8.800    0.000    0.000    0.000 
#    0.000    0.000    0.000    0.000    0.000    0.000 
#
# Total GULP energy -371885.035986 kJ/mol
# GULP energy per Si atom -12396.167866 kJ/mol
# Density = 2.130334 g / cm^3
# Si number density = 21.351939 Si / 1000 Ang^3
#
#
#
# Elastic Constant Matrix: (Units=GPa)
#
#
# Indices 1 2 3 4 5 6 
#
# 1 77.0887 22.1466 33.6494 0.0000 0.0000 0.0000
# 2 22.1466 86.6227 42.7846 0.0000 0.0000 0.0000
# 3 33.6494 42.7846 124.8663 0.0000 0.0000 0.0000
# 4 0.0000 0.0000 0.0000 22.1055 0.0000 0.0000
# 5 0.0000 0.0000 0.0000 0.0000 20.1571 0.0000
# 6 0.0000 0.0000 0.0000 0.0000 0.0000 22.6353
#
#
#
# Elastic Compliance Matrix: (Units=1/GPa)
#
#
# Indices 1 2 3 4 5 6 
#
# 1 0.015048 -0.002220 -0.003294 0.000000 0.000000 0.000000
# 2 -0.002220 0.014224 -0.004275 0.000000 0.000000 0.000000
# 3 -0.003294 -0.004275 0.010361 0.000000 0.000000 0.000000
# 4 0.000000 0.000000 0.000000 0.045238 0.000000 0.000000
# 5 0.000000 0.000000 0.000000 0.000000 0.049610 0.000000
# 6 0.000000 0.000000 0.000000 0.000000 0.000000 0.044179
#
#
# Mechanical properties :
#
#
# Convention : Reuss Voigt Hill
#
# Bulk Modulus (GPa) = 49.86777 53.97098 51.91937
# Shear Modulus (GPa) = 24.39933 25.64604 25.02269
#
# Velocity S-wave (km/s) = 3.38408 3.46946 3.42704
# Velocity P-wave (km/s) = 6.21894 6.43283 6.32679
#
# Compressibility (1/GPa) = 0.02005303
#
# Stress axis : x y z
#
# Youngs Moduli (GPa) = 66.45437 70.30571 96.51303
#
# Poissons Ratio (x) = 0.15608 0.31796
# Poissons Ratio (y) = 0.14753 0.41263
# Poissons Ratio (z) = 0.21893 0.30058
#
# Static dielectric constant tensor:
#      x y z
#    x 3.787550 0.000000 0.000000 
#    y 0.000000 3.676720 0.000000 
#    z 0.000000 0.000000 4.171960 
# 
# 
# High freq. dielectric constant tensor:
#      x y z
#    x 1.823140 0.000000 0.000000 
#    y 0.000000 1.825300 0.000000 
#    z 0.000000 0.000000 1.858140 
# 
# From -- ./inp_files/16379.got.cif
#   From: 2010.03.12/outbox.cif.g09.slc.cpg/sg20_9_cif.got.tgz:16379.got - 2010.04.14 01:38:04.
