data_PCOD8158100
_publ_section_title
;
Structure prediction by ZEFSAII (Michael W. Deem and Ramdas Pophale) SiO2 
 PCOD8158100
Probable space group: C 2 2 21
;
_chemical_formula_sum "Si O2"
_cell_formula_units_Z 64
_cell_length_a 9.068737
_cell_length_b 16.306589
_cell_length_c 24.085844
_cell_angle_alpha 90.000000
_cell_angle_beta 90.000000
_cell_angle_gamma 90.000000
_cell_volume 3561.818633
_symmetry_space_group_name_H-M "C 2 2 21"
_symmetry_group_IT_number 20
_symmetry_cell_setting 'orthorhombic'
loop_
_space_group_symop_operation_xyz
x,y,z
-x,-y,1/2+z
x,-y,-z
-x,y,1/2-z
1/2+x,1/2+y,z
1/2-x,1/2-y,1/2+z
1/2+x,1/2-y,-z
1/2-x,1/2+y,1/2-z
loop_
_atom_site_type_symbol
_atom_site_label
_atom_site_fract_x
_atom_site_fract_y
_atom_site_fract_z
Si Si1 0.472323 0.815005 0.104189
Si Si2 0.251695 0.180252 0.400803
Si Si3 0.112663 0.469146 0.341342
Si Si4 0.269230 0.948913 0.947958
Si Si5 0.941639 0.854994 0.626388
Si Si6 0.934428 0.403507 0.505733
Si Si7 0.155113 0.957442 0.770743
Si Si8 0.402038 0.887862 0.699395
O O1 0.312156 0.772747 0.089211
O O2 0.580844 0.743568 0.126241
O O3 0.553215 0.860786 0.053861
O O4 0.452717 0.877895 0.155477
O O5 0.314140 0.144820 0.458197
O O6 0.374379 0.176360 0.351061
O O7 0.114337 0.122664 0.381541
O O8 0.178785 0.486536 0.401819
O O9 0.244509 0.470343 0.296254
O O10 0.986756 0.533297 0.324677
O O11 0.141214 0.890474 0.926991
O O12 0.408243 0.893478 0.964711
O O13 0.207782 0.000000 0.000000
O O14 0.873650 0.888514 0.682904
O O15 0.892684 0.500000 0.500000
O O16 0.241351 0.914051 0.720934
O O17 0.000000 0.994715 0.750000
O O18 0.500000 0.849409 0.750000
#
# Coordination Sequence:
#
# PCOD8158100 Si02
#       8
#     8   8   8   8   8   8   8   8
#     4  10  21  36  54  83 115 148 176 232 277 329
#     4  10  21  36  56  83 116 141 187 231 276 334
#     4  10  19  35  58  80 108 144 193 217 270 331
#     4  10  18  33  56  82 108 152 186 223 265 331
#     4   9  22  33  56  83 115 144 182 229 287 327
#     4  11  20  35  60  79 114 152 189 221 267 339
#     4  10  18  36  59  81 106 142 185 234 277 327
#     4  10  19  35  60  84 101 147 190 228 271 339
#
# _framework density 17.968350000000001
#
# number of rings (size 3 to 8) (size 9 to 14) (size 15 to 20)
#    0.750    1.250    5.000    0.000    1.750    0.500 
#    0.000    6.250    2.750    0.000    0.000    0.000 
#    0.000    0.000    0.000    0.000    0.000    0.000 
#
# Total GULP energy -396523.494023 kJ/mol
# GULP energy per Si atom -12391.359188 kJ/mol
# Density = 1.792745 g / cm^3
# Si number density = 17.968350 Si / 1000 Ang^3
#
#
#
# Elastic Constant Matrix: (Units=GPa)
#
#
# Indices 1 2 3 4 5 6 
#
# 1 65.7202 20.7854 24.1342 0.0000 0.0000 0.0000
# 2 20.7854 89.5165 37.3836 0.0000 0.0000 0.0000
# 3 24.1342 37.3836 87.4264 0.0000 0.0000 0.0000
# 4 0.0000 0.0000 0.0000 20.1479 0.0000 0.0000
# 5 0.0000 0.0000 0.0000 0.0000 29.9205 0.0000
# 6 0.0000 0.0000 0.0000 0.0000 0.0000 26.1147
#
#
#
# Elastic Compliance Matrix: (Units=1/GPa)
#
#
# Indices 1 2 3 4 5 6 
#
# 1 0.017371 -0.002472 -0.003738 0.000000 0.000000 0.000000
# 2 -0.002472 0.013952 -0.005283 0.000000 0.000000 0.000000
# 3 -0.003738 -0.005283 0.014729 0.000000 0.000000 0.000000
# 4 0.000000 0.000000 0.000000 0.049633 0.000000 0.000000
# 5 0.000000 0.000000 0.000000 0.000000 0.033422 0.000000
# 6 0.000000 0.000000 0.000000 0.000000 0.000000 0.038293
#
#
# Mechanical properties :
#
#
# Convention : Reuss Voigt Hill
#
# Bulk Modulus (GPa) = 43.35714 45.25217 44.30466
# Shear Modulus (GPa) = 25.24309 25.92729 25.58519
#
# Velocity S-wave (km/s) = 3.75222 3.80273 3.77756
# Velocity P-wave (km/s) = 6.55395 6.67233 6.61341
#
# Compressibility (1/GPa) = 0.02306425
#
# Stress axis : x y z
#
# Youngs Moduli (GPa) = 57.56841 71.67664 67.89244
#
# Poissons Ratio (x) = 0.17721 0.25378
# Poissons Ratio (y) = 0.14233 0.35869
# Poissons Ratio (z) = 0.21519 0.37868
#
# Static dielectric constant tensor:
#      x y z
#    x 3.345030 0.000000 0.000000 
#    y 0.000000 3.051410 0.000000 
#    z 0.000000 0.000000 3.451750 
# 
# 
# High freq. dielectric constant tensor:
#      x y z
#    x 1.692010 0.000000 0.000000 
#    y 0.000000 1.664060 0.000000 
#    z 0.000000 0.000000 1.708400 
# 
# From -- ./inp_files/28954.got.cif
#   From: 2010.03.12/outbox.cif.g09.slc.cpg/sg20_15_cif.got.tgz:28954.got - 2010.04.14 01:38:04.
