data_PCOD8158516
_publ_section_title
;
Structure prediction by ZEFSAII (Michael W. Deem and Ramdas Pophale) SiO2 
 PCOD8158516
Probable space group: C 2 2 21
;
_chemical_formula_sum "Si O2"
_cell_formula_units_Z 48
_cell_length_a 10.785811
_cell_length_b 16.971800
_cell_length_c 12.812924
_cell_angle_alpha 90.000000
_cell_angle_beta 90.000000
_cell_angle_gamma 90.000000
_cell_volume 2345.465025
_symmetry_space_group_name_H-M "C 2 2 21"
_symmetry_group_IT_number 20
_symmetry_cell_setting 'orthorhombic'
loop_
_space_group_symop_operation_xyz
x,y,z
-x,-y,1/2+z
x,-y,-z
-x,y,1/2-z
1/2+x,1/2+y,z
1/2-x,1/2-y,1/2+z
1/2+x,1/2-y,-z
1/2-x,1/2+y,1/2-z
loop_
_atom_site_type_symbol
_atom_site_label
_atom_site_fract_x
_atom_site_fract_y
_atom_site_fract_z
Si Si1 0.172015 0.335303 0.064453
Si Si2 0.554991 0.908939 0.524986
Si Si3 0.316070 0.464814 0.181146
Si Si4 0.418507 0.513084 0.384694
Si Si5 0.225764 0.163807 0.133689
Si Si6 0.336971 0.117148 0.342521
O O1 0.267650 0.382115 0.137893
O O2 0.166365 0.246786 0.105423
O O3 0.222080 0.339954 0.945059
O O4 0.031335 0.371150 0.066865
O O5 0.685971 0.864927 0.538620
O O6 0.484293 0.895121 0.636471
O O7 0.579344 0.000000 0.500000
O O8 0.347468 0.454906 0.304175
O O9 0.436120 0.495657 0.118959
O O10 0.210105 0.528291 0.165362
O O11 0.366230 0.500000 0.500000
O O12 0.388232 0.602952 0.350963
O O13 0.303594 0.168952 0.241528
#
# Coordination Sequence:
#
# PCOD8158516 Si02
#       6
#     8   8   8   8   8   8
#     4  10  21  37  60  89 117 161 203 252 298 371
#     4  10  20  40  65  85 118 167 204 245 307 388
#     4  10  19  40  65  87 111 168 213 233 297 388
#     4  10  22  36  60  90 125 153 196 258 303 356
#     4  11  23  37  59  94 126 148 203 267 316 342
#     4   9  19  39  64  83 120 167 205 245 307 380
#
# _framework density 20.465024
#
# number of rings (size 3 to 8) (size 9 to 14) (size 15 to 20)
#    1.000    1.000    1.667    2.500    0.000    4.000 
#    6.000    0.000    0.000    0.000    0.000    0.000 
#    0.000    0.000    0.000    0.000    0.000    0.000 
#
# Total GULP energy -297403.277996 kJ/mol
# GULP energy per Si atom -12391.803250 kJ/mol
# Density = 2.041844 g / cm^3
# Si number density = 20.465024 Si / 1000 Ang^3
#
#
#
# Elastic Constant Matrix: (Units=GPa)
#
#
# Indices 1 2 3 4 5 6 
#
# 1 62.3680 32.3748 6.8318 0.0000 0.0000 0.0000
# 2 32.3748 115.9598 31.6784 0.0000 0.0000 0.0000
# 3 6.8318 31.6784 108.4102 0.0000 0.0000 0.0000
# 4 0.0000 0.0000 0.0000 29.5028 0.0000 0.0000
# 5 0.0000 0.0000 0.0000 0.0000 19.7152 0.0000
# 6 0.0000 0.0000 0.0000 0.0000 0.0000 16.8332
#
#
#
# Elastic Compliance Matrix: (Units=1/GPa)
#
#
# Indices 1 2 3 4 5 6 
#
# 1 0.018766 -0.005343 0.000379 0.000000 0.000000 0.000000
# 2 -0.005343 0.010893 -0.002846 0.000000 0.000000 0.000000
# 3 0.000379 -0.002846 0.010032 0.000000 0.000000 0.000000
# 4 0.000000 0.000000 0.000000 0.033895 0.000000 0.000000
# 5 0.000000 0.000000 0.000000 0.000000 0.050722 0.000000
# 6 0.000000 0.000000 0.000000 0.000000 0.000000 0.059407
#
#
# Mechanical properties :
#
#
# Convention : Reuss Voigt Hill
#
# Bulk Modulus (GPa) = 41.54559 47.61201 44.57880
# Shear Modulus (GPa) = 24.11282 27.60043 25.85663
#
# Velocity S-wave (km/s) = 3.43628 3.67640 3.55837
# Velocity P-wave (km/s) = 6.00740 6.42937 6.22196
#
# Compressibility (1/GPa) = 0.02406994
#
# Stress axis : x y z
#
# Youngs Moduli (GPa) = 53.28874 91.80343 99.68024
#
# Poissons Ratio (x) = 0.49047 -0.03774
# Poissons Ratio (y) = 0.28470 0.28372
# Poissons Ratio (z) = -0.02017 0.26130
#
# Static dielectric constant tensor:
#      x y z
#    x 3.584640 0.000000 0.000000 
#    y 0.000000 3.320320 0.000000 
#    z 0.000000 0.000000 3.828560 
# 
# 
# High freq. dielectric constant tensor:
#      x y z
#    x 1.797680 0.000000 0.000000 
#    y 0.000000 1.774820 0.000000 
#    z 0.000000 0.000000 1.801230 
# 
# From -- ./inp_files/19959.got.cif
#   From: 2010.03.12/outbox.cif.g09.slc.cpg/sg20_10_cif.got.tgz:19959.got - 2010.04.14 01:38:04.
