data_PCOD8158950
_publ_section_title
;
Structure prediction by ZEFSAII (Michael W. Deem and Ramdas Pophale) SiO2 
 PCOD8158950
Probable space group: C 2 2 21
;
_chemical_formula_sum "Si O2"
_cell_formula_units_Z 48
_cell_length_a 9.019208
_cell_length_b 18.329447
_cell_length_c 13.175418
_cell_angle_alpha 90.000000
_cell_angle_beta 90.000000
_cell_angle_gamma 90.000000
_cell_volume 2178.121829
_symmetry_space_group_name_H-M "C 2 2 21"
_symmetry_group_IT_number 20
_symmetry_cell_setting 'orthorhombic'
loop_
_space_group_symop_operation_xyz
x,y,z
-x,-y,1/2+z
x,-y,-z
-x,y,1/2-z
1/2+x,1/2+y,z
1/2-x,1/2-y,1/2+z
1/2+x,1/2-y,-z
1/2-x,1/2+y,1/2-z
loop_
_atom_site_type_symbol
_atom_site_label
_atom_site_fract_x
_atom_site_fract_y
_atom_site_fract_z
Si Si1 0.161415 0.584654 0.469076
Si Si2 0.500000 0.667992 0.750000
Si Si3 0.000000 0.673886 0.750000
Si Si4 0.249902 0.210095 0.892989
Si Si5 0.173369 0.563275 0.245277
Si Si6 0.743148 0.582113 0.646774
Si Si7 0.336346 0.141409 0.449931
O O1 0.137347 0.500000 0.500000
O O2 0.259224 0.631000 0.549483
O O3 0.234895 0.583905 0.356834
O O4 0.010965 0.630773 0.464808
O O5 0.614321 0.716789 0.813772
O O6 0.588090 0.618515 0.671367
O O7 0.093938 0.720446 0.667438
O O8 0.115000 0.624584 0.810736
O O9 0.222361 0.276218 0.972745
O O10 0.262151 0.496728 0.196546
O O11 0.203877 0.629180 0.168112
O O12 0.000000 0.542342 0.250000
O O13 0.755989 0.583589 0.524368
#
# Coordination Sequence:
#
# PCOD8158950 Si02
#       7
#     8   4   4   8   8   8   8
#     4  11  22  43  73  99 130 185 240 275 329 415
#     4  10  26  38  66  92 146 172 222 276 354 394
#     4  10  20  40  66  88 128 176 234 264 338 404
#     4  11  25  42  67 104 136 184 222 286 342 410
#     4  10  21  39  69  99 130 170 239 284 324 403
#     4  11  20  42  65  96 127 179 226 281 335 403
#     4  11  24  37  69  99 137 171 228 288 332 398
#
# _framework density 22.037336
#
# number of rings (size 3 to 8) (size 9 to 14) (size 15 to 20)
#    0.000    1.333    2.500    4.500    5.833    1.333 
#    0.000    5.833    0.000    0.000    0.000    0.000 
#    0.000    0.000    0.000    0.000    0.000    0.000 
#
# Total GULP energy -297454.846345 kJ/mol
# GULP energy per Si atom -12393.951931 kJ/mol
# Density = 2.198718 g / cm^3
# Si number density = 22.037336 Si / 1000 Ang^3
#
#
#
# Elastic Constant Matrix: (Units=GPa)
#
#
# Indices 1 2 3 4 5 6 
#
# 1 79.3642 28.0144 27.0851 0.0000 0.0000 0.0000
# 2 28.0144 117.6220 34.7847 0.0000 0.0000 0.0000
# 3 27.0851 34.7847 143.9369 0.0000 0.0000 0.0000
# 4 0.0000 0.0000 0.0000 25.9097 0.0000 0.0000
# 5 0.0000 0.0000 0.0000 0.0000 24.1577 0.0000
# 6 0.0000 0.0000 0.0000 0.0000 0.0000 7.2301
#
#
#
# Elastic Compliance Matrix: (Units=1/GPa)
#
#
# Indices 1 2 3 4 5 6 
#
# 1 0.014276 -0.002806 -0.002008 0.000000 0.000000 0.000000
# 2 -0.002806 0.009708 -0.001818 0.000000 0.000000 0.000000
# 3 -0.002008 -0.001818 0.007765 0.000000 0.000000 0.000000
# 4 0.000000 0.000000 0.000000 0.038596 0.000000 0.000000
# 5 0.000000 0.000000 0.000000 0.000000 0.041395 0.000000
# 6 0.000000 0.000000 0.000000 0.000000 0.000000 0.138311
#
#
# Mechanical properties :
#
#
# Convention : Reuss Voigt Hill
#
# Bulk Modulus (GPa) = 54.10177 57.85462 55.97819
# Shear Modulus (GPa) = 18.55453 28.19542 23.37498
#
# Velocity S-wave (km/s) = 2.90480 3.58080 3.26037
# Velocity P-wave (km/s) = 5.98781 6.58834 6.29524
#
# Compressibility (1/GPa) = 0.01848368
#
# Stress axis : x y z
#
# Youngs Moduli (GPa) = 70.04731 103.00960 128.78755
#
# Poissons Ratio (x) = 0.28907 0.25863
# Poissons Ratio (y) = 0.19657 0.23413
# Poissons Ratio (z) = 0.14067 0.18727
#
# Static dielectric constant tensor:
#      x y z
#    x 3.801490 0.000000 0.000000 
#    y 0.000000 3.788090 0.000000 
#    z 0.000000 0.000000 4.473870 
# 
# 
# High freq. dielectric constant tensor:
#      x y z
#    x 1.838690 0.000000 0.000000 
#    y 0.000000 1.856040 0.000000 
#    z 0.000000 0.000000 1.886300 
# 
# From -- ./inp_files/19080.got.cif
#   From: 2010.03.12/outbox.cif.g09.slc.cpg/sg20_10_cif.got.tgz:19080.got - 2010.04.14 01:38:04.
