data_PCOD8158209
_publ_section_title
;
Structure prediction by ZEFSAII (Michael W. Deem and Ramdas Pophale) SiO2 
 PCOD8158209
Probable space group: C 2 2 21
;
_chemical_formula_sum "Si O2"
_cell_formula_units_Z 64
_cell_length_a 8.080577
_cell_length_b 29.284362
_cell_length_c 11.578696
_cell_angle_alpha 90.000000
_cell_angle_beta 90.000000
_cell_angle_gamma 90.000000
_cell_volume 2739.919425
_symmetry_space_group_name_H-M "C 2 2 21"
_symmetry_group_IT_number 20
_symmetry_cell_setting 'orthorhombic'
loop_
_space_group_symop_operation_xyz
x,y,z
-x,-y,1/2+z
x,-y,-z
-x,y,1/2-z
1/2+x,1/2+y,z
1/2-x,1/2-y,1/2+z
1/2+x,1/2-y,-z
1/2-x,1/2+y,1/2-z
loop_
_atom_site_type_symbol
_atom_site_label
_atom_site_fract_x
_atom_site_fract_y
_atom_site_fract_z
Si Si1 0.160501 0.389819 0.882844
Si Si2 0.186100 0.574472 0.711257
Si Si3 0.692532 0.809936 0.033434
Si Si4 0.824923 0.282902 0.000807
Si Si5 0.170197 0.840613 0.818455
Si Si6 0.313580 0.328633 0.271914
Si Si7 0.304548 0.022729 0.260070
Si Si8 0.793539 0.418429 0.945480
O O1 0.189686 0.358927 0.769468
O O2 0.243594 0.440524 0.861179
O O3 0.967823 0.396740 0.905509
O O4 0.241765 0.361019 0.988843
O O5 0.305209 0.616608 0.735722
O O6 0.256733 0.529517 0.779714
O O7 0.191424 0.563834 0.574970
O O8 0.000000 0.587064 0.750000
O O9 0.512445 0.797914 0.986304
O O10 0.697586 0.808391 0.171561
O O11 0.816026 0.771779 0.979965
O O12 0.746747 0.310318 0.106505
O O13 0.727401 0.293880 0.881014
O O14 0.158048 0.878180 0.922963
O O15 0.000000 0.833271 0.750000
O O16 0.500000 0.312556 0.250000
O O17 0.500000 0.019143 0.250000
O O18 0.237857 0.039819 0.136291
#
# Coordination Sequence:
#
# PCOD8158209 Si02
#       8
#     8   8   8   8   8   8   8   8
#     4  10  21  41  67 100 136 182 236 291 355 424
#     4  11  20  38  66  99 139 185 229 294 364 422
#     4  12  27  45  75 101 144 186 235 309 359 437
#     4  12  27  48  68 105 138 186 244 294 372 433
#     4  11  24  39  67  96 138 180 236 289 354 426
#     4  12  27  47  68  99 141 189 239 290 365 435
#     4   8  18  33  63 101 133 176 234 288 348 429
#     4  10  18  39  63  98 135 178 236 289 352 432
#
# _framework density 23.358350999999999
#
# number of rings (size 3 to 8) (size 9 to 14) (size 15 to 20)
#    0.000    1.250    2.500    4.125    5.250    0.000 
#    0.000    4.375    0.000    1.500    0.000    0.000 
#    0.000    0.000    0.000    0.000    0.000    0.000 
#
# Total GULP energy -396529.435953 kJ/mol
# GULP energy per Si atom -12391.544874 kJ/mol
# Density = 2.330519 g / cm^3
# Si number density = 23.358351 Si / 1000 Ang^3
#
#
#
# Elastic Constant Matrix: (Units=GPa)
#
#
# Indices 1 2 3 4 5 6 
#
# 1 48.4305 20.6154 30.9363 0.0000 0.0000 0.0000
# 2 20.6154 133.4761 38.2795 0.0000 0.0000 0.0000
# 3 30.9363 38.2795 102.9889 0.0000 0.0000 0.0000
# 4 0.0000 0.0000 0.0000 20.6622 0.0000 0.0000
# 5 0.0000 0.0000 0.0000 0.0000 29.3536 0.0000
# 6 0.0000 0.0000 0.0000 0.0000 0.0000 22.4506
#
#
#
# Elastic Compliance Matrix: (Units=1/GPa)
#
#
# Indices 1 2 3 4 5 6 
#
# 1 0.026014 -0.001989 -0.007075 0.000000 0.000000 0.000000
# 2 -0.001989 0.008538 -0.002576 0.000000 0.000000 0.000000
# 3 -0.007075 -0.002576 0.012792 0.000000 0.000000 0.000000
# 4 0.000000 0.000000 0.000000 0.048398 0.000000 0.000000
# 5 0.000000 0.000000 0.000000 0.000000 0.034067 0.000000
# 6 0.000000 0.000000 0.000000 0.000000 0.000000 0.044542
#
#
# Mechanical properties :
#
#
# Convention : Reuss Voigt Hill
#
# Bulk Modulus (GPa) = 41.55453 51.61754 46.58604
# Shear Modulus (GPa) = 24.31279 27.49755 25.90517
#
# Velocity S-wave (km/s) = 3.22974 3.43476 3.33383
# Velocity P-wave (km/s) = 5.63355 6.15437 5.89971
#
# Compressibility (1/GPa) = 0.02406477
#
# Stress axis : x y z
#
# Youngs Moduli (GPa) = 38.44071 117.12440 78.17093
#
# Poissons Ratio (x) = 0.23294 0.55306
# Poissons Ratio (y) = 0.07645 0.20137
# Poissons Ratio (z) = 0.27197 0.30171
#
# Static dielectric constant tensor:
#      x y z
#    x 3.900320 0.000000 0.000000 
#    y 0.000000 4.719250 0.000000 
#    z 0.000000 0.000000 4.412910 
# 
# 
# High freq. dielectric constant tensor:
#      x y z
#    x 1.884710 0.000000 0.000000 
#    y 0.000000 1.937440 0.000000 
#    z 0.000000 0.000000 1.923890 
# 
# From -- ./inp_files/13383.got.cif
#   From: 2010.03.12/outbox.cif.g09.slc.cpg/sg20_7_cif.got.tgz:13383.got - 2010.04.14 01:38:04.
