data_PCOD8158362
_publ_section_title
;
Structure prediction by ZEFSAII (Michael W. Deem and Ramdas Pophale) SiO2 
 PCOD8158362
Probable space group: C 2 2 21
;
_chemical_formula_sum "Si O2"
_cell_formula_units_Z 64
_cell_length_a 8.626798
_cell_length_b 10.918935
_cell_length_c 30.977684
_cell_angle_alpha 90.000000
_cell_angle_beta 90.000000
_cell_angle_gamma 90.000000
_cell_volume 2917.956780
_symmetry_space_group_name_H-M "C 2 2 21"
_symmetry_group_IT_number 20
_symmetry_cell_setting 'orthorhombic'
loop_
_space_group_symop_operation_xyz
x,y,z
-x,-y,1/2+z
x,-y,-z
-x,y,1/2-z
1/2+x,1/2+y,z
1/2-x,1/2-y,1/2+z
1/2+x,1/2-y,-z
1/2-x,1/2+y,1/2-z
loop_
_atom_site_type_symbol
_atom_site_label
_atom_site_fract_x
_atom_site_fract_y
_atom_site_fract_z
Si Si1 0.202537 0.653576 0.367255
Si Si2 0.692588 0.151104 0.547765
Si Si3 0.808779 0.113094 0.912891
Si Si4 0.128728 0.906947 0.128515
Si Si5 0.165898 0.875941 0.227627
Si Si6 0.967460 0.437454 0.569582
Si Si7 0.328193 0.132931 0.232698
Si Si8 0.493648 0.711101 0.512019
O O1 0.279121 0.771423 0.390924
O O2 0.317888 0.545055 0.377467
O O3 0.032616 0.630229 0.387883
O O4 0.173559 0.670978 0.317015
O O5 0.778777 0.178718 0.593691
O O6 0.572333 0.260726 0.534519
O O7 0.830447 0.136022 0.511124
O O8 0.596069 0.027805 0.550456
O O9 0.876140 0.141798 0.960167
O O10 0.946599 0.085446 0.879652
O O11 0.691600 0.001502 0.916891
O O12 0.160431 0.859396 0.176298
O O13 0.252414 0.750858 0.243690
O O14 0.000000 0.876402 0.250000
O O15 0.244700 0.003487 0.241547
O O16 0.938225 0.340187 0.532197
O O17 0.500000 0.113842 0.250000
#
# Coordination Sequence:
#
# PCOD8158362 Si02
#       8
#     8   8   8   8   8   8   8   8
#     4   9  20  37  55  82 117 151 192 241 293 352
#     4  10  20  38  58  80 114 150 188 238 291 349
#     4  10  19  35  59  85 114 152 193 238 296 354
#     4   9  20  38  58  85 120 156 198 249 302 361
#     4  10  21  39  61  88 124 163 207 259 312 369
#     4  10  21  36  57  82 111 147 190 240 289 348
#     4  10  21  37  59  86 119 160 202 248 303 363
#     4  10  21  36  56  82 112 147 191 237 288 350
#
# _framework density 21.933154999999999
#
# number of rings (size 3 to 8) (size 9 to 14) (size 15 to 20)
#    0.000    2.250    0.000    2.625    0.000    3.500 
#    0.000   11.250    0.000    0.000    0.000    0.000 
#    0.000    0.000    0.000    0.000    0.000    0.000 
#
# Total GULP energy -396571.088883 kJ/mol
# GULP energy per Si atom -12392.846528 kJ/mol
# Density = 2.188323 g / cm^3
# Si number density = 21.933155 Si / 1000 Ang^3
#
#
#
# Elastic Constant Matrix: (Units=GPa)
#
#
# Indices 1 2 3 4 5 6 
#
# 1 77.4456 41.6846 31.3070 0.0000 0.0000 0.0000
# 2 41.6846 102.9200 37.4635 0.0000 0.0000 0.0000
# 3 31.3070 37.4635 60.0908 0.0000 0.0000 0.0000
# 4 0.0000 0.0000 0.0000 120.1129 0.0000 0.0000
# 5 0.0000 0.0000 0.0000 0.0000 25.7593 0.0000
# 6 0.0000 0.0000 0.0000 0.0000 0.0000 67.0145
#
#
#
# Elastic Compliance Matrix: (Units=1/GPa)
#
#
# Indices 1 2 3 4 5 6 
#
# 1 0.018195 -0.005069 -0.006319 0.000000 0.000000 0.000000
# 2 -0.005069 0.013981 -0.006075 0.000000 0.000000 0.000000
# 3 -0.006319 -0.006075 0.023721 0.000000 0.000000 0.000000
# 4 0.000000 0.000000 0.000000 0.008326 0.000000 0.000000
# 5 0.000000 0.000000 0.000000 0.000000 0.038821 0.000000
# 6 0.000000 0.000000 0.000000 0.000000 0.000000 0.014922
#
#
# Mechanical properties :
#
#
# Convention : Reuss Voigt Hill
#
# Bulk Modulus (GPa) = 47.68713 51.26295 49.47504
# Shear Modulus (GPa) = 31.27273 51.24408 41.25840
#
# Velocity S-wave (km/s) = 3.78010 4.83885 4.34187
# Velocity P-wave (km/s) = 6.39073 7.39205 6.90955
#
# Compressibility (1/GPa) = 0.02097002
#
# Stress axis : x y z
#
# Youngs Moduli (GPa) = 54.95926 71.52644 42.15602
#
# Poissons Ratio (x) = 0.36258 0.26640
# Poissons Ratio (y) = 0.27860 0.25611
# Poissons Ratio (z) = 0.34730 0.43454
#
# Static dielectric constant tensor:
#      x y z
#    x 3.913060 0.000000 0.000000 
#    y 0.000000 4.322280 0.000000 
#    z 0.000000 0.000000 0.784020 
# 
# 
# High freq. dielectric constant tensor:
#      x y z
#    x 1.854290 0.000000 0.000000 
#    y 0.000000 1.871800 0.000000 
#    z 0.000000 0.000000 1.860230 
# 
# From -- ./inp_files/31091.got.cif
#   From: 2010.03.12/outbox.cif.g09.slc.cpg/sg20_16_cif.got.tgz:31091.got - 2010.04.14 01:38:04.
