data_PCOD8158624
_publ_section_title
;
Structure prediction by ZEFSAII (Michael W. Deem and Ramdas Pophale) SiO2 
 PCOD8158624
Probable space group: C 2 2 21
;
_chemical_formula_sum "Si O2"
_cell_formula_units_Z 64
_cell_length_a 23.675782
_cell_length_b 9.259149
_cell_length_c 14.271547
_cell_angle_alpha 90.000000
_cell_angle_beta 90.000000
_cell_angle_gamma 90.000000
_cell_volume 3128.574185
_symmetry_space_group_name_H-M "C 2 2 21"
_symmetry_group_IT_number 20
_symmetry_cell_setting 'orthorhombic'
loop_
_space_group_symop_operation_xyz
x,y,z
-x,-y,1/2+z
x,-y,-z
-x,y,1/2-z
1/2+x,1/2+y,z
1/2-x,1/2-y,1/2+z
1/2+x,1/2-y,-z
1/2-x,1/2+y,1/2-z
loop_
_atom_site_type_symbol
_atom_site_label
_atom_site_fract_x
_atom_site_fract_y
_atom_site_fract_z
Si Si1 0.441252 0.978140 0.609973
Si Si2 0.064317 0.729822 0.750865
Si Si3 0.565517 0.014733 0.391008
Si Si4 0.231988 0.479155 0.781494
Si Si5 0.841379 0.733114 0.374439
Si Si6 0.213156 0.726037 0.923675
Si Si7 0.684296 0.088220 0.404798
Si Si8 0.154475 0.045069 0.200247
O O1 0.423510 0.128471 0.659018
O O2 0.504315 0.930881 0.646400
O O3 0.438018 0.000000 0.500000
O O4 0.398754 0.854577 0.641327
O O5 0.079424 0.640060 0.656898
O O6 0.100184 0.877173 0.755563
O O7 0.000000 0.782303 0.750000
O O8 0.556588 0.000000 0.500000
O O9 0.619087 0.121829 0.372708
O O10 0.206306 0.319340 0.800579
O O11 0.205455 0.585339 0.858737
O O12 0.213049 0.514559 0.674643
O O13 0.300009 0.476245 0.784186
O O14 0.813401 0.700679 0.475114
O O15 0.859429 0.895740 0.351837
O O16 0.280014 0.766200 0.924559
O O17 0.179966 0.858741 0.881367
O O18 0.682209 0.000000 0.500000
#
# Coordination Sequence:
#
# PCOD8158624 Si02
#       8
#     8   8   8   8   8   8   8   8
#     4  10  20  36  60  87 114 149 198 246 292 347
#     4  10  21  39  61  86 118 157 198 245 301 357
#     4   9  19  35  58  86 112 148 194 240 287 352
#     4  11  23  38  56  82 115 152 194 242 293 353
#     4  12  23  37  58  87 117 152 195 246 299 355
#     4  11  22  37  58  85 118 155 194 243 298 356
#     4  10  20  35  56  83 114 148 190 236 290 351
#     4  11  22  37  57  84 119 155 194 242 300 357
#
# _framework density 20.456602
#
# number of rings (size 3 to 8) (size 9 to 14) (size 15 to 20)
#    0.000    1.500    0.000    7.500    0.000    3.000 
#    0.000    4.375    0.000    0.000    0.000   15.750 
#    0.000    0.000    0.000    0.000    0.000    0.000 
#
# Total GULP energy -396592.322555 kJ/mol
# GULP energy per Si atom -12393.510080 kJ/mol
# Density = 2.041004 g / cm^3
# Si number density = 20.456602 Si / 1000 Ang^3
#
#
#
# Elastic Constant Matrix: (Units=GPa)
#
#
# Indices 1 2 3 4 5 6 
#
# 1 146.1512 59.4236 30.7639 0.0000 0.0000 0.0000
# 2 59.4236 106.6128 42.0684 0.0000 0.0000 0.0000
# 3 30.7639 42.0684 111.6213 0.0000 0.0000 0.0000
# 4 0.0000 0.0000 0.0000 28.5219 0.0000 0.0000
# 5 0.0000 0.0000 0.0000 0.0000 24.1961 0.0000
# 6 0.0000 0.0000 0.0000 0.0000 0.0000 25.9101
#
#
#
# Elastic Compliance Matrix: (Units=1/GPa)
#
#
# Indices 1 2 3 4 5 6 
#
# 1 0.008892 -0.004686 -0.000685 0.000000 0.000000 0.000000
# 2 -0.004686 0.013488 -0.003792 0.000000 0.000000 0.000000
# 3 -0.000685 -0.003792 0.010577 0.000000 0.000000 0.000000
# 4 0.000000 0.000000 0.000000 0.035061 0.000000 0.000000
# 5 0.000000 0.000000 0.000000 0.000000 0.041329 0.000000
# 6 0.000000 0.000000 0.000000 0.000000 0.000000 0.038595
#
#
# Mechanical properties :
#
#
# Convention : Reuss Voigt Hill
#
# Bulk Modulus (GPa) = 68.34626 69.87748 69.11187
# Shear Modulus (GPa) = 29.21546 31.20092 30.20819
#
# Velocity S-wave (km/s) = 3.78321 3.90965 3.84695
# Velocity P-wave (km/s) = 7.25027 7.39010 7.32052
#
# Compressibility (1/GPa) = 0.01463138
#
# Stress axis : x y z
#
# Youngs Moduli (GPa) = 112.46656 74.14142 94.54796
#
# Poissons Ratio (x) = 0.34741 0.06473
# Poissons Ratio (y) = 0.52700 0.35851
# Poissons Ratio (z) = 0.07699 0.28114
#
# Static dielectric constant tensor:
#      x y z
#    x 4.411470 0.000000 0.000000 
#    y 0.000000 3.474010 0.000000 
#    z 0.000000 0.000000 3.997880 
# 
# 
# High freq. dielectric constant tensor:
#      x y z
#    x 1.818630 0.000000 0.000000 
#    y 0.000000 1.764960 0.000000 
#    z 0.000000 0.000000 1.811700 
# 
# From -- ./inp_files/19373.got.cif
#   From: 2010.03.12/outbox.cif.g09.slc.cpg/sg20_10_cif.got.tgz:19373.got - 2010.04.14 01:38:04.
