data_PCOD8158332
_publ_section_title
;
Structure prediction by ZEFSAII (Michael W. Deem and Ramdas Pophale) SiO2 
 PCOD8158332
Probable space group: C 2 2 21
;
_chemical_formula_sum "Si O2"
_cell_formula_units_Z 64
_cell_length_a 19.823707
_cell_length_b 18.625573
_cell_length_c 8.966775
_cell_angle_alpha 90.000000
_cell_angle_beta 90.000000
_cell_angle_gamma 90.000000
_cell_volume 3310.783520
_symmetry_space_group_name_H-M "C 2 2 21"
_symmetry_group_IT_number 20
_symmetry_cell_setting 'orthorhombic'
loop_
_space_group_symop_operation_xyz
x,y,z
-x,-y,1/2+z
x,-y,-z
-x,y,1/2-z
1/2+x,1/2+y,z
1/2-x,1/2-y,1/2+z
1/2+x,1/2-y,-z
1/2-x,1/2+y,1/2-z
loop_
_atom_site_type_symbol
_atom_site_label
_atom_site_fract_x
_atom_site_fract_y
_atom_site_fract_z
Si Si1 0.340979 0.785276 0.172822
Si Si2 0.435035 0.033053 0.160986
Si Si3 0.620615 0.713514 0.846198
Si Si4 0.261626 0.172711 0.389634
Si Si5 0.934680 0.697212 0.091356
Si Si6 0.455011 0.744311 0.382007
Si Si7 0.730210 0.620684 0.715883
Si Si8 0.698115 0.017277 0.167904
O O1 0.300227 0.710747 0.196328
O O2 0.398931 0.791982 0.297844
O O3 0.290893 0.852192 0.180607
O O4 0.368360 0.788330 0.005420
O O5 0.500000 0.005105 0.250000
O O6 0.433985 0.118971 0.162408
O O7 0.367206 0.001609 0.233149
O O8 0.440837 0.000000 0.000000
O O9 0.673265 0.776423 0.885874
O O10 0.567174 0.744580 0.725559
O O11 0.657698 0.642234 0.784605
O O12 0.581111 0.690786 0.999251
O O13 0.238646 0.158947 0.557616
O O14 0.277222 0.098364 0.306736
O O15 0.999666 0.703680 0.984177
O O16 0.500000 0.705704 0.250000
O O17 0.738687 0.534623 0.709525
O O18 0.675681 0.000000 0.000000
#
# Coordination Sequence:
#
# PCOD8158332 Si02
#       8
#     8   8   8   8   8   8   8   8
#     4  10  20  36  55  85 114 149 194 244 296 340
#     4  12  25  39  54  79 118 166 202 236 284 343
#     4  11  19  36  59  84 114 150 196 248 290 346
#     4  10  19  34  59  82 115 155 191 244 295 344
#     4  11  22  36  59  82 115 152 198 242 285 346
#     4  10  22  36  56  84 115 149 192 246 289 344
#     4  10  20  34  59  84 115 150 194 243 296 340
#     4  10  22  39  57  83 117 156 197 234 289 358
#
# _framework density 19.330770999999999
#
# number of rings (size 3 to 8) (size 9 to 14) (size 15 to 20)
#    0.000    1.500    3.750    2.250    0.000    2.500 
#    2.250    0.000    0.000    0.000    0.000    8.750 
#    0.000    0.000    0.000    0.000    0.000    0.000 
#
# Total GULP energy -396677.186468 kJ/mol
# GULP energy per Si atom -12396.162077 kJ/mol
# Density = 1.928677 g / cm^3
# Si number density = 19.330771 Si / 1000 Ang^3
#
#
#
# Elastic Constant Matrix: (Units=GPa)
#
#
# Indices 1 2 3 4 5 6 
#
# 1 82.1265 36.7857 42.2067 0.0000 0.0000 0.0000
# 2 36.7857 81.5617 27.4780 0.0000 0.0000 0.0000
# 3 42.2067 27.4780 110.9198 0.0000 0.0000 0.0000
# 4 0.0000 0.0000 0.0000 21.1002 0.0000 0.0000
# 5 0.0000 0.0000 0.0000 0.0000 48.1944 0.0000
# 6 0.0000 0.0000 0.0000 0.0000 0.0000 -1.8643
#
#
#
# Elastic Compliance Matrix: (Units=1/GPa)
#
#
# Indices 1 2 3 4 5 6 
#
# 1 0.017608 -0.006202 -0.005164 0.000000 0.000000 0.000000
# 2 -0.006202 0.015562 -0.001495 0.000000 0.000000 0.000000
# 3 -0.005164 -0.001495 0.011351 0.000000 0.000000 0.000000
# 4 0.000000 0.000000 0.000000 0.047393 0.000000 0.000000
# 5 0.000000 0.000000 0.000000 0.000000 0.020749 0.000000
# 6 0.000000 0.000000 0.000000 0.000000 0.000000 -0.536387
#
#
# Mechanical properties :
#
#
# Convention : Reuss Voigt Hill
#
# Bulk Modulus (GPa) = 53.19474 54.17210 53.68342
# Shear Modulus (GPa) = -12.76367 24.69522 5.96578
#
# Velocity S-wave (km/s) = -2.57237 3.57810 1.75865
# Velocity P-wave (km/s) = 4.33072 6.71975 5.65288
#
# Compressibility (1/GPa) = 0.01879885
#
# Stress axis : x y z
#
# Youngs Moduli (GPa) = 56.79229 64.26113 88.09953
#
# Poissons Ratio (x) = 0.39854 0.45492
# Poissons Ratio (y) = 0.35222 0.13172
# Poissons Ratio (z) = 0.29326 0.09608
#
# Static dielectric constant tensor:
#      x y z
#    x 3.710900 0.000000 0.000000 
#    y 0.000000 3.291580 0.000000 
#    z 0.000000 0.000000 3.798870 
# 
# 
# High freq. dielectric constant tensor:
#      x y z
#    x 1.756160 0.000000 0.000000 
#    y 0.000000 1.707490 0.000000 
#    z 0.000000 0.000000 1.771730 
# 
# From -- ./inp_files/10366.got.cif
#   From: 2010.03.12/outbox.cif.g09.slc.cpg/sg20_6_cif.got.tgz:10366.got - 2010.04.14 01:38:04.
