data_PCOD8158717
_publ_section_title
;
Structure prediction by ZEFSAII (Michael W. Deem and Ramdas Pophale) SiO2 
 PCOD8158717
Probable space group: C 2 2 21
;
_chemical_formula_sum "Si O2"
_cell_formula_units_Z 40
_cell_length_a 11.785516
_cell_length_b 15.990795
_cell_length_c 9.852600
_cell_angle_alpha 90.000000
_cell_angle_beta 90.000000
_cell_angle_gamma 90.000000
_cell_volume 1856.818733
_symmetry_space_group_name_H-M "C 2 2 21"
_symmetry_group_IT_number 20
_symmetry_cell_setting 'orthorhombic'
loop_
_space_group_symop_operation_xyz
x,y,z
-x,-y,1/2+z
x,-y,-z
-x,y,1/2-z
1/2+x,1/2+y,z
1/2-x,1/2-y,1/2+z
1/2+x,1/2-y,-z
1/2-x,1/2+y,1/2-z
loop_
_atom_site_type_symbol
_atom_site_label
_atom_site_fract_x
_atom_site_fract_y
_atom_site_fract_z
Si Si1 0.132394 0.533352 0.742067
Si Si2 0.152024 0.181845 0.480885
Si Si3 0.215319 0.000000 0.000000
Si Si4 0.562865 0.357431 0.118819
Si Si5 0.764461 0.000000 0.000000
Si Si6 0.230540 0.714475 0.755343
O O1 0.197892 0.483887 0.623369
O O2 0.154343 0.632426 0.732227
O O3 0.000000 0.514197 0.750000
O O4 0.182670 0.492266 0.874198
O O5 0.167572 0.209704 0.324008
O O6 0.242963 0.228164 0.583235
O O7 0.022072 0.197857 0.525549
O O8 0.158051 0.081979 0.501987
O O9 0.131981 0.922863 0.027801
O O10 0.500000 0.400831 0.250000
O O11 0.648806 0.291164 0.182353
#
# Coordination Sequence:
#
# PCOD8158717 Si02
#       6
#     8   8   4   8   4   8
#     4  10  21  39  58  84 122 159 199 252 302 362
#     4  10  20  38  59  84 118 155 197 253 307 360
#     4  10  20  36  64  94 118 158 214 248 302 380
#     4   9  19  37  58  84 120 155 194 255 309 359
#     4  10  22  38  58  84 120 158 196 248 314 366
#     4   9  21  37  57  84 114 153 201 243 301 371
#
# _framework density 21.54222
#
# number of rings (size 3 to 8) (size 9 to 14) (size 15 to 20)
#    0.000    2.400    0.000    2.400    0.000    6.400 
#    0.000    5.000    0.000    0.000    0.000    0.000 
#    0.000    0.000    0.000    0.000    0.000    0.000 
#
# Total GULP energy -247829.128359 kJ/mol
# GULP energy per Si atom -12391.456418 kJ/mol
# Density = 2.149319 g / cm^3
# Si number density = 21.542220 Si / 1000 Ang^3
#
#
#
# Elastic Constant Matrix: (Units=GPa)
#
#
# Indices 1 2 3 4 5 6 
#
# 1 101.4642 6.5403 30.0765 0.0000 0.0000 0.0000
# 2 6.5403 33.0969 23.6823 0.0000 0.0000 0.0000
# 3 30.0765 23.6823 123.0913 0.0000 0.0000 0.0000
# 4 0.0000 0.0000 0.0000 38.5233 0.0000 0.0000
# 5 0.0000 0.0000 0.0000 0.0000 44.7803 0.0000
# 6 0.0000 0.0000 0.0000 0.0000 0.0000 16.8159
#
#
#
# Elastic Compliance Matrix: (Units=1/GPa)
#
#
# Indices 1 2 3 4 5 6 
#
# 1 0.010628 -0.000281 -0.002543 0.000000 0.000000 0.000000
# 2 -0.000281 0.035045 -0.006674 0.000000 0.000000 0.000000
# 3 -0.002543 -0.006674 0.010029 0.000000 0.000000 0.000000
# 4 0.000000 0.000000 0.000000 0.025958 0.000000 0.000000
# 5 0.000000 0.000000 0.000000 0.000000 0.022331 0.000000
# 6 0.000000 0.000000 0.000000 0.000000 0.000000 0.059468
#
#
# Mechanical properties :
#
#
# Convention : Reuss Voigt Hill
#
# Bulk Modulus (GPa) = 27.24248 42.02784 34.63516
# Shear Modulus (GPa) = 25.68184 33.18079 29.43132
#
# Velocity S-wave (km/s) = 3.45652 3.92888 3.70025
# Velocity P-wave (km/s) = 5.34823 6.33509 5.86246
#
# Compressibility (1/GPa) = 0.03670738
#
# Stress axis : x y z
#
# Youngs Moduli (GPa) = 94.09531 28.53451 99.70679
#
# Poissons Ratio (x) = 0.00801 0.25353
# Poissons Ratio (y) = 0.02641 0.66544
# Poissons Ratio (z) = 0.23926 0.19044
#
# Static dielectric constant tensor:
#      x y z
#    x 4.051060 0.000000 0.000000 
#    y 0.000000 3.367410 0.000000 
#    z 0.000000 0.000000 4.171300 
# 
# 
# High freq. dielectric constant tensor:
#      x y z
#    x 1.857360 0.000000 0.000000 
#    y 0.000000 1.804850 0.000000 
#    z 0.000000 0.000000 1.860260 
# 
# From -- ./inp_files/7099.got.cif
#   From: 2010.03.12/outbox.cif.g09.slc.cpg/sg20_4_cif.got.tgz:7099.got - 2010.04.14 01:38:04.
