data_PCOD8158463
_publ_section_title
;
Structure prediction by ZEFSAII (Michael W. Deem and Ramdas Pophale) SiO2 
 PCOD8158463
Probable space group: C 2 2 21
;
_chemical_formula_sum "Si O2"
_cell_formula_units_Z 64
_cell_length_a 18.688083
_cell_length_b 15.105346
_cell_length_c 11.643417
_cell_angle_alpha 90.000000
_cell_angle_beta 90.000000
_cell_angle_gamma 90.000000
_cell_volume 3286.819717
_symmetry_space_group_name_H-M "C 2 2 21"
_symmetry_group_IT_number 20
_symmetry_cell_setting 'orthorhombic'
loop_
_space_group_symop_operation_xyz
x,y,z
-x,-y,1/2+z
x,-y,-z
-x,y,1/2-z
1/2+x,1/2+y,z
1/2-x,1/2-y,1/2+z
1/2+x,1/2-y,-z
1/2-x,1/2+y,1/2-z
loop_
_atom_site_type_symbol
_atom_site_label
_atom_site_fract_x
_atom_site_fract_y
_atom_site_fract_z
Si Si1 0.770779 0.407650 0.555879
Si Si2 0.277018 0.864342 0.796675
Si Si3 0.283481 0.447580 0.307294
Si Si4 0.897176 0.886279 0.931521
Si Si5 0.428705 0.564794 0.817765
Si Si6 0.834234 0.597747 0.975436
Si Si7 0.924642 0.706511 0.802972
Si Si8 0.795328 0.315299 0.340889
O O1 0.795907 0.500000 0.500000
O O2 0.813607 0.389628 0.674920
O O3 0.686526 0.407806 0.585449
O O4 0.788272 0.321938 0.477917
O O5 0.240901 0.769395 0.782340
O O6 0.223482 0.946542 0.824522
O O7 0.332040 0.852488 0.901975
O O8 0.366025 0.425063 0.278800
O O9 0.246105 0.399916 0.417871
O O10 0.238040 0.409224 0.200451
O O11 0.923433 0.801752 0.862120
O O12 0.938160 0.966574 0.869307
O O13 0.914454 0.874983 0.068103
O O14 0.500000 0.593970 0.750000
O O15 0.895737 0.638703 0.897616
O O16 0.860982 0.500000 0.000000
O O17 0.877363 0.696991 0.689547
O O18 0.000000 0.680362 0.750000
#
# Coordination Sequence:
#
# PCOD8158463 Si02
#       8
#     8   8   8   8   8   8   8   8
#     4  12  19  37  65  92 125 157 207 257 307 367
#     4  11  20  36  60  92 122 155 198 257 307 363
#     4  10  19  38  57  89 121 154 205 254 293 368
#     4  11  19  38  58  86 125 164 200 244 296 365
#     4  11  21  36  57  86 128 174 196 232 300 365
#     4   9  22  39  63  87 116 154 200 262 318 349
#     4  11  23  41  62  84 119 159 204 253 308 366
#     4  11  21  34  63  92 113 158 207 251 308 361
#
# _framework density 19.471710000000002
#
# number of rings (size 3 to 8) (size 9 to 14) (size 15 to 20)
#    0.000    1.250    6.250    1.125    1.750    0.000 
#    9.000    0.625    0.000    0.000    0.000    0.000 
#    0.000    0.000    0.000    0.000    0.000    0.000 
#
# Total GULP energy -396421.423879 kJ/mol
# GULP energy per Si atom -12388.169496 kJ/mol
# Density = 1.942739 g / cm^3
# Si number density = 19.471710 Si / 1000 Ang^3
#
#
#
# Elastic Constant Matrix: (Units=GPa)
#
#
# Indices 1 2 3 4 5 6 
#
# 1 81.3198 30.4489 42.4870 0.0000 0.0000 0.0000
# 2 30.4489 63.3704 32.3059 0.0000 0.0000 0.0000
# 3 42.4870 32.3059 146.1538 0.0000 0.0000 0.0000
# 4 0.0000 0.0000 0.0000 30.1160 0.0000 0.0000
# 5 0.0000 0.0000 0.0000 0.0000 24.8051 0.0000
# 6 0.0000 0.0000 0.0000 0.0000 0.0000 11.4955
#
#
#
# Elastic Compliance Matrix: (Units=1/GPa)
#
#
# Indices 1 2 3 4 5 6 
#
# 1 0.016371 -0.006131 -0.003404 0.000000 0.000000 0.000000
# 2 -0.006131 0.020080 -0.002656 0.000000 0.000000 0.000000
# 3 -0.003404 -0.002656 0.008419 0.000000 0.000000 0.000000
# 4 0.000000 0.000000 0.000000 0.033205 0.000000 0.000000
# 5 0.000000 0.000000 0.000000 0.000000 0.040314 0.000000
# 6 0.000000 0.000000 0.000000 0.000000 0.000000 0.086990
#
#
# Mechanical properties :
#
#
# Convention : Reuss Voigt Hill
#
# Bulk Modulus (GPa) = 48.80913 55.70306 52.25610
# Shear Modulus (GPa) = 21.13348 25.65680 23.39514
#
# Velocity S-wave (km/s) = 3.29803 3.63388 3.47002
# Velocity P-wave (km/s) = 6.29474 6.80265 6.55362
#
# Compressibility (1/GPa) = 0.02048797
#
# Stress axis : x y z
#
# Youngs Moduli (GPa) = 61.08288 49.80017 118.78203
#
# Poissons Ratio (x) = 0.30532 0.40433
# Poissons Ratio (y) = 0.37449 0.31552
# Poissons Ratio (z) = 0.20792 0.13228
#
# Static dielectric constant tensor:
#      x y z
#    x 3.124340 0.000000 0.000000 
#    y 0.000000 3.570400 0.000000 
#    z 0.000000 0.000000 4.054570 
# 
# 
# High freq. dielectric constant tensor:
#      x y z
#    x 1.702710 0.000000 0.000000 
#    y 0.000000 1.761850 0.000000 
#    z 0.000000 0.000000 1.781860 
# 
# From -- ./inp_files/15908.got.cif
#   From: 2010.03.12/outbox.cif.g09.slc.cpg/sg20_8_cif.got.tgz:15908.got - 2010.04.14 01:38:04.
