data_PCOD8158700
_publ_section_title
;
Structure prediction by ZEFSAII (Michael W. Deem and Ramdas Pophale) SiO2 
 PCOD8158700
Probable space group: C 2 2 21
;
_chemical_formula_sum "Si O2"
_cell_formula_units_Z 48
_cell_length_a 14.959938
_cell_length_b 7.900478
_cell_length_c 19.344340
_cell_angle_alpha 90.000000
_cell_angle_beta 90.000000
_cell_angle_gamma 90.000000
_cell_volume 2286.320332
_symmetry_space_group_name_H-M "C 2 2 21"
_symmetry_group_IT_number 20
_symmetry_cell_setting 'orthorhombic'
loop_
_space_group_symop_operation_xyz
x,y,z
-x,-y,1/2+z
x,-y,-z
-x,y,1/2-z
1/2+x,1/2+y,z
1/2-x,1/2-y,1/2+z
1/2+x,1/2-y,-z
1/2-x,1/2+y,1/2-z
loop_
_atom_site_type_symbol
_atom_site_label
_atom_site_fract_x
_atom_site_fract_y
_atom_site_fract_z
Si Si1 0.228769 0.904406 0.094696
Si Si2 0.715681 0.752219 0.542955
Si Si3 0.689805 0.206210 0.226960
Si Si4 0.429023 0.500000 0.000000
Si Si5 0.546404 0.419579 0.877414
Si Si6 0.000000 0.875583 0.250000
Si Si7 0.679264 0.840085 0.165513
O O1 0.242623 0.811980 0.167893
O O2 0.296025 0.063327 0.080383
O O3 0.128001 0.970820 0.093165
O O4 0.241698 0.769992 0.033200
O O5 0.624304 0.648452 0.538800
O O6 0.781679 0.636331 0.588630
O O7 0.591320 0.270474 0.245724
O O8 0.755504 0.210697 0.292743
O O9 0.673955 0.015251 0.204474
O O10 0.483925 0.392930 0.943461
O O11 0.489792 0.512682 0.818463
O O12 0.581513 0.244232 0.843459
#
# Coordination Sequence:
#
# PCOD8158700 Si02
#       7
#     8   8   8   4   8   4   8
#     4   9  20  41  62  85 119 160 201 247 296 362
#     4  10  20  36  61  88 117 154 204 245 292 352
#     4  11  22  39  65  90 119 158 202 248 300 358
#     4  12  22  36  62  92 122 158 198 254 302 344
#     4  10  22  39  59  84 124 161 195 245 301 353
#     4  10  22  40  58  90 126 156 196 250 300 346
#     4  11  22  40  63  87 117 161 203 241 296 369
#
# _framework density 20.994430999999999
#
# number of rings (size 3 to 8) (size 9 to 14) (size 15 to 20)
#    0.000    1.667    0.000    7.000    0.000    2.000 
#    0.000   11.667    0.000    2.000    0.000    0.000 
#    0.000    0.000    0.000    0.000    0.000    0.000 
#
# Total GULP energy -297484.374303 kJ/mol
# GULP energy per Si atom -12395.182263 kJ/mol
# Density = 2.094665 g / cm^3
# Si number density = 20.994431 Si / 1000 Ang^3
#
#
#
# Elastic Constant Matrix: (Units=GPa)
#
#
# Indices 1 2 3 4 5 6 
#
# 1 84.6268 58.2601 53.2170 0.0000 0.0000 0.0000
# 2 58.2601 122.1839 52.5150 0.0000 0.0000 0.0000
# 3 53.2170 52.5150 109.9913 0.0000 0.0000 0.0000
# 4 0.0000 0.0000 0.0000 36.8008 0.0000 0.0000
# 5 0.0000 0.0000 0.0000 0.0000 39.9037 0.0000
# 6 0.0000 0.0000 0.0000 0.0000 0.0000 19.8415
#
#
#
# Elastic Compliance Matrix: (Units=1/GPa)
#
#
# Indices 1 2 3 4 5 6 
#
# 1 0.020936 -0.007082 -0.006748 0.000000 0.000000 0.000000
# 2 -0.007082 0.012693 -0.002634 0.000000 0.000000 0.000000
# 3 -0.006748 -0.002634 0.013614 0.000000 0.000000 0.000000
# 4 0.000000 0.000000 0.000000 0.027173 0.000000 0.000000
# 5 0.000000 0.000000 0.000000 0.000000 0.025060 0.000000
# 6 0.000000 0.000000 0.000000 0.000000 0.000000 0.050399
#
#
# Mechanical properties :
#
#
# Convention : Reuss Voigt Hill
#
# Bulk Modulus (GPa) = 69.85655 71.64290 70.74972
# Shear Modulus (GPa) = 26.65591 29.49655 28.07623
#
# Velocity S-wave (km/s) = 3.56710 3.75236 3.66090
# Velocity P-wave (km/s) = 7.09307 7.27821 7.18624
#
# Compressibility (1/GPa) = 0.01431505
#
# Stress axis : x y z
#
# Youngs Moduli (GPa) = 47.76541 78.78101 73.45427
#
# Poissons Ratio (x) = 0.55796 0.49566
# Poissons Ratio (y) = 0.33829 0.19346
# Poissons Ratio (z) = 0.32231 0.20749
#
# Static dielectric constant tensor:
#      x y z
#    x 3.584240 0.000000 0.000000 
#    y 0.000000 3.747400 0.000000 
#    z 0.000000 0.000000 4.149840 
# 
# 
# High freq. dielectric constant tensor:
#      x y z
#    x 1.800330 0.000000 0.000000 
#    y 0.000000 1.816970 0.000000 
#    z 0.000000 0.000000 1.850960 
# 
# From -- ./inp_files/24847.got.cif
#   From: 2010.03.12/outbox.cif.g09.slc.cpg/sg20_13_cif.got.tgz:24847.got - 2010.04.14 01:38:04.
