data_PCOD8158086
_publ_section_title
;
Structure prediction by ZEFSAII (Michael W. Deem and Ramdas Pophale) SiO2 
 PCOD8158086
Probable space group: C 2 2 21
;
_chemical_formula_sum "Si O2"
_cell_formula_units_Z 52
_cell_length_a 14.504120
_cell_length_b 20.469013
_cell_length_c 9.386276
_cell_angle_alpha 90.000000
_cell_angle_beta 90.000000
_cell_angle_gamma 90.000000
_cell_volume 2786.644746
_symmetry_space_group_name_H-M "C 2 2 21"
_symmetry_group_IT_number 20
_symmetry_cell_setting 'orthorhombic'
loop_
_space_group_symop_operation_xyz
x,y,z
-x,-y,1/2+z
x,-y,-z
-x,y,1/2-z
1/2+x,1/2+y,z
1/2-x,1/2-y,1/2+z
1/2+x,1/2-y,-z
1/2-x,1/2+y,1/2-z
loop_
_atom_site_type_symbol
_atom_site_label
_atom_site_fract_x
_atom_site_fract_y
_atom_site_fract_z
Si Si1 0.438542 0.839243 0.067014
Si Si2 0.398217 0.922970 0.501207
Si Si3 0.897695 0.804758 0.313504
Si Si4 0.500000 0.727321 0.250000
Si Si5 0.830910 0.807299 0.619915
Si Si6 0.642163 0.161409 0.264749
Si Si7 0.713995 0.161953 0.807115
O O1 0.493993 0.773911 0.110608
O O2 0.345295 0.845484 0.159953
O O3 0.509385 0.899689 0.083082
O O4 0.423643 0.833685 0.899883
O O5 0.389398 0.897916 0.664026
O O6 0.310615 0.896075 0.414411
O O7 0.396960 0.000000 0.500000
O O8 0.878483 0.830829 0.473148
O O9 0.869333 0.728824 0.319376
O O10 0.823229 0.844232 0.219254
O O11 0.000000 0.818065 0.250000
O O12 0.590047 0.682509 0.239125
O O13 0.745094 0.850576 0.672890
O O14 0.803228 0.731014 0.616023
#
# Coordination Sequence:
#
# PCOD8158086 Si02
#       7
#     8   8   8   4   8   8   8
#     4  11  19  36  55  77 121 159 191 236 278 342
#     4  12  24  39  57  83 117 164 203 231 285 350
#     4  11  20  34  60  88 118 149 195 241 301 360
#     4  10  18  32  56  82 124 148 184 236 300 352
#     4  10  19  33  54  85 119 157 180 240 305 348
#     4  11  22  34  55  86 123 151 198 241 286 350
#     4  10  21  37  55  83 121 154 191 241 298 339
#
# _framework density 18.660435
#
# number of rings (size 3 to 8) (size 9 to 14) (size 15 to 20)
#    0.000    1.231    6.154    2.308    0.000    3.692 
#    0.000    0.000    0.000    0.000    6.000    0.000 
#    0.000    0.000    0.000    0.000    0.000    0.000 
#
# Total GULP energy -322222.863899 kJ/mol
# GULP energy per Si atom -12393.187073 kJ/mol
# Density = 1.861796 g / cm^3
# Si number density = 18.660435 Si / 1000 Ang^3
#
#
#
# Elastic Constant Matrix: (Units=GPa)
#
#
# Indices 1 2 3 4 5 6 
#
# 1 142.3389 21.1148 30.6714 0.0000 0.0000 0.0000
# 2 21.1148 44.4231 15.4973 0.0000 0.0000 0.0000
# 3 30.6714 15.4973 100.4171 0.0000 0.0000 0.0000
# 4 0.0000 0.0000 0.0000 18.9553 0.0000 0.0000
# 5 0.0000 0.0000 0.0000 0.0000 32.6477 0.0000
# 6 0.0000 0.0000 0.0000 0.0000 0.0000 8.4943
#
#
#
# Elastic Compliance Matrix: (Units=1/GPa)
#
#
# Indices 1 2 3 4 5 6 
#
# 1 0.007900 -0.003079 -0.001938 0.000000 0.000000 0.000000
# 2 -0.003079 0.024992 -0.002917 0.000000 0.000000 0.000000
# 3 -0.001938 -0.002917 0.011000 0.000000 0.000000 0.000000
# 4 0.000000 0.000000 0.000000 0.052756 0.000000 0.000000
# 5 0.000000 0.000000 0.000000 0.000000 0.030630 0.000000
# 6 0.000000 0.000000 0.000000 0.000000 0.000000 0.117726
#
#
# Mechanical properties :
#
#
# Convention : Reuss Voigt Hill
#
# Bulk Modulus (GPa) = 35.68165 46.86066 41.27115
# Shear Modulus (GPa) = 18.50397 26.67916 22.59157
#
# Velocity S-wave (km/s) = 3.15241 3.78526 3.48324
# Velocity P-wave (km/s) = 5.69327 6.65365 6.19211
#
# Compressibility (1/GPa) = 0.02802561
#
# Stress axis : x y z
#
# Youngs Moduli (GPa) = 126.58619 40.01331 90.90545
#
# Poissons Ratio (x) = 0.12319 0.17615
# Poissons Ratio (y) = 0.38974 0.26513
# Poissons Ratio (z) = 0.24529 0.11670
#
# Static dielectric constant tensor:
#      x y z
#    x 3.750860 0.000000 0.000000 
#    y 0.000000 2.807360 0.000000 
#    z 0.000000 0.000000 3.521500 
# 
# 
# High freq. dielectric constant tensor:
#      x y z
#    x 1.743590 0.000000 0.000000 
#    y 0.000000 1.642200 0.000000 
#    z 0.000000 0.000000 1.743180 
# 
# From -- ./inp_files/8646.got.cif
#   From: 2010.03.12/outbox.cif.g09.slc.cpg/sg20_5_cif.got.tgz:8646.got - 2010.04.14 01:38:04.
