data_PCOD8158740
_publ_section_title
;
Structure prediction by ZEFSAII (Michael W. Deem and Ramdas Pophale) SiO2 
 PCOD8158740
Probable space group: C 2 2 21
;
_chemical_formula_sum "Si O2"
_cell_formula_units_Z 64
_cell_length_a 10.646961
_cell_length_b 8.625212
_cell_length_c 30.570815
_cell_angle_alpha 90.000000
_cell_angle_beta 90.000000
_cell_angle_gamma 90.000000
_cell_volume 2807.388125
_symmetry_space_group_name_H-M "C 2 2 21"
_symmetry_group_IT_number 20
_symmetry_cell_setting 'orthorhombic'
loop_
_space_group_symop_operation_xyz
x,y,z
-x,-y,1/2+z
x,-y,-z
-x,y,1/2-z
1/2+x,1/2+y,z
1/2-x,1/2-y,1/2+z
1/2+x,1/2-y,-z
1/2-x,1/2+y,1/2-z
loop_
_atom_site_type_symbol
_atom_site_label
_atom_site_fract_x
_atom_site_fract_y
_atom_site_fract_z
Si Si1 0.846768 0.230961 0.296451
Si Si2 0.302949 0.574681 0.737266
Si Si3 0.358554 0.654702 0.473554
Si Si4 0.097838 0.048932 0.122212
Si Si5 0.400846 0.228568 0.338372
Si Si6 0.363764 0.327714 0.983292
Si Si7 0.071600 0.447653 0.324226
Si Si8 0.337241 0.695255 0.116919
O O1 0.728872 0.342236 0.283431
O O2 0.816314 0.129588 0.340180
O O3 0.966286 0.336924 0.303785
O O4 0.867863 0.096426 0.258512
O O5 0.389113 0.692395 0.709279
O O6 0.170233 0.537803 0.714432
O O7 0.344722 0.500000 0.500000
O O8 0.350274 0.612836 0.422875
O O9 0.492535 0.741605 0.483909
O O10 0.235317 0.754454 0.483499
O O11 0.953128 0.088996 0.129583
O O12 0.096238 0.862559 0.124448
O O13 0.278636 0.129967 0.353841
O O14 0.519503 0.115726 0.338021
O O15 0.307390 0.312637 0.934630
O O16 0.381192 0.500000 0.000000
O O17 0.133331 0.372972 0.367914
#
# Coordination Sequence:
#
# PCOD8158740 Si02
#       8
#     8   8   8   8   8   8   8   8
#     4  10  20  37  58  82 117 156 195 246 299 358
#     4  10  21  37  56  85 119 153 199 245 298 360
#     4  10  21  41  63  90 128 164 208 266 318 375
#     4   9  20  38  60  88 122 161 204 252 311 372
#     4  10  20  37  61  88 118 156 199 247 304 365
#     4  10  22  39  60  89 123 164 210 256 312 379
#     4  10  21  37  59  85 116 152 197 250 300 359
#     4   9  20  38  57  85 119 152 198 250 300 362
#
# _framework density 22.796990000000001
#
# number of rings (size 3 to 8) (size 9 to 14) (size 15 to 20)
#    0.000    2.250    0.000    1.875    0.000    4.500 
#    0.000   22.500    0.000    0.000    0.000    0.000 
#    0.000    0.000    0.000    0.000    0.000    0.000 
#
# Total GULP energy -396563.526107 kJ/mol
# GULP energy per Si atom -12392.610191 kJ/mol
# Density = 2.274510 g / cm^3
# Si number density = 22.796990 Si / 1000 Ang^3
#
#
#
# Elastic Constant Matrix: (Units=GPa)
#
#
# Indices 1 2 3 4 5 6 
#
# 1 60.8893 34.3592 19.0994 0.0000 0.0000 0.0000
# 2 34.3592 94.7926 33.4521 0.0000 0.0000 0.0000
# 3 19.0994 33.4521 55.1148 0.0000 0.0000 0.0000
# 4 0.0000 0.0000 0.0000 34.3027 0.0000 0.0000
# 5 0.0000 0.0000 0.0000 0.0000 23.0186 0.0000
# 6 0.0000 0.0000 0.0000 0.0000 0.0000 28.9569
#
#
#
# Elastic Compliance Matrix: (Units=1/GPa)
#
#
# Indices 1 2 3 4 5 6 
#
# 1 0.021136 -0.006460 -0.003404 0.000000 0.000000 0.000000
# 2 -0.006460 0.015399 -0.007108 0.000000 0.000000 0.000000
# 3 -0.003404 -0.007108 0.023638 0.000000 0.000000 0.000000
# 4 0.000000 0.000000 0.000000 0.029152 0.000000 0.000000
# 5 0.000000 0.000000 0.000000 0.000000 0.043443 0.000000
# 6 0.000000 0.000000 0.000000 0.000000 0.000000 0.034534
#
#
# Mechanical properties :
#
#
# Convention : Reuss Voigt Hill
#
# Bulk Modulus (GPa) = 38.12442 42.73535 40.42989
# Shear Modulus (GPa) = 23.81075 25.51470 24.66273
#
# Velocity S-wave (km/s) = 3.23533 3.34909 3.29270
# Velocity P-wave (km/s) = 5.54222 5.80879 5.67707
#
# Compressibility (1/GPa) = 0.02622991
#
# Stress axis : x y z
#
# Youngs Moduli (GPa) = 47.31214 64.93792 42.30546
#
# Poissons Ratio (x) = 0.41951 0.14399
# Poissons Ratio (y) = 0.30564 0.30071
# Poissons Ratio (z) = 0.16103 0.46158
#
# Static dielectric constant tensor:
#      x y z
#    x 4.375910 0.000000 0.000000 
#    y 0.000000 4.193450 0.000000 
#    z 0.000000 0.000000 4.039780 
# 
# 
# High freq. dielectric constant tensor:
#      x y z
#    x 1.908450 0.000000 0.000000 
#    y 0.000000 1.894070 0.000000 
#    z 0.000000 0.000000 1.889730 
# 
# From -- ./inp_files/31205.got.cif
#   From: 2010.03.12/outbox.cif.g09.slc.cpg/sg20_16_cif.got.tgz:31205.got - 2010.04.14 01:38:04.
