data_PCOD8158748
_publ_section_title
;
Structure prediction by ZEFSAII (Michael W. Deem and Ramdas Pophale) SiO2 
 PCOD8158748
Probable space group: C 2 2 21
;
_chemical_formula_sum "Si O2"
_cell_formula_units_Z 64
_cell_length_a 11.631921
_cell_length_b 31.232033
_cell_length_c 8.395778
_cell_angle_alpha 90.000000
_cell_angle_beta 90.000000
_cell_angle_gamma 90.000000
_cell_volume 3050.089936
_symmetry_space_group_name_H-M "C 2 2 21"
_symmetry_group_IT_number 20
_symmetry_cell_setting 'orthorhombic'
loop_
_space_group_symop_operation_xyz
x,y,z
-x,-y,1/2+z
x,-y,-z
-x,y,1/2-z
1/2+x,1/2+y,z
1/2-x,1/2-y,1/2+z
1/2+x,1/2-y,-z
1/2-x,1/2+y,1/2-z
loop_
_atom_site_type_symbol
_atom_site_label
_atom_site_fract_x
_atom_site_fract_y
_atom_site_fract_z
Si Si1 0.855694 0.623457 0.404290
Si Si2 0.201394 0.895900 0.150914
Si Si3 0.058454 0.813011 0.100714
Si Si4 0.750284 0.724797 0.107553
Si Si5 0.106596 0.354931 0.548318
Si Si6 0.475520 0.544707 0.561372
Si Si7 0.325051 0.306895 0.952200
Si Si8 0.773814 0.049693 0.968286
O O1 0.864177 0.624822 0.216646
O O2 0.753583 0.651697 0.477945
O O3 0.823972 0.574316 0.434477
O O4 0.972147 0.639501 0.490515
O O5 0.120095 0.854472 0.182791
O O6 0.124748 0.921477 0.020407
O O7 0.229574 0.929507 0.291173
O O8 0.322851 0.880543 0.083901
O O9 0.000000 0.788459 0.250000
O O10 0.149166 0.782053 0.019305
O O11 0.957344 0.822333 0.970477
O O12 0.858179 0.694854 0.058641
O O13 0.700018 0.714862 0.281693
O O14 0.792345 0.773489 0.092752
O O15 0.427059 0.500000 0.500000
O O16 0.500000 0.543456 0.750000
O O17 0.594823 0.556206 0.470187
O O18 0.741935 0.000000 0.000000
#
# Coordination Sequence:
#
# PCOD8158748 Si02
#       8
#     8   8   8   8   8   8   8   8
#     4  10  21  41  61  82 117 168 199 254 317 368
#     4  10  20  37  59  87 119 157 202 253 309 375
#     4  11  21  37  60  86 121 161 206 260 316 377
#     4  10  23  39  58  93 124 165 213 265 320 379
#     4   9  22  40  59  83 123 160 207 251 307 375
#     4   9  18  32  52  81 114 143 182 239 299 355
#     4  11  22  38  63  89 125 164 214 265 319 386
#     4  10  21  38  60  89 122 154 203 257 310 376
#
# _framework density 20.982987999999999
#
# number of rings (size 3 to 8) (size 9 to 14) (size 15 to 20)
#    0.000    2.000    0.000    3.750    1.750    4.500 
#    0.000    5.625    0.000    0.000    0.000    0.000 
#    0.000    0.000    0.000    0.000    0.000    0.000 
#
# Total GULP energy -396494.140619 kJ/mol
# GULP energy per Si atom -12390.441894 kJ/mol
# Density = 2.093523 g / cm^3
# Si number density = 20.982988 Si / 1000 Ang^3
#
#
#
# Elastic Constant Matrix: (Units=GPa)
#
#
# Indices 1 2 3 4 5 6 
#
# 1 96.6968 36.5055 21.2949 0.0000 0.0000 0.0000
# 2 36.5055 97.1664 23.0406 0.0000 0.0000 0.0000
# 3 21.2949 23.0406 46.3416 0.0000 0.0000 0.0000
# 4 0.0000 0.0000 0.0000 31.9351 0.0000 0.0000
# 5 0.0000 0.0000 0.0000 0.0000 27.6859 0.0000
# 6 0.0000 0.0000 0.0000 0.0000 0.0000 25.1455
#
#
#
# Elastic Compliance Matrix: (Units=1/GPa)
#
#
# Indices 1 2 3 4 5 6 
#
# 1 0.012646 -0.003824 -0.003910 0.000000 0.000000 0.000000
# 2 -0.003824 0.012823 -0.004618 0.000000 0.000000 0.000000
# 3 -0.003910 -0.004618 0.025672 0.000000 0.000000 0.000000
# 4 0.000000 0.000000 0.000000 0.031314 0.000000 0.000000
# 5 0.000000 0.000000 0.000000 0.000000 0.036119 0.000000
# 6 0.000000 0.000000 0.000000 0.000000 0.000000 0.039769
#
#
# Mechanical properties :
#
#
# Convention : Reuss Voigt Hill
#
# Bulk Modulus (GPa) = 37.82628 44.65410 41.24019
# Shear Modulus (GPa) = 26.06060 27.57755 26.81908
#
# Velocity S-wave (km/s) = 3.52801 3.62923 3.57898
# Velocity P-wave (km/s) = 5.88745 6.23611 6.06429
#
# Compressibility (1/GPa) = 0.02643664
#
# Stress axis : x y z
#
# Youngs Moduli (GPa) = 79.07418 77.98185 38.95322
#
# Poissons Ratio (x) = 0.29821 0.15231
# Poissons Ratio (y) = 0.30239 0.17990
# Poissons Ratio (z) = 0.30918 0.36016
#
# Static dielectric constant tensor:
#      x y z
#    x 4.136090 0.000000 0.000000 
#    y 0.000000 3.783500 0.000000 
#    z 0.000000 0.000000 3.649390 
# 
# 
# High freq. dielectric constant tensor:
#      x y z
#    x 1.829010 0.000000 0.000000 
#    y 0.000000 1.817730 0.000000 
#    z 0.000000 0.000000 1.810900 
# 
# From -- ./inp_files/7697.got.cif
#   From: 2010.03.12/outbox.cif.g09.slc.cpg/sg20_4_cif.got.tgz:7697.got - 2010.04.14 01:38:04.
