data_PCOD8158843
_publ_section_title
;
Structure prediction by ZEFSAII (Michael W. Deem and Ramdas Pophale) SiO2 
 PCOD8158843
Probable space group: C 2 2 21
;
_chemical_formula_sum "Si O2"
_cell_formula_units_Z 60
_cell_length_a 24.849922
_cell_length_b 11.909736
_cell_length_c 9.508195
_cell_angle_alpha 90.000000
_cell_angle_beta 90.000000
_cell_angle_gamma 90.000000
_cell_volume 2814.007461
_symmetry_space_group_name_H-M "C 2 2 21"
_symmetry_group_IT_number 20
_symmetry_cell_setting 'orthorhombic'
loop_
_space_group_symop_operation_xyz
x,y,z
-x,-y,1/2+z
x,-y,-z
-x,y,1/2-z
1/2+x,1/2+y,z
1/2-x,1/2-y,1/2+z
1/2+x,1/2-y,-z
1/2-x,1/2+y,1/2-z
loop_
_atom_site_type_symbol
_atom_site_label
_atom_site_fract_x
_atom_site_fract_y
_atom_site_fract_z
Si Si1 0.709967 0.660121 0.570725
Si Si2 0.927178 0.583393 0.737302
Si Si3 0.183946 0.546611 0.858053
Si Si4 0.000000 0.379559 0.750000
Si Si5 0.007973 0.703001 0.550342
Si Si6 0.333906 0.549411 0.209425
Si Si7 0.263277 0.910892 0.877948
Si Si8 0.455252 0.441627 0.851803
O O1 0.773071 0.638006 0.592443
O O2 0.676953 0.584900 0.684647
O O3 0.688542 0.623847 0.419138
O O4 0.706351 0.794371 0.586780
O O5 0.863324 0.598764 0.735230
O O6 0.947539 0.455497 0.716941
O O7 0.945575 0.620346 0.892583
O O8 0.951476 0.661787 0.614706
O O9 0.212671 0.449250 0.770629
O O10 0.156568 0.500000 0.000000
O O11 0.009266 0.298083 0.617855
O O12 0.018795 0.824214 0.610143
O O13 0.301685 0.592453 0.348941
O O14 0.397870 0.568107 0.228606
O O15 0.276173 0.000000 0.000000
O O16 0.500000 0.501640 0.750000
O O17 0.444543 0.500000 0.000000
#
# Coordination Sequence:
#
# PCOD8158843 Si02
#       8
#     8   8   8   4   8   8   8   8
#     4  10  21  44  67  93 138 177 223 269 346 410
#     4  10  20  40  63  96 140 173 220 272 339 407
#     4  11  22  40  65 100 135 185 225 267 350 416
#     4  10  20  38  64  94 138 172 220 278 344 402
#     4  10  22  41  64  96 128 180 218 278 348 389
#     4  10  23  48  68  93 137 189 210 287 355 394
#     4  11  26  40  70 109 132 171 240 281 332 425
#     4  12  26  47  70  95 128 174 240 281 341 416
#
# _framework density 21.321905000000001
#
# number of rings (size 3 to 8) (size 9 to 14) (size 15 to 20)
#    0.000    1.600    5.333    2.400    6.533    2.667 
#    0.000    1.333    0.000    0.000    0.000    0.000 
#    0.000    0.000    0.000    0.000    0.000    0.000 
#
# Total GULP energy -371792.033690 kJ/mol
# GULP energy per Si atom -12393.067790 kJ/mol
# Density = 2.127338 g / cm^3
# Si number density = 21.321905 Si / 1000 Ang^3
#
#
#
# Elastic Constant Matrix: (Units=GPa)
#
#
# Indices 1 2 3 4 5 6 
#
# 1 130.2765 6.4816 27.0571 0.0000 0.0000 0.0000
# 2 6.4816 93.5448 24.0554 0.0000 0.0000 0.0000
# 3 27.0571 24.0554 104.1193 0.0000 0.0000 0.0000
# 4 0.0000 0.0000 0.0000 21.8944 0.0000 0.0000
# 5 0.0000 0.0000 0.0000 0.0000 24.4133 0.0000
# 6 0.0000 0.0000 0.0000 0.0000 0.0000 22.2202
#
#
#
# Elastic Compliance Matrix: (Units=1/GPa)
#
#
# Indices 1 2 3 4 5 6 
#
# 1 0.008114 -0.000021 -0.002104 0.000000 0.000000 0.000000
# 2 -0.000021 0.011365 -0.002620 0.000000 0.000000 0.000000
# 3 -0.002104 -0.002620 0.010756 0.000000 0.000000 0.000000
# 4 0.000000 0.000000 0.000000 0.045674 0.000000 0.000000
# 5 0.000000 0.000000 0.000000 0.000000 0.040961 0.000000
# 6 0.000000 0.000000 0.000000 0.000000 0.000000 0.045004
#
#
# Mechanical properties :
#
#
# Convention : Reuss Voigt Hill
#
# Bulk Modulus (GPa) = 48.20356 49.23655 48.72005
# Shear Modulus (GPa) = 28.04572 31.72868 29.88720
#
# Velocity S-wave (km/s) = 3.63071 3.86175 3.74801
# Velocity P-wave (km/s) = 6.34292 6.55944 6.45209
#
# Compressibility (1/GPa) = 0.02074536
#
# Stress axis : x y z
#
# Youngs Moduli (GPa) = 123.24465 87.98671 92.96783
#
# Poissons Ratio (x) = 0.00187 0.19557
# Poissons Ratio (y) = 0.00262 0.24360
# Poissons Ratio (z) = 0.25926 0.23055
#
# Static dielectric constant tensor:
#      x y z
#    x 3.904750 0.000000 0.000000 
#    y 0.000000 3.760640 0.000000 
#    z 0.000000 0.000000 2.689950 
# 
# 
# High freq. dielectric constant tensor:
#      x y z
#    x 1.832820 0.000000 0.000000 
#    y 0.000000 1.821650 0.000000 
#    z 0.000000 0.000000 1.833240 
# 
# From -- ./inp_files/11162.got.cif
#   From: 2010.03.12/outbox.cif.g09.slc.cpg/sg20_6_cif.got.tgz:11162.got - 2010.04.14 01:38:04.
