data_PCOD8158240
_publ_section_title
;
Structure prediction by ZEFSAII (Michael W. Deem and Ramdas Pophale) SiO2 
 PCOD8158240
Probable space group: C 2 2 21
;
_chemical_formula_sum "Si O2"
_cell_formula_units_Z 64
_cell_length_a 12.114473
_cell_length_b 30.290848
_cell_length_c 9.893670
_cell_angle_alpha 90.000000
_cell_angle_beta 90.000000
_cell_angle_gamma 90.000000
_cell_volume 3630.557994
_symmetry_space_group_name_H-M "C 2 2 21"
_symmetry_group_IT_number 20
_symmetry_cell_setting 'orthorhombic'
loop_
_space_group_symop_operation_xyz
x,y,z
-x,-y,1/2+z
x,-y,-z
-x,y,1/2-z
1/2+x,1/2+y,z
1/2-x,1/2-y,1/2+z
1/2+x,1/2-y,-z
1/2-x,1/2+y,1/2-z
loop_
_atom_site_type_symbol
_atom_site_label
_atom_site_fract_x
_atom_site_fract_y
_atom_site_fract_z
Si Si1 0.134547 0.406382 0.520480
Si Si2 0.869745 0.531612 0.254157
Si Si3 0.707547 0.198091 0.183972
Si Si4 0.629947 0.933884 0.229674
Si Si5 0.219169 0.685565 0.488784
Si Si6 0.624609 0.892791 0.951622
Si Si7 0.926587 0.754247 0.883540
Si Si8 0.429593 0.279628 0.377391
O O1 0.168614 0.449043 0.608794
O O2 0.173751 0.413934 0.367911
O O3 0.205892 0.364461 0.559800
O O4 0.007911 0.392657 0.548769
O O5 0.819609 0.483341 0.287362
O O6 0.830689 0.565104 0.369677
O O7 0.000000 0.527173 0.250000
O O8 0.730714 0.207447 0.342282
O O9 0.820500 0.214287 0.119222
O O10 0.605389 0.229113 0.146532
O O11 0.675353 0.150242 0.121683
O O12 0.500000 0.937974 0.250000
O O13 0.663896 0.901172 0.106622
O O14 0.112241 0.705626 0.566675
O O15 0.323056 0.690398 0.589651
O O16 0.000000 0.748207 0.750000
O O17 0.997736 0.780788 0.990092
O O18 0.500000 0.298117 0.250000
#
# Coordination Sequence:
#
# PCOD8158240 Si02
#       8
#     8   8   8   8   8   8   8   8
#     4  10  19  30  49  75 106 141 178 221 260 309
#     4   9  16  28  48  68 102 145 177 205 260 322
#     4  11  22  36  56  79 103 140 186 219 263 320
#     4   9  18  30  42  72 107 141 175 212 259 318
#     4  11  22  36  56  79 104 139 186 219 261 322
#     4  10  19  30  51  74 105 142 179 220 258 311
#     4  11  23  38  55  76 105 139 177 224 273 315
#     4  11  23  38  57  76 106 142 177 224 273 311
#
# _framework density 17.628143999999999
#
# number of rings (size 3 to 8) (size 9 to 14) (size 15 to 20)
#    0.000    1.750    3.750    1.500    0.000    6.500 
#    0.000    0.000    0.000    0.000    0.000    0.000 
#    0.000   15.000    0.000    0.000    0.000    0.000 
#
# Total GULP energy -396442.347757 kJ/mol
# GULP energy per Si atom -12388.823367 kJ/mol
# Density = 1.758802 g / cm^3
# Si number density = 17.628144 Si / 1000 Ang^3
#
#
#
# Elastic Constant Matrix: (Units=GPa)
#
#
# Indices 1 2 3 4 5 6 
#
# 1 46.0798 18.1692 23.8560 0.0000 0.0000 0.0000
# 2 18.1692 70.5122 16.0911 0.0000 0.0000 0.0000
# 3 23.8560 16.0911 123.4305 0.0000 0.0000 0.0000
# 4 0.0000 0.0000 0.0000 24.6831 0.0000 0.0000
# 5 0.0000 0.0000 0.0000 0.0000 29.8052 0.0000
# 6 0.0000 0.0000 0.0000 0.0000 0.0000 13.2418
#
#
#
# Elastic Compliance Matrix: (Units=1/GPa)
#
#
# Indices 1 2 3 4 5 6 
#
# 1 0.026209 -0.005769 -0.004314 0.000000 0.000000 0.000000
# 2 -0.005769 0.015887 -0.000956 0.000000 0.000000 0.000000
# 3 -0.004314 -0.000956 0.009060 0.000000 0.000000 0.000000
# 4 0.000000 0.000000 0.000000 0.040514 0.000000 0.000000
# 5 0.000000 0.000000 0.000000 0.000000 0.033551 0.000000
# 6 0.000000 0.000000 0.000000 0.000000 0.000000 0.075519
#
#
# Mechanical properties :
#
#
# Convention : Reuss Voigt Hill
#
# Bulk Modulus (GPa) = 34.38938 39.58388 36.98663
# Shear Modulus (GPa) = 21.50447 25.67309 23.58878
#
# Velocity S-wave (km/s) = 3.49649 3.82038 3.66202
# Velocity P-wave (km/s) = 5.98758 6.47797 6.23760
#
# Compressibility (1/GPa) = 0.02907874
#
# Stress axis : x y z
#
# Youngs Moduli (GPa) = 38.15421 62.94579 110.37462
#
# Poissons Ratio (x) = 0.36314 0.47610
# Poissons Ratio (y) = 0.22012 0.10552
# Poissons Ratio (z) = 0.16458 0.06018
#
# Static dielectric constant tensor:
#      x y z
#    x 2.876670 0.000000 0.000000 
#    y 0.000000 3.281360 0.000000 
#    z 0.000000 0.000000 3.700390 
# 
# 
# High freq. dielectric constant tensor:
#      x y z
#    x 1.629210 0.000000 0.000000 
#    y 0.000000 1.676590 0.000000 
#    z 0.000000 0.000000 1.706920 
# 
# From -- ./inp_files/7657.got.cif
#   From: 2010.03.12/outbox.cif.g09.slc.cpg/sg20_4_cif.got.tgz:7657.got - 2010.04.14 01:38:04.
