data_PCOD8158563
_publ_section_title
;
Structure prediction by ZEFSAII (Michael W. Deem and Ramdas Pophale) SiO2 
 PCOD8158563
Probable space group: C 2 2 21
;
_chemical_formula_sum "Si O2"
_cell_formula_units_Z 56
_cell_length_a 20.866891
_cell_length_b 9.055206
_cell_length_c 14.012705
_cell_angle_alpha 90.000000
_cell_angle_beta 90.000000
_cell_angle_gamma 90.000000
_cell_volume 2647.756613
_symmetry_space_group_name_H-M "C 2 2 21"
_symmetry_group_IT_number 20
_symmetry_cell_setting 'orthorhombic'
loop_
_space_group_symop_operation_xyz
x,y,z
-x,-y,1/2+z
x,-y,-z
-x,y,1/2-z
1/2+x,1/2+y,z
1/2-x,1/2-y,1/2+z
1/2+x,1/2-y,-z
1/2-x,1/2+y,1/2-z
loop_
_atom_site_type_symbol
_atom_site_label
_atom_site_fract_x
_atom_site_fract_y
_atom_site_fract_z
Si Si1 0.259526 0.907729 0.910111
Si Si2 0.069367 0.170524 0.363666
Si Si3 0.401050 0.852922 0.962516
Si Si4 0.064694 0.146096 0.690945
Si Si5 0.824927 0.329314 0.481694
Si Si6 0.156339 0.097398 0.851291
Si Si7 0.421709 0.308745 0.644907
O O1 0.335933 0.903240 0.908374
O O2 0.223412 0.006479 0.827846
O O3 0.233293 0.740769 0.919388
O O4 0.232981 0.000000 0.000000
O O5 0.112066 0.248670 0.445629
O O6 0.090523 0.220308 0.257603
O O7 0.995497 0.207376 0.382166
O O8 0.079236 0.995854 0.373801
O O9 0.445626 0.780732 0.881963
O O10 0.436383 0.000000 0.000000
O O11 0.127083 0.173136 0.756552
O O12 0.000000 0.118849 0.750000
O O13 0.808754 0.500000 0.500000
O O14 0.835504 0.235809 0.578098
O O15 0.887904 0.319357 0.415830
O O16 0.105317 0.971074 0.885547
#
# Coordination Sequence:
#
# PCOD8158563 Si02
#       7
#     8   8   8   8   8   8   8
#     4   8  18  41  61  80 119 165 210 248 310 385
#     4  10  20  39  62  86 118 167 216 258 302 388
#     4  11  25  41  61  94 132 168 197 269 348 373
#     4  11  22  41  64  96 121 165 231 262 307 396
#     4  10  20  32  58  90 119 155 205 264 315 375
#     4   9  18  38  63  84 119 167 209 267 304 376
#     4   9  18  36  58  84 115 161 218 248 313 376
#
# _framework density 21.149981
#
# number of rings (size 3 to 8) (size 9 to 14) (size 15 to 20)
#    0.000    2.286    2.857    1.714    2.000    4.000 
#    2.571   14.286    0.000    1.714    0.000    0.000 
#    0.000    0.000    0.000    0.000    0.000    0.000 
#
# Total GULP energy -346889.019924 kJ/mol
# GULP energy per Si atom -12388.893569 kJ/mol
# Density = 2.110184 g / cm^3
# Si number density = 21.149981 Si / 1000 Ang^3
#
#
#
# Elastic Constant Matrix: (Units=GPa)
#
#
# Indices 1 2 3 4 5 6 
#
# 1 47.6684 15.9502 15.3590 0.0000 0.0000 0.0000
# 2 15.9502 131.0895 48.6515 0.0000 0.0000 0.0000
# 3 15.3590 48.6515 71.2506 0.0000 0.0000 0.0000
# 4 0.0000 0.0000 0.0000 33.6698 0.0000 0.0000
# 5 0.0000 0.0000 0.0000 0.0000 27.4724 0.0000
# 6 0.0000 0.0000 0.0000 0.0000 0.0000 20.5091
#
#
#
# Elastic Compliance Matrix: (Units=1/GPa)
#
#
# Indices 1 2 3 4 5 6 
#
# 1 0.022700 -0.001267 -0.004028 0.000000 0.000000 0.000000
# 2 -0.001267 0.010288 -0.006752 0.000000 0.000000 0.000000
# 3 -0.004028 -0.006752 0.019514 0.000000 0.000000 0.000000
# 4 0.000000 0.000000 0.000000 0.029700 0.000000 0.000000
# 5 0.000000 0.000000 0.000000 0.000000 0.036400 0.000000
# 6 0.000000 0.000000 0.000000 0.000000 0.000000 0.048759
#
#
# Mechanical properties :
#
#
# Convention : Reuss Voigt Hill
#
# Bulk Modulus (GPa) = 35.20159 45.54778 40.37468
# Shear Modulus (GPa) = 24.88487 27.66678 26.27583
#
# Velocity S-wave (km/s) = 3.43387 3.62072 3.52853
# Velocity P-wave (km/s) = 5.69226 6.24995 5.97761
#
# Compressibility (1/GPa) = 0.02840781
#
# Stress axis : x y z
#
# Youngs Moduli (GPa) = 44.05267 97.19645 51.24595
#
# Poissons Ratio (x) = 0.12315 0.20643
# Poissons Ratio (y) = 0.05582 0.34602
# Poissons Ratio (z) = 0.17745 0.65628
#
# Static dielectric constant tensor:
#      x y z
#    x 3.613370 0.000000 0.000000 
#    y 0.000000 3.783900 0.000000 
#    z 0.000000 0.000000 3.777450 
# 
# 
# High freq. dielectric constant tensor:
#      x y z
#    x 1.815290 0.000000 0.000000 
#    y 0.000000 1.821920 0.000000 
#    z 0.000000 0.000000 1.815220 
# 
# From -- ./inp_files/21789.got.cif
#   From: 2010.03.12/outbox.cif.g09.slc.cpg/sg20_11_cif.got.tgz:21789.got - 2010.04.14 01:38:04.
