data_PCOD8158714
_publ_section_title
;
Structure prediction by ZEFSAII (Michael W. Deem and Ramdas Pophale) SiO2 
 PCOD8158714
Probable space group: C 2 2 21
;
_chemical_formula_sum "Si O2"
_cell_formula_units_Z 24
_cell_length_a 8.516762
_cell_length_b 25.234893
_cell_length_c 4.895155
_cell_angle_alpha 90.000000
_cell_angle_beta 90.000000
_cell_angle_gamma 90.000000
_cell_volume 1052.064646
_symmetry_space_group_name_H-M "C 2 2 21"
_symmetry_group_IT_number 20
_symmetry_cell_setting 'orthorhombic'
loop_
_space_group_symop_operation_xyz
x,y,z
-x,-y,1/2+z
x,-y,-z
-x,y,1/2-z
1/2+x,1/2+y,z
1/2-x,1/2-y,1/2+z
1/2+x,1/2-y,-z
1/2-x,1/2+y,1/2-z
loop_
_atom_site_type_symbol
_atom_site_label
_atom_site_fract_x
_atom_site_fract_y
_atom_site_fract_z
Si Si1 0.000000 0.255714 0.250000
Si Si2 0.676041 0.889293 0.139224
Si Si3 0.272607 0.821503 0.895770
Si Si4 0.611265 0.000000 0.000000
O O1 0.132480 0.220216 0.111336
O O2 0.072609 0.292661 0.485862
O O3 0.500000 0.893864 0.250000
O O4 0.781123 0.867342 0.389614
O O5 0.690585 0.847430 0.894423
O O6 0.724224 0.949241 0.057086
O O7 0.500000 0.983544 0.750000
#
# Coordination Sequence:
#
# PCOD8158714 Si02
#       4
#     4   8   8   4
#     4  12  30  46  68 100 136 192 226 282 330 412
#     4  11  23  40  68 100 133 175 221 288 335 401
#     4  12  27  44  68  96 140 178 232 275 341 399
#     4  10  20  36  64 100 136 166 220 280 344 392
#
# _framework density 22.812286
#
# number of rings (size 3 to 8) (size 9 to 14) (size 15 to 20)
#    0.000    0.667    1.667    7.000    4.667    6.667 
#    0.000    0.000    0.000    4.000    0.000    2.333 
#    0.000    0.000    0.000    0.000    0.000    0.000 
#
# Total GULP energy -148766.256950 kJ/mol
# GULP energy per Si atom -12397.188079 kJ/mol
# Density = 2.276036 g / cm^3
# Si number density = 22.812286 Si / 1000 Ang^3
#
#
#
# Elastic Constant Matrix: (Units=GPa)
#
#
# Indices 1 2 3 4 5 6 
#
# 1 53.8319 24.7107 11.5788 0.0000 0.0000 0.0000
# 2 24.7107 129.6629 3.3748 0.0000 0.0000 0.0000
# 3 11.5788 3.3748 111.2827 0.0000 0.0000 0.0000
# 4 0.0000 0.0000 0.0000 38.1219 0.0000 0.0000
# 5 0.0000 0.0000 0.0000 0.0000 33.0875 0.0000
# 6 0.0000 0.0000 0.0000 0.0000 0.0000 9.1765
#
#
#
# Elastic Compliance Matrix: (Units=1/GPa)
#
#
# Indices 1 2 3 4 5 6 
#
# 1 0.020813 -0.003913 -0.002047 0.000000 0.000000 0.000000
# 2 -0.003913 0.008454 0.000151 0.000000 0.000000 0.000000
# 3 -0.002047 0.000151 0.009195 0.000000 0.000000 0.000000
# 4 0.000000 0.000000 0.000000 0.026232 0.000000 0.000000
# 5 0.000000 0.000000 0.000000 0.000000 0.030223 0.000000
# 6 0.000000 0.000000 0.000000 0.000000 0.000000 0.108975
#
#
# Mechanical properties :
#
#
# Convention : Reuss Voigt Hill
#
# Bulk Modulus (GPa) = 37.25364 41.56734 39.41049
# Shear Modulus (GPa) = 22.27601 33.08474 27.68037
#
# Velocity S-wave (km/s) = 3.12828 3.81242 3.48716
# Velocity P-wave (km/s) = 5.42348 6.13518 5.79027
#
# Compressibility (1/GPa) = 0.02684301
#
# Stress axis : x y z
#
# Youngs Moduli (GPa) = 48.04717 118.28529 108.76042
#
# Poissons Ratio (x) = 0.46287 0.22262
# Poissons Ratio (y) = 0.18802 -0.01640
# Poissons Ratio (z) = 0.09835 -0.01783
#
# Static dielectric constant tensor:
#      x y z
#    x 3.775480 0.000000 0.000000 
#    y 0.000000 5.058940 0.000000 
#    z 0.000000 0.000000 4.179820 
# 
# 
# High freq. dielectric constant tensor:
#      x y z
#    x 1.835030 0.000000 0.000000 
#    y 0.000000 1.930850 0.000000 
#    z 0.000000 0.000000 1.930510 
# 
# From -- ./inp_files/328.got.cif
#   From: 2010.03.12/outbox.cif.g09.slc.cpg/sg20_1_cif.got.tgz:328.got - 2010.04.14 01:38:04.
