data_PCOD8158586
_publ_section_title
;
Structure prediction by ZEFSAII (Michael W. Deem and Ramdas Pophale) SiO2 
 PCOD8158586
Probable space group: C 2 2 21
;
_chemical_formula_sum "Si O2"
_cell_formula_units_Z 32
_cell_length_a 11.546978
_cell_length_b 8.624024
_cell_length_c 17.076298
_cell_angle_alpha 90.000000
_cell_angle_beta 90.000000
_cell_angle_gamma 90.000000
_cell_volume 1700.481925
_symmetry_space_group_name_H-M "C 2 2 21"
_symmetry_group_IT_number 20
_symmetry_cell_setting 'orthorhombic'
loop_
_space_group_symop_operation_xyz
x,y,z
-x,-y,1/2+z
x,-y,-z
-x,y,1/2-z
1/2+x,1/2+y,z
1/2-x,1/2-y,1/2+z
1/2+x,1/2-y,-z
1/2-x,1/2+y,1/2-z
loop_
_atom_site_type_symbol
_atom_site_label
_atom_site_fract_x
_atom_site_fract_y
_atom_site_fract_z
Si Si1 0.731335 0.500000 0.500000
Si Si2 0.651482 0.414415 0.884290
Si Si3 0.622112 0.716376 0.623474
Si Si4 0.107237 0.765078 0.041964
Si Si5 0.000000 0.026481 0.750000
O O1 0.652435 0.578563 0.564706
O O2 0.807216 0.378235 0.548133
O O3 0.777575 0.343241 0.865021
O O4 0.666183 0.591384 0.912404
O O5 0.570624 0.412897 0.807739
O O6 0.588068 0.312145 0.950990
O O7 0.509798 0.794242 0.583475
O O8 0.590817 0.639072 0.706205
#
# Coordination Sequence:
#
# PCOD8158586 Si02
#       5
#     4   8   8   8   4
#     4  10  20  34  58  82 102 136 176 220 266 306
#     4   9  19  36  56  76 106 142 172 217 265 306
#     4  10  20  36  55  77 108 140 174 219 263 309
#     4   9  19  36  56  80 102 132 180 220 260 310
#     4  10  20  34  52  78 110 140 176 212 258 320
#
# _framework density 18.818196
#
# number of rings (size 3 to 8) (size 9 to 14) (size 15 to 20)
#    0.000    2.500    0.000    3.000    0.000    8.000 
#    0.000    7.500    0.000    3.000    0.000    0.000 
#    0.000    0.000    0.000    0.000    0.000    0.000 
#
# Total GULP energy -198382.932182 kJ/mol
# GULP energy per Si atom -12398.933261 kJ/mol
# Density = 1.877537 g / cm^3
# Si number density = 18.818196 Si / 1000 Ang^3
#
#
#
# Elastic Constant Matrix: (Units=GPa)
#
#
# Indices 1 2 3 4 5 6 
#
# 1 91.4472 26.0229 44.0560 0.0000 0.0000 0.0000
# 2 26.0229 56.4808 17.0275 0.0000 0.0000 0.0000
# 3 44.0560 17.0275 99.9595 0.0000 0.0000 0.0000
# 4 0.0000 0.0000 0.0000 17.0460 0.0000 0.0000
# 5 0.0000 0.0000 0.0000 0.0000 31.0378 0.0000
# 6 0.0000 0.0000 0.0000 0.0000 0.0000 -14.8621
#
#
#
# Elastic Compliance Matrix: (Units=1/GPa)
#
#
# Indices 1 2 3 4 5 6 
#
# 1 0.015237 -0.005266 -0.005818 0.000000 0.000000 0.000000
# 2 -0.005266 0.020484 -0.001168 0.000000 0.000000 0.000000
# 3 -0.005818 -0.001168 0.012767 0.000000 0.000000 0.000000
# 4 0.000000 0.000000 0.000000 0.058665 0.000000 0.000000
# 5 0.000000 0.000000 0.000000 0.000000 0.032219 0.000000
# 6 0.000000 0.000000 0.000000 0.000000 0.000000 -0.067285
#
#
# Mechanical properties :
#
#
# Convention : Reuss Voigt Hill
#
# Bulk Modulus (GPa) = 41.69738 46.90005 44.29871
# Shear Modulus (GPa) = 47.80749 17.36309 32.58529
#
# Velocity S-wave (km/s) = 5.04580 3.04085 4.16574
# Velocity P-wave (km/s) = 7.49352 6.10785 6.83589
#
# Compressibility (1/GPa) = 0.02398232
#
# Stress axis : x y z
#
# Youngs Moduli (GPa) = 65.62975 48.81944 78.32390
#
# Poissons Ratio (x) = 0.25709 0.45573
# Poissons Ratio (y) = 0.34562 0.09150
# Poissons Ratio (z) = 0.38187 0.05703
#
# Static dielectric constant tensor:
#      x y z
#    x 3.503030 0.000000 0.000000 
#    y 0.000000 3.336790 0.000000 
#    z 0.000000 0.000000 3.650620 
# 
# 
# High freq. dielectric constant tensor:
#      x y z
#    x 1.734020 0.000000 0.000000 
#    y 0.000000 1.718780 0.000000 
#    z 0.000000 0.000000 1.734950 
# 
# From -- ./inp_files/18226.got.cif
#   From: 2010.03.12/outbox.cif.g09.slc.cpg/sg20_10_cif.got.tgz:18226.got - 2010.04.14 01:38:04.
