data_PCOD8158363
_publ_section_title
;
Structure prediction by ZEFSAII (Michael W. Deem and Ramdas Pophale) SiO2 
 PCOD8158363
Probable space group: C 2 2 21
;
_chemical_formula_sum "Si O2"
_cell_formula_units_Z 44
_cell_length_a 12.113934
_cell_length_b 13.987173
_cell_length_c 13.353690
_cell_angle_alpha 90.000000
_cell_angle_beta 90.000000
_cell_angle_gamma 90.000000
_cell_volume 2262.645102
_symmetry_space_group_name_H-M "C 2 2 21"
_symmetry_group_IT_number 20
_symmetry_cell_setting 'orthorhombic'
loop_
_space_group_symop_operation_xyz
x,y,z
-x,-y,1/2+z
x,-y,-z
-x,y,1/2-z
1/2+x,1/2+y,z
1/2-x,1/2-y,1/2+z
1/2+x,1/2-y,-z
1/2-x,1/2+y,1/2-z
loop_
_atom_site_type_symbol
_atom_site_label
_atom_site_fract_x
_atom_site_fract_y
_atom_site_fract_z
Si Si1 0.500000 0.295024 0.750000
Si Si2 0.632417 0.445182 0.856495
Si Si3 0.684118 0.000000 0.500000
Si Si4 0.053745 0.000000 0.500000
Si Si5 0.413970 0.315450 0.098932
Si Si6 0.875237 0.685863 0.915333
Si Si7 0.148910 0.840103 0.185259
O O1 0.608710 0.359191 0.777916
O O2 0.469491 0.225992 0.842530
O O3 0.737615 0.431994 0.930096
O O4 0.649899 0.545243 0.798948
O O5 0.520683 0.443670 0.920512
O O6 0.608576 0.928487 0.434275
O O7 0.126067 0.918512 0.445118
O O8 0.545904 0.314080 0.114878
O O9 0.356020 0.294088 0.204704
O O10 0.379538 0.233625 0.023449
O O11 0.755602 0.702819 0.867500
#
# Coordination Sequence:
#
# PCOD8158363 Si02
#       7
#     4   8   4   4   8   8   8
#     4  12  22  34  62 100 110 148 204 272 286 342
#     4   9  17  34  60  83 121 144 195 238 310 348
#     4   9  22  42  56  77 120 182 187 232 306 373
#     4   9  14  30  56  91 110 148 175 258 300 333
#     4  10  19  35  59  85 124 153 196 242 303 360
#     4  11  24  36  62  86 124 158 206 242 298 353
#     4   9  21  37  57  90 121 159 189 244 304 364
#
# _framework density 19.446266000000001
#
# number of rings (size 3 to 8) (size 9 to 14) (size 15 to 20)
#    0.000    2.182    1.818    3.273    2.545    0.000 
#    0.000    1.818    0.000    2.182    0.000    0.000 
#    0.000    0.000    0.000    0.000    0.000    0.000 
#
# Total GULP energy -272685.647523 kJ/mol
# GULP energy per Si atom -12394.802160 kJ/mol
# Density = 1.940201 g / cm^3
# Si number density = 19.446266 Si / 1000 Ang^3
#
#
#
# Elastic Constant Matrix: (Units=GPa)
#
#
# Indices 1 2 3 4 5 6 
#
# 1 52.8714 39.2883 32.4473 0.0000 0.0000 0.0000
# 2 39.2883 91.7427 48.2390 0.0000 0.0000 0.0000
# 3 32.4473 48.2390 108.6872 0.0000 0.0000 0.0000
# 4 0.0000 0.0000 0.0000 37.8016 0.0000 0.0000
# 5 0.0000 0.0000 0.0000 0.0000 24.5222 0.0000
# 6 0.0000 0.0000 0.0000 0.0000 0.0000 18.2665
#
#
#
# Elastic Compliance Matrix: (Units=1/GPa)
#
#
# Indices 1 2 3 4 5 6 
#
# 1 0.029088 -0.010293 -0.004116 0.000000 0.000000 0.000000
# 2 -0.010293 0.017860 -0.004854 0.000000 0.000000 0.000000
# 3 -0.004116 -0.004854 0.012584 0.000000 0.000000 0.000000
# 4 0.000000 0.000000 0.000000 0.026454 0.000000 0.000000
# 5 0.000000 0.000000 0.000000 0.000000 0.040779 0.000000
# 6 0.000000 0.000000 0.000000 0.000000 0.000000 0.054745
#
#
# Mechanical properties :
#
#
# Convention : Reuss Voigt Hill
#
# Bulk Modulus (GPa) = 47.60324 54.80559 51.20441
# Shear Modulus (GPa) = 22.02275 25.00650 23.51462
#
# Velocity S-wave (km/s) = 3.36890 3.58987 3.48114
# Velocity P-wave (km/s) = 6.29803 6.73997 6.52274
#
# Compressibility (1/GPa) = 0.02100697
#
# Stress axis : x y z
#
# Youngs Moduli (GPa) = 34.37843 55.99033 79.46703
#
# Poissons Ratio (x) = 0.57629 0.32706
# Poissons Ratio (y) = 0.35385 0.38575
# Poissons Ratio (z) = 0.14149 0.27179
#
# Static dielectric constant tensor:
#      x y z
#    x 3.195040 0.000000 0.000000 
#    y 0.000000 3.456630 0.000000 
#    z 0.000000 0.000000 3.769810 
# 
# 
# High freq. dielectric constant tensor:
#      x y z
#    x 1.712010 0.000000 0.000000 
#    y 0.000000 1.744860 0.000000 
#    z 0.000000 0.000000 1.775170 
# 
# From -- ./inp_files/14996.got.cif
#   From: 2010.03.12/outbox.cif.g09.slc.cpg/sg20_8_cif.got.tgz:14996.got - 2010.04.14 01:38:04.
