data_PCOD8158220
_publ_section_title
;
Structure prediction by ZEFSAII (Michael W. Deem and Ramdas Pophale) SiO2 
 PCOD8158220
Probable space group: C 2 2 21
;
_chemical_formula_sum "Si O2"
_cell_formula_units_Z 52
_cell_length_a 17.776006
_cell_length_b 8.589584
_cell_length_c 16.848972
_cell_angle_alpha 90.000000
_cell_angle_beta 90.000000
_cell_angle_gamma 90.000000
_cell_volume 2572.644206
_symmetry_space_group_name_H-M "C 2 2 21"
_symmetry_group_IT_number 20
_symmetry_cell_setting 'orthorhombic'
loop_
_space_group_symop_operation_xyz
x,y,z
-x,-y,1/2+z
x,-y,-z
-x,y,1/2-z
1/2+x,1/2+y,z
1/2-x,1/2-y,1/2+z
1/2+x,1/2-y,-z
1/2-x,1/2+y,1/2-z
loop_
_atom_site_type_symbol
_atom_site_label
_atom_site_fract_x
_atom_site_fract_y
_atom_site_fract_z
Si Si1 0.957383 0.041650 0.828051
Si Si2 0.456960 0.738126 0.362911
Si Si3 0.297942 0.407484 0.658218
Si Si4 0.064860 0.578226 0.190222
Si Si5 0.179182 0.000000 0.000000
Si Si6 0.548745 0.282735 0.045069
Si Si7 0.817689 0.805113 0.238030
O O1 0.871024 0.096266 0.821781
O O2 0.000000 0.111085 0.750000
O O3 0.989585 0.101236 0.912412
O O4 0.969025 0.852766 0.828832
O O5 0.387499 0.621216 0.347423
O O6 0.473294 0.768983 0.456128
O O7 0.436185 0.891836 0.313780
O O8 0.268003 0.426043 0.567772
O O9 0.254404 0.261158 0.693109
O O10 0.283765 0.571082 0.700966
O O11 0.051455 0.630673 0.099911
O O12 0.141806 0.656161 0.221652
O O13 0.000000 0.633588 0.250000
O O14 0.128790 0.131894 0.957322
#
# Coordination Sequence:
#
# PCOD8158220 Si02
#       7
#     8   8   8   8   4   8   8
#     4  12  18  39  66  91 120 164 214 269 314 370
#     4  11  23  37  65  97 124 164 219 261 321 385
#     4  11  23  41  65  89 126 175 212 258 324 392
#     4  12  22  37  62  98 127 161 212 271 313 375
#     4  10  18  40  70  86 116 176 216 250 320 392
#     4  11  18  38  65  93 121 164 213 266 311 377
#     4  12  23  40  65  92 132 167 216 265 325 378
#
# _framework density 20.212668000000001
#
# number of rings (size 3 to 8) (size 9 to 14) (size 15 to 20)
#    0.000    0.615    9.231    1.846    0.000    0.000 
#    0.000    1.538    3.385    0.000    0.000    0.000 
#    0.000    0.000    0.000    0.000    0.000    0.000 
#
# Total GULP energy -322200.142262 kJ/mol
# GULP energy per Si atom -12392.313164 kJ/mol
# Density = 2.016666 g / cm^3
# Si number density = 20.212668 Si / 1000 Ang^3
#
#
#
# Elastic Constant Matrix: (Units=GPa)
#
#
# Indices 1 2 3 4 5 6 
#
# 1 61.3374 31.6570 44.9860 0.0000 0.0000 0.0000
# 2 31.6570 131.9259 44.9844 0.0000 0.0000 0.0000
# 3 44.9860 44.9844 120.9985 0.0000 0.0000 0.0000
# 4 0.0000 0.0000 0.0000 27.7683 0.0000 0.0000
# 5 0.0000 0.0000 0.0000 0.0000 23.3538 0.0000
# 6 0.0000 0.0000 0.0000 0.0000 0.0000 -47.1846
#
#
#
# Elastic Compliance Matrix: (Units=1/GPa)
#
#
# Indices 1 2 3 4 5 6 
#
# 1 0.023432 -0.003037 -0.007583 0.000000 0.000000 0.000000
# 2 -0.003037 0.009074 -0.002244 0.000000 0.000000 0.000000
# 3 -0.007583 -0.002244 0.011918 0.000000 0.000000 0.000000
# 4 0.000000 0.000000 0.000000 0.036012 0.000000 0.000000
# 5 0.000000 0.000000 0.000000 0.000000 0.042820 0.000000
# 6 0.000000 0.000000 0.000000 0.000000 0.000000 -0.021193
#
#
# Mechanical properties :
#
#
# Convention : Reuss Voigt Hill
#
# Bulk Modulus (GPa) = 53.48769 61.94628 57.71698
# Shear Modulus (GPa) = 37.30698 13.62977 25.46837
#
# Velocity S-wave (km/s) = 4.30085 2.59958 3.55353
# Velocity P-wave (km/s) = 7.15423 6.30271 6.74193
#
# Compressibility (1/GPa) = 0.01869589
#
# Stress axis : x y z
#
# Youngs Moduli (GPa) = 42.67664 110.20370 83.90600
#
# Poissons Ratio (x) = 0.33471 0.63623
# Poissons Ratio (y) = 0.12962 0.18831
# Poissons Ratio (z) = 0.32360 0.24733
#
# Static dielectric constant tensor:
#      x y z
#    x 3.239570 0.000000 0.000000 
#    y 0.000000 3.666850 0.000000 
#    z 0.000000 0.000000 4.216600 
# 
# 
# High freq. dielectric constant tensor:
#      x y z
#    x 1.740670 0.000000 0.000000 
#    y 0.000000 1.803730 0.000000 
#    z 0.000000 0.000000 1.803500 
# 
# From -- ./inp_files/25232.got.cif
#   From: 2010.03.12/outbox.cif.g09.slc.cpg/sg20_13_cif.got.tgz:25232.got - 2010.04.14 01:38:04.
