data_PCOD8158590
_publ_section_title
;
Structure prediction by ZEFSAII (Michael W. Deem and Ramdas Pophale) SiO2 
 PCOD8158590
Probable space group: C 2 2 21
;
_chemical_formula_sum "Si O2"
_cell_formula_units_Z 40
_cell_length_a 14.157955
_cell_length_b 18.298867
_cell_length_c 8.017124
_cell_angle_alpha 90.000000
_cell_angle_beta 90.000000
_cell_angle_gamma 90.000000
_cell_volume 2077.032677
_symmetry_space_group_name_H-M "C 2 2 21"
_symmetry_group_IT_number 20
_symmetry_cell_setting 'orthorhombic'
loop_
_space_group_symop_operation_xyz
x,y,z
-x,-y,1/2+z
x,-y,-z
-x,y,1/2-z
1/2+x,1/2+y,z
1/2-x,1/2-y,1/2+z
1/2+x,1/2-y,-z
1/2-x,1/2+y,1/2-z
loop_
_atom_site_type_symbol
_atom_site_label
_atom_site_fract_x
_atom_site_fract_y
_atom_site_fract_z
Si Si1 0.937663 0.208658 0.909136
Si Si2 0.107614 0.838994 0.883626
Si Si3 0.100661 0.691970 0.690800
Si Si4 0.208621 0.120836 0.792639
Si Si5 0.102918 0.012783 0.305229
O O1 0.847577 0.160859 0.856974
O O2 0.000000 0.230632 0.750000
O O3 0.904579 0.284086 0.996312
O O4 0.000648 0.161619 0.041780
O O5 0.130188 0.763597 0.793615
O O6 0.118096 0.904306 0.751655
O O7 0.182823 0.844869 0.030195
O O8 0.178851 0.630287 0.726493
O O9 0.000000 0.659876 0.750000
O O10 0.181649 0.035560 0.789829
O O11 0.000000 0.983021 0.250000
O O12 0.116462 0.000000 0.500000
#
# Coordination Sequence:
#
# PCOD8158590 Si02
#       5
#     8   8   8   8   8
#     4   9  18  33  52  78 108 136 168 213 265 314
#     4  10  20  34  54  80 108 137 171 213 266 314
#     4  10  20  35  54  77 107 141 177 215 252 303
#     4  11  20  32  53  80 110 139 172 212 260 313
#     4  12  22  34  54  81 111 137 167 213 269 320
#
# _framework density 19.258243
#
# number of rings (size 3 to 8) (size 9 to 14) (size 15 to 20)
#    0.000    1.600    0.000    9.000    0.000    0.000 
#    0.000    2.000    0.000    2.400    0.000    5.600 
#    0.000    0.000    0.000    0.000    0.000    0.000 
#
# Total GULP energy -248016.689247 kJ/mol
# GULP energy per Si atom -12400.834462 kJ/mol
# Density = 1.921441 g / cm^3
# Si number density = 19.258243 Si / 1000 Ang^3
#
#
#
# Elastic Constant Matrix: (Units=GPa)
#
#
# Indices 1 2 3 4 5 6 
#
# 1 119.8214 52.2921 12.3138 0.0000 0.0000 0.0000
# 2 52.2921 66.0086 18.9875 0.0000 0.0000 0.0000
# 3 12.3138 18.9875 65.2908 0.0000 0.0000 0.0000
# 4 0.0000 0.0000 0.0000 18.3784 0.0000 0.0000
# 5 0.0000 0.0000 0.0000 0.0000 17.5477 0.0000
# 6 0.0000 0.0000 0.0000 0.0000 0.0000 24.2348
#
#
#
# Elastic Compliance Matrix: (Units=1/GPa)
#
#
# Indices 1 2 3 4 5 6 
#
# 1 0.012776 -0.010289 0.000583 0.000000 0.000000 0.000000
# 2 -0.010289 0.024818 -0.005277 0.000000 0.000000 0.000000
# 3 0.000583 -0.005277 0.016741 0.000000 0.000000 0.000000
# 4 0.000000 0.000000 0.000000 0.054412 0.000000 0.000000
# 5 0.000000 0.000000 0.000000 0.000000 0.056987 0.000000
# 6 0.000000 0.000000 0.000000 0.000000 0.000000 0.041263
#
#
# Mechanical properties :
#
#
# Convention : Reuss Voigt Hill
#
# Bulk Modulus (GPa) = 41.03632 46.47863 43.75748
# Shear Modulus (GPa) = 20.40095 23.20069 21.80082
#
# Velocity S-wave (km/s) = 3.25827 3.47467 3.36821
# Velocity P-wave (km/s) = 5.95901 6.34701 6.15607
#
# Compressibility (1/GPa) = 0.02436865
#
# Stress axis : x y z
#
# Youngs Moduli (GPa) = 78.27116 40.29286 59.73411
#
# Poissons Ratio (x) = 0.41457 -0.03480
# Poissons Ratio (y) = 0.80532 0.31522
# Poissons Ratio (z) = -0.04560 0.21263
#
# Static dielectric constant tensor:
#      x y z
#    x 3.394160 0.000000 0.000000 
#    y 0.000000 3.200800 0.000000 
#    z 0.000000 0.000000 3.903090 
# 
# 
# High freq. dielectric constant tensor:
#      x y z
#    x 1.726830 0.000000 0.000000 
#    y 0.000000 1.713930 0.000000 
#    z 0.000000 0.000000 1.772610 
# 
# From -- ./inp_files/7218.got.cif
#   From: 2010.03.12/outbox.cif.g09.slc.cpg/sg20_4_cif.got.tgz:7218.got - 2010.04.14 01:38:04.
