data_PCOD8158777
_publ_section_title
;
Structure prediction by ZEFSAII (Michael W. Deem and Ramdas Pophale) SiO2 
 PCOD8158777
Probable space group: C 2 2 21
;
_chemical_formula_sum "Si O2"
_cell_formula_units_Z 40
_cell_length_a 21.505399
_cell_length_b 10.035898
_cell_length_c 8.468905
_cell_angle_alpha 90.000000
_cell_angle_beta 90.000000
_cell_angle_gamma 90.000000
_cell_volume 1827.809813
_symmetry_space_group_name_H-M "C 2 2 21"
_symmetry_group_IT_number 20
_symmetry_cell_setting 'orthorhombic'
loop_
_space_group_symop_operation_xyz
x,y,z
-x,-y,1/2+z
x,-y,-z
-x,y,1/2-z
1/2+x,1/2+y,z
1/2-x,1/2-y,1/2+z
1/2+x,1/2-y,-z
1/2-x,1/2+y,1/2-z
loop_
_atom_site_type_symbol
_atom_site_label
_atom_site_fract_x
_atom_site_fract_y
_atom_site_fract_z
Si Si1 0.472416 0.635817 0.579761
Si Si2 0.162071 0.228852 0.295648
Si Si3 0.537763 0.128691 0.601961
Si Si4 0.254454 0.643024 0.927617
Si Si5 0.839479 0.951425 0.340938
O O1 0.497074 0.500000 0.500000
O O2 0.500000 0.651365 0.750000
O O3 0.494107 0.761162 0.478558
O O4 0.397878 0.634140 0.596497
O O5 0.103896 0.313610 0.349395
O O6 0.191554 0.287401 0.133746
O O7 0.212140 0.230549 0.438413
O O8 0.138333 0.079234 0.261432
O O9 0.500000 0.074407 0.750000
O O10 0.552026 0.000000 0.500000
O O11 0.297643 0.637707 0.772174
O O12 0.237054 0.500000 0.000000
O O13 0.802836 0.000000 0.500000
#
# Coordination Sequence:
#
# PCOD8158777 Si02
#       5
#     8   8   8   8   8
#     4  11  21  39  67  94 126 169 217 270 322 382
#     4  11  23  42  65  95 131 169 216 270 323 387
#     4  12  27  44  63  95 135 177 221 269 325 386
#     4  10  23  40  65  96 129 168 215 264 324 389
#     4  10  20  37  64  94 123 165 216 267 322 386
#
# _framework density 21.884112999999999
#
# number of rings (size 3 to 8) (size 9 to 14) (size 15 to 20)
#    0.000    1.200    0.000    7.200    0.000    6.400 
#    0.000    4.000    0.000    0.000    0.000    0.000 
#    0.000    0.000    0.000    0.000    0.000    0.000 
#
# Total GULP energy -248008.162112 kJ/mol
# GULP energy per Si atom -12400.408106 kJ/mol
# Density = 2.183430 g / cm^3
# Si number density = 21.884113 Si / 1000 Ang^3
#
#
#
# Elastic Constant Matrix: (Units=GPa)
#
#
# Indices 1 2 3 4 5 6 
#
# 1 109.8781 53.3845 37.8569 0.0000 0.0000 0.0000
# 2 53.3845 82.2064 13.9501 0.0000 0.0000 0.0000
# 3 37.8569 13.9501 110.2215 0.0000 0.0000 0.0000
# 4 0.0000 0.0000 0.0000 20.7915 0.0000 0.0000
# 5 0.0000 0.0000 0.0000 0.0000 56.8938 0.0000
# 6 0.0000 0.0000 0.0000 0.0000 0.0000 3.2359
#
#
#
# Elastic Compliance Matrix: (Units=1/GPa)
#
#
# Indices 1 2 3 4 5 6 
#
# 1 0.014810 -0.008947 -0.003954 0.000000 0.000000 0.000000
# 2 -0.008947 0.017836 0.000815 0.000000 0.000000 0.000000
# 3 -0.003954 0.000815 0.010328 0.000000 0.000000 0.000000
# 4 0.000000 0.000000 0.000000 0.048097 0.000000 0.000000
# 5 0.000000 0.000000 0.000000 0.000000 0.017577 0.000000
# 6 0.000000 0.000000 0.000000 0.000000 0.000000 0.309031
#
#
# Mechanical properties :
#
#
# Convention : Reuss Voigt Hill
#
# Bulk Modulus (GPa) = 53.18407 56.96542 55.07474
# Shear Modulus (GPa) = 11.15779 29.32520 20.24150
#
# Velocity S-wave (km/s) = 2.26045 3.66460 3.04458
# Velocity P-wave (km/s) = 5.58285 6.63270 6.13029
#
# Compressibility (1/GPa) = 0.01880262
#
# Stress axis : x y z
#
# Youngs Moduli (GPa) = 67.52123 56.06627 96.82764
#
# Poissons Ratio (x) = 0.50160 0.38290
# Poissons Ratio (y) = 0.60409 -0.07896
# Poissons Ratio (z) = 0.26701 -0.04572
#
# Static dielectric constant tensor:
#      x y z
#    x 3.937670 0.000000 0.000000 
#    y 0.000000 3.853670 0.000000 
#    z 0.000000 0.000000 4.406990 
# 
# 
# High freq. dielectric constant tensor:
#      x y z
#    x 1.851030 0.000000 0.000000 
#    y 0.000000 1.855160 0.000000 
#    z 0.000000 0.000000 1.890300 
# 
# From -- ./inp_files/6052.got.cif
#   From: 2010.03.12/outbox.cif.g09.slc.cpg/sg20_4_cif.got.tgz:6052.got - 2010.04.14 01:38:04.
