data_PCOD8158780
_publ_section_title
;
Structure prediction by ZEFSAII (Michael W. Deem and Ramdas Pophale) SiO2 
 PCOD8158780
Probable space group: C 2 2 21
;
_chemical_formula_sum "Si O2"
_cell_formula_units_Z 44
_cell_length_a 10.837329
_cell_length_b 13.403245
_cell_length_c 15.117266
_cell_angle_alpha 90.000000
_cell_angle_beta 90.000000
_cell_angle_gamma 90.000000
_cell_volume 2195.864153
_symmetry_space_group_name_H-M "C 2 2 21"
_symmetry_group_IT_number 20
_symmetry_cell_setting 'orthorhombic'
loop_
_space_group_symop_operation_xyz
x,y,z
-x,-y,1/2+z
x,-y,-z
-x,y,1/2-z
1/2+x,1/2+y,z
1/2-x,1/2-y,1/2+z
1/2+x,1/2-y,-z
1/2-x,1/2+y,1/2-z
loop_
_atom_site_type_symbol
_atom_site_label
_atom_site_fract_x
_atom_site_fract_y
_atom_site_fract_z
Si Si1 0.236552 0.368487 0.897369
Si Si2 0.753829 0.927585 0.195795
Si Si3 0.400828 0.689993 0.678698
Si Si4 0.500000 0.983645 0.250000
Si Si5 0.113427 0.800612 0.443188
Si Si6 0.467538 0.916718 0.932148
O O1 0.281502 0.460889 0.837849
O O2 0.203401 0.274028 0.835960
O O3 0.112659 0.396440 0.952206
O O4 0.351351 0.343806 0.961121
O O5 0.835306 0.909529 0.284227
O O6 0.609794 0.913145 0.216780
O O7 0.785533 0.842158 0.125175
O O8 0.500000 0.732142 0.750000
O O9 0.475949 0.664401 0.588248
O O10 0.548644 0.052083 0.330148
O O11 0.116424 0.680628 0.447231
O O12 0.418843 0.000000 0.000000
#
# Coordination Sequence:
#
# PCOD8158780 Si02
#       6
#     8   8   8   4   8   8
#     4  10  20  37  66  91 120 168 209 260 321 373
#     4  10  21  36  67  88 124 166 213 252 319 384
#     4   9  21  39  65  89 126 168 204 263 323 382
#     4  10  22  38  68  94 126 162 224 268 308 378
#     4  10  21  38  65  90 126 163 206 256 333 377
#     4  10  22  38  65  97 121 161 216 270 308 373
#
# _framework density 20.037669000000001
#
# number of rings (size 3 to 8) (size 9 to 14) (size 15 to 20)
#    0.000    2.182    0.000    2.727   21.636    0.000 
#    0.000    0.000   42.000    0.000    0.000    0.000 
#    0.000    0.000    0.000    0.000    0.000    0.000 
#
# Total GULP energy -272692.865292 kJ/mol
# GULP energy per Si atom -12395.130241 kJ/mol
# Density = 1.999206 g / cm^3
# Si number density = 20.037669 Si / 1000 Ang^3
#
#
#
# Elastic Constant Matrix: (Units=GPa)
#
#
# Indices 1 2 3 4 5 6 
#
# 1 86.2152 81.3045 57.1418 0.0000 0.0000 0.0000
# 2 81.3045 146.9021 76.5078 0.0000 0.0000 0.0000
# 3 57.1418 76.5078 113.6956 0.0000 0.0000 0.0000
# 4 0.0000 0.0000 0.0000 41.4075 0.0000 0.0000
# 5 0.0000 0.0000 0.0000 0.0000 41.3822 0.0000
# 6 0.0000 0.0000 0.0000 0.0000 0.0000 41.2678
#
#
#
# Elastic Compliance Matrix: (Units=1/GPa)
#
#
# Indices 1 2 3 4 5 6 
#
# 1 0.026143 -0.011741 -0.005238 0.000000 0.000000 0.000000
# 2 -0.011741 0.015753 -0.004700 0.000000 0.000000 0.000000
# 3 -0.005238 -0.004700 0.014591 0.000000 0.000000 0.000000
# 4 0.000000 0.000000 0.000000 0.024150 0.000000 0.000000
# 5 0.000000 0.000000 0.000000 0.000000 0.024165 0.000000
# 6 0.000000 0.000000 0.000000 0.000000 0.000000 0.024232
#
#
# Mechanical properties :
#
#
# Convention : Reuss Voigt Hill
#
# Bulk Modulus (GPa) = 76.16925 86.30233 81.23579
# Shear Modulus (GPa) = 28.28569 33.60210 30.94389
#
# Velocity S-wave (km/s) = 3.76124 4.09950 3.93400
# Velocity P-wave (km/s) = 7.54706 8.09762 7.82718
#
# Compressibility (1/GPa) = 0.01312866
#
# Stress axis : x y z
#
# Youngs Moduli (GPa) = 38.25127 63.48004 68.53693
#
# Poissons Ratio (x) = 0.74531 0.35903
# Poissons Ratio (y) = 0.44910 0.32210
# Poissons Ratio (z) = 0.20038 0.29834
#
# Static dielectric constant tensor:
#      x y z
#    x 3.638040 0.000000 0.000000 
#    y 0.000000 3.622740 0.000000 
#    z 0.000000 0.000000 3.737540 
# 
# 
# High freq. dielectric constant tensor:
#      x y z
#    x 1.762760 0.000000 0.000000 
#    y 0.000000 1.775370 0.000000 
#    z 0.000000 0.000000 1.781790 
# 
# From -- ./inp_files/24180.got.cif
#   From: 2010.03.12/outbox.cif.g09.slc.cpg/sg20_13_cif.got.tgz:24180.got - 2010.04.14 01:38:04.
