data_PCOD8158040
_publ_section_title
;
Structure prediction by ZEFSAII (Michael W. Deem and Ramdas Pophale) SiO2 
 PCOD8158040
Probable space group: C 2 2 21
;
_chemical_formula_sum "Si O2"
_cell_formula_units_Z 56
_cell_length_a 31.916610
_cell_length_b 5.193262
_cell_length_c 23.362305
_cell_angle_alpha 90.000000
_cell_angle_beta 90.000000
_cell_angle_gamma 90.000000
_cell_volume 3872.332843
_symmetry_space_group_name_H-M "C 2 2 21"
_symmetry_group_IT_number 20
_symmetry_cell_setting 'orthorhombic'
loop_
_space_group_symop_operation_xyz
x,y,z
-x,-y,1/2+z
x,-y,-z
-x,y,1/2-z
1/2+x,1/2+y,z
1/2-x,1/2-y,1/2+z
1/2+x,1/2-y,-z
1/2-x,1/2+y,1/2-z
loop_
_atom_site_type_symbol
_atom_site_label
_atom_site_fract_x
_atom_site_fract_y
_atom_site_fract_z
Si Si1 0.124417 0.920887 0.770905
Si Si2 0.539404 0.587616 0.790031
Si Si3 0.747245 0.942334 0.674392
Si Si4 0.131579 0.534006 0.934426
Si Si5 0.430611 0.909387 0.337645
Si Si6 0.205520 0.937814 0.705453
Si Si7 0.669851 0.535975 0.885465
O O1 0.108859 0.636065 0.793000
O O2 0.082665 0.079688 0.752828
O O3 0.155731 0.918170 0.717283
O O4 0.145789 0.060015 0.825252
O O5 0.500000 0.542549 0.750000
O O6 0.542303 0.357310 0.837476
O O7 0.537466 0.865293 0.819824
O O8 0.770396 0.935422 0.734858
O O9 0.717151 0.187713 0.668930
O O10 0.781365 0.966886 0.624206
O O11 0.718445 0.687856 0.668489
O O12 0.088024 0.519733 0.899455
O O13 0.164348 0.311766 0.915839
O O14 0.151949 0.812895 0.925678
O O15 0.119205 0.500000 0.000000
#
# Coordination Sequence:
#
# PCOD8158040 Si02
#       7
#     8   8   8   8   8   8   8
#     4   8  18  26  43  57  86 113 145 178 200 250
#     4  10  18  29  44  61  83 118 148 173 215 260
#     4   9  17  25  37  56  78 111 139 176 197 241
#     4  11  19  30  46  62  81 116 150 181 216 252
#     4   9  18  30  41  62  84 113 146 187 202 256
#     4   9  16  24  38  56  78 107 148 166 203 232
#     4  10  18  30  41  58  88 112 147 175 212 241
#
# _framework density 14.461567000000001
#
# number of rings (size 3 to 8) (size 9 to 14) (size 15 to 20)
#    0.857    1.714    1.429    1.714    2.000    3.429 
#    0.000    0.000    0.000    0.000    0.000    0.000 
#    0.000    0.000    0.000   25.714    0.000    1.429 
#
# Total GULP energy -346888.853666 kJ/mol
# GULP energy per Si atom -12388.887631 kJ/mol
# Density = 1.442865 g / cm^3
# Si number density = 14.461567 Si / 1000 Ang^3
#
#
#
# Elastic Constant Matrix: (Units=GPa)
#
#
# Indices 1 2 3 4 5 6 
#
# 1 72.6052 22.6098 31.0391 0.0000 0.0000 0.0000
# 2 22.6098 101.1720 20.3570 0.0000 0.0000 0.0000
# 3 31.0391 20.3570 46.8985 0.0000 0.0000 0.0000
# 4 0.0000 0.0000 0.0000 14.0464 0.0000 0.0000
# 5 0.0000 0.0000 0.0000 0.0000 12.2491 0.0000
# 6 0.0000 0.0000 0.0000 0.0000 0.0000 21.0765
#
#
#
# Elastic Compliance Matrix: (Units=1/GPa)
#
#
# Indices 1 2 3 4 5 6 
#
# 1 0.019547 -0.001934 -0.012097 0.000000 0.000000 0.000000
# 2 -0.001934 0.011021 -0.003504 0.000000 0.000000 0.000000
# 3 -0.012097 -0.003504 0.030850 0.000000 0.000000 0.000000
# 4 0.000000 0.000000 0.000000 0.071192 0.000000 0.000000
# 5 0.000000 0.000000 0.000000 0.000000 0.081639 0.000000
# 6 0.000000 0.000000 0.000000 0.000000 0.000000 0.047446
#
#
# Mechanical properties :
#
#
# Convention : Reuss Voigt Hill
#
# Bulk Modulus (GPa) = 37.95415 40.96529 39.45972
# Shear Modulus (GPa) = 16.36394 19.25238 17.80816
#
# Velocity S-wave (km/s) = 3.36750 3.65263 3.51296
# Velocity P-wave (km/s) = 6.43598 6.79540 6.61813
#
# Compressibility (1/GPa) = 0.02634758
#
# Stress axis : x y z
#
# Youngs Moduli (GPa) = 51.15830 90.73218 32.41484
#
# Poissons Ratio (x) = 0.17550 0.39214
# Poissons Ratio (y) = 0.09895 0.11358
# Poissons Ratio (z) = 0.61888 0.31792
#
# Static dielectric constant tensor:
#      x y z
#    x 2.716700 0.000000 0.000000 
#    y 0.000000 2.977060 0.000000 
#    z 0.000000 0.000000 2.383500 
# 
# 
# High freq. dielectric constant tensor:
#      x y z
#    x 1.532500 0.000000 0.000000 
#    y 0.000000 1.574000 0.000000 
#    z 0.000000 0.000000 1.491300 
# 
# From -- ./inp_files/28074.got.cif
#   From: 2010.03.12/outbox.cif.g09.slc.cpg/sg20_15_cif.got.tgz:28074.got - 2010.04.14 01:38:04.
