data_PCOD8158657
_publ_section_title
;
Structure prediction by ZEFSAII (Michael W. Deem and Ramdas Pophale) SiO2 
 PCOD8158657
Probable space group: C 2 2 21
;
_chemical_formula_sum "Si O2"
_cell_formula_units_Z 64
_cell_length_a 21.952472
_cell_length_b 16.316085
_cell_length_c 9.399417
_cell_angle_alpha 90.000000
_cell_angle_beta 90.000000
_cell_angle_gamma 90.000000
_cell_volume 3366.668134
_symmetry_space_group_name_H-M "C 2 2 21"
_symmetry_group_IT_number 20
_symmetry_cell_setting 'orthorhombic'
loop_
_space_group_symop_operation_xyz
x,y,z
-x,-y,1/2+z
x,-y,-z
-x,y,1/2-z
1/2+x,1/2+y,z
1/2-x,1/2-y,1/2+z
1/2+x,1/2-y,-z
1/2-x,1/2+y,1/2-z
loop_
_atom_site_type_symbol
_atom_site_label
_atom_site_fract_x
_atom_site_fract_y
_atom_site_fract_z
Si Si1 0.309071 0.575589 0.917232
Si Si2 0.992381 0.722279 0.408004
Si Si3 0.520755 0.926398 0.409735
Si Si4 0.875124 0.767478 0.059628
Si Si5 0.831069 0.408070 0.454412
Si Si6 0.291273 0.421438 0.408218
Si Si7 0.139229 0.756993 0.116188
Si Si8 0.846364 0.618627 0.871268
O O1 0.350904 0.645059 0.982016
O O2 0.240842 0.593084 0.962943
O O3 0.314915 0.561514 0.749468
O O4 0.336522 0.500000 0.000000
O O5 0.931917 0.778837 0.413452
O O6 0.000000 0.682582 0.250000
O O7 0.987623 0.653005 0.527649
O O8 0.051946 0.775498 0.441618
O O9 0.500000 0.937061 0.250000
O O10 0.594002 0.927103 0.432004
O O11 0.493180 0.000000 0.500000
O O12 0.848179 0.745589 0.215711
O O13 0.848625 0.708924 0.937475
O O14 0.854860 0.500000 0.500000
O O15 0.850901 0.334528 0.557108
O O16 0.853851 0.383018 0.298282
O O17 0.314141 0.500000 0.500000
O O18 0.319781 0.331412 0.451469
O O19 0.217699 0.421014 0.418318
#
# Coordination Sequence:
#
# PCOD8158657 Si02
#       8
#     8   8   8   8   8   8   8   8
#     4   9  19  35  53  77 106 135 171 216 264 314
#     4   9  19  35  53  72  98 135 172 210 257 309
#     4  11  22  34  50  74 104 137 174 213 254 306
#     4   9  19  35  55  77 102 137 177 214 260 312
#     4  10  21  34  52  79 109 140 173 213 262 313
#     4  10  21  36  55  80 106 137 175 217 265 314
#     4  10  20  36  56  77 106 139 174 217 263 311
#     4  10  21  35  53  78 107 138 176 216 258 311
#
# _framework density 19.009893000000002
#
# number of rings (size 3 to 8) (size 9 to 14) (size 15 to 20)
#    0.000    2.250    0.000    2.250    0.000    9.000 
#    0.000    0.625    0.000    0.000    0.000    0.000 
#    0.000    0.000    0.000    0.000    0.000    0.000 
#
# Total GULP energy -396492.064304 kJ/mol
# GULP energy per Si atom -12390.377010 kJ/mol
# Density = 1.896663 g / cm^3
# Si number density = 19.009893 Si / 1000 Ang^3
#
#
#
# Elastic Constant Matrix: (Units=GPa)
#
#
# Indices 1 2 3 4 5 6 
#
# 1 53.1104 41.6155 28.9752 0.0000 0.0000 0.0000
# 2 41.6155 132.9290 60.8077 0.0000 0.0000 0.0000
# 3 28.9752 60.8077 88.4117 0.0000 0.0000 0.0000
# 4 0.0000 0.0000 0.0000 36.8081 0.0000 0.0000
# 5 0.0000 0.0000 0.0000 0.0000 20.8841 0.0000
# 6 0.0000 0.0000 0.0000 0.0000 0.0000 -1.4708
#
#
#
# Elastic Compliance Matrix: (Units=1/GPa)
#
#
# Indices 1 2 3 4 5 6 
#
# 1 0.026006 -0.006191 -0.004265 0.000000 0.000000 0.000000
# 2 -0.006191 0.012450 -0.006534 0.000000 0.000000 0.000000
# 3 -0.004265 -0.006534 0.017202 0.000000 0.000000 0.000000
# 4 0.000000 0.000000 0.000000 0.027168 0.000000 0.000000
# 5 0.000000 0.000000 0.000000 0.000000 0.047883 0.000000
# 6 0.000000 0.000000 0.000000 0.000000 0.000000 -0.679900
#
#
# Mechanical properties :
#
#
# Convention : Reuss Voigt Hill
#
# Bulk Modulus (GPa) = 46.12736 59.69421 52.91078
# Shear Modulus (GPa) = -9.84282 20.78112 5.46915
#
# Velocity S-wave (km/s) = -2.27793 3.30991 1.69801
# Velocity P-wave (km/s) = 4.17121 6.78801 5.63365
#
# Compressibility (1/GPa) = 0.02167911
#
# Stress axis : x y z
#
# Youngs Moduli (GPa) = 38.45203 80.32301 58.13133
#
# Poissons Ratio (x) = 0.49724 0.24795
# Poissons Ratio (y) = 0.23804 0.37982
# Poissons Ratio (z) = 0.16401 0.52482
#
# Static dielectric constant tensor:
#      x y z
#    x 3.670270 0.000000 0.000000 
#    y 0.000000 3.462750 0.000000 
#    z 0.000000 0.000000 3.508710 
# 
# 
# High freq. dielectric constant tensor:
#      x y z
#    x 1.745910 0.000000 0.000000 
#    y 0.000000 1.724830 0.000000 
#    z 0.000000 0.000000 1.739610 
# 
# From -- ./inp_files/10804.got.cif
#   From: 2010.03.12/outbox.cif.g09.slc.cpg/sg20_6_cif.got.tgz:10804.got - 2010.04.14 01:38:04.
