data_PCOD8158878
_publ_section_title
;
Structure prediction by ZEFSAII (Michael W. Deem and Ramdas Pophale) SiO2 
 PCOD8158878
Probable space group: C 2 2 21
;
_chemical_formula_sum "Si O2"
_cell_formula_units_Z 56
_cell_length_a 5.107142
_cell_length_b 31.345363
_cell_length_c 16.591624
_cell_angle_alpha 90.000000
_cell_angle_beta 90.000000
_cell_angle_gamma 90.000000
_cell_volume 2656.073776
_symmetry_space_group_name_H-M "C 2 2 21"
_symmetry_group_IT_number 20
_symmetry_cell_setting 'orthorhombic'
loop_
_space_group_symop_operation_xyz
x,y,z
-x,-y,1/2+z
x,-y,-z
-x,y,1/2-z
1/2+x,1/2+y,z
1/2-x,1/2-y,1/2+z
1/2+x,1/2-y,-z
1/2-x,1/2+y,1/2-z
loop_
_atom_site_type_symbol
_atom_site_label
_atom_site_fract_x
_atom_site_fract_y
_atom_site_fract_z
Si Si1 0.020465 0.105311 0.342390
Si Si2 0.480516 0.161213 0.157507
Si Si3 0.529401 0.245073 0.052918
Si Si4 0.003642 0.827443 0.154340
Si Si5 0.046063 0.985358 0.589661
Si Si6 0.504100 0.878229 0.154181
Si Si7 0.549718 0.973334 0.343765
O O1 0.799025 0.140140 0.361106
O O2 0.000000 0.089426 0.250000
O O3 0.299959 0.126134 0.359791
O O4 0.992441 0.064898 0.400889
O O5 0.500000 0.177325 0.250000
O O6 0.517743 0.200054 0.097176
O O7 0.467962 0.280768 0.118832
O O8 0.318463 0.247630 0.981790
O O9 0.770274 0.857326 0.122400
O O10 0.000000 0.822986 0.250000
O O11 0.267512 0.849245 0.122010
O O12 0.985132 0.000000 0.500000
O O13 0.345282 0.995370 0.612863
O O14 0.846104 0.011173 0.645828
O O15 0.500000 0.879981 0.250000
O O16 0.482163 0.925941 0.119143
O O17 0.500000 0.973080 0.250000
#
# Coordination Sequence:
#
# PCOD8158878 Si02
#       7
#     8   8   8   8   8   8   8
#     4  10  21  41  68  92 119 166 221 264 305 370
#     4  10  22  43  68  91 120 164 218 264 304 366
#     4  12  25  42  59  94 128 157 203 250 323 379
#     4  10  20  39  62  86 120 162 204 249 295 364
#     4  12  25  42  60  99 135 165 211 266 338 382
#     4   9  19  36  61  92 115 150 207 245 292 361
#     4  11  22  41  66  90 124 171 217 259 304 378
#
# _framework density 21.083752
#
# number of rings (size 3 to 8) (size 9 to 14) (size 15 to 20)
#    0.000    1.429    0.000    5.571    0.000    3.429 
#   15.429    5.714    0.000    0.000    0.000    0.000 
#    0.000    0.000    0.000    0.000    0.000    0.000 
#
# Total GULP energy -347365.778124 kJ/mol
# GULP energy per Si atom -12405.920647 kJ/mol
# Density = 2.103576 g / cm^3
# Si number density = 21.083752 Si / 1000 Ang^3
#
#
#
# Elastic Constant Matrix: (Units=GPa)
#
#
# Indices 1 2 3 4 5 6 
#
# 1 96.8583 10.7371 14.2670 0.0000 0.0000 0.0000
# 2 10.7371 115.7045 45.5841 0.0000 0.0000 0.0000
# 3 14.2670 45.5841 71.4348 0.0000 0.0000 0.0000
# 4 0.0000 0.0000 0.0000 30.1491 0.0000 0.0000
# 5 0.0000 0.0000 0.0000 0.0000 25.8907 0.0000
# 6 0.0000 0.0000 0.0000 0.0000 0.0000 25.2717
#
#
#
# Elastic Compliance Matrix: (Units=1/GPa)
#
#
# Indices 1 2 3 4 5 6 
#
# 1 0.010641 -0.000201 -0.001997 0.000000 0.000000 0.000000
# 2 -0.000201 0.011549 -0.007330 0.000000 0.000000 0.000000
# 3 -0.001997 -0.007330 0.019075 0.000000 0.000000 0.000000
# 4 0.000000 0.000000 0.000000 0.033169 0.000000 0.000000
# 5 0.000000 0.000000 0.000000 0.000000 0.038624 0.000000
# 6 0.000000 0.000000 0.000000 0.000000 0.000000 0.039570
#
#
# Mechanical properties :
#
#
# Convention : Reuss Voigt Hill
#
# Bulk Modulus (GPa) = 45.02509 47.24156 46.13333
# Shear Modulus (GPa) = 27.91969 30.48957 29.20463
#
# Velocity S-wave (km/s) = 3.64294 3.80691 3.72583
# Velocity P-wave (km/s) = 6.25271 6.46364 6.35905
#
# Compressibility (1/GPa) = 0.02220984
#
# Stress axis : x y z
#
# Youngs Moduli (GPa) = 93.97807 86.58781 52.42505
#
# Poissons Ratio (x) = 0.01737 0.10470
# Poissons Ratio (y) = 0.01885 0.38425
# Poissons Ratio (z) = 0.18769 0.63465
#
# Static dielectric constant tensor:
#      x y z
#    x 4.270900 0.000000 0.000000 
#    y 0.000000 3.890640 0.000000 
#    z 0.000000 0.000000 3.690290 
# 
# 
# High freq. dielectric constant tensor:
#      x y z
#    x 1.844530 0.000000 0.000000 
#    y 0.000000 1.836960 0.000000 
#    z 0.000000 0.000000 1.810390 
# 
# From -- ./inp_files/17943.got.cif
#   From: 2010.03.12/outbox.cif.g09.slc.cpg/sg20_9_cif.got.tgz:17943.got - 2010.04.14 01:38:04.
