data_PCOD8158274
_publ_section_title
;
Structure prediction by ZEFSAII (Michael W. Deem and Ramdas Pophale) SiO2 
 PCOD8158274
Probable space group: C 2 2 21
;
_chemical_formula_sum "Si O2"
_cell_formula_units_Z 60
_cell_length_a 23.749488
_cell_length_b 8.289410
_cell_length_c 16.086447
_cell_angle_alpha 90.000000
_cell_angle_beta 90.000000
_cell_angle_gamma 90.000000
_cell_volume 3166.926649
_symmetry_space_group_name_H-M "C 2 2 21"
_symmetry_group_IT_number 20
_symmetry_cell_setting 'orthorhombic'
loop_
_space_group_symop_operation_xyz
x,y,z
-x,-y,1/2+z
x,-y,-z
-x,y,1/2-z
1/2+x,1/2+y,z
1/2-x,1/2-y,1/2+z
1/2+x,1/2-y,-z
1/2-x,1/2+y,1/2-z
loop_
_atom_site_type_symbol
_atom_site_label
_atom_site_fract_x
_atom_site_fract_y
_atom_site_fract_z
Si Si1 0.457976 0.526744 0.909404
Si Si2 0.890176 0.701132 0.167763
Si Si3 0.500000 0.645855 0.250000
Si Si4 0.290268 0.168614 0.041807
Si Si5 0.793568 0.756295 0.673349
Si Si6 0.156632 0.849984 0.604478
Si Si7 0.392590 0.133841 0.758934
Si Si8 0.306456 0.576006 0.763286
O O1 0.439775 0.711629 0.885738
O O2 0.496220 0.462865 0.833227
O O3 0.403224 0.418542 0.921973
O O4 0.488991 0.500000 0.000000
O O5 0.839273 0.642167 0.109339
O O6 0.913522 0.545658 0.217612
O O7 0.864968 0.822370 0.238033
O O8 0.554066 0.757353 0.239314
O O9 0.233714 0.243237 0.082229
O O10 0.310114 0.298668 0.976092
O O11 0.275200 0.000000 0.000000
O O12 0.850069 0.645687 0.679108
O O13 0.748158 0.690527 0.741522
O O14 0.807939 0.944200 0.690996
O O15 0.145590 0.701959 0.666414
O O16 0.194713 0.986823 0.647174
#
# Coordination Sequence:
#
# PCOD8158274 Si02
#       8
#     8   8   4   8   8   8   8   8
#     4  10  19  36  60  94 116 148 193 261 309 351
#     4  10  19  32  61  85 116 144 192 240 306 353
#     4  10  24  40  62  86 114 158 210 248 316 356
#     4  11  19  30  53  92 117 149 186 232 299 364
#     4  10  20  32  50  77 117 151 184 224 288 349
#     4   9  18  32  54  82 118 139 184 240 287 345
#     4  10  20  39  54  80 114 154 194 252 283 357
#     4   9  19  30  49  80 111 149 175 219 283 353
#
# _framework density 18.945812
#
# number of rings (size 3 to 8) (size 9 to 14) (size 15 to 20)
#    0.000    2.133    2.667    2.400    1.867    0.533 
#    0.000    0.667    0.000    0.000    6.933    0.000 
#    0.000    0.000    0.000    0.000    0.000    0.000 
#
# Total GULP energy -371772.268764 kJ/mol
# GULP energy per Si atom -12392.408959 kJ/mol
# Density = 1.890269 g / cm^3
# Si number density = 18.945812 Si / 1000 Ang^3
#
#
#
# Elastic Constant Matrix: (Units=GPa)
#
#
# Indices 1 2 3 4 5 6 
#
# 1 63.8315 26.0658 45.8524 0.0000 0.0000 0.0000
# 2 26.0658 106.2301 38.3872 0.0000 0.0000 0.0000
# 3 45.8524 38.3872 102.8299 0.0000 0.0000 0.0000
# 4 0.0000 0.0000 0.0000 29.2137 0.0000 0.0000
# 5 0.0000 0.0000 0.0000 0.0000 31.0890 0.0000
# 6 0.0000 0.0000 0.0000 0.0000 0.0000 16.0987
#
#
#
# Elastic Compliance Matrix: (Units=1/GPa)
#
#
# Indices 1 2 3 4 5 6 
#
# 1 0.023522 -0.002290 -0.009633 0.000000 0.000000 0.000000
# 2 -0.002290 0.011104 -0.003124 0.000000 0.000000 0.000000
# 3 -0.009633 -0.003124 0.015187 0.000000 0.000000 0.000000
# 4 0.000000 0.000000 0.000000 0.034231 0.000000 0.000000
# 5 0.000000 0.000000 0.000000 0.000000 0.032166 0.000000
# 6 0.000000 0.000000 0.000000 0.000000 0.000000 0.062117
#
#
# Mechanical properties :
#
#
# Convention : Reuss Voigt Hill
#
# Bulk Modulus (GPa) = 50.71789 54.83361 52.77575
# Shear Modulus (GPa) = 23.25651 26.11935 24.68793
#
# Velocity S-wave (km/s) = 3.50741 3.71702 3.61374
# Velocity P-wave (km/s) = 6.57500 6.88672 6.73266
#
# Compressibility (1/GPa) = 0.01971691
#
# Stress axis : x y z
#
# Youngs Moduli (GPa) = 42.51426 90.05407 65.84754
#
# Poissons Ratio (x) = 0.20626 0.63433
# Poissons Ratio (y) = 0.09738 0.20571
# Poissons Ratio (z) = 0.40955 0.28134
#
# Static dielectric constant tensor:
#      x y z
#    x 3.262160 0.000000 0.000000 
#    y 0.000000 3.703830 0.000000 
#    z 0.000000 0.000000 3.489870 
# 
# 
# High freq. dielectric constant tensor:
#      x y z
#    x 1.703920 0.000000 0.000000 
#    y 0.000000 1.749210 0.000000 
#    z 0.000000 0.000000 1.714170 
# 
# From -- ./inp_files/22211.got.cif
#   From: 2010.03.12/outbox.cif.g09.slc.cpg/sg20_12_cif.got.tgz:22211.got - 2010.04.14 01:38:04.
