data_PCOD8158629
_publ_section_title
;
Structure prediction by ZEFSAII (Michael W. Deem and Ramdas Pophale) SiO2 
 PCOD8158629
Probable space group: C 2 2 21
;
_chemical_formula_sum "Si O2"
_cell_formula_units_Z 48
_cell_length_a 8.427389
_cell_length_b 18.894889
_cell_length_c 14.836862
_cell_angle_alpha 90.000000
_cell_angle_beta 90.000000
_cell_angle_gamma 90.000000
_cell_volume 2362.541485
_symmetry_space_group_name_H-M "C 2 2 21"
_symmetry_group_IT_number 20
_symmetry_cell_setting 'orthorhombic'
loop_
_space_group_symop_operation_xyz
x,y,z
-x,-y,1/2+z
x,-y,-z
-x,y,1/2-z
1/2+x,1/2+y,z
1/2-x,1/2-y,1/2+z
1/2+x,1/2-y,-z
1/2-x,1/2+y,1/2-z
loop_
_atom_site_type_symbol
_atom_site_label
_atom_site_fract_x
_atom_site_fract_y
_atom_site_fract_z
Si Si1 0.573394 0.920927 0.155141
Si Si2 0.890783 0.205207 0.456169
Si Si3 0.426260 0.075131 0.347753
Si Si4 0.250830 0.290373 0.890162
Si Si5 0.328442 0.081460 0.999940
Si Si6 0.178184 0.719371 0.785710
O O1 0.500000 0.939796 0.250000
O O2 0.432662 0.896631 0.087553
O O3 0.705883 0.859165 0.169760
O O4 0.644085 0.997142 0.124412
O O5 0.868693 0.264570 0.532823
O O6 0.828358 0.130391 0.494753
O O7 0.792674 0.224281 0.365316
O O8 0.074469 0.207017 0.431463
O O9 0.500000 0.079774 0.250000
O O10 0.283158 0.129708 0.359697
O O11 0.567167 0.096799 0.413439
O O12 0.220254 0.239437 0.802658
O O13 0.271527 0.000000 0.000000
O O14 0.000000 0.720197 0.750000
#
# Coordination Sequence:
#
# PCOD8158629 Si02
#       6
#     8   8   8   8   8   8
#     4   9  17  33  57  80 104 141 185 228 275 332
#     4  11  21  36  55  80 115 149 187 230 280 335
#     4  10  20  35  57  83 108 141 190 235 277 334
#     4  11  22  35  57  85 114 150 187 232 280 334
#     4  10  20  36  57  80 110 148 188 233 283 333
#     4   9  18  33  54  80 108 141 181 224 275 328
#
# _framework density 20.317105000000002
#
# number of rings (size 3 to 8) (size 9 to 14) (size 15 to 20)
#    0.000    2.000    0.000    6.000    0.000    0.000 
#    0.000    4.167    0.000    0.000    0.000   25.667 
#    0.000    0.000    0.000    0.000    0.000    0.000 
#
# Total GULP energy -297372.041112 kJ/mol
# GULP energy per Si atom -12390.501713 kJ/mol
# Density = 2.027086 g / cm^3
# Si number density = 20.317105 Si / 1000 Ang^3
#
#
#
# Elastic Constant Matrix: (Units=GPa)
#
#
# Indices 1 2 3 4 5 6 
#
# 1 54.7272 53.6988 36.0691 0.0000 0.0000 0.0000
# 2 53.6988 155.9625 45.3063 0.0000 0.0000 0.0000
# 3 36.0691 45.3063 123.7109 0.0000 0.0000 0.0000
# 4 0.0000 0.0000 0.0000 33.6181 0.0000 0.0000
# 5 0.0000 0.0000 0.0000 0.0000 26.8813 0.0000
# 6 0.0000 0.0000 0.0000 0.0000 0.0000 37.1233
#
#
#
# Elastic Compliance Matrix: (Units=1/GPa)
#
#
# Indices 1 2 3 4 5 6 
#
# 1 0.030818 -0.008953 -0.005706 0.000000 0.000000 0.000000
# 2 -0.008953 0.009776 -0.000970 0.000000 0.000000 0.000000
# 3 -0.005706 -0.000970 0.010102 0.000000 0.000000 0.000000
# 4 0.000000 0.000000 0.000000 0.029746 0.000000 0.000000
# 5 0.000000 0.000000 0.000000 0.000000 0.037201 0.000000
# 6 0.000000 0.000000 0.000000 0.000000 0.000000 0.026937
#
#
# Mechanical properties :
#
#
# Convention : Reuss Voigt Hill
#
# Bulk Modulus (GPa) = 51.44644 67.17212 59.30928
# Shear Modulus (GPa) = 27.42442 32.81295 30.11869
#
# Velocity S-wave (km/s) = 3.67797 4.02312 3.85441
# Velocity P-wave (km/s) = 6.58888 7.39691 7.00456
#
# Compressibility (1/GPa) = 0.01943769
#
# Stress axis : x y z
#
# Youngs Moduli (GPa) = 32.44814 102.28910 98.98691
#
# Poissons Ratio (x) = 0.91582 0.56487
# Poissons Ratio (y) = 0.29052 0.09601
# Poissons Ratio (z) = 0.18516 0.09921
#
# Static dielectric constant tensor:
#      x y z
#    x 3.075580 0.000000 0.000000 
#    y 0.000000 4.217380 0.000000 
#    z 0.000000 0.000000 4.091360 
# 
# 
# High freq. dielectric constant tensor:
#      x y z
#    x 1.731660 0.000000 0.000000 
#    y 0.000000 1.812300 0.000000 
#    z 0.000000 0.000000 1.823780 
# 
# From -- ./inp_files/18865.got.cif
#   From: 2010.03.12/outbox.cif.g09.slc.cpg/sg20_10_cif.got.tgz:18865.got - 2010.04.14 01:38:04.
