data_PCOD8158520
_publ_section_title
;
Structure prediction by ZEFSAII (Michael W. Deem and Ramdas Pophale) SiO2 
 PCOD8158520
Probable space group: C 2 2 21
;
_chemical_formula_sum "Si O2"
_cell_formula_units_Z 48
_cell_length_a 8.176584
_cell_length_b 31.221454
_cell_length_c 9.010839
_cell_angle_alpha 90.000000
_cell_angle_beta 90.000000
_cell_angle_gamma 90.000000
_cell_volume 2300.330603
_symmetry_space_group_name_H-M "C 2 2 21"
_symmetry_group_IT_number 20
_symmetry_cell_setting 'orthorhombic'
loop_
_space_group_symop_operation_xyz
x,y,z
-x,-y,1/2+z
x,-y,-z
-x,y,1/2-z
1/2+x,1/2+y,z
1/2-x,1/2-y,1/2+z
1/2+x,1/2-y,-z
1/2-x,1/2+y,1/2-z
loop_
_atom_site_type_symbol
_atom_site_label
_atom_site_fract_x
_atom_site_fract_y
_atom_site_fract_z
Si Si1 0.839761 0.861248 0.503185
Si Si2 0.600043 0.206848 0.900508
Si Si3 0.529074 0.278487 0.417223
Si Si4 0.000000 0.915681 0.250000
Si Si5 0.981754 0.614703 0.583862
Si Si6 0.500000 0.414647 0.750000
Si Si7 0.775296 0.048639 0.998952
O O1 0.644043 0.865175 0.491143
O O2 0.882331 0.884508 0.655498
O O3 0.921008 0.813678 0.509382
O O4 0.902222 0.885742 0.359906
O O5 0.500000 0.218779 0.750000
O O6 0.778971 0.223419 0.927017
O O7 0.631824 0.156258 0.910406
O O8 0.508493 0.230012 0.034908
O O9 0.500000 0.289242 0.250000
O O10 0.126433 0.944176 0.345130
O O11 0.000000 0.595839 0.750000
O O12 0.886840 0.578539 0.489131
O O13 0.608922 0.443889 0.641215
O O14 0.713278 0.000000 0.000000
#
# Coordination Sequence:
#
# PCOD8158520 Si02
#       7
#     8   8   8   4   8   4   8
#     4  11  22  41  67  94 133 177 218 270 324 401
#     4  11  24  41  65  95 134 170 225 276 321 386
#     4  12  23  42  65  98 129 182 221 266 323 386
#     4  10  19  40  68  92 130 174 220 262 327 404
#     4  11  22  44  68  99 128 180 221 271 342 396
#     4  10  25  42  64 102 132 174 216 274 343 386
#     4  11  23  44  69  99 132 171 225 279 337 403
#
# _framework density 20.866565999999999
#
# number of rings (size 3 to 8) (size 9 to 14) (size 15 to 20)
#    0.000    1.000    2.500    6.500    1.167    0.667 
#   12.000    0.833    0.000    0.000    0.000    0.000 
#    0.000    0.000    0.000    0.000    0.000    0.000 
#
# Total GULP energy -297335.842777 kJ/mol
# GULP energy per Si atom -12388.993449 kJ/mol
# Density = 2.081907 g / cm^3
# Si number density = 20.866566 Si / 1000 Ang^3
#
#
#
# Elastic Constant Matrix: (Units=GPa)
#
#
# Indices 1 2 3 4 5 6 
#
# 1 120.4784 29.6753 26.0587 0.0000 0.0000 0.0000
# 2 29.6753 108.1850 31.5537 0.0000 0.0000 0.0000
# 3 26.0587 31.5537 80.6919 0.0000 0.0000 0.0000
# 4 0.0000 0.0000 0.0000 21.9468 0.0000 0.0000
# 5 0.0000 0.0000 0.0000 0.0000 28.2103 0.0000
# 6 0.0000 0.0000 0.0000 0.0000 0.0000 32.5424
#
#
#
# Elastic Compliance Matrix: (Units=1/GPa)
#
#
# Indices 1 2 3 4 5 6 
#
# 1 0.009251 -0.001881 -0.002252 0.000000 0.000000 0.000000
# 2 -0.001881 0.010816 -0.003622 0.000000 0.000000 0.000000
# 3 -0.002252 -0.003622 0.014536 0.000000 0.000000 0.000000
# 4 0.000000 0.000000 0.000000 0.045565 0.000000 0.000000
# 5 0.000000 0.000000 0.000000 0.000000 0.035448 0.000000
# 6 0.000000 0.000000 0.000000 0.000000 0.000000 0.030729
#
#
# Mechanical properties :
#
#
# Convention : Reuss Voigt Hill
#
# Bulk Modulus (GPa) = 52.37411 53.77010 53.07210
# Shear Modulus (GPa) = 29.72328 31.34441 30.53385
#
# Velocity S-wave (km/s) = 3.77828 3.87994 3.82945
# Velocity P-wave (km/s) = 6.64739 6.77469 6.71134
#
# Compressibility (1/GPa) = 0.01909340
#
# Stress axis : x y z
#
# Youngs Moduli (GPa) = 108.10164 92.45817 68.79266
#
# Poissons Ratio (x) = 0.17388 0.15492
# Poissons Ratio (y) = 0.20330 0.24917
# Poissons Ratio (z) = 0.24344 0.33489
#
# Static dielectric constant tensor:
#      x y z
#    x 3.043700 0.000000 0.000000 
#    y 0.000000 3.670610 0.000000 
#    z 0.000000 0.000000 3.903910 
# 
# 
# High freq. dielectric constant tensor:
#      x y z
#    x 1.832570 0.000000 0.000000 
#    y 0.000000 1.813920 0.000000 
#    z 0.000000 0.000000 1.812390 
# 
# From -- ./inp_files/6576.got.cif
#   From: 2010.03.12/outbox.cif.g09.slc.cpg/sg20_4_cif.got.tgz:6576.got - 2010.04.14 01:38:04.
