data_PCOD8158929
_publ_section_title
;
Structure prediction by ZEFSAII (Michael W. Deem and Ramdas Pophale) SiO2 
 PCOD8158929
Probable space group: C 2 2 21
;
_chemical_formula_sum "Si O2"
_cell_formula_units_Z 56
_cell_length_a 11.600743
_cell_length_b 12.260890
_cell_length_c 19.278446
_cell_angle_alpha 90.000000
_cell_angle_beta 90.000000
_cell_angle_gamma 90.000000
_cell_volume 2742.078131
_symmetry_space_group_name_H-M "C 2 2 21"
_symmetry_group_IT_number 20
_symmetry_cell_setting 'orthorhombic'
loop_
_space_group_symop_operation_xyz
x,y,z
-x,-y,1/2+z
x,-y,-z
-x,y,1/2-z
1/2+x,1/2+y,z
1/2-x,1/2-y,1/2+z
1/2+x,1/2-y,-z
1/2-x,1/2+y,1/2-z
loop_
_atom_site_type_symbol
_atom_site_label
_atom_site_fract_x
_atom_site_fract_y
_atom_site_fract_z
Si Si1 0.898350 0.157427 0.116260
Si Si2 0.645951 0.767498 0.522181
Si Si3 0.133019 0.500000 0.500000
Si Si4 0.334260 0.302596 0.633021
Si Si5 0.000000 0.201962 0.750000
Si Si6 0.247967 0.235666 0.772855
Si Si7 0.781980 0.040365 0.629827
Si Si8 0.463232 0.415189 0.113333
O O1 0.826450 0.176956 0.186598
O O2 0.028712 0.202377 0.122973
O O3 0.895643 0.028247 0.100602
O O4 0.834050 0.224011 0.055641
O O5 0.770549 0.777726 0.560010
O O6 0.572318 0.677866 0.560708
O O7 0.574415 0.885296 0.524902
O O8 0.201485 0.550178 0.563887
O O9 0.294737 0.220969 0.694220
O O10 0.290398 0.419351 0.661204
O O11 0.888692 0.272273 0.724895
O O12 0.945706 0.123009 0.807933
O O13 0.261231 0.117832 0.808679
O O14 0.903604 0.071330 0.597308
#
# Coordination Sequence:
#
# PCOD8158929 Si02
#       8
#     8   8   4   8   4   8   8   8
#     4  11  24  38  69  97 124 167 217 275 323 375
#     4  11  22  40  64  90 131 160 214 262 324 382
#     4  10  20  40  60  90 118 180 202 262 312 414
#     4  10  23  39  66  93 125 167 219 267 320 392
#     4  10  22  40  64  92 126 180 208 264 328 394
#     4  11  21  40  63  94 127 165 213 273 316 387
#     4   9  21  37  66  88 120 170 222 259 319 385
#     4  10  22  38  66  95 122 161 222 274 312 367
#
# _framework density 20.422464999999999
#
# number of rings (size 3 to 8) (size 9 to 14) (size 15 to 20)
#    0.000    1.714    2.857    0.857   12.000    0.000 
#    0.000    0.000   22.000    0.000    0.000    0.000 
#    0.000    0.000    0.000    0.000    0.000    0.000 
#
# Total GULP energy -346934.193265 kJ/mol
# GULP energy per Si atom -12390.506902 kJ/mol
# Density = 2.037598 g / cm^3
# Si number density = 20.422465 Si / 1000 Ang^3
#
#
#
# Elastic Constant Matrix: (Units=GPa)
#
#
# Indices 1 2 3 4 5 6 
#
# 1 87.8125 46.1536 36.8879 0.0000 0.0000 0.0000
# 2 46.1536 121.1444 34.5060 0.0000 0.0000 0.0000
# 3 36.8879 34.5060 105.8926 0.0000 0.0000 0.0000
# 4 0.0000 0.0000 0.0000 38.3833 0.0000 0.0000
# 5 0.0000 0.0000 0.0000 0.0000 26.8252 0.0000
# 6 0.0000 0.0000 0.0000 0.0000 0.0000 25.0339
#
#
#
# Elastic Compliance Matrix: (Units=1/GPa)
#
#
# Indices 1 2 3 4 5 6 
#
# 1 0.015537 -0.004826 -0.003840 0.000000 0.000000 0.000000
# 2 -0.004826 0.010598 -0.001772 0.000000 0.000000 0.000000
# 3 -0.003840 -0.001772 0.011359 0.000000 0.000000 0.000000
# 4 0.000000 0.000000 0.000000 0.026053 0.000000 0.000000
# 5 0.000000 0.000000 0.000000 0.000000 0.037278 0.000000
# 6 0.000000 0.000000 0.000000 0.000000 0.000000 0.039946
#
#
# Mechanical properties :
#
#
# Convention : Reuss Voigt Hill
#
# Bulk Modulus (GPa) = 60.17595 61.10494 60.64044
# Shear Modulus (GPa) = 29.90673 31.20197 30.55435
#
# Velocity S-wave (km/s) = 3.83090 3.91298 3.87216
# Velocity P-wave (km/s) = 7.00695 7.09934 7.05329
#
# Compressibility (1/GPa) = 0.01661793
#
# Stress axis : x y z
#
# Youngs Moduli (GPa) = 64.36125 94.35804 88.03797
#
# Poissons Ratio (x) = 0.45534 0.33806
# Poissons Ratio (y) = 0.31059 0.15604
# Poissons Ratio (z) = 0.24714 0.16724
#
# Static dielectric constant tensor:
#      x y z
#    x 3.562250 0.000000 0.000000 
#    y 0.000000 4.021100 0.000000 
#    z 0.000000 0.000000 3.929960 
# 
# 
# High freq. dielectric constant tensor:
#      x y z
#    x 1.773770 0.000000 0.000000 
#    y 0.000000 1.797950 0.000000 
#    z 0.000000 0.000000 1.814220 
# 
# From -- ./inp_files/27221.got.cif
#   From: 2010.03.12/outbox.cif.g09.slc.cpg/sg20_14_cif.got.tgz:27221.got - 2010.04.14 01:38:04.
