data_PCOD8158996
_publ_section_title
;
Structure prediction by ZEFSAII (Michael W. Deem and Ramdas Pophale) SiO2 
 PCOD8158996
Probable space group: C 2 2 21
;
_chemical_formula_sum "Si O2"
_cell_formula_units_Z 48
_cell_length_a 9.426185
_cell_length_b 27.269238
_cell_length_c 9.051263
_cell_angle_alpha 90.000000
_cell_angle_beta 90.000000
_cell_angle_gamma 90.000000
_cell_volume 2326.580832
_symmetry_space_group_name_H-M "C 2 2 21"
_symmetry_group_IT_number 20
_symmetry_cell_setting 'orthorhombic'
loop_
_space_group_symop_operation_xyz
x,y,z
-x,-y,1/2+z
x,-y,-z
-x,y,1/2-z
1/2+x,1/2+y,z
1/2-x,1/2-y,1/2+z
1/2+x,1/2-y,-z
1/2-x,1/2+y,1/2-z
loop_
_atom_site_type_symbol
_atom_site_label
_atom_site_fract_x
_atom_site_fract_y
_atom_site_fract_z
Si Si1 0.847976 0.293022 0.823905
Si Si2 0.855194 0.055096 0.954294
Si Si3 0.154095 0.118741 0.269113
Si Si4 0.826417 0.945796 0.505312
Si Si5 0.160268 0.396432 0.278980
Si Si6 0.353029 0.214971 0.820638
O O1 0.771265 0.343632 0.785893
O O2 0.771019 0.248597 0.741391
O O3 0.000000 0.296562 0.750000
O O4 0.857784 0.284164 0.000520
O O5 0.813486 0.098482 0.068450
O O6 0.766536 0.069400 0.811684
O O7 0.022994 0.056609 0.918970
O O8 0.810233 0.000000 0.000000
O O9 0.000000 0.144890 0.250000
O O10 0.147760 0.069159 0.173399
O O11 0.707294 0.908382 0.445554
O O12 0.762415 0.000000 0.500000
O O13 0.178872 0.338680 0.254156
O O14 0.000000 0.413087 0.250000
O O15 0.500000 0.234023 0.750000
#
# Coordination Sequence:
#
# PCOD8158996 Si02
#       6
#     8   8   8   8   8   8
#     4  12  26  44  72  97 129 174 215 276 334 394
#     4  10  22  39  65  95 128 174 223 269 320 381
#     4  10  22  39  64  95 130 167 217 268 325 386
#     4  10  20  41  65  91 127 170 218 271 316 383
#     4  11  24  40  63  94 134 168 211 267 326 389
#     4  11  26  47  67  98 134 169 220 269 333 403
#
# _framework density 20.631133999999999
#
# number of rings (size 3 to 8) (size 9 to 14) (size 15 to 20)
#    0.000    1.333    1.667    3.000    7.000    4.667 
#    0.000    1.667    0.000    0.000    0.000    0.000 
#    0.000    0.000    0.000    0.000    0.000    0.000 
#
# Total GULP energy -297555.635672 kJ/mol
# GULP energy per Si atom -12398.151486 kJ/mol
# Density = 2.058418 g / cm^3
# Si number density = 20.631134 Si / 1000 Ang^3
#
#
#
# Elastic Constant Matrix: (Units=GPa)
#
#
# Indices 1 2 3 4 5 6 
#
# 1 125.6278 58.5538 44.0253 0.0000 0.0000 0.0000
# 2 58.5538 100.3024 25.7220 0.0000 0.0000 0.0000
# 3 44.0253 25.7220 90.3884 0.0000 0.0000 0.0000
# 4 0.0000 0.0000 0.0000 30.3099 0.0000 0.0000
# 5 0.0000 0.0000 0.0000 0.0000 36.1620 0.0000
# 6 0.0000 0.0000 0.0000 0.0000 0.0000 31.4128
#
#
#
# Elastic Compliance Matrix: (Units=1/GPa)
#
#
# Indices 1 2 3 4 5 6 
#
# 1 0.012285 -0.006081 -0.004253 0.000000 0.000000 0.000000
# 2 -0.006081 0.013765 -0.000955 0.000000 0.000000 0.000000
# 3 -0.004253 -0.000955 0.013407 0.000000 0.000000 0.000000
# 4 0.000000 0.000000 0.000000 0.032992 0.000000 0.000000
# 5 0.000000 0.000000 0.000000 0.000000 0.027653 0.000000
# 6 0.000000 0.000000 0.000000 0.000000 0.000000 0.031834
#
#
# Mechanical properties :
#
#
# Convention : Reuss Voigt Hill
#
# Bulk Modulus (GPa) = 59.24935 63.65786 61.45360
# Shear Modulus (GPa) = 31.22264 32.11142 31.66703
#
# Velocity S-wave (km/s) = 3.89443 3.94947 3.92205
# Velocity P-wave (km/s) = 7.00021 7.19166 7.09658
#
# Compressibility (1/GPa) = 0.01687782
#
# Stress axis : x y z
#
# Youngs Moduli (GPa) = 81.40232 72.65002 74.58934
#
# Poissons Ratio (x) = 0.44177 0.31723
# Poissons Ratio (y) = 0.49499 0.07125
# Poissons Ratio (z) = 0.34621 0.06940
#
# Static dielectric constant tensor:
#      x y z
#    x 3.814190 0.000000 0.000000 
#    y 0.000000 3.646080 0.000000 
#    z 0.000000 0.000000 3.828660 
# 
# 
# High freq. dielectric constant tensor:
#      x y z
#    x 1.805350 0.000000 0.000000 
#    y 0.000000 1.815590 0.000000 
#    z 0.000000 0.000000 1.817290 
# 
# From -- ./inp_files/6488.got.cif
#   From: 2010.03.12/outbox.cif.g09.slc.cpg/sg20_4_cif.got.tgz:6488.got - 2010.04.14 01:38:04.
