data_PCOD8158025
_publ_section_title
;
Structure prediction by ZEFSAII (Michael W. Deem and Ramdas Pophale) SiO2 
 PCOD8158025
Probable space group: C 2 2 21
;
_chemical_formula_sum "Si O2"
_cell_formula_units_Z 48
_cell_length_a 23.369031
_cell_length_b 13.038790
_cell_length_c 8.506643
_cell_angle_alpha 90.000000
_cell_angle_beta 90.000000
_cell_angle_gamma 90.000000
_cell_volume 2592.007193
_symmetry_space_group_name_H-M "C 2 2 21"
_symmetry_group_IT_number 20
_symmetry_cell_setting 'orthorhombic'
loop_
_space_group_symop_operation_xyz
x,y,z
-x,-y,1/2+z
x,-y,-z
-x,y,1/2-z
1/2+x,1/2+y,z
1/2-x,1/2-y,1/2+z
1/2+x,1/2-y,-z
1/2-x,1/2+y,1/2-z
loop_
_atom_site_type_symbol
_atom_site_label
_atom_site_fract_x
_atom_site_fract_y
_atom_site_fract_z
Si Si1 0.673844 0.601645 0.219918
Si Si2 0.173942 0.273553 0.807132
Si Si3 0.407928 0.500000 0.500000
Si Si4 0.715806 0.808087 0.160544
Si Si5 0.298549 0.018693 0.175814
Si Si6 0.938164 0.145426 0.757034
Si Si7 0.609748 0.500000 0.500000
O O1 0.631228 0.589562 0.073742
O O2 0.681615 0.721710 0.259689
O O3 0.733066 0.551622 0.167931
O O4 0.651903 0.543689 0.370759
O O5 0.216464 0.206081 0.696965
O O6 0.164011 0.388694 0.745196
O O7 0.112018 0.220597 0.799592
O O8 0.202577 0.284103 0.978705
O O9 0.445904 0.551631 0.634240
O O10 0.693612 0.919045 0.213798
O O11 0.321140 0.000000 0.000000
O O12 0.000000 0.202858 0.750000
O O13 0.927365 0.093636 0.927808
#
# Coordination Sequence:
#
# PCOD8158025 Si02
#       7
#     8   8   4   8   8   8   4
#     4  10  20  33  56  85 123 145 188 235 292 349
#     4  11  24  36  61  87 118 158 191 248 295 349
#     4  10  17  38  58  82 114 156 187 232 294 336
#     4  11  21  37  57  90 120 153 192 237 303 359
#     4  11  23  35  56  86 124 156 189 239 298 361
#     4  11  23  40  58  85 119 159 202 238 284 344
#     4  10  23  32  60  88 112 156 193 240 284 350
#
# _framework density 18.518466
#
# number of rings (size 3 to 8) (size 9 to 14) (size 15 to 20)
#    0.000    1.333    2.500    5.000   11.667    0.000 
#    0.000    0.000    0.000    2.000    0.000    0.000 
#    0.000    0.000    0.000    0.000    0.000    0.000 
#
# Total GULP energy -297508.243450 kJ/mol
# GULP energy per Si atom -12396.176810 kJ/mol
# Density = 1.847632 g / cm^3
# Si number density = 18.518466 Si / 1000 Ang^3
#
#
#
# Elastic Constant Matrix: (Units=GPa)
#
#
# Indices 1 2 3 4 5 6 
#
# 1 93.7726 32.6681 28.2216 0.0000 0.0000 0.0000
# 2 32.6681 110.5434 25.8608 0.0000 0.0000 0.0000
# 3 28.2216 25.8608 88.5810 0.0000 0.0000 0.0000
# 4 0.0000 0.0000 0.0000 27.3077 0.0000 0.0000
# 5 0.0000 0.0000 0.0000 0.0000 9.2199 0.0000
# 6 0.0000 0.0000 0.0000 0.0000 0.0000 17.2580
#
#
#
# Elastic Compliance Matrix: (Units=1/GPa)
#
#
# Indices 1 2 3 4 5 6 
#
# 1 0.012660 -0.003003 -0.003157 0.000000 0.000000 0.000000
# 2 -0.003003 0.010422 -0.002086 0.000000 0.000000 0.000000
# 3 -0.003157 -0.002086 0.012904 0.000000 0.000000 0.000000
# 4 0.000000 0.000000 0.000000 0.036620 0.000000 0.000000
# 5 0.000000 0.000000 0.000000 0.000000 0.108461 0.000000
# 6 0.000000 0.000000 0.000000 0.000000 0.000000 0.057944
#
#
# Mechanical properties :
#
#
# Convention : Reuss Voigt Hill
#
# Bulk Modulus (GPa) = 51.29627 51.82199 51.55913
# Shear Modulus (GPa) = 19.08395 24.50022 21.79208
#
# Velocity S-wave (km/s) = 3.21368 3.64127 3.43414
# Velocity P-wave (km/s) = 6.44442 6.76189 6.60506
#
# Compressibility (1/GPa) = 0.01949460
#
# Stress axis : x y z
#
# Youngs Moduli (GPa) = 78.98703 95.95453 77.49642
#
# Poissons Ratio (x) = 0.28814 0.24464
# Poissons Ratio (y) = 0.23719 0.16164
# Poissons Ratio (z) = 0.24935 0.20015
#
# Static dielectric constant tensor:
#      x y z
#    x 3.139260 0.000000 0.000000 
#    y 0.000000 3.656950 0.000000 
#    z 0.000000 0.000000 3.707050 
# 
# 
# High freq. dielectric constant tensor:
#      x y z
#    x 1.682070 0.000000 0.000000 
#    y 0.000000 1.717750 0.000000 
#    z 0.000000 0.000000 1.736130 
# 
# From -- ./inp_files/7423.got.cif
#   From: 2010.03.12/outbox.cif.g09.slc.cpg/sg20_4_cif.got.tgz:7423.got - 2010.04.14 01:38:04.
