data_PCOD8158754
_publ_section_title
;
Structure prediction by ZEFSAII (Michael W. Deem and Ramdas Pophale) SiO2 
 PCOD8158754
Probable space group: C 2 2 21
;
_chemical_formula_sum "Si O2"
_cell_formula_units_Z 48
_cell_length_a 17.637002
_cell_length_b 10.577788
_cell_length_c 13.667872
_cell_angle_alpha 90.000000
_cell_angle_beta 90.000000
_cell_angle_gamma 90.000000
_cell_volume 2549.884598
_symmetry_space_group_name_H-M "C 2 2 21"
_symmetry_group_IT_number 20
_symmetry_cell_setting 'orthorhombic'
loop_
_space_group_symop_operation_xyz
x,y,z
-x,-y,1/2+z
x,-y,-z
-x,y,1/2-z
1/2+x,1/2+y,z
1/2-x,1/2-y,1/2+z
1/2+x,1/2-y,-z
1/2-x,1/2+y,1/2-z
loop_
_atom_site_type_symbol
_atom_site_label
_atom_site_fract_x
_atom_site_fract_y
_atom_site_fract_z
Si Si1 0.109603 0.248891 0.461141
Si Si2 0.227903 0.403379 0.581663
Si Si3 0.635738 0.071879 0.709263
Si Si4 0.809239 0.000000 0.000000
Si Si5 0.319132 0.837002 0.413590
Si Si6 0.000000 0.589610 0.250000
Si Si7 0.536778 0.860885 0.961673
O O1 0.154235 0.327496 0.543956
O O2 0.130915 0.303164 0.355551
O O3 0.135081 0.103146 0.451816
O O4 0.020445 0.260456 0.487574
O O5 0.258117 0.500000 0.500000
O O6 0.206595 0.483495 0.678270
O O7 0.294526 0.306574 0.607553
O O8 0.636481 0.109427 0.821708
O O9 0.560257 0.993454 0.691982
O O10 0.754498 0.925419 0.074163
O O11 0.375974 0.837541 0.505958
O O12 0.036470 0.664192 0.156978
O O13 0.512267 0.000000 0.000000
#
# Coordination Sequence:
#
# PCOD8158754 Si02
#       7
#     8   8   8   4   8   4   8
#     4  10  20  37  61  79 119 156 195 237 306 362
#     4   9  20  39  55  83 119 164 197 245 307 363
#     4  11  19  33  62  89 113 154 205 250 301 363
#     4  10  22  40  54  86 122 162 190 246 306 362
#     4  11  22  36  60  89 123 156 205 261 299 354
#     4  12  20  34  64  90 112 146 208 260 298 354
#     4  12  20  38  59  90 117 153 204 254 295 355
#
# _framework density 18.824380999999999
#
# number of rings (size 3 to 8) (size 9 to 14) (size 15 to 20)
#    0.000    1.333    5.833    0.500    2.333    0.000 
#    4.500    0.000    0.000    0.000    0.000    0.000 
#    0.000    0.000    0.000    0.000    0.000    0.000 
#
# Total GULP energy -297482.969433 kJ/mol
# GULP energy per Si atom -12395.123726 kJ/mol
# Density = 1.878154 g / cm^3
# Si number density = 18.824381 Si / 1000 Ang^3
#
#
#
# Elastic Constant Matrix: (Units=GPa)
#
#
# Indices 1 2 3 4 5 6 
#
# 1 86.7041 43.7206 28.7106 0.0000 0.0000 0.0000
# 2 43.7206 101.8028 32.5511 0.0000 0.0000 0.0000
# 3 28.7106 32.5511 106.8610 0.0000 0.0000 0.0000
# 4 0.0000 0.0000 0.0000 17.4741 0.0000 0.0000
# 5 0.0000 0.0000 0.0000 0.0000 21.1684 0.0000
# 6 0.0000 0.0000 0.0000 0.0000 0.0000 -408.4650
#
#
#
# Elastic Compliance Matrix: (Units=1/GPa)
#
#
# Indices 1 2 3 4 5 6 
#
# 1 0.015226 -0.005795 -0.002325 0.000000 0.000000 0.000000
# 2 -0.005795 0.013089 -0.002430 0.000000 0.000000 0.000000
# 3 -0.002325 -0.002430 0.010723 0.000000 0.000000 0.000000
# 4 0.000000 0.000000 0.000000 0.057228 0.000000 0.000000
# 5 0.000000 0.000000 0.000000 0.000000 0.047240 0.000000
# 6 0.000000 0.000000 0.000000 0.000000 0.000000 -0.002448
#
#
# Mechanical properties :
#
#
# Convention : Reuss Voigt Hill
#
# Bulk Modulus (GPa) = 55.75368 56.14807 55.95087
# Shear Modulus (GPa) = 29.73759 -61.27213 -15.76727
#
# Velocity S-wave (km/s) = 3.97890 -5.71139 -2.89727
# Velocity P-wave (km/s) = 7.12678 3.68799 4.31218
#
# Compressibility (1/GPa) = 0.01793604
#
# Stress axis : x y z
#
# Youngs Moduli (GPa) = 65.67785 76.40122 93.25820
#
# Poissons Ratio (x) = 0.44278 0.21686
# Poissons Ratio (y) = 0.38063 0.22661
# Poissons Ratio (z) = 0.15273 0.18565
#
# Static dielectric constant tensor:
#      x y z
#    x 3.381260 0.000000 0.000000 
#    y 0.000000 3.426190 0.000000 
#    z 0.000000 0.000000 3.563360 
# 
# 
# High freq. dielectric constant tensor:
#      x y z
#    x 1.726770 0.000000 0.000000 
#    y 0.000000 1.712240 0.000000 
#    z 0.000000 0.000000 1.728350 
# 
# From -- ./inp_files/20147.got.cif
#   From: 2010.03.12/outbox.cif.g09.slc.cpg/sg20_11_cif.got.tgz:20147.got - 2010.04.14 01:38:04.
