data_PCOD8158378
_publ_section_title
;
Structure prediction by ZEFSAII (Michael W. Deem and Ramdas Pophale) SiO2 
 PCOD8158378
Probable space group: C 2 2 21
;
_chemical_formula_sum "Si O2"
_cell_formula_units_Z 56
_cell_length_a 9.092874
_cell_length_b 19.420336
_cell_length_c 16.022347
_cell_angle_alpha 90.000000
_cell_angle_beta 90.000000
_cell_angle_gamma 90.000000
_cell_volume 2829.332875
_symmetry_space_group_name_H-M "C 2 2 21"
_symmetry_group_IT_number 20
_symmetry_cell_setting 'orthorhombic'
loop_
_space_group_symop_operation_xyz
x,y,z
-x,-y,1/2+z
x,-y,-z
-x,y,1/2-z
1/2+x,1/2+y,z
1/2-x,1/2-y,1/2+z
1/2+x,1/2-y,-z
1/2-x,1/2+y,1/2-z
loop_
_atom_site_type_symbol
_atom_site_label
_atom_site_fract_x
_atom_site_fract_y
_atom_site_fract_z
Si Si1 0.151743 0.146546 0.800835
Si Si2 0.051895 0.421487 0.020250
Si Si3 0.602065 0.328422 0.010792
Si Si4 0.213895 0.196682 0.535748
Si Si5 0.652763 0.231625 0.293132
Si Si6 0.617824 0.038704 0.681024
Si Si7 0.303568 0.898184 0.891136
O O1 0.115960 0.141397 0.897401
O O2 0.232628 0.219705 0.776071
O O3 0.262863 0.086664 0.774201
O O4 0.000000 0.140022 0.750000
O O5 0.192444 0.373654 0.037209
O O6 0.954216 0.420757 0.103739
O O7 0.101913 0.500000 0.000000
O O8 0.956766 0.390230 0.943100
O O9 0.433426 0.316910 0.981946
O O10 0.690614 0.257215 0.003929
O O11 0.666989 0.388403 0.952655
O O12 0.148437 0.219839 0.624969
O O13 0.500000 0.213386 0.250000
O O14 0.719757 0.158267 0.317654
O O15 0.500000 0.015886 0.750000
O O16 0.705773 0.972328 0.649740
#
# Coordination Sequence:
#
# PCOD8158378 Si02
#       7
#     8   8   8   8   8   8   8
#     4  11  22  39  63  95 125 170 212 260 332 379
#     4  10  22  40  63  96 125 170 220 262 321 394
#     4  11  22  38  66  91 128 170 213 274 319 395
#     4  11  21  39  62  93 127 167 220 262 327 385
#     4  10  19  35  62  90 121 163 206 258 323 380
#     4  11  23  41  66  95 131 171 217 270 326 397
#     4  10  22  42  65  94 125 170 215 267 333 386
#
# _framework density 19.792653000000001
#
# number of rings (size 3 to 8) (size 9 to 14) (size 15 to 20)
#    0.000    1.429    4.286    3.000    0.000    0.000 
#    2.571    0.000    0.000    0.000    0.000    0.000 
#    0.000    0.000    0.000    0.000    0.000    0.000 
#
# Total GULP energy -346959.407044 kJ/mol
# GULP energy per Si atom -12391.407394 kJ/mol
# Density = 1.974760 g / cm^3
# Si number density = 19.792653 Si / 1000 Ang^3
#
#
#
# Elastic Constant Matrix: (Units=GPa)
#
#
# Indices 1 2 3 4 5 6 
#
# 1 104.9002 61.5343 26.7630 0.0000 0.0000 0.0000
# 2 61.5343 123.0798 40.6276 0.0000 0.0000 0.0000
# 3 26.7630 40.6276 73.7884 0.0000 0.0000 0.0000
# 4 0.0000 0.0000 0.0000 33.1273 0.0000 0.0000
# 5 0.0000 0.0000 0.0000 0.0000 33.8416 0.0000
# 6 0.0000 0.0000 0.0000 0.0000 0.0000 34.6797
#
#
#
# Elastic Compliance Matrix: (Units=1/GPa)
#
#
# Indices 1 2 3 4 5 6 
#
# 1 0.013615 -0.006327 -0.001455 0.000000 0.000000 0.000000
# 2 -0.006327 0.012869 -0.004791 0.000000 0.000000 0.000000
# 3 -0.001455 -0.004791 0.016718 0.000000 0.000000 0.000000
# 4 0.000000 0.000000 0.000000 0.030187 0.000000 0.000000
# 5 0.000000 0.000000 0.000000 0.000000 0.029549 0.000000
# 6 0.000000 0.000000 0.000000 0.000000 0.000000 0.028835
#
#
# Mechanical properties :
#
#
# Convention : Reuss Voigt Hill
#
# Bulk Modulus (GPa) = 55.37948 62.17981 58.77964
# Shear Modulus (GPa) = 30.68641 31.85260 31.26951
#
# Velocity S-wave (km/s) = 3.94178 4.01598 3.97905
# Velocity P-wave (km/s) = 6.98265 7.27928 7.13251
#
# Compressibility (1/GPa) = 0.01805723
#
# Stress axis : x y z
#
# Youngs Moduli (GPa) = 73.44659 77.70331 59.81627
#
# Poissons Ratio (x) = 0.49162 0.08702
# Poissons Ratio (y) = 0.46469 0.28659
# Poissons Ratio (z) = 0.10685 0.37229
#
# Static dielectric constant tensor:
#      x y z
#    x 3.528650 0.000000 0.000000 
#    y 0.000000 3.716440 0.000000 
#    z 0.000000 0.000000 3.777830 
# 
# 
# High freq. dielectric constant tensor:
#      x y z
#    x 1.752930 0.000000 0.000000 
#    y 0.000000 1.778300 0.000000 
#    z 0.000000 0.000000 1.774740 
# 
# From -- ./inp_files/19204.got.cif
#   From: 2010.03.12/outbox.cif.g09.slc.cpg/sg20_10_cif.got.tgz:19204.got - 2010.04.14 01:38:04.
