data_PCOD8158081
_publ_section_title
;
Structure prediction by ZEFSAII (Michael W. Deem and Ramdas Pophale) SiO2 
 PCOD8158081
Probable space group: C 2 2 21
;
_chemical_formula_sum "Si O2"
_cell_formula_units_Z 48
_cell_length_a 8.161018
_cell_length_b 16.572352
_cell_length_c 18.346031
_cell_angle_alpha 90.000000
_cell_angle_beta 90.000000
_cell_angle_gamma 90.000000
_cell_volume 2481.250479
_symmetry_space_group_name_H-M "C 2 2 21"
_symmetry_group_IT_number 20
_symmetry_cell_setting 'orthorhombic'
loop_
_space_group_symop_operation_xyz
x,y,z
-x,-y,1/2+z
x,-y,-z
-x,y,1/2-z
1/2+x,1/2+y,z
1/2-x,1/2-y,1/2+z
1/2+x,1/2-y,-z
1/2-x,1/2+y,1/2-z
loop_
_atom_site_type_symbol
_atom_site_label
_atom_site_fract_x
_atom_site_fract_y
_atom_site_fract_z
Si Si1 0.422659 0.197405 0.674108
Si Si2 0.158657 0.254795 0.944476
Si Si3 0.774234 0.427881 0.913295
Si Si4 0.129163 0.603510 0.571099
Si Si5 0.600495 0.788747 0.676739
Si Si6 0.983494 0.824930 0.927024
O O1 0.500000 0.168333 0.750000
O O2 0.461085 0.127044 0.613731
O O3 0.227991 0.214217 0.682370
O O4 0.506082 0.283501 0.652609
O O5 0.244401 0.175052 0.912503
O O6 0.292368 0.328552 0.950437
O O7 0.016019 0.274343 0.890307
O O8 0.081732 0.240733 0.023638
O O9 0.796254 0.521483 0.894731
O O10 0.814423 0.374292 0.842498
O O11 0.580403 0.410101 0.932357
O O12 0.890263 0.405515 0.983172
O O13 0.500000 0.798734 0.750000
#
# Coordination Sequence:
#
# PCOD8158081 Si02
#       6
#     8   8   8   8   8   8
#     4  10  19  33  54  76 102 138 180 220 264 315
#     4  10  18  32  55  77 101 136 178 220 262 314
#     4   9  19  34  54  77 106 135 170 218 272 320
#     4   9  18  35  55  77 103 137 172 218 272 322
#     4  11  21  33  51  78 107 140 182 225 265 316
#     4   9  17  31  52  77 101 132 173 217 261 311
#
# _framework density 19.345084
#
# number of rings (size 3 to 8) (size 9 to 14) (size 15 to 20)
#    0.000    2.333    0.000    6.000    0.000    0.667 
#    0.000    1.667    0.000   24.000    0.000    0.000 
#    0.000    0.000    0.000    0.000    0.000    0.000 
#
# Total GULP energy -297335.223324 kJ/mol
# GULP energy per Si atom -12388.967639 kJ/mol
# Density = 1.930105 g / cm^3
# Si number density = 19.345084 Si / 1000 Ang^3
#
#
#
# Elastic Constant Matrix: (Units=GPa)
#
#
# Indices 1 2 3 4 5 6 
#
# 1 119.2801 33.5681 34.4902 0.0000 0.0000 0.0000
# 2 33.5681 91.0337 28.1512 0.0000 0.0000 0.0000
# 3 34.4902 28.1512 49.0134 0.0000 0.0000 0.0000
# 4 0.0000 0.0000 0.0000 57.9921 0.0000 0.0000
# 5 0.0000 0.0000 0.0000 0.0000 31.1192 0.0000
# 6 0.0000 0.0000 0.0000 0.0000 0.0000 31.0521
#
#
#
# Elastic Compliance Matrix: (Units=1/GPa)
#
#
# Indices 1 2 3 4 5 6 
#
# 1 0.010813 -0.001987 -0.006468 0.000000 0.000000 0.000000
# 2 -0.001987 0.013723 -0.006483 0.000000 0.000000 0.000000
# 3 -0.006468 -0.006483 0.028678 0.000000 0.000000 0.000000
# 4 0.000000 0.000000 0.000000 0.017244 0.000000 0.000000
# 5 0.000000 0.000000 0.000000 0.000000 0.032134 0.000000
# 6 0.000000 0.000000 0.000000 0.000000 0.000000 0.032204
#
#
# Mechanical properties :
#
#
# Convention : Reuss Voigt Hill
#
# Bulk Modulus (GPa) = 42.85068 50.19403 46.52235
# Shear Modulus (GPa) = 28.99383 34.90721 31.95052
#
# Velocity S-wave (km/s) = 3.87560 4.25249 4.06841
# Velocity P-wave (km/s) = 6.49813 7.07916 6.79486
#
# Compressibility (1/GPa) = 0.02333685
#
# Stress axis : x y z
#
# Youngs Moduli (GPa) = 92.48125 72.87251 34.87050
#
# Poissons Ratio (x) = 0.14481 0.22553
# Poissons Ratio (y) = 0.18378 0.22608
# Poissons Ratio (z) = 0.59814 0.47246
#
# Static dielectric constant tensor:
#      x y z
#    x 3.715450 0.000000 0.000000 
#    y 0.000000 3.416690 0.000000 
#    z 0.000000 0.000000 3.052310 
# 
# 
# High freq. dielectric constant tensor:
#      x y z
#    x 1.749810 0.000000 0.000000 
#    y 0.000000 1.720160 0.000000 
#    z 0.000000 0.000000 1.749850 
# 
# From -- ./inp_files/23620.got.cif
#   From: 2010.03.12/outbox.cif.g09.slc.cpg/sg20_12_cif.got.tgz:23620.got - 2010.04.14 01:38:04.
