data_PCOD8158651
_publ_section_title
;
Structure prediction by ZEFSAII (Michael W. Deem and Ramdas Pophale) SiO2 
 PCOD8158651
Probable space group: C 2 2 21
;
_chemical_formula_sum "Si O2"
_cell_formula_units_Z 56
_cell_length_a 31.224534
_cell_length_b 5.694637
_cell_length_c 14.508524
_cell_angle_alpha 90.000000
_cell_angle_beta 90.000000
_cell_angle_gamma 90.000000
_cell_volume 2579.795279
_symmetry_space_group_name_H-M "C 2 2 21"
_symmetry_group_IT_number 20
_symmetry_cell_setting 'orthorhombic'
loop_
_space_group_symop_operation_xyz
x,y,z
-x,-y,1/2+z
x,-y,-z
-x,y,1/2-z
1/2+x,1/2+y,z
1/2-x,1/2-y,1/2+z
1/2+x,1/2-y,-z
1/2-x,1/2+y,1/2-z
loop_
_atom_site_type_symbol
_atom_site_label
_atom_site_fract_x
_atom_site_fract_y
_atom_site_fract_z
Si Si1 0.346204 0.990112 0.677229
Si Si2 0.334012 0.696305 0.145339
Si Si3 0.754893 0.362182 0.697489
Si Si4 0.903436 0.187786 0.421599
Si Si5 0.475898 0.000000 0.500000
Si Si6 0.120062 0.500000 0.500000
Si Si7 0.452055 0.299599 0.077969
Si Si8 0.901448 0.904566 0.241483
O O1 0.301846 0.859831 0.648836
O O2 0.385921 0.824772 0.704365
O O3 0.334672 0.142028 0.765311
O O4 0.362827 0.137267 0.588606
O O5 0.284751 0.622560 0.125463
O O6 0.350126 0.820525 0.053882
O O7 0.364027 0.475300 0.169272
O O8 0.748893 0.605489 0.754571
O O9 0.947289 0.316654 0.445352
O O10 0.891274 0.000000 0.500000
O O11 0.912136 0.090069 0.320223
O O12 0.505181 0.856271 0.572080
O O13 0.089792 0.362528 0.569981
O O14 0.445848 0.390785 0.182651
O O15 0.453220 0.500000 0.000000
#
# Coordination Sequence:
#
# PCOD8158651 Si02
#       8
#     8   8   8   8   4   4   8   8
#     4  10  21  39  69 100 134 186 236 282 343 419
#     4  10  20  35  65 105 140 183 229 279 353 411
#     4  10  20  37  66 106 144 187 243 299 344 416
#     4  11  25  47  71  93 132 180 238 295 350 419
#     4  11  26  48  66  94 138 176 214 296 364 419
#     4  11  20  36  66 102 146 178 220 286 352 425
#     4  11  23  41  70 100 138 170 221 283 357 431
#     4  11  21  41  72 100 127 183 230 275 349 429
#
# _framework density 21.707148
#
# number of rings (size 3 to 8) (size 9 to 14) (size 15 to 20)
#    0.000    1.429    4.286    1.286    0.000    0.000 
#    0.000   10.714    4.714    5.143    1.857    0.000 
#    0.000    0.000    0.000    0.000    0.000    0.000 
#
# Total GULP energy -346942.469549 kJ/mol
# GULP energy per Si atom -12390.802484 kJ/mol
# Density = 2.165774 g / cm^3
# Si number density = 21.707148 Si / 1000 Ang^3
#
#
#
# Elastic Constant Matrix: (Units=GPa)
#
#
# Indices 1 2 3 4 5 6 
#
# 1 138.5861 35.8442 51.4037 0.0000 0.0000 0.0000
# 2 35.8442 101.3419 27.9599 0.0000 0.0000 0.0000
# 3 51.4037 27.9599 89.4810 0.0000 0.0000 0.0000
# 4 0.0000 0.0000 0.0000 23.1689 0.0000 0.0000
# 5 0.0000 0.0000 0.0000 0.0000 37.7042 0.0000
# 6 0.0000 0.0000 0.0000 0.0000 0.0000 39.9066
#
#
#
# Elastic Compliance Matrix: (Units=1/GPa)
#
#
# Indices 1 2 3 4 5 6 
#
# 1 0.009539 -0.002038 -0.004843 0.000000 0.000000 0.000000
# 2 -0.002038 0.011234 -0.002340 0.000000 0.000000 0.000000
# 3 -0.004843 -0.002340 0.014689 0.000000 0.000000 0.000000
# 4 0.000000 0.000000 0.000000 0.043161 0.000000 0.000000
# 5 0.000000 0.000000 0.000000 0.000000 0.026522 0.000000
# 6 0.000000 0.000000 0.000000 0.000000 0.000000 0.025059
#
#
# Mechanical properties :
#
#
# Convention : Reuss Voigt Hill
#
# Bulk Modulus (GPa) = 58.75167 62.20271 60.47719
# Shear Modulus (GPa) = 32.40050 34.43601 33.41826
#
# Velocity S-wave (km/s) = 3.86763 3.98727 3.92791
# Velocity P-wave (km/s) = 6.86069 7.06508 6.96364
#
# Compressibility (1/GPa) = 0.01702079
#
# Stress axis : x y z
#
# Youngs Moduli (GPa) = 104.83062 89.01694 68.07885
#
# Poissons Ratio (x) = 0.18139 0.32972
# Poissons Ratio (y) = 0.21362 0.15928
# Poissons Ratio (z) = 0.50772 0.20826
#
# Static dielectric constant tensor:
#      x y z
#    x 4.367050 0.000000 0.000000 
#    y 0.000000 4.260600 0.000000 
#    z 0.000000 0.000000 3.605120 
# 
# 
# High freq. dielectric constant tensor:
#      x y z
#    x 1.861950 0.000000 0.000000 
#    y 0.000000 1.869100 0.000000 
#    z 0.000000 0.000000 1.826170 
# 
# From -- ./inp_files/22331.got.cif
#   From: 2010.03.12/outbox.cif.g09.slc.cpg/sg20_12_cif.got.tgz:22331.got - 2010.04.14 01:38:04.
