data_PCOD8158841
_publ_section_title
;
Structure prediction by ZEFSAII (Michael W. Deem and Ramdas Pophale) SiO2 
 PCOD8158841
Probable space group: C 2 2 21
;
_chemical_formula_sum "Si O2"
_cell_formula_units_Z 64
_cell_length_a 23.748030
_cell_length_b 8.985920
_cell_length_c 15.044568
_cell_angle_alpha 90.000000
_cell_angle_beta 90.000000
_cell_angle_gamma 90.000000
_cell_volume 3210.479184
_symmetry_space_group_name_H-M "C 2 2 21"
_symmetry_group_IT_number 20
_symmetry_cell_setting 'orthorhombic'
loop_
_space_group_symop_operation_xyz
x,y,z
-x,-y,1/2+z
x,-y,-z
-x,y,1/2-z
1/2+x,1/2+y,z
1/2-x,1/2-y,1/2+z
1/2+x,1/2-y,-z
1/2-x,1/2+y,1/2-z
loop_
_atom_site_type_symbol
_atom_site_label
_atom_site_fract_x
_atom_site_fract_y
_atom_site_fract_z
Si Si1 0.870718 0.146267 0.890763
Si Si2 0.307689 0.673774 0.508393
Si Si3 0.927763 0.677094 0.498812
Si Si4 0.123858 0.817241 0.593401
Si Si5 0.995672 0.827604 0.147937
Si Si6 0.264204 0.809459 0.836500
Si Si7 0.500517 0.322528 0.646312
Si Si8 0.725166 0.845454 0.333933
O O1 0.932528 0.213423 0.878983
O O2 0.826218 0.239245 0.834632
O O3 0.868088 0.975436 0.856027
O O4 0.856361 0.158425 0.993544
O O5 0.323328 0.500000 0.500000
O O6 0.363574 0.771351 0.510361
O O7 0.268190 0.724658 0.427488
O O8 0.273331 0.708383 0.598193
O O9 0.930482 0.500000 0.500000
O O10 0.961883 0.735824 0.413543
O O11 0.951548 0.739513 0.592187
O O12 0.059053 0.769024 0.602778
O O13 0.162599 0.687472 0.631316
O O14 0.000000 0.779026 0.250000
O O15 0.008992 0.001652 0.134049
O O16 0.228651 0.739805 0.757983
O O17 0.270398 0.981582 0.817254
O O18 0.500000 0.277165 0.750000
#
# Coordination Sequence:
#
# PCOD8158841 Si02
#       8
#     8   8   8   8   8   8   8   8
#     4  10  20  38  64  92 122 159 206 257 306 360
#     4  10  24  45  64  83 121 172 212 244 301 378
#     4  12  26  41  62  93 129 162 202 262 317 358
#     4  10  20  38  64  92 122 159 206 257 306 360
#     4  10  22  42  67  92 123 167 212 249 300 374
#     4  11  24  42  64  92 124 162 206 254 309 367
#     4  10  22  42  67  92 123 167 212 249 300 374
#     4  11  24  42  64  92 124 162 206 254 309 367
#
# _framework density 19.934719999999999
#
# number of rings (size 3 to 8) (size 9 to 14) (size 15 to 20)
#    0.000    1.500    2.500    1.875    3.500    3.500 
#    0.000    0.000    0.000    0.000    0.000    0.000 
#    0.000    0.000    0.000    0.000    0.000    0.000 
#
# Total GULP energy -396891.987488 kJ/mol
# GULP energy per Si atom -12402.874609 kJ/mol
# Density = 1.988935 g / cm^3
# Si number density = 19.934720 Si / 1000 Ang^3
#
#
#
# Elastic Constant Matrix: (Units=GPa)
#
#
# Indices 1 2 3 4 5 6 
#
# 1 90.7818 45.7497 6.3685 0.0000 0.0000 0.0000
# 2 45.7497 77.9959 36.5344 0.0000 0.0000 0.0000
# 3 6.3685 36.5344 80.0576 0.0000 0.0000 0.0000
# 4 0.0000 0.0000 0.0000 27.2109 0.0000 0.0000
# 5 0.0000 0.0000 0.0000 0.0000 29.8844 0.0000
# 6 0.0000 0.0000 0.0000 0.0000 0.0000 27.5823
#
#
#
# Elastic Compliance Matrix: (Units=1/GPa)
#
#
# Indices 1 2 3 4 5 6 
#
# 1 0.016572 -0.011578 0.003965 0.000000 0.000000 0.000000
# 2 -0.011578 0.024396 -0.010212 0.000000 0.000000 0.000000
# 3 0.003965 -0.010212 0.016836 0.000000 0.000000 0.000000
# 4 0.000000 0.000000 0.000000 0.036750 0.000000 0.000000
# 5 0.000000 0.000000 0.000000 0.000000 0.033462 0.000000
# 6 0.000000 0.000000 0.000000 0.000000 0.000000 0.036255
#
#
# Mechanical properties :
#
#
# Convention : Reuss Voigt Hill
#
# Bulk Modulus (GPa) = 45.13790 47.34893 46.24342
# Shear Modulus (GPa) = 24.11900 27.61437 25.86668
#
# Velocity S-wave (km/s) = 3.48213 3.72592 3.60609
# Velocity P-wave (km/s) = 6.23370 6.50488 6.37074
#
# Compressibility (1/GPa) = 0.02215433
#
# Stress axis : x y z
#
# Youngs Moduli (GPa) = 60.34279 40.99047 59.39695
#
# Poissons Ratio (x) = 0.47459 -0.23553
# Poissons Ratio (y) = 0.69865 0.60657
# Poissons Ratio (z) = -0.23928 0.41860
#
# Static dielectric constant tensor:
#      x y z
#    x 3.655660 0.000000 0.000000 
#    y 0.000000 3.538900 0.000000 
#    z 0.000000 0.000000 3.882000 
# 
# 
# High freq. dielectric constant tensor:
#      x y z
#    x 1.787880 0.000000 0.000000 
#    y 0.000000 1.767560 0.000000 
#    z 0.000000 0.000000 1.785550 
# 
# From -- ./inp_files/22043.got.cif
#   From: 2010.03.12/outbox.cif.g09.slc.cpg/sg20_12_cif.got.tgz:22043.got - 2010.04.14 01:38:04.
