data_PCOD8158595
_publ_section_title
;
Structure prediction by ZEFSAII (Michael W. Deem and Ramdas Pophale) SiO2 
 PCOD8158595
Probable space group: C 2 2 21
;
_chemical_formula_sum "Si O2"
_cell_formula_units_Z 64
_cell_length_a 20.700022
_cell_length_b 8.862773
_cell_length_c 19.091000
_cell_angle_alpha 90.000000
_cell_angle_beta 90.000000
_cell_angle_gamma 90.000000
_cell_volume 3502.427149
_symmetry_space_group_name_H-M "C 2 2 21"
_symmetry_group_IT_number 20
_symmetry_cell_setting 'orthorhombic'
loop_
_space_group_symop_operation_xyz
x,y,z
-x,-y,1/2+z
x,-y,-z
-x,y,1/2-z
1/2+x,1/2+y,z
1/2-x,1/2-y,1/2+z
1/2+x,1/2-y,-z
1/2-x,1/2+y,1/2-z
loop_
_atom_site_type_symbol
_atom_site_label
_atom_site_fract_x
_atom_site_fract_y
_atom_site_fract_z
Si Si1 0.625345 0.827775 0.422260
Si Si2 0.568559 0.174850 0.278606
Si Si3 0.690395 0.677529 0.790481
Si Si4 0.874655 0.327775 0.922260
Si Si5 0.240506 0.324816 0.079665
Si Si6 0.068559 0.674850 0.721394
Si Si7 0.809605 0.822471 0.709519
Si Si8 0.759494 0.324816 0.579665
O O1 0.596519 0.793577 0.500000
O O2 0.571056 0.799717 0.362964
O O3 0.685560 0.720606 0.406010
O O4 0.650403 0.000000 0.418286
O O5 0.500000 0.232252 0.250000
O O6 0.622990 0.272904 0.241917
O O7 0.571056 0.200283 0.362964
O O8 0.579531 0.000000 0.259380
O O9 0.750000 0.750000 0.750000
O O10 0.697228 0.500000 0.785608
O O11 0.692460 0.730643 0.871173
O O12 0.814440 0.220606 0.906010
O O13 0.192460 0.230643 0.128827
O O14 0.233508 0.500000 0.097623
O O15 0.220799 0.289016 0.000000
O O16 0.122990 0.772904 0.758083
O O17 0.000000 0.732252 0.750000
#
# Coordination Sequence:
#
# PCOD8158595 Si02
#       8
#     8   8   8   8   8   8   8   8
#     4   9  17  31  53  79 107 144 188 232 279 334
#     4  10  21  37  56  81 115 152 191 235 284 340
#     4  12  23  36  57  83 113 148 189 234 282 334
#     4   9  17  31  53  79 107 144 188 232 279 334
#     4  10  20  34  55  84 114 144 183 234 287 337
#     4  10  21  37  56  81 115 152 191 235 284 340
#     4  12  23  36  57  83 113 148 189 234 282 334
#     4  10  20  34  55  84 114 144 183 234 287 337
#
# _framework density 18.273042
#
# number of rings (size 3 to 8) (size 9 to 14) (size 15 to 20)
#    0.000    1.750    2.500    3.000    0.000    2.000 
#    0.000    1.250    0.000    4.500    0.000    0.000 
#    0.000    0.000    0.000    0.000    0.000    0.000 
#
# Total GULP energy -396818.730976 kJ/mol
# GULP energy per Si atom -12400.585343 kJ/mol
# Density = 1.823145 g / cm^3
# Si number density = 18.273042 Si / 1000 Ang^3
#
#
#
# Elastic Constant Matrix: (Units=GPa)
#
#
# Indices 1 2 3 4 5 6 
#
# 1 106.8796 54.9095 73.8922 0.0000 0.0000 0.0000
# 2 54.9095 109.1390 57.8167 0.0000 0.0000 0.0000
# 3 73.8922 57.8167 149.1414 0.0000 0.0000 0.0000
# 4 0.0000 0.0000 0.0000 27.2621 0.0000 0.0000
# 5 0.0000 0.0000 0.0000 0.0000 29.7334 0.0000
# 6 0.0000 0.0000 0.0000 0.0000 0.0000 25.5700
#
#
#
# Elastic Compliance Matrix: (Units=1/GPa)
#
#
# Indices 1 2 3 4 5 6 
#
# 1 0.016047 -0.004860 -0.006067 0.000000 0.000000 0.000000
# 2 -0.004860 0.013002 -0.002633 0.000000 0.000000 0.000000
# 3 -0.006067 -0.002633 0.010731 0.000000 0.000000 0.000000
# 4 0.000000 0.000000 0.000000 0.036681 0.000000 0.000000
# 5 0.000000 0.000000 0.000000 0.000000 0.033632 0.000000
# 6 0.000000 0.000000 0.000000 0.000000 0.000000 0.039108
#
#
# Mechanical properties :
#
#
# Convention : Reuss Voigt Hill
#
# Bulk Modulus (GPa) = 78.97262 82.04408 80.50835
# Shear Modulus (GPa) = 27.69440 28.41587 28.05513
#
# Velocity S-wave (km/s) = 3.89728 3.94772 3.92258
# Velocity P-wave (km/s) = 7.97268 8.11022 8.04175
#
# Compressibility (1/GPa) = 0.01266262
#
# Stress axis : x y z
#
# Youngs Moduli (GPa) = 62.31580 76.90902 93.18445
#
# Poissons Ratio (x) = 0.37376 0.56532
# Poissons Ratio (y) = 0.30284 0.24533
# Poissons Ratio (z) = 0.37805 0.20248
#
# Static dielectric constant tensor:
#      x y z
#    x 3.150020 0.000000 0.000000 
#    y 0.000000 3.412950 0.000000 
#    z 0.000000 0.000000 3.882660 
# 
# 
# High freq. dielectric constant tensor:
#      x y z
#    x 1.667850 0.000000 0.000000 
#    y 0.000000 1.712490 0.000000 
#    z 0.000000 0.000000 1.730670 
# 
# From -- ./inp_files/27948.got.cif
#   From: 2010.03.12/outbox.cif.g09.slc.cpg/sg20_14_cif.got.tgz:27948.got - 2010.04.14 01:38:04.
