data_PCOD8158773
_publ_section_title
;
Structure prediction by ZEFSAII (Michael W. Deem and Ramdas Pophale) SiO2 
 PCOD8158773
Probable space group: C 2 2 21
;
_chemical_formula_sum "Si O2"
_cell_formula_units_Z 60
_cell_length_a 11.829441
_cell_length_b 9.176438
_cell_length_c 24.465672
_cell_angle_alpha 90.000000
_cell_angle_beta 90.000000
_cell_angle_gamma 90.000000
_cell_volume 2655.800854
_symmetry_space_group_name_H-M "C 2 2 21"
_symmetry_group_IT_number 20
_symmetry_cell_setting 'orthorhombic'
loop_
_space_group_symop_operation_xyz
x,y,z
-x,-y,1/2+z
x,-y,-z
-x,y,1/2-z
1/2+x,1/2+y,z
1/2-x,1/2-y,1/2+z
1/2+x,1/2-y,-z
1/2-x,1/2+y,1/2-z
loop_
_atom_site_type_symbol
_atom_site_label
_atom_site_fract_x
_atom_site_fract_y
_atom_site_fract_z
Si Si1 0.120239 0.921294 0.945883
Si Si2 0.000000 0.877651 0.250000
Si Si3 0.140550 0.079351 0.170998
Si Si4 0.341144 0.761563 0.937354
Si Si5 0.601958 0.865970 0.676322
Si Si6 0.728699 0.982272 0.939362
Si Si7 0.455666 0.894563 0.359829
Si Si8 0.401098 0.246690 0.947572
O O1 0.124560 0.006538 0.887450
O O2 0.205899 0.789460 0.932402
O O3 0.996195 0.867162 0.957688
O O4 0.167056 0.000000 0.000000
O O5 0.076214 0.775271 0.287835
O O6 0.079809 0.983666 0.216042
O O7 0.270660 0.085940 0.189581
O O8 0.087038 0.243604 0.167210
O O9 0.412142 0.824405 0.887475
O O10 0.340817 0.585886 0.937243
O O11 0.389173 0.830926 0.993309
O O12 0.511310 0.997677 0.685876
O O13 0.642772 0.016128 0.890447
O O14 0.780761 0.820218 0.931233
O O15 0.672053 0.000000 0.000000
O O16 0.560555 0.865608 0.401369
#
# Coordination Sequence:
#
# PCOD8158773 Si02
#       8
#     8   4   8   8   8   8   8   8
#     4  10  20  37  64 101 139 176 221 275 342 418
#     4  12  30  50  76  98 128 194 240 292 360 404
#     4  10  26  50  72 102 140 182 239 290 348 419
#     4  10  21  38  62  99 146 178 222 280 327 419
#     4  11  27  46  72 103 135 174 239 295 346 404
#     4  10  20  39  61 101 147 188 224 265 336 420
#     4  11  24  43  69 106 140 182 227 285 346 414
#     4  10  22  34  64  99 143 193 213 263 349 412
#
# _framework density 22.592054000000001
#
# number of rings (size 3 to 8) (size 9 to 14) (size 15 to 20)
#    0.000    1.600    4.000    1.200   11.200    3.733 
#    0.000    0.000    0.000    0.000    0.000    0.000 
#    0.000    0.000    0.000    0.000    0.000    0.000 
#
# Total GULP energy -371714.046730 kJ/mol
# GULP energy per Si atom -12390.468224 kJ/mol
# Density = 2.254063 g / cm^3
# Si number density = 22.592054 Si / 1000 Ang^3
#
#
#
# Elastic Constant Matrix: (Units=GPa)
#
#
# Indices 1 2 3 4 5 6 
#
# 1 100.9756 35.1884 47.2670 0.0000 0.0000 0.0000
# 2 35.1884 81.0761 58.4778 0.0000 0.0000 0.0000
# 3 47.2670 58.4778 76.0686 0.0000 0.0000 0.0000
# 4 0.0000 0.0000 0.0000 34.0374 0.0000 0.0000
# 5 0.0000 0.0000 0.0000 0.0000 13.3286 0.0000
# 6 0.0000 0.0000 0.0000 0.0000 0.0000 22.2312
#
#
#
# Elastic Compliance Matrix: (Units=1/GPa)
#
#
# Indices 1 2 3 4 5 6 
#
# 1 0.013973 0.000444 -0.009024 0.000000 0.000000 0.000000
# 2 0.000444 0.027699 -0.021569 0.000000 0.000000 0.000000
# 3 -0.009024 -0.021569 0.035335 0.000000 0.000000 0.000000
# 4 0.000000 0.000000 0.000000 0.029379 0.000000 0.000000
# 5 0.000000 0.000000 0.000000 0.000000 0.075027 0.000000
# 6 0.000000 0.000000 0.000000 0.000000 0.000000 0.044982
#
#
# Mechanical properties :
#
#
# Convention : Reuss Voigt Hill
#
# Bulk Modulus (GPa) = 59.85117 59.99850 59.92484
# Shear Modulus (GPa) = 17.10800 21.73192 19.41996
#
# Velocity S-wave (km/s) = 2.75482 3.10486 2.93506
# Velocity P-wave (km/s) = 6.05544 6.28240 6.16996
#
# Compressibility (1/GPa) = 0.01670811
#
# Stress axis : x y z
#
# Youngs Moduli (GPa) = 71.56864 36.10282 28.30091
#
# Poissons Ratio (x) = -0.01604 0.25538
# Poissons Ratio (y) = -0.03179 0.61043
# Poissons Ratio (z) = 0.64581 0.77871
#
# Static dielectric constant tensor:
#      x y z
#    x 3.926200 0.000000 0.000000 
#    y 0.000000 4.128090 0.000000 
#    z 0.000000 0.000000 4.064430 
# 
# 
# High freq. dielectric constant tensor:
#      x y z
#    x 1.893530 0.000000 0.000000 
#    y 0.000000 1.884840 0.000000 
#    z 0.000000 0.000000 1.876810 
# 
# From -- ./inp_files/30317.got.cif
#   From: 2010.03.12/outbox.cif.g09.slc.cpg/sg20_16_cif.got.tgz:30317.got - 2010.04.14 01:38:04.
