data_PCOD8158670
_publ_section_title
;
Structure prediction by ZEFSAII (Michael W. Deem and Ramdas Pophale) SiO2 
 PCOD8158670
Probable space group: C 2 2 21
;
_chemical_formula_sum "Si O2"
_cell_formula_units_Z 44
_cell_length_a 19.887568
_cell_length_b 21.725562
_cell_length_c 5.088669
_cell_angle_alpha 90.000000
_cell_angle_beta 90.000000
_cell_angle_gamma 90.000000
_cell_volume 2198.654048
_symmetry_space_group_name_H-M "C 2 2 21"
_symmetry_group_IT_number 20
_symmetry_cell_setting 'orthorhombic'
loop_
_space_group_symop_operation_xyz
x,y,z
-x,-y,1/2+z
x,-y,-z
-x,y,1/2-z
1/2+x,1/2+y,z
1/2-x,1/2-y,1/2+z
1/2+x,1/2-y,-z
1/2-x,1/2+y,1/2-z
loop_
_atom_site_type_symbol
_atom_site_label
_atom_site_fract_x
_atom_site_fract_y
_atom_site_fract_z
Si Si1 0.685539 0.806214 0.528154
Si Si2 0.266286 0.931381 0.030651
Si Si3 0.177811 0.068716 0.470449
Si Si4 0.077868 0.873779 0.185091
Si Si5 0.454280 0.500000 0.500000
Si Si6 0.838722 0.766199 0.526605
O O1 0.675192 0.880102 0.503405
O O2 0.765660 0.796606 0.510978
O O3 0.653938 0.784686 0.800242
O O4 0.648199 0.768255 0.300309
O O5 0.238234 0.923334 0.323199
O O6 0.207035 0.919114 0.818065
O O7 0.296916 0.000000 0.000000
O O8 0.120172 0.119054 0.541908
O O9 0.146346 0.000000 0.500000
O O10 0.104238 0.817702 0.010519
O O11 0.000000 0.863477 0.250000
O O12 0.090466 0.937966 0.024105
O O13 0.500000 0.491225 0.750000
#
# Coordination Sequence:
#
# PCOD8158670 Si02
#       6
#     8   8   8   8   4   8
#     4  10  20  37  56  76 105 139 187 226 275 343
#     4  10  20  36  57  84 109 138 179 235 286 334
#     4  10  22  33  52  78 109 143 186 230 276 318
#     4  11  25  39  56  79 114 153 202 239 276 319
#     4  10  26  42  54  76 110 158 202 242 272 308
#     4  10  22  35  55  76 103 148 188 225 273 327
#
# _framework density 20.012243999999999
#
# number of rings (size 3 to 8) (size 9 to 14) (size 15 to 20)
#    0.000    1.818    1.818    1.091   14.000    2.909 
#    0.000    0.000    0.000    0.000    0.000    0.000 
#    0.000    2.909    0.000    0.000    0.000    0.000 
#
# Total GULP energy -272797.435844 kJ/mol
# GULP energy per Si atom -12399.883447 kJ/mol
# Density = 1.996670 g / cm^3
# Si number density = 20.012244 Si / 1000 Ang^3
#
#
#
# Elastic Constant Matrix: (Units=GPa)
#
#
# Indices 1 2 3 4 5 6 
#
# 1 34.9275 29.6297 -2.7640 0.0000 0.0000 0.0000
# 2 29.6297 125.2997 9.2334 0.0000 0.0000 0.0000
# 3 -2.7640 9.2334 65.1221 0.0000 0.0000 0.0000
# 4 0.0000 0.0000 0.0000 33.6043 0.0000 0.0000
# 5 0.0000 0.0000 0.0000 0.0000 5.2708 0.0000
# 6 0.0000 0.0000 0.0000 0.0000 0.0000 25.2437
#
#
#
# Elastic Compliance Matrix: (Units=1/GPa)
#
#
# Indices 1 2 3 4 5 6 
#
# 1 0.036309 -0.008792 0.002788 0.000000 0.000000 0.000000
# 2 -0.008792 0.010194 -0.001818 0.000000 0.000000 0.000000
# 3 0.002788 -0.001818 0.015732 0.000000 0.000000 0.000000
# 4 0.000000 0.000000 0.000000 0.029758 0.000000 0.000000
# 5 0.000000 0.000000 0.000000 0.000000 0.189724 0.000000
# 6 0.000000 0.000000 0.000000 0.000000 0.000000 0.039614
#
#
# Mechanical properties :
#
#
# Convention : Reuss Voigt Hill
#
# Bulk Modulus (GPa) = 21.46370 33.06084 27.26227
# Shear Modulus (GPa) = 14.18417 25.44044 19.81231
#
# Velocity S-wave (km/s) = 2.66517 3.56932 3.14985
# Velocity P-wave (km/s) = 4.49660 5.79162 5.18470
#
# Compressibility (1/GPa) = 0.04659028
#
# Stress axis : x y z
#
# Youngs Moduli (GPa) = 27.54108 98.09875 63.56507
#
# Poissons Ratio (x) = 0.86244 -0.17719
# Poissons Ratio (y) = 0.24213 0.11559
# Poissons Ratio (z) = -0.07677 0.17839
#
# Static dielectric constant tensor:
#      x y z
#    x 3.011340 0.000000 0.000000 
#    y 0.000000 3.997270 0.000000 
#    z 0.000000 0.000000 3.923310 
# 
# 
# High freq. dielectric constant tensor:
#      x y z
#    x 1.699140 0.000000 0.000000 
#    y 0.000000 1.787460 0.000000 
#    z 0.000000 0.000000 1.807540 
# 
# From -- ./inp_files/3149.got.cif
#   From: 2010.03.12/outbox.cif.g09.slc.cpg/sg20_2_cif.got.tgz:3149.got - 2010.04.14 01:38:04.
