data_PCOD8158329
_publ_section_title
;
Structure prediction by ZEFSAII (Michael W. Deem and Ramdas Pophale) SiO2 
 PCOD8158329
Probable space group: C 2 2 21
;
_chemical_formula_sum "Si O2"
_cell_formula_units_Z 64
_cell_length_a 11.411803
_cell_length_b 16.538074
_cell_length_c 16.913672
_cell_angle_alpha 90.000000
_cell_angle_beta 90.000000
_cell_angle_gamma 90.000000
_cell_volume 3192.104504
_symmetry_space_group_name_H-M "C 2 2 21"
_symmetry_group_IT_number 20
_symmetry_cell_setting 'orthorhombic'
loop_
_space_group_symop_operation_xyz
x,y,z
-x,-y,1/2+z
x,-y,-z
-x,y,1/2-z
1/2+x,1/2+y,z
1/2-x,1/2-y,1/2+z
1/2+x,1/2-y,-z
1/2-x,1/2+y,1/2-z
loop_
_atom_site_type_symbol
_atom_site_label
_atom_site_fract_x
_atom_site_fract_y
_atom_site_fract_z
Si Si1 0.963128 0.363859 0.659678
Si Si2 0.212113 0.242242 0.803162
Si Si3 0.443373 0.368992 0.394489
Si Si4 0.858234 0.189157 0.438747
Si Si5 0.350766 0.266350 0.126254
Si Si6 0.715368 0.486133 0.910000
Si Si7 0.531746 0.207128 0.658968
Si Si8 0.459126 0.970633 0.159973
O O1 0.831797 0.328143 0.660491
O O2 0.000000 0.372745 0.750000
O O3 0.050543 0.302607 0.615551
O O4 0.971668 0.453394 0.619721
O O5 0.115111 0.173787 0.819348
O O6 0.221037 0.241624 0.708276
O O7 0.330374 0.221939 0.847997
O O8 0.394666 0.325894 0.472369
O O9 0.584378 0.353504 0.386993
O O10 0.404767 0.462794 0.394537
O O11 0.749098 0.251995 0.439517
O O12 0.817725 0.106884 0.394639
O O13 0.967858 0.226156 0.392677
O O14 0.819205 0.513245 0.850442
O O15 0.759121 0.500000 0.000000
O O16 0.500000 0.216326 0.750000
O O17 0.506688 0.116825 0.623736
O O18 0.500000 0.965036 0.250000
#
# Coordination Sequence:
#
# PCOD8158329 Si02
#       8
#     8   8   8   8   8   8   8   8
#     4   8  16  31  56  82 104 145 188 230 273 330
#     4  10  19  37  59  83 117 150 195 238 290 348
#     4  10  22  37  61  85 112 156 200 238 289 349
#     4  11  23  37  60  87 118 153 194 246 296 351
#     4  10  19  36  61  85 112 150 198 239 283 351
#     4  10  21  39  58  83 118 160 197 237 291 356
#     4  11  22  36  56  87 122 151 187 247 304 341
#     4  10  19  34  58  85 115 150 194 243 282 338
#
# _framework density 20.049469999999999
#
# number of rings (size 3 to 8) (size 9 to 14) (size 15 to 20)
#    0.000    2.000    3.750    1.125    1.750    0.000 
#    0.000    2.500    2.750    0.000    0.000    0.000 
#    0.000    0.000    0.000    0.000    0.000    0.000 
#
# Total GULP energy -396528.337095 kJ/mol
# GULP energy per Si atom -12391.510534 kJ/mol
# Density = 2.000384 g / cm^3
# Si number density = 20.049470 Si / 1000 Ang^3
#
#
#
# Elastic Constant Matrix: (Units=GPa)
#
#
# Indices 1 2 3 4 5 6 
#
# 1 87.1607 30.2616 14.5336 0.0000 0.0000 0.0000
# 2 30.2616 98.3516 13.8396 0.0000 0.0000 0.0000
# 3 14.5336 13.8396 33.1704 0.0000 0.0000 0.0000
# 4 0.0000 0.0000 0.0000 20.5745 0.0000 0.0000
# 5 0.0000 0.0000 0.0000 0.0000 23.1011 0.0000
# 6 0.0000 0.0000 0.0000 0.0000 0.0000 32.3223
#
#
#
# Elastic Compliance Matrix: (Units=1/GPa)
#
#
# Indices 1 2 3 4 5 6 
#
# 1 0.013429 -0.003510 -0.004419 0.000000 0.000000 0.000000
# 2 -0.003510 0.011719 -0.003352 0.000000 0.000000 0.000000
# 3 -0.004419 -0.003352 0.033482 0.000000 0.000000 0.000000
# 4 0.000000 0.000000 0.000000 0.048604 0.000000 0.000000
# 5 0.000000 0.000000 0.000000 0.000000 0.043288 0.000000
# 6 0.000000 0.000000 0.000000 0.000000 0.000000 0.030938
#
#
# Mechanical properties :
#
#
# Convention : Reuss Voigt Hill
#
# Bulk Modulus (GPa) = 27.72539 37.32803 32.52671
# Shear Modulus (GPa) = 23.14339 25.86945 24.50642
#
# Velocity S-wave (km/s) = 3.40121 3.59595 3.49993
# Velocity P-wave (km/s) = 5.41136 5.99162 5.70886
#
# Compressibility (1/GPa) = 0.03606802
#
# Stress axis : x y z
#
# Youngs Moduli (GPa) = 74.46795 85.33005 29.86674
#
# Poissons Ratio (x) = 0.29950 0.13199
# Poissons Ratio (y) = 0.26138 0.10010
# Poissons Ratio (z) = 0.32910 0.28600
#
# Static dielectric constant tensor:
#      x y z
#    x 3.796870 0.000000 0.000000 
#    y 0.000000 4.226530 0.000000 
#    z 0.000000 0.000000 3.428560 
# 
# 
# High freq. dielectric constant tensor:
#      x y z
#    x 1.773070 0.000000 0.000000 
#    y 0.000000 1.782560 0.000000 
#    z 0.000000 0.000000 1.759380 
# 
# From -- ./inp_files/24521.got.cif
#   From: 2010.03.12/outbox.cif.g09.slc.cpg/sg20_13_cif.got.tgz:24521.got - 2010.04.14 01:38:04.
