data_PCOD8158892
_publ_section_title
;
Structure prediction by ZEFSAII (Michael W. Deem and Ramdas Pophale) SiO2 
 PCOD8158892
Probable space group: C 2 2 21
;
_chemical_formula_sum "Si O2"
_cell_formula_units_Z 64
_cell_length_a 10.528943
_cell_length_b 22.748504
_cell_length_c 13.009879
_cell_angle_alpha 90.000000
_cell_angle_beta 90.000000
_cell_angle_gamma 90.000000
_cell_volume 3116.096321
_symmetry_space_group_name_H-M "C 2 2 21"
_symmetry_group_IT_number 20
_symmetry_cell_setting 'orthorhombic'
loop_
_space_group_symop_operation_xyz
x,y,z
-x,-y,1/2+z
x,-y,-z
-x,y,1/2-z
1/2+x,1/2+y,z
1/2-x,1/2-y,1/2+z
1/2+x,1/2-y,-z
1/2-x,1/2+y,1/2-z
loop_
_atom_site_type_symbol
_atom_site_label
_atom_site_fract_x
_atom_site_fract_y
_atom_site_fract_z
Si Si1 0.561641 0.000517 0.856173
Si Si2 0.392558 0.541864 0.404806
Si Si3 0.169436 0.045442 0.329301
Si Si4 0.759466 0.843850 0.521053
Si Si5 0.254513 0.661703 0.063149
Si Si6 0.144463 0.228392 0.846353
Si Si7 0.493057 0.098785 0.508189
Si Si8 0.859470 0.768302 0.116412
O O1 0.500000 0.983114 0.750000
O O2 0.713170 0.992759 0.869564
O O3 0.532316 0.068345 0.881607
O O4 0.492436 0.954378 0.929138
O O5 0.344344 0.500000 0.500000
O O6 0.542043 0.528927 0.390729
O O7 0.332937 0.530493 0.292268
O O8 0.352790 0.609126 0.426146
O O9 0.189366 0.113815 0.358457
O O10 0.829334 0.827892 0.415966
O O11 0.624082 0.867897 0.488521
O O12 0.735116 0.786290 0.591881
O O13 0.242795 0.719532 0.132047
O O14 0.119025 0.643128 0.018309
O O15 0.344204 0.678610 0.965933
O O16 0.169362 0.207103 0.730157
O O17 0.004945 0.253062 0.875672
#
# Coordination Sequence:
#
# PCOD8158892 Si02
#       8
#     8   8   8   8   8   8   8   8
#     4  10  22  38  63  90 124 157 209 254 306 363
#     4  11  25  41  64  90 127 165 207 254 307 366
#     4  10  23  43  62  92 119 170 205 252 310 373
#     4  11  22  39  63  90 126 159 205 261 310 369
#     4  10  20  39  64  86 122 161 202 255 308 371
#     4  10  21  38  60  92 117 161 201 258 311 373
#     4  10  22  37  61  91 117 164 200 252 310 361
#     4  10  21  39  62  89 122 158 210 254 312 376
#
# _framework density 20.538518
#
# number of rings (size 3 to 8) (size 9 to 14) (size 15 to 20)
#    0.000    1.750    1.250    2.250    7.000    2.000 
#    0.000    1.250    0.000    0.000    0.000    0.000 
#    0.000    0.000    0.000    0.000    0.000    0.000 
#
# Total GULP energy -396548.552200 kJ/mol
# GULP energy per Si atom -12392.142256 kJ/mol
# Density = 2.049177 g / cm^3
# Si number density = 20.538518 Si / 1000 Ang^3
#
#
#
# Elastic Constant Matrix: (Units=GPa)
#
#
# Indices 1 2 3 4 5 6 
#
# 1 61.7470 11.3145 31.5233 0.0000 0.0000 0.0000
# 2 11.3145 53.7456 30.9331 0.0000 0.0000 0.0000
# 3 31.5233 30.9331 124.5486 0.0000 0.0000 0.0000
# 4 0.0000 0.0000 0.0000 30.0199 0.0000 0.0000
# 5 0.0000 0.0000 0.0000 0.0000 28.4558 0.0000
# 6 0.0000 0.0000 0.0000 0.0000 0.0000 4.5856
#
#
#
# Elastic Compliance Matrix: (Units=1/GPa)
#
#
# Indices 1 2 3 4 5 6 
#
# 1 0.018690 -0.001414 -0.004379 0.000000 0.000000 0.000000
# 2 -0.001414 0.021816 -0.005060 0.000000 0.000000 0.000000
# 3 -0.004379 -0.005060 0.010394 0.000000 0.000000 0.000000
# 4 0.000000 0.000000 0.000000 0.033311 0.000000 0.000000
# 5 0.000000 0.000000 0.000000 0.000000 0.035142 0.000000
# 6 0.000000 0.000000 0.000000 0.000000 0.000000 0.218073
#
#
# Mechanical properties :
#
#
# Convention : Reuss Voigt Hill
#
# Bulk Modulus (GPa) = 34.25490 43.06480 38.65985
# Shear Modulus (GPa) = 13.55507 23.69695 18.62601
#
# Velocity S-wave (km/s) = 2.57180 3.40042 3.01471
# Velocity P-wave (km/s) = 5.05306 6.03577 5.56614
#
# Compressibility (1/GPa) = 0.02919290
#
# Stress axis : x y z
#
# Youngs Moduli (GPa) = 53.50476 45.83709 96.20755
#
# Poissons Ratio (x) = 0.06482 0.42131
# Poissons Ratio (y) = 0.07566 0.48685
# Poissons Ratio (z) = 0.23431 0.23196
#
# Static dielectric constant tensor:
#      x y z
#    x 3.739600 0.000000 0.000000 
#    y 0.000000 3.678760 0.000000 
#    z 0.000000 0.000000 3.946030 
# 
# 
# High freq. dielectric constant tensor:
#      x y z
#    x 1.806840 0.000000 0.000000 
#    y 0.000000 1.792160 0.000000 
#    z 0.000000 0.000000 1.810990 
# 
# From -- ./inp_files/14498.got.cif
#   From: 2010.03.12/outbox.cif.g09.slc.cpg/sg20_8_cif.got.tgz:14498.got - 2010.04.14 01:38:04.
