data_PCOD8158742
_publ_section_title
;
Structure prediction by ZEFSAII (Michael W. Deem and Ramdas Pophale) SiO2 
 PCOD8158742
Probable space group: C 2 2 21
;
_chemical_formula_sum "Si O2"
_cell_formula_units_Z 40
_cell_length_a 13.876757
_cell_length_b 9.559352
_cell_length_c 14.757927
_cell_angle_alpha 90.000000
_cell_angle_beta 90.000000
_cell_angle_gamma 90.000000
_cell_volume 1957.680409
_symmetry_space_group_name_H-M "C 2 2 21"
_symmetry_group_IT_number 20
_symmetry_cell_setting 'orthorhombic'
loop_
_space_group_symop_operation_xyz
x,y,z
-x,-y,1/2+z
x,-y,-z
-x,y,1/2-z
1/2+x,1/2+y,z
1/2-x,1/2-y,1/2+z
1/2+x,1/2-y,-z
1/2-x,1/2+y,1/2-z
loop_
_atom_site_type_symbol
_atom_site_label
_atom_site_fract_x
_atom_site_fract_y
_atom_site_fract_z
Si Si1 0.091153 0.015376 0.806836
Si Si2 0.544758 0.966095 0.348032
Si Si3 0.394863 0.237113 0.596342
Si Si4 0.594597 0.189069 0.105633
Si Si5 0.793568 0.524693 0.723852
O O1 0.067574 0.162669 0.852368
O O2 0.180011 0.024078 0.737417
O O3 0.000000 0.964154 0.750000
O O4 0.109438 0.901733 0.885108
O O5 0.500000 0.989601 0.250000
O O6 0.504491 0.821767 0.390541
O O7 0.659244 0.966626 0.326640
O O8 0.504462 0.098331 0.405421
O O9 0.360245 0.208905 0.494000
O O10 0.322405 0.160544 0.665490
O O11 0.673724 0.113290 0.168791
#
# Coordination Sequence:
#
# PCOD8158742 Si02
#       5
#     8   8   8   8   8
#     4  12  23  37  54  81 116 149 179 219 274 331
#     4   8  16  35  59  78 100 140 185 218 260 323
#     4  10  20  37  58  84 110 138 180 233 275 316
#     4  10  20  37  58  84 110 138 180 233 275 316
#     4  10  20  38  60  79 105 151 190 217 261 332
#
# _framework density 20.432342999999999
#
# number of rings (size 3 to 8) (size 9 to 14) (size 15 to 20)
#    0.000    2.400    0.000    7.800    0.000    0.000 
#    0.000   12.000    0.000    0.000    0.000    0.000 
#    0.000    0.000    0.000    0.000    0.000    0.000 
#
# Total GULP energy -247881.801011 kJ/mol
# GULP energy per Si atom -12394.090051 kJ/mol
# Density = 2.038584 g / cm^3
# Si number density = 20.432343 Si / 1000 Ang^3
#
#
#
# Elastic Constant Matrix: (Units=GPa)
#
#
# Indices 1 2 3 4 5 6 
#
# 1 106.4942 7.3193 29.6649 0.0000 0.0000 0.0000
# 2 7.3193 118.2663 14.9985 0.0000 0.0000 0.0000
# 3 29.6649 14.9985 71.2001 0.0000 0.0000 0.0000
# 4 0.0000 0.0000 0.0000 28.1409 0.0000 0.0000
# 5 0.0000 0.0000 0.0000 0.0000 14.5564 0.0000
# 6 0.0000 0.0000 0.0000 0.0000 0.0000 12.0558
#
#
#
# Elastic Compliance Matrix: (Units=1/GPa)
#
#
# Indices 1 2 3 4 5 6 
#
# 1 0.010624 -0.000099 -0.004406 0.000000 0.000000 0.000000
# 2 -0.000099 0.008689 -0.001789 0.000000 0.000000 0.000000
# 3 -0.004406 -0.001789 0.016257 0.000000 0.000000 0.000000
# 4 0.000000 0.000000 0.000000 0.035535 0.000000 0.000000
# 5 0.000000 0.000000 0.000000 0.000000 0.068698 0.000000
# 6 0.000000 0.000000 0.000000 0.000000 0.000000 0.082947
#
#
# Mechanical properties :
#
#
# Convention : Reuss Voigt Hill
#
# Bulk Modulus (GPa) = 43.51046 44.43622 43.97334
# Shear Modulus (GPa) = 20.57620 27.21582 23.89601
#
# Velocity S-wave (km/s) = 3.17683 3.65361 3.42353
# Velocity P-wave (km/s) = 5.89894 6.29235 6.09882
#
# Compressibility (1/GPa) = 0.02298298
#
# Stress axis : x y z
#
# Youngs Moduli (GPa) = 94.12455 115.09465 61.51045
#
# Poissons Ratio (x) = 0.01137 0.27100
# Poissons Ratio (y) = 0.00930 0.11005
# Poissons Ratio (z) = 0.41468 0.20592
#
# Static dielectric constant tensor:
#      x y z
#    x 4.139210 0.000000 0.000000 
#    y 0.000000 3.742830 0.000000 
#    z 0.000000 0.000000 3.942750 
# 
# 
# High freq. dielectric constant tensor:
#      x y z
#    x 1.768540 0.000000 0.000000 
#    y 0.000000 1.809100 0.000000 
#    z 0.000000 0.000000 1.791470 
# 
# From -- ./inp_files/18543.got.cif
#   From: 2010.03.12/outbox.cif.g09.slc.cpg/sg20_10_cif.got.tgz:18543.got - 2010.04.14 01:38:04.
