data_PCOD8158960
_publ_section_title
;
Structure prediction by ZEFSAII (Michael W. Deem and Ramdas Pophale) SiO2 
 PCOD8158960
Probable space group: C 2 2 21
;
_chemical_formula_sum "Si O2"
_cell_formula_units_Z 44
_cell_length_a 19.589398
_cell_length_b 11.185186
_cell_length_c 8.721970
_cell_angle_alpha 90.000000
_cell_angle_beta 90.000000
_cell_angle_gamma 90.000000
_cell_volume 1911.080094
_symmetry_space_group_name_H-M "C 2 2 21"
_symmetry_group_IT_number 20
_symmetry_cell_setting 'orthorhombic'
loop_
_space_group_symop_operation_xyz
x,y,z
-x,-y,1/2+z
x,-y,-z
-x,y,1/2-z
1/2+x,1/2+y,z
1/2-x,1/2-y,1/2+z
1/2+x,1/2-y,-z
1/2-x,1/2+y,1/2-z
loop_
_atom_site_type_symbol
_atom_site_label
_atom_site_fract_x
_atom_site_fract_y
_atom_site_fract_z
Si Si1 0.688301 0.593373 0.301436
Si Si2 0.376642 0.164548 0.737023
Si Si3 0.049174 0.805898 0.001124
Si Si4 0.422265 0.000000 0.000000
Si Si5 0.431313 0.500000 0.000000
Si Si6 0.836862 0.000000 0.500000
Si Si7 0.000000 0.352106 0.750000
Si Si8 0.301465 0.000000 0.500000
O O1 0.677764 0.731875 0.266898
O O2 0.618416 0.525824 0.356361
O O3 0.710346 0.518689 0.149350
O O4 0.751255 0.593435 0.417130
O O5 0.444413 0.223683 0.654156
O O6 0.383998 0.103773 0.904542
O O7 0.348815 0.067253 0.619209
O O8 0.978846 0.882062 0.009717
O O9 0.053466 0.727615 0.155289
O O10 0.116060 0.884427 0.010204
O O11 0.464767 0.935251 0.871616
#
# Coordination Sequence:
#
# PCOD8158960 Si02
#       8
#     8   8   8   4   4   4   4   4
#     4  10  23  42  67  96 129 171 222 279 330 383
#     4  11  25  44  64  92 131 175 222 274 331 391
#     4  10  21  38  65  96 133 165 203 266 334 401
#     4  12  26  40  60  88 128 174 222 266 322 396
#     4  10  20  40  68 102 132 165 212 265 330 398
#     4   9  20  36  60  98 126 156 208 269 338 393
#     4  12  22  36  58  88 126 170 208 252 320 398
#     4  11  26  46  66  92 130 177 232 274 320 397
#
# _framework density 23.023627999999999
#
# number of rings (size 3 to 8) (size 9 to 14) (size 15 to 20)
#    0.000    1.455    0.000    4.364    0.000   15.273 
#    0.000    0.000    0.000    0.000    0.000    0.000 
#    0.000    0.000    0.000    0.000    0.000    0.000 
#
# Total GULP energy -272586.848139 kJ/mol
# GULP energy per Si atom -12390.311279 kJ/mol
# Density = 2.297123 g / cm^3
# Si number density = 23.023628 Si / 1000 Ang^3
#
#
#
# Elastic Constant Matrix: (Units=GPa)
#
#
# Indices 1 2 3 4 5 6 
#
# 1 48.1967 23.7848 18.9568 0.0000 0.0000 0.0000
# 2 23.7848 119.8806 61.7935 0.0000 0.0000 0.0000
# 3 18.9568 61.7935 144.7899 0.0000 0.0000 0.0000
# 4 0.0000 0.0000 0.0000 57.2655 0.0000 0.0000
# 5 0.0000 0.0000 0.0000 0.0000 23.0051 0.0000
# 6 0.0000 0.0000 0.0000 0.0000 0.0000 32.4847
#
#
#
# Elastic Compliance Matrix: (Units=1/GPa)
#
#
# Indices 1 2 3 4 5 6 
#
# 1 0.023212 -0.003896 -0.001376 0.000000 0.000000 0.000000
# 2 -0.003896 0.011348 -0.004333 0.000000 0.000000 0.000000
# 3 -0.001376 -0.004333 0.008936 0.000000 0.000000 0.000000
# 4 0.000000 0.000000 0.000000 0.017463 0.000000 0.000000
# 5 0.000000 0.000000 0.000000 0.000000 0.043469 0.000000
# 6 0.000000 0.000000 0.000000 0.000000 0.000000 0.030784
#
#
# Mechanical properties :
#
#
# Convention : Reuss Voigt Hill
#
# Bulk Modulus (GPa) = 41.17661 57.99306 49.58483
# Shear Modulus (GPa) = 30.76595 36.43987 33.60291
#
# Velocity S-wave (km/s) = 3.65948 3.98265 3.82448
# Velocity P-wave (km/s) = 5.98156 6.81116 6.40979
#
# Compressibility (1/GPa) = 0.02428563
#
# Stress axis : x y z
#
# Youngs Moduli (GPa) = 43.08066 88.12023 111.90641
#
# Poissons Ratio (x) = 0.34331 0.15403
# Poissons Ratio (y) = 0.16784 0.48490
# Poissons Ratio (z) = 0.05930 0.38183
#
# Static dielectric constant tensor:
#      x y z
#    x 3.868680 0.000000 0.000000 
#    y 0.000000 4.814020 0.000000 
#    z 0.000000 0.000000 2.260560 
# 
# 
# High freq. dielectric constant tensor:
#      x y z
#    x 1.878280 0.000000 0.000000 
#    y 0.000000 1.927030 0.000000 
#    z 0.000000 0.000000 1.932200 
# 
# From -- ./inp_files/10631.got.cif
#   From: 2010.03.12/outbox.cif.g09.slc.cpg/sg20_6_cif.got.tgz:10631.got - 2010.04.14 01:38:04.
