data_PCOD8158087
_publ_section_title
;
Structure prediction by ZEFSAII (Michael W. Deem and Ramdas Pophale) SiO2 
 PCOD8158087
Probable space group: C 2 2 21
;
_chemical_formula_sum "Si O2"
_cell_formula_units_Z 60
_cell_length_a 28.503072
_cell_length_b 7.602013
_cell_length_c 12.597280
_cell_angle_alpha 90.000000
_cell_angle_beta 90.000000
_cell_angle_gamma 90.000000
_cell_volume 2729.587749
_symmetry_space_group_name_H-M "C 2 2 21"
_symmetry_group_IT_number 20
_symmetry_cell_setting 'orthorhombic'
loop_
_space_group_symop_operation_xyz
x,y,z
-x,-y,1/2+z
x,-y,-z
-x,y,1/2-z
1/2+x,1/2+y,z
1/2-x,1/2-y,1/2+z
1/2+x,1/2-y,-z
1/2-x,1/2+y,1/2-z
loop_
_atom_site_type_symbol
_atom_site_label
_atom_site_fract_x
_atom_site_fract_y
_atom_site_fract_z
Si Si1 0.691297 0.888132 0.737758
Si Si2 0.988468 0.753625 0.889273
Si Si3 0.091396 0.296297 0.523533
Si Si4 0.925198 0.134235 0.292051
Si Si5 0.725314 0.528880 0.627580
Si Si6 0.654465 0.238355 0.664769
Si Si7 0.404108 0.744754 0.735363
Si Si8 0.000000 0.434975 0.750000
O O1 0.713256 0.728221 0.667032
O O2 0.643483 0.839760 0.803141
O O3 0.724480 0.966950 0.828636
O O4 0.679737 0.048854 0.656596
O O5 0.044075 0.799225 0.893719
O O6 0.961271 0.880692 0.806914
O O7 0.981744 0.553346 0.847416
O O8 0.962741 0.767324 0.002547
O O9 0.096427 0.500000 0.500000
O O10 0.127635 0.206071 0.442830
O O11 0.105011 0.232711 0.638700
O O12 0.883206 0.268407 0.262465
O O13 0.903826 0.945454 0.318257
O O14 0.724818 0.500000 0.500000
O O15 0.689700 0.397429 0.685887
O O16 0.454596 0.828916 0.709428
#
# Coordination Sequence:
#
# PCOD8158087 Si02
#       8
#     8   8   8   8   8   8   8   4
#     4  12  24  46  69 103 137 181 229 291 360 420
#     4   9  18  34  50  82 130 163 199 258 331 379
#     4  11  20  34  61 101 123 163 221 287 339 391
#     4   9  19  34  55  88 123 173 206 260 327 398
#     4  12  27  44  71 105 139 179 236 290 365 425
#     4  11  22  40  66  98 136 170 220 287 348 417
#     4  12  21  35  65  94 128 167 228 270 335 408
#     4  10  18  32  56  86 118 170 202 254 318 398
#
# _framework density 21.981339999999999
#
# number of rings (size 3 to 8) (size 9 to 14) (size 15 to 20)
#    0.000    1.333    5.333    3.200    0.000    1.600 
#    0.000    0.000    5.867    0.000    3.467    0.000 
#    0.000    0.000    0.000    0.000    0.000    0.000 
#
# Total GULP energy -371676.644533 kJ/mol
# GULP energy per Si atom -12389.221484 kJ/mol
# Density = 2.193131 g / cm^3
# Si number density = 21.981340 Si / 1000 Ang^3
#
#
#
# Elastic Constant Matrix: (Units=GPa)
#
#
# Indices 1 2 3 4 5 6 
#
# 1 153.3566 44.0104 30.0424 0.0000 0.0000 0.0000
# 2 44.0104 118.6872 14.5673 0.0000 0.0000 0.0000
# 3 30.0424 14.5673 30.3819 0.0000 0.0000 0.0000
# 4 0.0000 0.0000 0.0000 16.5422 0.0000 0.0000
# 5 0.0000 0.0000 0.0000 0.0000 25.1143 0.0000
# 6 0.0000 0.0000 0.0000 0.0000 0.0000 43.9162
#
#
#
# Elastic Compliance Matrix: (Units=1/GPa)
#
#
# Indices 1 2 3 4 5 6 
#
# 1 0.008635 -0.002289 -0.007441 0.000000 0.000000 0.000000
# 2 -0.002289 0.009559 -0.002320 0.000000 0.000000 0.000000
# 3 -0.007441 -0.002320 0.041385 0.000000 0.000000 0.000000
# 4 0.000000 0.000000 0.000000 0.060452 0.000000 0.000000
# 5 0.000000 0.000000 0.000000 0.000000 0.039818 0.000000
# 6 0.000000 0.000000 0.000000 0.000000 0.000000 0.022771
#
#
# Mechanical properties :
#
#
# Convention : Reuss Voigt Hill
#
# Bulk Modulus (GPa) = 28.18588 53.29621 40.74104
# Shear Modulus (GPa) = 22.87845 31.36825 27.12335
#
# Velocity S-wave (km/s) = 3.22966 3.78172 3.51654
# Velocity P-wave (km/s) = 5.17282 6.58538 5.92137
#
# Compressibility (1/GPa) = 0.03547875
#
# Stress axis : x y z
#
# Youngs Moduli (GPa) = 115.80307 104.61394 24.16330
#
# Poissons Ratio (x) = 0.23943 0.17981
# Poissons Ratio (y) = 0.26504 0.05606
# Poissons Ratio (z) = 0.86175 0.24272
#
# Static dielectric constant tensor:
#      x y z
#    x 4.500300 0.000000 0.000000 
#    y 0.000000 3.996640 0.000000 
#    z 0.000000 0.000000 3.667000 
# 
# 
# High freq. dielectric constant tensor:
#      x y z
#    x 1.881920 0.000000 0.000000 
#    y 0.000000 1.874470 0.000000 
#    z 0.000000 0.000000 1.805720 
# 
# From -- ./inp_files/22219.got.cif
#   From: 2010.03.12/outbox.cif.g09.slc.cpg/sg20_12_cif.got.tgz:22219.got - 2010.04.14 01:38:04.
