data_PCOD8158474
_publ_section_title
;
Structure prediction by ZEFSAII (Michael W. Deem and Ramdas Pophale) SiO2 
 PCOD8158474
Probable space group: C 2 2 21
;
_chemical_formula_sum "Si O2"
_cell_formula_units_Z 48
_cell_length_a 16.573404
_cell_length_b 25.755269
_cell_length_c 5.156373
_cell_angle_alpha 90.000000
_cell_angle_beta 90.000000
_cell_angle_gamma 90.000000
_cell_volume 2201.010594
_symmetry_space_group_name_H-M "C 2 2 21"
_symmetry_group_IT_number 20
_symmetry_cell_setting 'orthorhombic'
loop_
_space_group_symop_operation_xyz
x,y,z
-x,-y,1/2+z
x,-y,-z
-x,y,1/2-z
1/2+x,1/2+y,z
1/2-x,1/2-y,1/2+z
1/2+x,1/2-y,-z
1/2-x,1/2+y,1/2-z
loop_
_atom_site_type_symbol
_atom_site_label
_atom_site_fract_x
_atom_site_fract_y
_atom_site_fract_z
Si Si1 0.550808 0.254054 0.016434
Si Si2 0.084432 0.635603 0.146326
Si Si3 0.317917 0.882034 0.153952
Si Si4 0.835475 0.939990 0.258538
Si Si5 0.094032 0.945837 0.745360
Si Si6 0.225164 0.221442 0.916517
O O1 0.500000 0.253366 0.750000
O O2 0.500000 0.279815 0.250000
O O3 0.576069 0.196817 0.107904
O O4 0.633140 0.286613 0.984836
O O5 0.149850 0.618862 0.361021
O O6 0.000000 0.611965 0.250000
O O7 0.110236 0.613548 0.864966
O O8 0.260054 0.931217 0.209111
O O9 0.264155 0.830818 0.196915
O O10 0.881691 0.913211 0.501117
O O11 0.855001 0.000976 0.250219
O O12 0.875200 0.913536 0.003469
O O13 0.000000 0.958938 0.750000
O O14 0.224890 0.260122 0.668897
#
# Coordination Sequence:
#
# PCOD8158474 Si02
#       6
#     8   8   8   8   8   8
#     4  11  21  36  56  77 105 149 200 238 284 353
#     4  11  22  37  59  82 107 147 195 251 287 337
#     4  12  22  38  57  90 115 145 195 250 299 346
#     4  10  20  33  58  89 118 148 191 240 283 339
#     4  10  19  38  62  90 117 162 198 227 278 356
#     4  12  22  38  56  80 114 157 191 242 307 349
#
# _framework density 21.808164000000001
#
# number of rings (size 3 to 8) (size 9 to 14) (size 15 to 20)
#    0.000    1.000    3.333    7.000    0.000    0.000 
#    0.000    3.333    0.000    0.000    0.000   46.667 
#    0.000    0.000    0.000    0.000    0.000    0.000 
#
# Total GULP energy -297411.784291 kJ/mol
# GULP energy per Si atom -12392.157679 kJ/mol
# Density = 2.175853 g / cm^3
# Si number density = 21.808164 Si / 1000 Ang^3
#
#
#
# Elastic Constant Matrix: (Units=GPa)
#
#
# Indices 1 2 3 4 5 6 
#
# 1 137.8272 28.7058 48.2136 0.0000 0.0000 0.0000
# 2 28.7058 23.3721 9.8816 0.0000 0.0000 0.0000
# 3 48.2136 9.8816 194.1141 0.0000 0.0000 0.0000
# 4 0.0000 0.0000 0.0000 8.9848 0.0000 0.0000
# 5 0.0000 0.0000 0.0000 0.0000 61.4147 0.0000
# 6 0.0000 0.0000 0.0000 0.0000 0.0000 23.1637
#
#
#
# Elastic Compliance Matrix: (Units=1/GPa)
#
#
# Indices 1 2 3 4 5 6 
#
# 1 0.010447 -0.011993 -0.001984 0.000000 0.000000 0.000000
# 2 -0.011993 0.057493 0.000052 0.000000 0.000000 0.000000
# 3 -0.001984 0.000052 0.005642 0.000000 0.000000 0.000000
# 4 0.000000 0.000000 0.000000 0.111300 0.000000 0.000000
# 5 0.000000 0.000000 0.000000 0.000000 0.016283 0.000000
# 6 0.000000 0.000000 0.000000 0.000000 0.000000 0.043171
#
#
# Mechanical properties :
#
#
# Convention : Reuss Voigt Hill
#
# Bulk Modulus (GPa) = 21.86626 58.76838 40.31732
# Shear Modulus (GPa) = 17.39554 36.61348 27.00451
#
# Velocity S-wave (km/s) = 2.82735 4.10187 3.52273
# Velocity P-wave (km/s) = 4.55049 7.03137 5.92229
#
# Compressibility (1/GPa) = 0.04573256
#
# Stress axis : x y z
#
# Youngs Moduli (GPa) = 95.71802 17.39330 177.24695
#
# Poissons Ratio (x) = 0.20859 0.35173
# Poissons Ratio (y) = 1.14790 -0.00920
# Poissons Ratio (z) = 0.18994 -0.00090
#
# Static dielectric constant tensor:
#      x y z
#    x 4.259680 0.000000 0.000000 
#    y 0.000000 3.240980 0.000000 
#    z 0.000000 0.000000 1.632950 
# 
# 
# High freq. dielectric constant tensor:
#      x y z
#    x 1.866850 0.000000 0.000000 
#    y 0.000000 1.787820 0.000000 
#    z 0.000000 0.000000 1.895840 
# 
# From -- ./inp_files/2017.got.cif
#   From: 2010.03.12/outbox.cif.g09.slc.cpg/sg20_2_cif.got.tgz:2017.got - 2010.04.14 01:38:04.
