data_PCOD8158226
_publ_section_title
;
Structure prediction by ZEFSAII (Michael W. Deem and Ramdas Pophale) SiO2 
 PCOD8158226
Probable space group: C 2 2 21
;
_chemical_formula_sum "Si O2"
_cell_formula_units_Z 24
_cell_length_a 12.013928
_cell_length_b 10.246234
_cell_length_c 8.929804
_cell_angle_alpha 90.000000
_cell_angle_beta 90.000000
_cell_angle_gamma 90.000000
_cell_volume 1099.236705
_symmetry_space_group_name_H-M "C 2 2 21"
_symmetry_group_IT_number 20
_symmetry_cell_setting 'orthorhombic'
loop_
_space_group_symop_operation_xyz
x,y,z
-x,-y,1/2+z
x,-y,-z
-x,y,1/2-z
1/2+x,1/2+y,z
1/2-x,1/2-y,1/2+z
1/2+x,1/2-y,-z
1/2-x,1/2+y,1/2-z
loop_
_atom_site_type_symbol
_atom_site_label
_atom_site_fract_x
_atom_site_fract_y
_atom_site_fract_z
Si Si1 0.555902 0.242113 0.950091
Si Si2 0.338785 0.500000 0.500000
Si Si3 0.000000 0.371388 0.750000
Si Si4 0.355192 0.103958 0.814876
O O1 0.584479 0.393591 0.916805
O O2 0.429250 0.214807 0.897229
O O3 0.643332 0.147895 0.860393
O O4 0.564045 0.215934 0.127856
O O5 0.267116 0.412925 0.382561
O O6 0.088823 0.461980 0.663491
#
# Coordination Sequence:
#
# PCOD8158226 Si02
#       4
#     8   4   4   8
#     4  10  23  39  67  92 131 168 218 267 324 385
#     4  12  24  38  68 100 126 176 220 260 338 388
#     4  10  18  42  68  86 126 176 204 276 320 370
#     4  10  21  44  61  94 128 168 217 269 318 388
#
# _framework density 21.833331000000001
#
# number of rings (size 3 to 8) (size 9 to 14) (size 15 to 20)
#    0.000    2.000    3.333    3.000    4.667    2.667 
#    0.000    0.000    0.000    0.000    0.000    0.000 
#    0.000    0.000    0.000    0.000    0.000    0.000 
#
# Total GULP energy -148736.337825 kJ/mol
# GULP energy per Si atom -12394.694819 kJ/mol
# Density = 2.178364 g / cm^3
# Si number density = 21.833331 Si / 1000 Ang^3
#
#
#
# Elastic Constant Matrix: (Units=GPa)
#
#
# Indices 1 2 3 4 5 6 
#
# 1 75.0330 64.6367 40.7615 0.0000 0.0000 0.0000
# 2 64.6367 135.3180 46.9720 0.0000 0.0000 0.0000
# 3 40.7615 46.9720 128.9945 0.0000 0.0000 0.0000
# 4 0.0000 0.0000 0.0000 25.0508 0.0000 0.0000
# 5 0.0000 0.0000 0.0000 0.0000 23.8661 0.0000
# 6 0.0000 0.0000 0.0000 0.0000 0.0000 35.1879
#
#
#
# Elastic Compliance Matrix: (Units=1/GPa)
#
#
# Indices 1 2 3 4 5 6 
#
# 1 0.024285 -0.010229 -0.003949 0.000000 0.000000 0.000000
# 2 -0.010229 0.012768 -0.001417 0.000000 0.000000 0.000000
# 3 -0.003949 -0.001417 0.009516 0.000000 0.000000 0.000000
# 4 0.000000 0.000000 0.000000 0.039919 0.000000 0.000000
# 5 0.000000 0.000000 0.000000 0.000000 0.041900 0.000000
# 6 0.000000 0.000000 0.000000 0.000000 0.000000 0.028419
#
#
# Mechanical properties :
#
#
# Convention : Reuss Voigt Hill
#
# Bulk Modulus (GPa) = 65.02580 71.56509 68.29544
# Shear Modulus (GPa) = 25.89022 29.28597 27.58810
#
# Velocity S-wave (km/s) = 3.44730 3.66641 3.55854
# Velocity P-wave (km/s) = 6.75963 7.12548 6.94496
#
# Compressibility (1/GPa) = 0.01537851
#
# Stress axis : x y z
#
# Youngs Moduli (GPa) = 41.17845 78.32107 105.08512
#
# Poissons Ratio (x) = 0.80116 0.41498
# Poissons Ratio (y) = 0.42122 0.14890
# Poissons Ratio (z) = 0.16261 0.11098
#
# Static dielectric constant tensor:
#      x y z
#    x 3.583680 0.000000 0.000000 
#    y 0.000000 3.765090 0.000000 
#    z 0.000000 0.000000 4.000960 
# 
# 
# High freq. dielectric constant tensor:
#      x y z
#    x 1.821620 0.000000 0.000000 
#    y 0.000000 1.850830 0.000000 
#    z 0.000000 0.000000 1.862960 
# 
# From -- ./inp_files/5570.got.cif
#   From: 2010.03.12/outbox.cif.g09.slc.cpg/sg20_3_cif.got.tgz:5570.got - 2010.04.14 01:38:04.
