data_PCOD8158858
_publ_section_title
;
Structure prediction by ZEFSAII (Michael W. Deem and Ramdas Pophale) SiO2 
 PCOD8158858
Probable space group: C 2 2 21
;
_chemical_formula_sum "Si O2"
_cell_formula_units_Z 52
_cell_length_a 18.867644
_cell_length_b 5.516214
_cell_length_c 24.424246
_cell_angle_alpha 90.000000
_cell_angle_beta 90.000000
_cell_angle_gamma 90.000000
_cell_volume 2542.025747
_symmetry_space_group_name_H-M "C 2 2 21"
_symmetry_group_IT_number 20
_symmetry_cell_setting 'orthorhombic'
loop_
_space_group_symop_operation_xyz
x,y,z
-x,-y,1/2+z
x,-y,-z
-x,y,1/2-z
1/2+x,1/2+y,z
1/2-x,1/2-y,1/2+z
1/2+x,1/2-y,-z
1/2-x,1/2+y,1/2-z
loop_
_atom_site_type_symbol
_atom_site_label
_atom_site_fract_x
_atom_site_fract_y
_atom_site_fract_z
Si Si1 0.526406 0.290352 0.688760
Si Si2 0.816611 0.947583 0.813548
Si Si3 0.225171 0.000000 0.000000
Si Si4 0.629402 0.119418 0.054311
Si Si5 0.958509 0.283134 0.651849
Si Si6 0.762399 0.747014 0.605985
Si Si7 0.686626 0.619160 0.809411
O O1 0.500000 0.327234 0.750000
O O2 0.610935 0.298234 0.682741
O O3 0.499897 0.528867 0.656696
O O4 0.501742 0.024938 0.668655
O O5 0.807069 0.157803 0.859819
O O6 0.804675 0.045336 0.753052
O O7 0.753424 0.770967 0.828347
O O8 0.268631 0.143543 0.047692
O O9 0.174984 0.848944 0.039032
O O10 0.560426 0.193942 0.088253
O O11 0.681831 0.956638 0.089696
O O12 0.598457 0.000000 0.000000
O O13 0.886500 0.269793 0.687533
O O14 0.812638 0.903394 0.646573
#
# Coordination Sequence:
#
# PCOD8158858 Si02
#       7
#     8   8   4   8   8   8   8
#     4  12  29  43  66  98 152 186 228 275 365 425
#     4  12  26  40  65 104 142 191 227 300 355 436
#     4  10  20  38  68 106 134 168 232 316 346 412
#     4  10  22  38  71 102 128 172 238 302 345 408
#     4  12  25  47  67 100 138 188 231 289 343 430
#     4  11  21  40  65 106 137 174 236 298 362 406
#     4  12  24  39  70  99 139 182 242 289 345 423
#
# _framework density 20.456126999999999
#
# number of rings (size 3 to 8) (size 9 to 14) (size 15 to 20)
#    0.000    0.615    6.154    1.385    6.462    0.000 
#    0.000    0.000    1.692    1.846    0.000    0.000 
#    0.000    0.000    0.000    0.000    0.000    0.000 
#
# Total GULP energy -322114.684618 kJ/mol
# GULP energy per Si atom -12389.026331 kJ/mol
# Density = 2.040957 g / cm^3
# Si number density = 20.456127 Si / 1000 Ang^3
#
#
#
# Elastic Constant Matrix: (Units=GPa)
#
#
# Indices 1 2 3 4 5 6 
#
# 1 78.1465 29.9752 9.0666 0.0000 0.0000 0.0000
# 2 29.9752 112.5388 36.4434 0.0000 0.0000 0.0000
# 3 9.0666 36.4434 134.6686 0.0000 0.0000 0.0000
# 4 0.0000 0.0000 0.0000 40.3876 0.0000 0.0000
# 5 0.0000 0.0000 0.0000 0.0000 27.0681 0.0000
# 6 0.0000 0.0000 0.0000 0.0000 0.0000 14.8310
#
#
#
# Elastic Compliance Matrix: (Units=1/GPa)
#
#
# Indices 1 2 3 4 5 6 
#
# 1 0.014253 -0.003820 0.000074 0.000000 0.000000 0.000000
# 2 -0.003820 0.010763 -0.002656 0.000000 0.000000 0.000000
# 3 0.000074 -0.002656 0.008139 0.000000 0.000000 0.000000
# 4 0.000000 0.000000 0.000000 0.024760 0.000000 0.000000
# 5 0.000000 0.000000 0.000000 0.000000 0.036944 0.000000
# 6 0.000000 0.000000 0.000000 0.000000 0.000000 0.067426
#
#
# Mechanical properties :
#
#
# Convention : Reuss Voigt Hill
#
# Bulk Modulus (GPa) = 49.13407 52.92492 51.02950
# Shear Modulus (GPa) = 27.49162 33.11527 30.30344
#
# Velocity S-wave (km/s) = 3.66994 4.02785 3.85305
# Velocity P-wave (km/s) = 6.48301 6.89638 6.69288
#
# Compressibility (1/GPa) = 0.02035248
#
# Stress axis : x y z
#
# Youngs Moduli (GPa) = 70.15916 92.90774 122.86128
#
# Poissons Ratio (x) = 0.35495 -0.00913
# Poissons Ratio (y) = 0.26804 0.32626
# Poissons Ratio (z) = -0.00521 0.24672
#
# Static dielectric constant tensor:
#      x y z
#    x 3.584910 0.000000 0.000000 
#    y 0.000000 4.079010 0.000000 
#    z 0.000000 0.000000 4.024850 
# 
# 
# High freq. dielectric constant tensor:
#      x y z
#    x 1.769200 0.000000 0.000000 
#    y 0.000000 1.819520 0.000000 
#    z 0.000000 0.000000 1.818260 
# 
# From -- ./inp_files/30488.got.cif
#   From: 2010.03.12/outbox.cif.g09.slc.cpg/sg20_16_cif.got.tgz:30488.got - 2010.04.14 01:38:04.
