data_PCOD8158591
_publ_section_title
;
Structure prediction by ZEFSAII (Michael W. Deem and Ramdas Pophale) SiO2 
 PCOD8158591
Probable space group: C 2 2 21
;
_chemical_formula_sum "Si O2"
_cell_formula_units_Z 52
_cell_length_a 9.377672
_cell_length_b 28.291290
_cell_length_c 10.582718
_cell_angle_alpha 90.000000
_cell_angle_beta 90.000000
_cell_angle_gamma 90.000000
_cell_volume 2807.663218
_symmetry_space_group_name_H-M "C 2 2 21"
_symmetry_group_IT_number 20
_symmetry_cell_setting 'orthorhombic'
loop_
_space_group_symop_operation_xyz
x,y,z
-x,-y,1/2+z
x,-y,-z
-x,y,1/2-z
1/2+x,1/2+y,z
1/2-x,1/2-y,1/2+z
1/2+x,1/2-y,-z
1/2-x,1/2+y,1/2-z
loop_
_atom_site_type_symbol
_atom_site_label
_atom_site_fract_x
_atom_site_fract_y
_atom_site_fract_z
Si Si1 0.285073 0.604044 0.564977
Si Si2 0.650717 0.442354 0.807321
Si Si3 0.162280 0.847519 0.705282
Si Si4 0.613011 0.017451 0.637681
Si Si5 0.500000 0.648176 0.750000
Si Si6 0.585081 0.707371 0.527224
Si Si7 0.736653 0.299901 0.945390
O O1 0.367788 0.579761 0.447614
O O2 0.160320 0.571660 0.621381
O O3 0.401940 0.613264 0.670928
O O4 0.214878 0.653724 0.523006
O O5 0.500000 0.459572 0.750000
O O6 0.721826 0.401375 0.717835
O O7 0.752080 0.487281 0.816290
O O8 0.172848 0.827611 0.564712
O O9 0.245805 0.811289 0.796324
O O10 0.000000 0.851982 0.750000
O O11 0.500000 0.013667 0.750000
O O12 0.554432 0.000000 0.500000
O O13 0.595157 0.682844 0.663263
O O14 0.423051 0.714642 0.483614
O O15 0.655083 0.758459 0.524792
#
# Coordination Sequence:
#
# PCOD8158591 Si02
#       7
#     8   8   8   8   4   8   8
#     4   9  20  38  57  81 125 147 184 243 295 331
#     4   9  17  36  65  84 106 148 196 238 285 342
#     4   8  16  33  53  76 106 144 185 224 275 335
#     4  10  22  43  60  85 122 157 190 241 300 355
#     4  10  20  34  56  86 116 138 190 248 278 324
#     4  10  20  34  54  80 113 145 185 230 278 330
#     4   9  19  35  55  78 110 150 187 227 276 336
#
# _framework density 18.52074
#
# number of rings (size 3 to 8) (size 9 to 14) (size 15 to 20)
#    0.000    2.769    0.000    2.769    5.385    0.000 
#    8.308    3.077    1.692    0.000    0.000    0.000 
#    0.000    0.000    0.000    0.000    0.000    0.000 
#
# Total GULP energy -322283.364285 kJ/mol
# GULP energy per Si atom -12395.514011 kJ/mol
# Density = 1.847859 g / cm^3
# Si number density = 18.520740 Si / 1000 Ang^3
#
#
#
# Elastic Constant Matrix: (Units=GPa)
#
#
# Indices 1 2 3 4 5 6 
#
# 1 67.5271 55.2446 51.8314 0.0000 0.0000 0.0000
# 2 55.2446 125.1394 64.5842 0.0000 0.0000 0.0000
# 3 51.8314 64.5842 136.5331 0.0000 0.0000 0.0000
# 4 0.0000 0.0000 0.0000 22.3668 0.0000 0.0000
# 5 0.0000 0.0000 0.0000 0.0000 19.3942 0.0000
# 6 0.0000 0.0000 0.0000 0.0000 0.0000 26.8454
#
#
#
# Elastic Compliance Matrix: (Units=1/GPa)
#
#
# Indices 1 2 3 4 5 6 
#
# 1 0.026407 -0.008578 -0.005967 0.000000 0.000000 0.000000
# 2 -0.008578 0.013359 -0.003063 0.000000 0.000000 0.000000
# 3 -0.005967 -0.003063 0.011038 0.000000 0.000000 0.000000
# 4 0.000000 0.000000 0.000000 0.044709 0.000000 0.000000
# 5 0.000000 0.000000 0.000000 0.000000 0.051562 0.000000
# 6 0.000000 0.000000 0.000000 0.000000 0.000000 0.037250
#
#
# Mechanical properties :
#
#
# Convention : Reuss Voigt Hill
#
# Bulk Modulus (GPa) = 64.15099 74.72443 69.43771
# Shear Modulus (GPa) = 22.24832 24.22389 23.23610
#
# Velocity S-wave (km/s) = 3.46969 3.62046 3.54587
# Velocity P-wave (km/s) = 7.12490 7.60992 7.37140
#
# Compressibility (1/GPa) = 0.01558822
#
# Stress axis : x y z
#
# Youngs Moduli (GPa) = 37.86913 74.85822 90.59517
#
# Poissons Ratio (x) = 0.64214 0.54058
# Poissons Ratio (y) = 0.32485 0.27745
# Poissons Ratio (z) = 0.22596 0.22926
#
# Static dielectric constant tensor:
#      x y z
#    x 3.016850 0.000000 0.000000 
#    y 0.000000 3.609720 0.000000 
#    z 0.000000 0.000000 3.692020 
# 
# 
# High freq. dielectric constant tensor:
#      x y z
#    x 1.677740 0.000000 0.000000 
#    y 0.000000 1.730570 0.000000 
#    z 0.000000 0.000000 1.728650 
# 
# From -- ./inp_files/13257.got.cif
#   From: 2010.03.12/outbox.cif.g09.slc.cpg/sg20_7_cif.got.tgz:13257.got - 2010.04.14 01:38:04.
