data_PCOD8158180
_publ_section_title
;
Structure prediction by ZEFSAII (Michael W. Deem and Ramdas Pophale) SiO2 
 PCOD8158180
Probable space group: C 2 2 21
;
_chemical_formula_sum "Si O2"
_cell_formula_units_Z 48
_cell_length_a 7.901532
_cell_length_b 31.199321
_cell_length_c 9.014577
_cell_angle_alpha 90.000000
_cell_angle_beta 90.000000
_cell_angle_gamma 90.000000
_cell_volume 2222.295457
_symmetry_space_group_name_H-M "C 2 2 21"
_symmetry_group_IT_number 20
_symmetry_cell_setting 'orthorhombic'
loop_
_space_group_symop_operation_xyz
x,y,z
-x,-y,1/2+z
x,-y,-z
-x,y,1/2-z
1/2+x,1/2+y,z
1/2-x,1/2-y,1/2+z
1/2+x,1/2-y,-z
1/2-x,1/2+y,1/2-z
loop_
_atom_site_type_symbol
_atom_site_label
_atom_site_fract_x
_atom_site_fract_y
_atom_site_fract_z
Si Si1 0.521873 0.784843 0.421383
Si Si2 0.676083 0.076817 0.112824
Si Si3 0.375941 0.304816 0.571839
Si Si4 0.326618 0.954103 0.930464
Si Si5 0.981098 0.101779 0.426561
Si Si6 0.838657 0.325165 0.666603
O O1 0.500000 0.795162 0.250000
O O2 0.500464 0.734536 0.458910
O O3 0.704501 0.801108 0.475597
O O4 0.363252 0.809952 0.497662
O O5 0.685419 0.043656 0.251215
O O6 0.510926 0.063945 0.017157
O O7 0.659660 0.123820 0.185554
O O8 0.846668 0.078479 0.011548
O O9 0.474694 0.348335 0.525383
O O10 0.327902 0.306788 0.749067
O O11 0.182160 0.922175 0.991909
O O12 0.293292 0.000000 0.000000
O O13 0.000000 0.096857 0.250000
O O14 0.000000 0.305103 0.750000
#
# Coordination Sequence:
#
# PCOD8158180 Si02
#       6
#     8   8   8   8   8   8
#     4  11  24  35  56  95 134 170 222 288 332 367
#     4  10  19  37  65  93 116 170 216 259 322 403
#     4  11  21  38  61  93 125 176 232 273 321 391
#     4  10  19  34  60  98 125 146 203 278 325 384
#     4  10  19  35  64  92 122 162 222 270 314 388
#     4  10  18  37  64  87 122 172 229 260 316 399
#
# _framework density 21.599287
#
# number of rings (size 3 to 8) (size 9 to 14) (size 15 to 20)
#    0.000    1.667    5.000    2.500    2.333    0.667 
#    0.000    0.000   14.667    0.000    0.000    0.000 
#    0.000    0.000    0.000    0.000    0.000    0.000 
#
# Total GULP energy -297425.717404 kJ/mol
# GULP energy per Si atom -12392.738225 kJ/mol
# Density = 2.155013 g / cm^3
# Si number density = 21.599287 Si / 1000 Ang^3
#
#
#
# Elastic Constant Matrix: (Units=GPa)
#
#
# Indices 1 2 3 4 5 6 
#
# 1 150.4856 49.1540 22.9145 0.0000 0.0000 0.0000
# 2 49.1540 124.5726 36.4505 0.0000 0.0000 0.0000
# 3 22.9145 36.4505 69.5727 0.0000 0.0000 0.0000
# 4 0.0000 0.0000 0.0000 29.1489 0.0000 0.0000
# 5 0.0000 0.0000 0.0000 0.0000 18.4226 0.0000
# 6 0.0000 0.0000 0.0000 0.0000 0.0000 36.6419
#
#
#
# Elastic Compliance Matrix: (Units=1/GPa)
#
#
# Indices 1 2 3 4 5 6 
#
# 1 0.007701 -0.002712 -0.001115 0.000000 0.000000 0.000000
# 2 -0.002712 0.010436 -0.004574 0.000000 0.000000 0.000000
# 3 -0.001115 -0.004574 0.017137 0.000000 0.000000 0.000000
# 4 0.000000 0.000000 0.000000 0.034307 0.000000 0.000000
# 5 0.000000 0.000000 0.000000 0.000000 0.054281 0.000000
# 6 0.000000 0.000000 0.000000 0.000000 0.000000 0.027291
#
#
# Mechanical properties :
#
#
# Convention : Reuss Voigt Hill
#
# Bulk Modulus (GPa) = 54.14059 62.40766 58.27412
# Shear Modulus (GPa) = 28.71679 32.58347 30.65013
#
# Velocity S-wave (km/s) = 3.65022 3.88821 3.77109
# Velocity P-wave (km/s) = 6.54873 7.00812 6.78231
#
# Compressibility (1/GPa) = 0.01847043
#
# Stress axis : x y z
#
# Youngs Moduli (GPa) = 129.85464 95.82075 58.35185
#
# Poissons Ratio (x) = 0.25989 0.06508
# Poissons Ratio (y) = 0.35220 0.26692
# Poissons Ratio (z) = 0.14483 0.43832
#
# Static dielectric constant tensor:
#      x y z
#    x 4.929160 0.000000 0.000000 
#    y 0.000000 3.723470 0.000000 
#    z 0.000000 0.000000 3.438520 
# 
# 
# High freq. dielectric constant tensor:
#      x y z
#    x 1.886440 0.000000 0.000000 
#    y 0.000000 1.836120 0.000000 
#    z 0.000000 0.000000 1.783390 
# 
# From -- ./inp_files/6557.got.cif
#   From: 2010.03.12/outbox.cif.g09.slc.cpg/sg20_4_cif.got.tgz:6557.got - 2010.04.14 01:38:04.
