data_PCOD8158166
_publ_section_title
;
Structure prediction by ZEFSAII (Michael W. Deem and Ramdas Pophale) SiO2 
 PCOD8158166
Probable space group: C 2 2 21
;
_chemical_formula_sum "Si O2"
_cell_formula_units_Z 60
_cell_length_a 13.598018
_cell_length_b 18.750876
_cell_length_c 10.891402
_cell_angle_alpha 90.000000
_cell_angle_beta 90.000000
_cell_angle_gamma 90.000000
_cell_volume 2777.032495
_symmetry_space_group_name_H-M "C 2 2 21"
_symmetry_group_IT_number 20
_symmetry_cell_setting 'orthorhombic'
loop_
_space_group_symop_operation_xyz
x,y,z
-x,-y,1/2+z
x,-y,-z
-x,y,1/2-z
1/2+x,1/2+y,z
1/2-x,1/2-y,1/2+z
1/2+x,1/2-y,-z
1/2-x,1/2+y,1/2-z
loop_
_atom_site_type_symbol
_atom_site_label
_atom_site_fract_x
_atom_site_fract_y
_atom_site_fract_z
Si Si1 0.110817 0.655201 0.416347
Si Si2 0.465212 0.615665 0.438277
Si Si3 0.185251 0.520934 0.288092
Si Si4 0.609995 0.866464 0.293115
Si Si5 0.655303 0.609290 0.312133
Si Si6 0.544621 0.732298 0.872919
Si Si7 0.744738 0.244610 0.240449
Si Si8 0.335030 0.500000 0.500000
O O1 0.110957 0.578864 0.346803
O O2 0.125332 0.641469 0.560755
O O3 0.197972 0.706676 0.362684
O O4 0.004786 0.689605 0.388341
O O5 0.574307 0.585488 0.410874
O O6 0.396801 0.616429 0.319607
O O7 0.479195 0.691920 0.501413
O O8 0.407600 0.565387 0.532160
O O9 0.129581 0.448438 0.249833
O O10 0.249714 0.556836 0.178562
O O11 0.269264 0.502497 0.382533
O O12 0.500000 0.846018 0.250000
O O13 0.688103 0.813666 0.225949
O O14 0.689346 0.689900 0.337608
O O15 0.500000 0.695037 0.750000
O O16 0.660680 0.735133 0.856049
#
# Coordination Sequence:
#
# PCOD8158166 Si02
#       8
#     8   8   8   8   8   8   8   4
#     4  10  22  42  65  92 134 174 211 271 334 388
#     4  10  20  38  60  92 124 165 216 267 317 384
#     4  10  20  41  64  94 131 173 217 257 336 398
#     4  12  25  38  66 101 128 171 225 273 315 399
#     4   9  21  38  64  89 126 171 208 266 328 384
#     4  10  22  39  62  94 125 168 214 267 323 390
#     4  10  23  38  61  95 125 170 214 267 332 378
#     4  10  18  36  64  86 120 178 204 256 328 380
#
# _framework density 21.605796999999999
#
# number of rings (size 3 to 8) (size 9 to 14) (size 15 to 20)
#    0.000    1.867    1.333    1.600    7.467    2.667 
#    9.600    0.000    0.000    0.000    0.000    0.000 
#    0.000    0.000    0.000    0.000    0.000    0.000 
#
# Total GULP energy -371716.836303 kJ/mol
# GULP energy per Si atom -12390.561210 kJ/mol
# Density = 2.155662 g / cm^3
# Si number density = 21.605797 Si / 1000 Ang^3
#
#
#
# Elastic Constant Matrix: (Units=GPa)
#
#
# Indices 1 2 3 4 5 6 
#
# 1 132.9123 60.8128 15.8850 0.0000 0.0000 0.0000
# 2 60.8128 131.4356 14.4158 0.0000 0.0000 0.0000
# 3 15.8850 14.4158 36.3197 0.0000 0.0000 0.0000
# 4 0.0000 0.0000 0.0000 24.6607 0.0000 0.0000
# 5 0.0000 0.0000 0.0000 0.0000 19.3912 0.0000
# 6 0.0000 0.0000 0.0000 0.0000 0.0000 47.7900
#
#
#
# Elastic Compliance Matrix: (Units=1/GPa)
#
#
# Indices 1 2 3 4 5 6 
#
# 1 0.009772 -0.004237 -0.002592 0.000000 0.000000 0.000000
# 2 -0.004237 0.009792 -0.002033 0.000000 0.000000 0.000000
# 3 -0.002592 -0.002033 0.029474 0.000000 0.000000 0.000000
# 4 0.000000 0.000000 0.000000 0.040550 0.000000 0.000000
# 5 0.000000 0.000000 0.000000 0.000000 0.051570 0.000000
# 6 0.000000 0.000000 0.000000 0.000000 0.000000 0.020925
#
#
# Mechanical properties :
#
#
# Convention : Reuss Voigt Hill
#
# Bulk Modulus (GPa) = 31.93598 53.65497 42.79547
# Shear Modulus (GPa) = 26.28176 32.33864 29.31020
#
# Velocity S-wave (km/s) = 3.49151 3.87299 3.68719
# Velocity P-wave (km/s) = 5.57382 6.69982 6.16259
#
# Compressibility (1/GPa) = 0.03131264
#
# Stress axis : x y z
#
# Youngs Moduli (GPa) = 102.33092 102.12697 33.92815
#
# Poissons Ratio (x) = 0.43272 0.08795
# Poissons Ratio (y) = 0.43359 0.06899
# Poissons Ratio (z) = 0.26527 0.20766
#
# Static dielectric constant tensor:
#      x y z
#    x 4.256760 0.000000 0.000000 
#    y 0.000000 4.260460 0.000000 
#    z 0.000000 0.000000 3.494750 
# 
# 
# High freq. dielectric constant tensor:
#      x y z
#    x 1.864190 0.000000 0.000000 
#    y 0.000000 1.847760 0.000000 
#    z 0.000000 0.000000 1.816280 
# 
# From -- ./inp_files/15313.got.cif
#   From: 2010.03.12/outbox.cif.g09.slc.cpg/sg20_8_cif.got.tgz:15313.got - 2010.04.14 01:38:04.
