data_PCOD8158765
_publ_section_title
;
Structure prediction by ZEFSAII (Michael W. Deem and Ramdas Pophale) SiO2 
 PCOD8158765
Probable space group: C 2 2 21
;
_chemical_formula_sum "Si O2"
_cell_formula_units_Z 56
_cell_length_a 8.261457
_cell_length_b 14.426298
_cell_length_c 19.610167
_cell_angle_alpha 90.000000
_cell_angle_beta 90.000000
_cell_angle_gamma 90.000000
_cell_volume 2337.183642
_symmetry_space_group_name_H-M "C 2 2 21"
_symmetry_group_IT_number 20
_symmetry_cell_setting 'orthorhombic'
loop_
_space_group_symop_operation_xyz
x,y,z
-x,-y,1/2+z
x,-y,-z
-x,y,1/2-z
1/2+x,1/2+y,z
1/2-x,1/2-y,1/2+z
1/2+x,1/2-y,-z
1/2-x,1/2+y,1/2-z
loop_
_atom_site_type_symbol
_atom_site_label
_atom_site_fract_x
_atom_site_fract_y
_atom_site_fract_z
Si Si1 0.736288 0.623898 0.307916
Si Si2 0.067590 0.199195 0.430284
Si Si3 0.645939 0.516897 0.076874
Si Si4 0.854708 0.062721 0.859397
Si Si5 0.842697 0.639517 0.525274
Si Si6 0.534190 0.900203 0.607498
Si Si7 0.354265 0.243750 0.197703
O O1 0.678447 0.701244 0.362555
O O2 0.636782 0.527972 0.311015
O O3 0.914269 0.585407 0.328806
O O4 0.722543 0.675037 0.234291
O O5 0.956788 0.110106 0.422646
O O6 0.957390 0.290146 0.433523
O O7 0.186755 0.193309 0.495309
O O8 0.537281 0.433167 0.108519
O O9 0.819234 0.526044 0.114669
O O10 0.695371 0.500000 0.000000
O O11 0.723569 0.059822 0.922287
O O12 0.803901 0.150315 0.813606
O O13 0.947048 0.592595 0.465465
O O14 0.607099 0.796745 0.622373
O O15 0.500000 0.244037 0.250000
#
# Coordination Sequence:
#
# PCOD8158765 Si02
#       7
#     8   8   8   8   8   8   8
#     4   9  23  43  67  93 134 181 226 287 335 400
#     4  10  20  37  61  95 138 177 220 284 339 408
#     4  11  22  37  62 101 134 168 221 275 347 414
#     4  11  23  41  69  98 135 180 226 286 343 409
#     4  11  21  39  64 101 138 177 224 277 358 408
#     4  10  23  40  67  93 138 176 217 287 340 408
#     4  10  22  47  66  92 133 183 233 277 337 404
#
# _framework density 23.960463000000001
#
# number of rings (size 3 to 8) (size 9 to 14) (size 15 to 20)
#    0.000    1.714    1.429    2.571    2.000    1.143 
#    2.571   10.000    0.000    3.429    0.000    0.000 
#    0.000    0.000    0.000    0.000    0.000    0.000 
#
# Total GULP energy -346906.914656 kJ/mol
# GULP energy per Si atom -12389.532666 kJ/mol
# Density = 2.390593 g / cm^3
# Si number density = 23.960463 Si / 1000 Ang^3
#
#
#
# Elastic Constant Matrix: (Units=GPa)
#
#
# Indices 1 2 3 4 5 6 
#
# 1 110.0538 16.3395 27.6340 0.0000 0.0000 0.0000
# 2 16.3395 79.1512 35.2729 0.0000 0.0000 0.0000
# 3 27.6340 35.2729 97.0334 0.0000 0.0000 0.0000
# 4 0.0000 0.0000 0.0000 40.1926 0.0000 0.0000
# 5 0.0000 0.0000 0.0000 0.0000 14.7195 0.0000
# 6 0.0000 0.0000 0.0000 0.0000 0.0000 -81.8307
#
#
#
# Elastic Compliance Matrix: (Units=1/GPa)
#
#
# Indices 1 2 3 4 5 6 
#
# 1 0.009844 -0.000934 -0.002464 0.000000 0.000000 0.000000
# 2 -0.000934 0.015165 -0.005247 0.000000 0.000000 0.000000
# 3 -0.002464 -0.005247 0.012915 0.000000 0.000000 0.000000
# 4 0.000000 0.000000 0.000000 0.024880 0.000000 0.000000
# 5 0.000000 0.000000 0.000000 0.000000 0.067937 0.000000
# 6 0.000000 0.000000 0.000000 0.000000 0.000000 -0.012220
#
#
# Mechanical properties :
#
#
# Convention : Reuss Voigt Hill
#
# Bulk Modulus (GPa) = 48.46315 49.41456 48.93886
# Shear Modulus (GPa) = 35.04162 8.41575 21.72869
#
# Velocity S-wave (km/s) = 3.82838 1.87616 3.01467
# Velocity P-wave (km/s) = 6.30969 5.03602 5.70849
#
# Compressibility (1/GPa) = 0.02063423
#
# Stress axis : x y z
#
# Youngs Moduli (GPa) = 101.58675 65.94130 77.43156
#
# Poissons Ratio (x) = 0.06160 0.19078
# Poissons Ratio (y) = 0.09489 0.40626
# Poissons Ratio (z) = 0.25029 0.34597
#
# Static dielectric constant tensor:
#      x y z
#    x 4.625040 0.000000 0.000000 
#    y 0.000000 4.214520 0.000000 
#    z 0.000000 0.000000 5.498370 
# 
# 
# High freq. dielectric constant tensor:
#      x y z
#    x 1.955500 0.000000 0.000000 
#    y 0.000000 1.931640 0.000000 
#    z 0.000000 0.000000 1.941860 
# 
# From -- ./inp_files/26710.got.cif
#   From: 2010.03.12/outbox.cif.g09.slc.cpg/sg20_14_cif.got.tgz:26710.got - 2010.04.14 01:38:04.
