data_PCOD8158593
_publ_section_title
;
Structure prediction by ZEFSAII (Michael W. Deem and Ramdas Pophale) SiO2 
 PCOD8158593
Probable space group: C 2 2 21
;
_chemical_formula_sum "Si O2"
_cell_formula_units_Z 40
_cell_length_a 8.445811
_cell_length_b 11.191130
_cell_length_c 19.499434
_cell_angle_alpha 90.000000
_cell_angle_beta 90.000000
_cell_angle_gamma 90.000000
_cell_volume 1843.050795
_symmetry_space_group_name_H-M "C 2 2 21"
_symmetry_group_IT_number 20
_symmetry_cell_setting 'orthorhombic'
loop_
_space_group_symop_operation_xyz
x,y,z
-x,-y,1/2+z
x,-y,-z
-x,y,1/2-z
1/2+x,1/2+y,z
1/2-x,1/2-y,1/2+z
1/2+x,1/2-y,-z
1/2-x,1/2+y,1/2-z
loop_
_atom_site_type_symbol
_atom_site_label
_atom_site_fract_x
_atom_site_fract_y
_atom_site_fract_z
Si Si1 0.168619 0.426246 0.630759
Si Si2 0.982985 0.142884 0.096583
Si Si3 0.445031 0.807877 0.526363
Si Si4 0.000000 0.715688 0.250000
Si Si5 0.801152 0.000000 0.000000
Si Si6 0.262920 0.306410 0.352890
O O1 0.344949 0.373964 0.627378
O O2 0.079685 0.370376 0.694861
O O3 0.174183 0.568030 0.640307
O O4 0.074345 0.395563 0.561191
O O5 0.869140 0.201341 0.153876
O O6 0.971591 0.231397 0.031748
O O7 0.909742 0.017410 0.068478
O O8 0.307967 0.884142 0.489639
O O9 0.373508 0.716469 0.581544
O O10 0.869686 0.802048 0.284457
#
# Coordination Sequence:
#
# PCOD8158593 Si02
#       6
#     8   8   8   4   4   8
#     4  11  23  41  64  87 121 164 204 254 307 355
#     4  11  22  36  62  94 120 155 198 242 304 372
#     4  10  21  38  60  93 127 152 188 244 309 373
#     4  10  26  44  58  86 120 160 216 258 294 354
#     4  10  20  34  54  86 124 150 182 232 292 360
#     4  10  23  41  62  87 120 160 203 251 301 359
#
# _framework density 21.703147000000001
#
# number of rings (size 3 to 8) (size 9 to 14) (size 15 to 20)
#    0.000    1.600    0.000    4.800    0.000    8.000 
#    0.000    4.000    0.000    0.000    0.000    0.000 
#    0.000    0.000    0.000    0.000    0.000    0.000 
#
# Total GULP energy -248040.845563 kJ/mol
# GULP energy per Si atom -12402.042278 kJ/mol
# Density = 2.165375 g / cm^3
# Si number density = 21.703147 Si / 1000 Ang^3
#
#
#
# Elastic Constant Matrix: (Units=GPa)
#
#
# Indices 1 2 3 4 5 6 
#
# 1 132.0587 29.3457 35.0000 0.0000 0.0000 0.0000
# 2 29.3457 91.0036 27.5663 0.0000 0.0000 0.0000
# 3 35.0000 27.5663 72.3961 0.0000 0.0000 0.0000
# 4 0.0000 0.0000 0.0000 17.9872 0.0000 0.0000
# 5 0.0000 0.0000 0.0000 0.0000 35.4142 0.0000
# 6 0.0000 0.0000 0.0000 0.0000 0.0000 41.7184
#
#
#
# Elastic Compliance Matrix: (Units=1/GPa)
#
#
# Indices 1 2 3 4 5 6 
#
# 1 0.008933 -0.001777 -0.003642 0.000000 0.000000 0.000000
# 2 -0.001777 0.012775 -0.004005 0.000000 0.000000 0.000000
# 3 -0.003642 -0.004005 0.017098 0.000000 0.000000 0.000000
# 4 0.000000 0.000000 0.000000 0.055595 0.000000 0.000000
# 5 0.000000 0.000000 0.000000 0.000000 0.028237 0.000000
# 6 0.000000 0.000000 0.000000 0.000000 0.000000 0.023970
#
#
# Mechanical properties :
#
#
# Convention : Reuss Voigt Hill
#
# Bulk Modulus (GPa) = 50.10581 53.25361 51.67971
# Shear Modulus (GPa) = 29.05130 32.59371 30.82251
#
# Velocity S-wave (km/s) = 3.66262 3.87951 3.77262
# Velocity P-wave (km/s) = 6.40495 6.68266 6.54528
#
# Compressibility (1/GPa) = 0.01995777
#
# Stress axis : x y z
#
# Youngs Moduli (GPa) = 111.95062 78.27851 58.48469
#
# Poissons Ratio (x) = 0.13913 0.21298
# Poissons Ratio (y) = 0.19897 0.23423
# Poissons Ratio (z) = 0.40769 0.31351
#
# Static dielectric constant tensor:
#      x y z
#    x 4.190420 0.000000 0.000000 
#    y 0.000000 3.866090 0.000000 
#    z 0.000000 0.000000 3.790960 
# 
# 
# High freq. dielectric constant tensor:
#      x y z
#    x 1.878610 0.000000 0.000000 
#    y 0.000000 1.853330 0.000000 
#    z 0.000000 0.000000 1.828300 
# 
# From -- ./inp_files/23200.got.cif
#   From: 2010.03.12/outbox.cif.g09.slc.cpg/sg20_12_cif.got.tgz:23200.got - 2010.04.14 01:38:04.
