data_PCOD8158311
_publ_section_title
;
Structure prediction by ZEFSAII (Michael W. Deem and Ramdas Pophale) SiO2 
 PCOD8158311
Probable space group: C 2 2 21
;
_chemical_formula_sum "Si O2"
_cell_formula_units_Z 36
_cell_length_a 13.886942
_cell_length_b 9.635626
_cell_length_c 13.922940
_cell_angle_alpha 90.000000
_cell_angle_beta 90.000000
_cell_angle_gamma 90.000000
_cell_volume 1863.019961
_symmetry_space_group_name_H-M "C 2 2 21"
_symmetry_group_IT_number 20
_symmetry_cell_setting 'orthorhombic'
loop_
_space_group_symop_operation_xyz
x,y,z
-x,-y,1/2+z
x,-y,-z
-x,y,1/2-z
1/2+x,1/2+y,z
1/2-x,1/2-y,1/2+z
1/2+x,1/2-y,-z
1/2-x,1/2+y,1/2-z
loop_
_atom_site_type_symbol
_atom_site_label
_atom_site_fract_x
_atom_site_fract_y
_atom_site_fract_z
Si Si1 0.571773 0.860193 0.939980
Si Si2 0.500000 0.225315 0.250000
Si Si3 0.187971 0.839260 0.316730
Si Si4 0.266914 0.651583 0.162785
Si Si5 0.584265 0.661442 0.491698
O O1 0.511477 0.876931 0.841013
O O2 0.680166 0.816071 0.912059
O O3 0.516827 0.742778 0.002114
O O4 0.571833 0.000000 0.000000
O O5 0.588735 0.331577 0.257338
O O6 0.260865 0.732888 0.264000
O O7 0.162447 0.796626 0.426148
O O8 0.236020 0.989374 0.311315
O O9 0.366218 0.693698 0.110585
O O10 0.558804 0.500000 0.500000
#
# Coordination Sequence:
#
# PCOD8158311 Si02
#       5
#     8   4   8   8   8
#     4  10  19  34  55  80 107 139 177 223 264 303
#     4   8  18  34  52  74 108 142 176 218 264 314
#     4   9  18  35  55  77 105 141 178 219 263 309
#     4  10  20  36  56  78 107 140 176 218 263 314
#     4   9  19  36  54  75 108 145 178 215 264 319
#
# _framework density 19.323464000000001
#
# number of rings (size 3 to 8) (size 9 to 14) (size 15 to 20)
#    0.000    2.667    0.000    2.000    0.000    5.333 
#    0.000   18.889    0.000    1.333    0.000    0.000 
#    0.000    0.000    0.000    0.000    0.000    0.000 
#
# Total GULP energy -223037.649984 kJ/mol
# GULP energy per Si atom -12390.980555 kJ/mol
# Density = 1.927948 g / cm^3
# Si number density = 19.323464 Si / 1000 Ang^3
#
#
#
# Elastic Constant Matrix: (Units=GPa)
#
#
# Indices 1 2 3 4 5 6 
#
# 1 55.5383 25.7300 14.2762 0.0000 0.0000 0.0000
# 2 25.7300 62.2857 30.7527 0.0000 0.0000 0.0000
# 3 14.2762 30.7527 59.5262 0.0000 0.0000 0.0000
# 4 0.0000 0.0000 0.0000 38.4801 0.0000 0.0000
# 5 0.0000 0.0000 0.0000 0.0000 19.9004 0.0000
# 6 0.0000 0.0000 0.0000 0.0000 0.0000 25.9327
#
#
#
# Elastic Compliance Matrix: (Units=1/GPa)
#
#
# Indices 1 2 3 4 5 6 
#
# 1 0.022295 -0.008820 -0.000791 0.000000 0.000000 0.000000
# 2 -0.008820 0.025042 -0.010822 0.000000 0.000000 0.000000
# 3 -0.000791 -0.010822 0.022580 0.000000 0.000000 0.000000
# 4 0.000000 0.000000 0.000000 0.025987 0.000000 0.000000
# 5 0.000000 0.000000 0.000000 0.000000 0.050250 0.000000
# 6 0.000000 0.000000 0.000000 0.000000 0.000000 0.038561
#
#
# Mechanical properties :
#
#
# Convention : Reuss Voigt Hill
#
# Bulk Modulus (GPa) = 34.42093 35.42977 34.92535
# Shear Modulus (GPa) = 21.25279 23.96871 22.61075
#
# Velocity S-wave (km/s) = 3.31999 3.52574 3.42441
# Velocity P-wave (km/s) = 5.70510 5.91180 5.80937
#
# Compressibility (1/GPa) = 0.02905209
#
# Stress axis : x y z
#
# Youngs Moduli (GPa) = 44.85353 39.93368 44.28748
#
# Poissons Ratio (x) = 0.35220 0.03501
# Poissons Ratio (y) = 0.39559 0.47927
# Poissons Ratio (z) = 0.03546 0.43216
#
# Static dielectric constant tensor:
#      x y z
#    x 3.569620 0.000000 0.000000 
#    y 0.000000 3.326570 0.000000 
#    z 0.000000 0.000000 3.817880 
# 
# 
# High freq. dielectric constant tensor:
#      x y z
#    x 1.749560 0.000000 0.000000 
#    y 0.000000 1.727060 0.000000 
#    z 0.000000 0.000000 1.759580 
# 
# From -- ./inp_files/18408.got.cif
#   From: 2010.03.12/outbox.cif.g09.slc.cpg/sg20_10_cif.got.tgz:18408.got - 2010.04.14 01:38:04.
