data_PCOD8158804
_publ_section_title
;
Structure prediction by ZEFSAII (Michael W. Deem and Ramdas Pophale) SiO2 
 PCOD8158804
Probable space group: C 2 2 21
;
_chemical_formula_sum "Si O2"
_cell_formula_units_Z 24
_cell_length_a 17.964565
_cell_length_b 5.155342
_cell_length_c 12.762682
_cell_angle_alpha 90.000000
_cell_angle_beta 90.000000
_cell_angle_gamma 90.000000
_cell_volume 1181.996349
_symmetry_space_group_name_H-M "C 2 2 21"
_symmetry_group_IT_number 20
_symmetry_cell_setting 'orthorhombic'
loop_
_space_group_symop_operation_xyz
x,y,z
-x,-y,1/2+z
x,-y,-z
-x,y,1/2-z
1/2+x,1/2+y,z
1/2-x,1/2-y,1/2+z
1/2+x,1/2-y,-z
1/2-x,1/2+y,1/2-z
loop_
_atom_site_type_symbol
_atom_site_label
_atom_site_fract_x
_atom_site_fract_y
_atom_site_fract_z
Si Si1 0.913073 0.336189 0.763141
Si Si2 0.694244 0.383524 0.111500
Si Si3 0.835804 0.152638 0.187502
O O1 0.873787 0.301195 0.649070
O O2 0.895900 0.616588 0.810386
O O3 0.000000 0.298098 0.750000
O O4 0.880390 0.111753 0.841387
O O5 0.770943 0.219112 0.104643
O O6 0.703929 0.615512 0.197707
O O7 0.673599 0.500000 0.000000
#
# Coordination Sequence:
#
# PCOD8158804 Si02
#       3
#     8   8   8
#     4  10  20  38  60  82 122 156 189 248 301 344
#     4  10  21  39  63  90 117 163 201 246 298 353
#     4  10  20  39  58  88 115 155 199 248 285 351
#
# _framework density 20.304631000000001
#
# number of rings (size 3 to 8) (size 9 to 14) (size 15 to 20)
#    2.000    0.000    3.333    1.000    0.000    1.333 
#    0.000    3.333    0.000    0.000    0.000    0.000 
#    0.000    0.000    0.000    0.000    0.000    0.000 
#
# Total GULP energy -148685.206517 kJ/mol
# GULP energy per Si atom -12390.433876 kJ/mol
# Density = 2.025842 g / cm^3
# Si number density = 20.304631 Si / 1000 Ang^3
#
#
#
# Elastic Constant Matrix: (Units=GPa)
#
#
# Indices 1 2 3 4 5 6 
#
# 1 135.8595 23.0104 -7.1901 0.0000 0.0000 0.0000
# 2 23.0104 114.1226 -8.2206 0.0000 0.0000 0.0000
# 3 -7.1901 -8.2206 28.0870 0.0000 0.0000 0.0000
# 4 0.0000 0.0000 0.0000 13.1512 0.0000 0.0000
# 5 0.0000 0.0000 0.0000 0.0000 13.1546 0.0000
# 6 0.0000 0.0000 0.0000 0.0000 0.0000 33.9058
#
#
#
# Elastic Compliance Matrix: (Units=1/GPa)
#
#
# Indices 1 2 3 4 5 6 
#
# 1 0.007686 -0.001438 0.001547 0.000000 0.000000 0.000000
# 2 -0.001438 0.009220 0.002330 0.000000 0.000000 0.000000
# 3 0.001547 0.002330 0.036682 0.000000 0.000000 0.000000
# 4 0.000000 0.000000 0.000000 0.076039 0.000000 0.000000
# 5 0.000000 0.000000 0.000000 0.000000 0.076019 0.000000
# 6 0.000000 0.000000 0.000000 0.000000 0.000000 0.029493
#
#
# Mechanical properties :
#
#
# Convention : Reuss Voigt Hill
#
# Bulk Modulus (GPa) = 17.10409 32.58537 24.84473
# Shear Modulus (GPa) = 20.01999 30.07361 25.04680
#
# Velocity S-wave (km/s) = 3.14344 3.85271 3.51601
# Velocity P-wave (km/s) = 4.64941 5.98951 5.36149
#
# Compressibility (1/GPa) = 0.05846554
#
# Stress axis : x y z
#
# Youngs Moduli (GPa) = 130.10665 108.45537 27.26159
#
# Poissons Ratio (x) = 0.15599 -0.04216
# Poissons Ratio (y) = 0.18713 -0.06353
# Poissons Ratio (z) = -0.20122 -0.25275
#
# Static dielectric constant tensor:
#      x y z
#    x 3.436890 0.000000 0.000000 
#    y 0.000000 3.774570 0.000000 
#    z 0.000000 0.000000 3.059450 
# 
# 
# High freq. dielectric constant tensor:
#      x y z
#    x 1.790520 0.000000 0.000000 
#    y 0.000000 1.806480 0.000000 
#    z 0.000000 0.000000 1.733480 
# 
# From -- ./inp_files/11763.got.cif
#   From: 2010.03.12/outbox.cif.g09.slc.cpg/sg20_6_cif.got.tgz:11763.got - 2010.04.14 01:38:04.
