data_PCOD8158302
_publ_section_title
;
Structure prediction by ZEFSAII (Michael W. Deem and Ramdas Pophale) SiO2 
 PCOD8158302
Probable space group: C 2 2 21
;
_chemical_formula_sum "Si O2"
_cell_formula_units_Z 48
_cell_length_a 31.854505
_cell_length_b 14.391920
_cell_length_c 5.088388
_cell_angle_alpha 90.000000
_cell_angle_beta 90.000000
_cell_angle_gamma 90.000000
_cell_volume 2332.758695
_symmetry_space_group_name_H-M "C 2 2 21"
_symmetry_group_IT_number 20
_symmetry_cell_setting 'orthorhombic'
loop_
_space_group_symop_operation_xyz
x,y,z
-x,-y,1/2+z
x,-y,-z
-x,y,1/2-z
1/2+x,1/2+y,z
1/2-x,1/2-y,1/2+z
1/2+x,1/2-y,-z
1/2-x,1/2+y,1/2-z
loop_
_atom_site_type_symbol
_atom_site_label
_atom_site_fract_x
_atom_site_fract_y
_atom_site_fract_z
Si Si1 0.399446 0.592446 0.881471
Si Si2 0.829198 0.560238 0.744188
Si Si3 0.642547 0.349979 0.879629
Si Si4 0.277098 0.243398 0.659208
Si Si5 0.410597 0.834978 0.348772
Si Si6 0.452832 0.222827 0.157939
O O1 0.362097 0.608722 0.089874
O O2 0.422599 0.500000 0.000000
O O3 0.375489 0.580286 0.603210
O O4 0.433003 0.674538 0.858549
O O5 0.813709 0.500000 0.500000
O O6 0.802104 0.653519 0.760967
O O7 0.878908 0.581805 0.718862
O O8 0.820772 0.500000 0.000000
O O9 0.691167 0.325507 0.927531
O O10 0.615570 0.257522 0.885444
O O11 0.250152 0.219067 0.402438
O O12 0.432246 0.848164 0.631871
O O13 0.446535 0.825654 0.124871
O O14 0.500000 0.237986 0.250000
#
# Coordination Sequence:
#
# PCOD8158302 Si02
#       6
#     8   8   8   8   8   8
#     4  10  19  34  53  78 110 145 189 231 268 318
#     4  11  22  39  63  88 112 144 192 240 278 325
#     4   9  19  35  54  75 103 148 191 219 263 332
#     4  11  22  39  60  84 116 150 184 228 285 344
#     4   9  19  35  57  79 106 145 187 225 270 334
#     4  10  19  34  56  82 110 146 188 229 278 337
#
# _framework density 20.576495000000001
#
# number of rings (size 3 to 8) (size 9 to 14) (size 15 to 20)
#    0.000    2.000    0.000    4.000    0.000    5.333 
#    0.000   13.333    0.000   10.000    0.000    0.000 
#    0.000    0.000    0.000    0.000    0.000    0.000 
#
# Total GULP energy -297453.151295 kJ/mol
# GULP energy per Si atom -12393.881304 kJ/mol
# Density = 2.052966 g / cm^3
# Si number density = 20.576495 Si / 1000 Ang^3
#
#
#
# Elastic Constant Matrix: (Units=GPa)
#
#
# Indices 1 2 3 4 5 6 
#
# 1 90.9263 16.5388 39.4663 0.0000 0.0000 0.0000
# 2 16.5388 42.6885 13.1931 0.0000 0.0000 0.0000
# 3 39.4663 13.1931 137.1572 0.0000 0.0000 0.0000
# 4 0.0000 0.0000 0.0000 34.5574 0.0000 0.0000
# 5 0.0000 0.0000 0.0000 0.0000 34.4932 0.0000
# 6 0.0000 0.0000 0.0000 0.0000 0.0000 18.0866
#
#
#
# Elastic Compliance Matrix: (Units=1/GPa)
#
#
# Indices 1 2 3 4 5 6 
#
# 1 0.013219 -0.004067 -0.003412 0.000000 0.000000 0.000000
# 2 -0.004067 0.025394 -0.001273 0.000000 0.000000 0.000000
# 3 -0.003412 -0.001273 0.008395 0.000000 0.000000 0.000000
# 4 0.000000 0.000000 0.000000 0.028937 0.000000 0.000000
# 5 0.000000 0.000000 0.000000 0.000000 0.028991 0.000000
# 6 0.000000 0.000000 0.000000 0.000000 0.000000 0.055289
#
#
# Mechanical properties :
#
#
# Convention : Reuss Voigt Hill
#
# Bulk Modulus (GPa) = 33.89253 45.46313 39.67783
# Shear Modulus (GPa) = 26.65746 30.86570 28.76158
#
# Velocity S-wave (km/s) = 3.60325 3.87725 3.74276
# Velocity P-wave (km/s) = 5.81536 6.49513 6.16462
#
# Compressibility (1/GPa) = 0.02950502
#
# Stress axis : x y z
#
# Youngs Moduli (GPa) = 75.64991 39.37885 119.11532
#
# Poissons Ratio (x) = 0.16014 0.40648
# Poissons Ratio (y) = 0.30765 0.15157
# Poissons Ratio (z) = 0.25815 0.05011
#
# Static dielectric constant tensor:
#      x y z
#    x 3.628230 0.000000 0.000000 
#    y 0.000000 3.674460 0.000000 
#    z 0.000000 0.000000 4.110870 
# 
# 
# High freq. dielectric constant tensor:
#      x y z
#    x 1.786050 0.000000 0.000000 
#    y 0.000000 1.789810 0.000000 
#    z 0.000000 0.000000 1.827680 
# 
# From -- ./inp_files/4627.got.cif
#   From: 2010.03.12/outbox.cif.g09.slc.cpg/sg20_3_cif.got.tgz:4627.got - 2010.04.14 01:38:04.
