data_PCOD8158401
_publ_section_title
;
Structure prediction by ZEFSAII (Michael W. Deem and Ramdas Pophale) SiO2 
 PCOD8158401
Probable space group: C 2 2 21
;
_chemical_formula_sum "Si O2"
_cell_formula_units_Z 48
_cell_length_a 13.589645
_cell_length_b 10.843235
_cell_length_c 17.902059
_cell_angle_alpha 90.000000
_cell_angle_beta 90.000000
_cell_angle_gamma 90.000000
_cell_volume 2637.970691
_symmetry_space_group_name_H-M "C 2 2 21"
_symmetry_group_IT_number 20
_symmetry_cell_setting 'orthorhombic'
loop_
_space_group_symop_operation_xyz
x,y,z
-x,-y,1/2+z
x,-y,-z
-x,y,1/2-z
1/2+x,1/2+y,z
1/2-x,1/2-y,1/2+z
1/2+x,1/2-y,-z
1/2-x,1/2+y,1/2-z
loop_
_atom_site_type_symbol
_atom_site_label
_atom_site_fract_x
_atom_site_fract_y
_atom_site_fract_z
Si Si1 0.115999 0.184887 0.252689
Si Si2 0.716645 0.238449 0.895870
Si Si3 0.602828 0.051452 0.713625
Si Si4 0.612249 0.864433 0.967846
Si Si5 0.233721 0.536415 0.162303
Si Si6 0.899128 0.405777 0.934861
O O1 0.159290 0.184970 0.167999
O O2 0.150950 0.312824 0.291542
O O3 0.161022 0.080092 0.306507
O O4 0.000000 0.159603 0.250000
O O5 0.815073 0.307021 0.920135
O O6 0.744980 0.100848 0.869991
O O7 0.648257 0.231531 0.969495
O O8 0.500000 0.082431 0.750000
O O9 0.662810 0.958891 0.765941
O O10 0.584684 0.994548 0.634351
O O11 0.688231 0.868320 0.898251
O O12 0.500266 0.828609 0.946172
O O13 0.604336 0.000000 0.000000
O O14 0.869298 0.500000 0.000000
#
# Coordination Sequence:
#
# PCOD8158401 Si02
#       6
#     8   8   8   8   8   8
#     4  10  22  35  59  83 116 151 188 235 287 344
#     4  10  22  39  55  86 119 147 191 241 288 348
#     4  10  19  36  58  84 107 144 194 244 275 333
#     4   9  20  35  59  83 112 151 190 237 290 340
#     4  10  19  38  58  80 112 152 189 231 292 341
#     4  11  22  36  59  88 114 147 197 242 285 341
#
# _framework density 18.195803999999999
#
# number of rings (size 3 to 8) (size 9 to 14) (size 15 to 20)
#    0.000    2.000    3.333    0.000    9.333    0.000 
#    0.000    5.833    0.000    0.000    0.000    0.000 
#    0.000    0.000    0.000    0.000    0.000    0.000 
#
# Total GULP energy -297504.297787 kJ/mol
# GULP energy per Si atom -12396.012408 kJ/mol
# Density = 1.815439 g / cm^3
# Si number density = 18.195804 Si / 1000 Ang^3
#
#
#
# Elastic Constant Matrix: (Units=GPa)
#
#
# Indices 1 2 3 4 5 6 
#
# 1 138.6077 43.0520 62.9601 0.0000 0.0000 0.0000
# 2 43.0520 48.4354 42.2123 0.0000 0.0000 0.0000
# 3 62.9601 42.2123 121.3036 0.0000 0.0000 0.0000
# 4 0.0000 0.0000 0.0000 33.9947 0.0000 0.0000
# 5 0.0000 0.0000 0.0000 0.0000 35.2889 0.0000
# 6 0.0000 0.0000 0.0000 0.0000 0.0000 32.6101
#
#
#
# Elastic Compliance Matrix: (Units=1/GPa)
#
#
# Indices 1 2 3 4 5 6 
#
# 1 0.010789 -0.006760 -0.003248 0.000000 0.000000 0.000000
# 2 -0.006760 0.033868 -0.008277 0.000000 0.000000 0.000000
# 3 -0.003248 -0.008277 0.012810 0.000000 0.000000 0.000000
# 4 0.000000 0.000000 0.000000 0.029416 0.000000 0.000000
# 5 0.000000 0.000000 0.000000 0.000000 0.028337 0.000000
# 6 0.000000 0.000000 0.000000 0.000000 0.000000 0.030665
#
#
# Mechanical properties :
#
#
# Convention : Reuss Voigt Hill
#
# Bulk Modulus (GPa) = 47.85139 67.19952 57.52546
# Shear Modulus (GPa) = 26.39605 31.05357 28.72481
#
# Velocity S-wave (km/s) = 3.81289 4.13562 3.97753
# Velocity P-wave (km/s) = 6.76309 7.73408 7.26482
#
# Compressibility (1/GPa) = 0.02089803
#
# Stress axis : x y z
#
# Youngs Moduli (GPa) = 92.68322 29.52614 78.06511
#
# Poissons Ratio (x) = 0.19959 0.25353
# Poissons Ratio (y) = 0.62652 0.64616
# Poissons Ratio (z) = 0.30101 0.24440
#
# Static dielectric constant tensor:
#      x y z
#    x 3.340050 0.000000 0.000000 
#    y 0.000000 3.178450 0.000000 
#    z 0.000000 0.000000 3.613330 
# 
# 
# High freq. dielectric constant tensor:
#      x y z
#    x 1.707340 0.000000 0.000000 
#    y 0.000000 1.678170 0.000000 
#    z 0.000000 0.000000 1.721780 
# 
# From -- ./inp_files/19938.got.cif
#   From: 2010.03.12/outbox.cif.g09.slc.cpg/sg20_10_cif.got.tgz:19938.got - 2010.04.14 01:38:04.
