data_PCOD8158406
_publ_section_title
;
Structure prediction by ZEFSAII (Michael W. Deem and Ramdas Pophale) SiO2 
 PCOD8158406
Probable space group: C 2 2 21
;
_chemical_formula_sum "Si O2"
_cell_formula_units_Z 48
_cell_length_a 8.874503
_cell_length_b 16.029930
_cell_length_c 16.972594
_cell_angle_alpha 90.000000
_cell_angle_beta 90.000000
_cell_angle_gamma 90.000000
_cell_volume 2414.481538
_symmetry_space_group_name_H-M "C 2 2 21"
_symmetry_group_IT_number 20
_symmetry_cell_setting 'orthorhombic'
loop_
_space_group_symop_operation_xyz
x,y,z
-x,-y,1/2+z
x,-y,-z
-x,y,1/2-z
1/2+x,1/2+y,z
1/2-x,1/2-y,1/2+z
1/2+x,1/2-y,-z
1/2-x,1/2+y,1/2-z
loop_
_atom_site_type_symbol
_atom_site_label
_atom_site_fract_x
_atom_site_fract_y
_atom_site_fract_z
Si Si1 0.070779 0.729790 0.166181
Si Si2 0.777334 0.572115 0.397084
Si Si3 0.004215 0.149064 0.156300
Si Si4 0.830685 0.305373 0.091579
Si Si5 0.266755 0.771092 0.917084
Si Si6 0.381606 0.898053 0.424893
O O1 0.158357 0.641322 0.163342
O O2 0.186443 0.807458 0.150430
O O3 0.000000 0.746163 0.250000
O O4 0.942610 0.724851 0.100782
O O5 0.594722 0.575453 0.385126
O O6 0.835492 0.479764 0.374786
O O7 0.829270 0.592311 0.485214
O O8 0.941131 0.235539 0.123983
O O9 0.000000 0.140590 0.250000
O O10 0.178146 0.152391 0.126431
O O11 0.934977 0.387927 0.082703
O O12 0.751319 0.279944 0.010281
O O13 0.203299 0.681538 0.888547
#
# Coordination Sequence:
#
# PCOD8158406 Si02
#       6
#     8   8   8   8   8   8
#     4  11  21  36  59  88 125 159 198 245 307 374
#     4  10  20  38  57  88 119 158 197 249 314 365
#     4  10  20  35  59  89 123 163 199 244 310 372
#     4  10  19  36  59  90 113 158 212 251 297 354
#     4  11  18  35  61  89 116 156 202 258 290 361
#     4  10  20  36  62  84 118 146 207 261 298 344
#
# _framework density 19.880043000000001
#
# number of rings (size 3 to 8) (size 9 to 14) (size 15 to 20)
#    0.000    1.667    5.000    3.000    0.000    0.000 
#    0.000    7.500    0.000    0.000    0.000    0.000 
#    0.000    0.000    0.000    0.000    0.000    0.000 
#
# Total GULP energy -297362.890024 kJ/mol
# GULP energy per Si atom -12390.120418 kJ/mol
# Density = 1.983480 g / cm^3
# Si number density = 19.880043 Si / 1000 Ang^3
#
#
#
# Elastic Constant Matrix: (Units=GPa)
#
#
# Indices 1 2 3 4 5 6 
#
# 1 91.8436 59.5491 15.1698 0.0000 0.0000 0.0000
# 2 59.5491 93.7671 20.5837 0.0000 0.0000 0.0000
# 3 15.1698 20.5837 75.4940 0.0000 0.0000 0.0000
# 4 0.0000 0.0000 0.0000 1.7695 0.0000 0.0000
# 5 0.0000 0.0000 0.0000 0.0000 40.2455 0.0000
# 6 0.0000 0.0000 0.0000 0.0000 0.0000 -61.0209
#
#
#
# Elastic Compliance Matrix: (Units=1/GPa)
#
#
# Indices 1 2 3 4 5 6 
#
# 1 0.018531 -0.011648 -0.000548 0.000000 0.000000 0.000000
# 2 -0.011648 0.018666 -0.002749 0.000000 0.000000 0.000000
# 3 -0.000548 -0.002749 0.014106 0.000000 0.000000 0.000000
# 4 0.000000 0.000000 0.000000 0.565137 0.000000 0.000000
# 5 0.000000 0.000000 0.000000 0.000000 0.024848 0.000000
# 6 0.000000 0.000000 0.000000 0.000000 0.000000 -0.016388
#
#
# Mechanical properties :
#
#
# Convention : Reuss Voigt Hill
#
# Bulk Modulus (GPa) = 46.70072 50.18997 48.44534
# Shear Modulus (GPa) = 7.55372 7.25229 7.40301
#
# Velocity S-wave (km/s) = 1.95138 1.91205 1.93182
# Velocity P-wave (km/s) = 5.34971 5.49325 5.42196
#
# Compressibility (1/GPa) = 0.02141295
#
# Stress axis : x y z
#
# Youngs Moduli (GPa) = 53.96345 53.57421 70.89407
#
# Poissons Ratio (x) = 0.62405 0.03883
# Poissons Ratio (y) = 0.62859 0.19486
# Poissons Ratio (z) = 0.02955 0.14726
#
# Static dielectric constant tensor:
#      x y z
#    x 4.266060 0.000000 0.000000 
#    y 0.000000 3.790800 0.000000 
#    z 0.000000 0.000000 3.486300 
# 
# 
# High freq. dielectric constant tensor:
#      x y z
#    x 1.797080 0.000000 0.000000 
#    y 0.000000 1.735150 0.000000 
#    z 0.000000 0.000000 1.763440 
# 
# From -- ./inp_files/23461.got.cif
#   From: 2010.03.12/outbox.cif.g09.slc.cpg/sg20_12_cif.got.tgz:23461.got - 2010.04.14 01:38:04.
