data_PCOD8158327
_publ_section_title
;
Structure prediction by ZEFSAII (Michael W. Deem and Ramdas Pophale) SiO2 
 PCOD8158327
Probable space group: C 2 2 21
;
_chemical_formula_sum "Si O2"
_cell_formula_units_Z 56
_cell_length_a 32.965282
_cell_length_b 5.155562
_cell_length_c 16.703935
_cell_angle_alpha 90.000000
_cell_angle_beta 90.000000
_cell_angle_gamma 90.000000
_cell_volume 2838.909843
_symmetry_space_group_name_H-M "C 2 2 21"
_symmetry_group_IT_number 20
_symmetry_cell_setting 'orthorhombic'
loop_
_space_group_symop_operation_xyz
x,y,z
-x,-y,1/2+z
x,-y,-z
-x,y,1/2-z
1/2+x,1/2+y,z
1/2-x,1/2-y,1/2+z
1/2+x,1/2-y,-z
1/2-x,1/2+y,1/2-z
loop_
_atom_site_type_symbol
_atom_site_label
_atom_site_fract_x
_atom_site_fract_y
_atom_site_fract_z
Si Si1 0.456765 0.249710 0.039058
Si Si2 0.167931 0.070365 0.672985
Si Si3 0.924572 0.846005 0.207729
Si Si4 0.453601 0.247290 0.531517
Si Si5 0.766522 0.022818 0.286569
Si Si6 0.042864 0.636592 0.783832
Si Si7 0.704332 0.931535 0.407194
O O1 0.450984 0.243256 0.133549
O O2 0.435220 0.500000 0.000000
O O3 0.504379 0.249234 0.018925
O O4 0.435090 0.000000 0.000000
O O5 0.120086 0.075521 0.680924
O O6 0.186296 0.022796 0.762953
O O7 0.179989 0.351712 0.641110
O O8 0.183663 0.846825 0.611625
O O9 0.926457 0.608961 0.272247
O O10 0.943989 0.110025 0.236912
O O11 0.429345 0.500000 0.500000
O O12 0.460757 0.229097 0.625182
O O13 0.428214 0.000000 0.500000
O O14 0.742572 0.827635 0.226142
O O15 0.751529 0.938930 0.375695
O O16 0.000000 0.540795 0.750000
O O17 0.703623 0.000000 0.500000
#
# Coordination Sequence:
#
# PCOD8158327 Si02
#       7
#     8   8   8   8   8   8   8
#     4  10  20  35  51  73 104 139 175 221 288 345
#     4  10  21  36  54  83 121 153 183 230 289 342
#     4  12  24  38  57  84 114 149 190 239 295 351
#     4  10  19  35  55  75  98 131 176 234 288 330
#     4   8  16  32  54  77 109 149 186 217 260 323
#     4  12  23  38  58  81 107 146 201 247 282 349
#     4  10  19  34  57  87 115 151 191 226 269 336
#
# _framework density 19.725883
#
# number of rings (size 3 to 8) (size 9 to 14) (size 15 to 20)
#    0.000    1.714    0.000    6.857    0.000    1.714 
#    0.000    0.000    0.000    2.571    0.000    4.000 
#    0.000    0.000    0.000    0.000    0.000    0.000 
#
# Total GULP energy -346881.976239 kJ/mol
# GULP energy per Si atom -12388.642009 kJ/mol
# Density = 1.968099 g / cm^3
# Si number density = 19.725883 Si / 1000 Ang^3
#
#
#
# Elastic Constant Matrix: (Units=GPa)
#
#
# Indices 1 2 3 4 5 6 
#
# 1 47.2319 17.2160 37.2241 0.0000 0.0000 0.0000
# 2 17.2160 152.2071 20.7414 0.0000 0.0000 0.0000
# 3 37.2241 20.7414 75.2044 0.0000 0.0000 0.0000
# 4 0.0000 0.0000 0.0000 34.4927 0.0000 0.0000
# 5 0.0000 0.0000 0.0000 0.0000 72.8661 0.0000
# 6 0.0000 0.0000 0.0000 0.0000 0.0000 9.7941
#
#
#
# Elastic Compliance Matrix: (Units=1/GPa)
#
#
# Indices 1 2 3 4 5 6 
#
# 1 0.035116 -0.001666 -0.016922 0.000000 0.000000 0.000000
# 2 -0.001666 0.006906 -0.001080 0.000000 0.000000 0.000000
# 3 -0.016922 -0.001080 0.021971 0.000000 0.000000 0.000000
# 4 0.000000 0.000000 0.000000 0.028992 0.000000 0.000000
# 5 0.000000 0.000000 0.000000 0.000000 0.013724 0.000000
# 6 0.000000 0.000000 0.000000 0.000000 0.000000 0.102102
#
#
# Mechanical properties :
#
#
# Convention : Reuss Voigt Hill
#
# Bulk Modulus (GPa) = 40.55714 47.22294 43.89004
# Shear Modulus (GPa) = 19.50353 36.72803 28.11578
#
# Velocity S-wave (km/s) = 3.14782 4.31968 3.77944
# Velocity P-wave (km/s) = 5.81521 6.99078 6.42992
#
# Compressibility (1/GPa) = 0.02465657
#
# Stress axis : x y z
#
# Youngs Moduli (GPa) = 28.47731 144.81005 45.51495
#
# Poissons Ratio (x) = 0.24125 0.77020
# Poissons Ratio (y) = 0.04744 0.04915
# Poissons Ratio (z) = 0.48189 0.15639
#
# Static dielectric constant tensor:
#      x y z
#    x 3.372070 0.000000 0.000000 
#    y 0.000000 -38.295060 0.000000 
#    z 0.000000 0.000000 3.630640 
# 
# 
# High freq. dielectric constant tensor:
#      x y z
#    x 1.717260 0.000000 0.000000 
#    y 0.000000 1.811080 0.000000 
#    z 0.000000 0.000000 1.760250 
# 
# From -- ./inp_files/17956.got.cif
#   From: 2010.03.12/outbox.cif.g09.slc.cpg/sg20_9_cif.got.tgz:17956.got - 2010.04.14 01:38:04.
