data_PCOD8158420
_publ_section_title
;
Structure prediction by ZEFSAII (Michael W. Deem and Ramdas Pophale) SiO2 
 PCOD8158420
Probable space group: C 2 2 21
;
_chemical_formula_sum "Si O2"
_cell_formula_units_Z 48
_cell_length_a 12.667006
_cell_length_b 17.001857
_cell_length_c 11.185413
_cell_angle_alpha 90.000000
_cell_angle_beta 90.000000
_cell_angle_gamma 90.000000
_cell_volume 2408.919901
_symmetry_space_group_name_H-M "C 2 2 21"
_symmetry_group_IT_number 20
_symmetry_cell_setting 'orthorhombic'
loop_
_space_group_symop_operation_xyz
x,y,z
-x,-y,1/2+z
x,-y,-z
-x,y,1/2-z
1/2+x,1/2+y,z
1/2-x,1/2-y,1/2+z
1/2+x,1/2-y,-z
1/2-x,1/2+y,1/2-z
loop_
_atom_site_type_symbol
_atom_site_label
_atom_site_fract_x
_atom_site_fract_y
_atom_site_fract_z
Si Si1 0.416400 0.189468 0.647625
Si Si2 0.749910 0.254365 0.188351
Si Si3 0.796752 0.469154 0.367345
Si Si4 0.907988 0.274737 0.973602
Si Si5 0.390127 0.369912 0.203901
Si Si6 0.376591 0.885655 0.769389
O O1 0.500000 0.200556 0.750000
O O2 0.316120 0.244221 0.684806
O O3 0.380671 0.099705 0.646870
O O4 0.472616 0.212965 0.523440
O O5 0.825671 0.254254 0.075994
O O6 0.677496 0.332868 0.186616
O O7 0.677498 0.177274 0.180405
O O8 0.813717 0.500000 0.500000
O O9 0.675787 0.440289 0.355868
O O10 0.820070 0.531987 0.261326
O O11 0.915502 0.201404 0.885547
O O12 0.865959 0.353528 0.905654
O O13 0.500000 0.406308 0.250000
O O14 0.500000 0.893436 0.750000
#
# Coordination Sequence:
#
# PCOD8158420 Si02
#       6
#     8   8   8   8   8   8
#     4   9  19  35  57  86 117 145 181 231 280 330
#     4   9  19  36  58  86 115 144 187 237 280 331
#     4  11  22  38  56  79 115 150 181 231 292 341
#     4  10  19  36  62  86 109 148 191 231 279 338
#     4  10  22  38  56  79 110 144 188 234 275 329
#     4  11  22  35  57  86 111 147 195 232 284 353
#
# _framework density 19.925943
#
# number of rings (size 3 to 8) (size 9 to 14) (size 15 to 20)
#    0.000    2.000    0.000    4.500    0.000    6.667 
#    0.000   14.167    0.000    0.000    0.000    0.000 
#    0.000    0.000    0.000    0.000    0.000    0.000 
#
# Total GULP energy -297431.712534 kJ/mol
# GULP energy per Si atom -12392.988022 kJ/mol
# Density = 1.988059 g / cm^3
# Si number density = 19.925943 Si / 1000 Ang^3
#
#
#
# Elastic Constant Matrix: (Units=GPa)
#
#
# Indices 1 2 3 4 5 6 
#
# 1 97.5810 29.8822 16.1015 0.0000 0.0000 0.0000
# 2 29.8822 88.2676 23.8495 0.0000 0.0000 0.0000
# 3 16.1015 23.8495 69.3079 0.0000 0.0000 0.0000
# 4 0.0000 0.0000 0.0000 19.7403 0.0000 0.0000
# 5 0.0000 0.0000 0.0000 0.0000 30.2091 0.0000
# 6 0.0000 0.0000 0.0000 0.0000 0.0000 33.1340
#
#
#
# Elastic Compliance Matrix: (Units=1/GPa)
#
#
# Indices 1 2 3 4 5 6 
#
# 1 0.011569 -0.003517 -0.001477 0.000000 0.000000 0.000000
# 2 -0.003517 0.013560 -0.003849 0.000000 0.000000 0.000000
# 3 -0.001477 -0.003849 0.016096 0.000000 0.000000 0.000000
# 4 0.000000 0.000000 0.000000 0.050658 0.000000 0.000000
# 5 0.000000 0.000000 0.000000 0.000000 0.033103 0.000000
# 6 0.000000 0.000000 0.000000 0.000000 0.000000 0.030181
#
#
# Mechanical properties :
#
#
# Convention : Reuss Voigt Hill
#
# Bulk Modulus (GPa) = 42.48530 43.86921 43.17726
# Shear Modulus (GPa) = 27.67039 28.97157 28.32098
#
# Velocity S-wave (km/s) = 3.73052 3.81722 3.77412
# Velocity P-wave (km/s) = 6.31851 6.44144 6.38027
#
# Compressibility (1/GPa) = 0.02353755
#
# Stress axis : x y z
#
# Youngs Moduli (GPa) = 86.43958 73.74680 62.12717
#
# Poissons Ratio (x) = 0.25939 0.09178
# Poissons Ratio (y) = 0.30404 0.23912
# Poissons Ratio (z) = 0.12770 0.28385
#
# Static dielectric constant tensor:
#      x y z
#    x 4.142700 0.000000 0.000000 
#    y 0.000000 3.552820 0.000000 
#    z 0.000000 0.000000 3.846230 
# 
# 
# High freq. dielectric constant tensor:
#      x y z
#    x 1.798510 0.000000 0.000000 
#    y 0.000000 1.755050 0.000000 
#    z 0.000000 0.000000 1.775840 
# 
# From -- ./inp_files/14104.got.cif
#   From: 2010.03.12/outbox.cif.g09.slc.cpg/sg20_8_cif.got.tgz:14104.got - 2010.04.14 01:38:04.
