data_PCOD8158171
_publ_section_title
;
Structure prediction by ZEFSAII (Michael W. Deem and Ramdas Pophale) SiO2 
 PCOD8158171
Probable space group: C 2 2 21
;
_chemical_formula_sum "Si O2"
_cell_formula_units_Z 40
_cell_length_a 12.212560
_cell_length_b 14.766424
_cell_length_c 10.717298
_cell_angle_alpha 90.000000
_cell_angle_beta 90.000000
_cell_angle_gamma 90.000000
_cell_volume 1932.712928
_symmetry_space_group_name_H-M "C 2 2 21"
_symmetry_group_IT_number 20
_symmetry_cell_setting 'orthorhombic'
loop_
_space_group_symop_operation_xyz
x,y,z
-x,-y,1/2+z
x,-y,-z
-x,y,1/2-z
1/2+x,1/2+y,z
1/2-x,1/2-y,1/2+z
1/2+x,1/2-y,-z
1/2-x,1/2+y,1/2-z
loop_
_atom_site_type_symbol
_atom_site_label
_atom_site_fract_x
_atom_site_fract_y
_atom_site_fract_z
Si Si1 0.500000 0.045818 0.250000
Si Si2 0.806014 0.590041 0.083360
Si Si3 0.881664 0.291660 0.121464
Si Si4 0.395820 0.116435 0.625037
Si Si5 0.622898 0.408664 0.715529
Si Si6 0.237221 0.000000 0.500000
O O1 0.407189 0.104239 0.179578
O O2 0.557519 0.984209 0.146451
O O3 0.692694 0.591162 0.157694
O O4 0.819571 0.500000 0.000000
O O5 0.803597 0.676704 0.991222
O O6 0.845485 0.345499 0.246069
O O7 0.871091 0.185956 0.143054
O O8 0.007554 0.315883 0.082631
O O9 0.304502 0.095082 0.520726
O O10 0.500000 0.433757 0.750000
O O11 0.664956 0.486438 0.623126
#
# Coordination Sequence:
#
# PCOD8158171 Si02
#       6
#     4   8   8   8   8   4
#     4  10  18  36  66 108 120 150 226 274 326 368
#     4  12  22  41  72  99 130 175 222 274 329 398
#     4  10  22  40  69  94 138 162 215 284 333 372
#     4  10  18  40  69  97 124 164 215 281 334 358
#     4  12  28  44  61  98 136 188 215 261 335 401
#     4  12  24  42  72  92 130 174 232 272 320 398
#
# _framework density 20.696297000000001
#
# number of rings (size 3 to 8) (size 9 to 14) (size 15 to 20)
#    0.000    1.200    8.000    1.200    4.200    0.000 
#    0.000    0.000    2.200    0.000    0.000    0.000 
#    0.000    0.000    0.000    0.000    0.000    0.000 
#
# Total GULP energy -247933.565989 kJ/mol
# GULP energy per Si atom -12396.678299 kJ/mol
# Density = 2.064919 g / cm^3
# Si number density = 20.696297 Si / 1000 Ang^3
#
#
#
# Elastic Constant Matrix: (Units=GPa)
#
#
# Indices 1 2 3 4 5 6 
#
# 1 98.0403 16.8191 59.4106 0.0000 0.0000 0.0000
# 2 16.8191 57.3654 17.2206 0.0000 0.0000 0.0000
# 3 59.4106 17.2206 98.6486 0.0000 0.0000 0.0000
# 4 0.0000 0.0000 0.0000 21.0500 0.0000 0.0000
# 5 0.0000 0.0000 0.0000 0.0000 28.4390 0.0000
# 6 0.0000 0.0000 0.0000 0.0000 0.0000 17.3820
#
#
#
# Elastic Compliance Matrix: (Units=1/GPa)
#
#
# Indices 1 2 3 4 5 6 
#
# 1 0.016261 -0.001929 -0.009457 0.000000 0.000000 0.000000
# 2 -0.001929 0.018625 -0.002090 0.000000 0.000000 0.000000
# 3 -0.009457 -0.002090 0.016197 0.000000 0.000000 0.000000
# 4 0.000000 0.000000 0.000000 0.047506 0.000000 0.000000
# 5 0.000000 0.000000 0.000000 0.000000 0.035163 0.000000
# 6 0.000000 0.000000 0.000000 0.000000 0.000000 0.057531
#
#
# Mechanical properties :
#
#
# Convention : Reuss Voigt Hill
#
# Bulk Modulus (GPa) = 41.43701 48.99501 45.21601
# Shear Modulus (GPa) = 22.09677 24.08112 23.08895
#
# Velocity S-wave (km/s) = 3.27106 3.41478 3.34369
# Velocity P-wave (km/s) = 5.85930 6.26677 6.06646
#
# Compressibility (1/GPa) = 0.02413302
#
# Stress axis : x y z
#
# Youngs Moduli (GPa) = 61.49571 53.69150 61.74007
#
# Poissons Ratio (x) = 0.10357 0.58385
# Poissons Ratio (y) = 0.11862 0.12901
# Poissons Ratio (z) = 0.58154 0.11219
#
# Static dielectric constant tensor:
#      x y z
#    x 3.919070 0.000000 0.000000 
#    y 0.000000 3.464390 0.000000 
#    z 0.000000 0.000000 3.893260 
# 
# 
# High freq. dielectric constant tensor:
#      x y z
#    x 1.798480 0.000000 0.000000 
#    y 0.000000 1.782370 0.000000 
#    z 0.000000 0.000000 1.819790 
# 
# From -- ./inp_files/13941.got.cif
#   From: 2010.03.12/outbox.cif.g09.slc.cpg/sg20_7_cif.got.tgz:13941.got - 2010.04.14 01:38:04.
