data_PCOD8158351
_publ_section_title
;
Structure prediction by ZEFSAII (Michael W. Deem and Ramdas Pophale) SiO2 
 PCOD8158351
Probable space group: C 2 2 21
;
_chemical_formula_sum "Si O2"
_cell_formula_units_Z 56
_cell_length_a 13.201303
_cell_length_b 22.529586
_cell_length_c 9.409013
_cell_angle_alpha 90.000000
_cell_angle_beta 90.000000
_cell_angle_gamma 90.000000
_cell_volume 2798.427623
_symmetry_space_group_name_H-M "C 2 2 21"
_symmetry_group_IT_number 20
_symmetry_cell_setting 'orthorhombic'
loop_
_space_group_symop_operation_xyz
x,y,z
-x,-y,1/2+z
x,-y,-z
-x,y,1/2-z
1/2+x,1/2+y,z
1/2-x,1/2-y,1/2+z
1/2+x,1/2-y,-z
1/2-x,1/2+y,1/2-z
loop_
_atom_site_type_symbol
_atom_site_label
_atom_site_fract_x
_atom_site_fract_y
_atom_site_fract_z
Si Si1 0.216398 0.479638 0.655992
Si Si2 0.589281 0.874615 0.639093
Si Si3 0.249594 0.698696 0.699135
Si Si4 0.397781 0.909451 0.172506
Si Si5 0.941497 0.047671 0.393201
Si Si6 0.539596 0.342553 0.098341
Si Si7 0.142297 0.243970 0.544393
O O1 0.184489 0.500000 0.500000
O O2 0.183201 0.413178 0.701950
O O3 0.151950 0.530210 0.739954
O O4 0.337392 0.481176 0.664640
O O5 0.500000 0.880993 0.750000
O O6 0.565849 0.907728 0.491346
O O7 0.615442 0.806199 0.618277
O O8 0.191537 0.637144 0.697163
O O9 0.358254 0.694170 0.622467
O O10 0.183695 0.747908 0.615245
O O11 0.266686 0.716640 0.862309
O O12 0.500000 0.891555 0.250000
O O13 0.932441 0.107614 0.483768
O O14 0.000000 0.061505 0.250000
O O15 0.993987 0.000000 0.500000
O O16 0.500000 0.369202 0.250000
O O17 0.455347 0.298155 0.035633
#
# Coordination Sequence:
#
# PCOD8158351 Si02
#       7
#     8   8   8   8   8   8   8
#     4   9  19  37  59  80 110 147 184 231 290 353
#     4  10  19  35  57  82 111 146 186 229 283 342
#     4  10  21  38  58  82 117 156 196 244 299 350
#     4  10  21  37  58  85 110 144 187 234 296 355
#     4  11  22  38  60  85 112 148 192 239 289 348
#     4  10  21  39  59  83 118 158 197 242 294 354
#     4  10  22  36  57  85 116 157 198 241 293 352
#
# _framework density 20.011237999999999
#
# number of rings (size 3 to 8) (size 9 to 14) (size 15 to 20)
#    0.000    2.000    0.000    5.571    0.000    6.857 
#    0.000    3.571    0.000    0.000    0.000    0.000 
#    0.000    0.000    0.000    0.000    0.000    0.000 
#
# Total GULP energy -346899.644739 kJ/mol
# GULP energy per Si atom -12389.273026 kJ/mol
# Density = 1.996569 g / cm^3
# Si number density = 20.011238 Si / 1000 Ang^3
#
#
#
# Elastic Constant Matrix: (Units=GPa)
#
#
# Indices 1 2 3 4 5 6 
#
# 1 100.1668 21.7565 27.9625 0.0000 0.0000 0.0000
# 2 21.7565 68.5925 14.5921 0.0000 0.0000 0.0000
# 3 27.9625 14.5921 45.3463 0.0000 0.0000 0.0000
# 4 0.0000 0.0000 0.0000 14.9275 0.0000 0.0000
# 5 0.0000 0.0000 0.0000 0.0000 28.0830 0.0000
# 6 0.0000 0.0000 0.0000 0.0000 0.0000 27.3964
#
#
#
# Elastic Compliance Matrix: (Units=1/GPa)
#
#
# Indices 1 2 3 4 5 6 
#
# 1 0.012441 -0.002484 -0.006873 0.000000 0.000000 0.000000
# 2 -0.002484 0.016146 -0.003664 0.000000 0.000000 0.000000
# 3 -0.006873 -0.003664 0.027469 0.000000 0.000000 0.000000
# 4 0.000000 0.000000 0.000000 0.066991 0.000000 0.000000
# 5 0.000000 0.000000 0.000000 0.000000 0.035609 0.000000
# 6 0.000000 0.000000 0.000000 0.000000 0.000000 0.036501
#
#
# Mechanical properties :
#
#
# Convention : Reuss Voigt Hill
#
# Bulk Modulus (GPa) = 33.31567 38.08087 35.69827
# Shear Modulus (GPa) = 21.62590 24.06767 22.84679
#
# Velocity S-wave (km/s) = 3.29095 3.47177 3.38257
# Velocity P-wave (km/s) = 5.57898 5.92807 5.75617
#
# Compressibility (1/GPa) = 0.03001591
#
# Stress axis : x y z
#
# Youngs Moduli (GPa) = 80.37640 61.93388 36.40404
#
# Poissons Ratio (x) = 0.15386 0.25019
# Poissons Ratio (y) = 0.19967 0.13338
# Poissons Ratio (z) = 0.55239 0.22692
#
# Static dielectric constant tensor:
#      x y z
#    x 3.685210 0.000000 0.000000 
#    y 0.000000 3.927630 0.000000 
#    z 0.000000 0.000000 3.582410 
# 
# 
# High freq. dielectric constant tensor:
#      x y z
#    x 1.783790 0.000000 0.000000 
#    y 0.000000 1.790070 0.000000 
#    z 0.000000 0.000000 1.761350 
# 
# From -- ./inp_files/8722.got.cif
#   From: 2010.03.12/outbox.cif.g09.slc.cpg/sg20_5_cif.got.tgz:8722.got - 2010.04.14 01:38:04.
