data_PCOD8158217
_publ_section_title
;
Structure prediction by ZEFSAII (Michael W. Deem and Ramdas Pophale) SiO2 
 PCOD8158217
Probable space group: C 2 2 21
;
_chemical_formula_sum "Si O2"
_cell_formula_units_Z 44
_cell_length_a 12.311625
_cell_length_b 18.517626
_cell_length_c 9.892665
_cell_angle_alpha 90.000000
_cell_angle_beta 90.000000
_cell_angle_gamma 90.000000
_cell_volume 2255.350217
_symmetry_space_group_name_H-M "C 2 2 21"
_symmetry_group_IT_number 20
_symmetry_cell_setting 'orthorhombic'
loop_
_space_group_symop_operation_xyz
x,y,z
-x,-y,1/2+z
x,-y,-z
-x,y,1/2-z
1/2+x,1/2+y,z
1/2-x,1/2-y,1/2+z
1/2+x,1/2-y,-z
1/2-x,1/2+y,1/2-z
loop_
_atom_site_type_symbol
_atom_site_label
_atom_site_fract_x
_atom_site_fract_y
_atom_site_fract_z
Si Si1 0.249904 0.097301 0.188925
Si Si2 0.597983 0.023506 0.653160
Si Si3 0.400943 0.500000 0.500000
Si Si4 0.718578 0.836173 0.428497
Si Si5 0.034036 0.142357 0.896781
Si Si6 0.097951 0.806014 0.644861
O O1 0.186862 0.133330 0.313804
O O2 0.344806 0.042717 0.234691
O O3 0.169047 0.050148 0.097454
O O4 0.302615 0.158526 0.090609
O O5 0.500000 0.047456 0.750000
O O6 0.681395 0.090120 0.644871
O O7 0.562819 0.000000 0.500000
O O8 0.473266 0.444815 0.412590
O O9 0.846815 0.824481 0.414336
O O10 0.655028 0.771184 0.359397
O O11 0.000000 0.166396 0.750000
O O12 0.948368 0.177088 0.998694
O O13 0.000000 0.804659 0.750000
#
# Coordination Sequence:
#
# PCOD8158217 Si02
#       6
#     8   8   4   8   8   8
#     4  10  20  43  65  89 125 166 212 261 313 376
#     4  10  20  43  66  91 123 168 209 257 314 369
#     4  10  18  40  66  84 120 158 204 262 314 366
#     4  10  22  42  63  88 132 161 206 261 320 372
#     4  11  25  39  64  93 126 162 209 264 323 371
#     4  12  24  41  65  95 124 172 211 255 324 389
#
# _framework density 19.509166
#
# number of rings (size 3 to 8) (size 9 to 14) (size 15 to 20)
#    0.000    1.455    8.182    0.545    5.091    0.000 
#    9.818    0.000    0.000    0.000    0.000    0.000 
#    0.000    0.000    0.000    0.000    0.000    0.000 
#
# Total GULP energy -272678.845900 kJ/mol
# GULP energy per Si atom -12394.492995 kJ/mol
# Density = 1.946476 g / cm^3
# Si number density = 19.509166 Si / 1000 Ang^3
#
#
#
# Elastic Constant Matrix: (Units=GPa)
#
#
# Indices 1 2 3 4 5 6 
#
# 1 76.5801 26.7342 35.7853 0.0000 0.0000 0.0000
# 2 26.7342 81.8210 32.2013 0.0000 0.0000 0.0000
# 3 35.7853 32.2013 99.3689 0.0000 0.0000 0.0000
# 4 0.0000 0.0000 0.0000 16.2515 0.0000 0.0000
# 5 0.0000 0.0000 0.0000 0.0000 29.5335 0.0000
# 6 0.0000 0.0000 0.0000 0.0000 0.0000 37.3466
#
#
#
# Elastic Compliance Matrix: (Units=1/GPa)
#
#
# Indices 1 2 3 4 5 6 
#
# 1 0.016534 -0.003506 -0.004818 0.000000 0.000000 0.000000
# 2 -0.003506 0.014752 -0.003518 0.000000 0.000000 0.000000
# 3 -0.004818 -0.003518 0.012939 0.000000 0.000000 0.000000
# 4 0.000000 0.000000 0.000000 0.061533 0.000000 0.000000
# 5 0.000000 0.000000 0.000000 0.000000 0.033860 0.000000
# 6 0.000000 0.000000 0.000000 0.000000 0.000000 0.026776
#
#
# Mechanical properties :
#
#
# Convention : Reuss Voigt Hill
#
# Bulk Modulus (GPa) = 48.68490 49.69019 49.18754
# Shear Modulus (GPa) = 25.39061 27.49629 26.44345
#
# Velocity S-wave (km/s) = 3.61150 3.75828 3.68562
# Velocity P-wave (km/s) = 6.51150 6.66020 6.58627
#
# Compressibility (1/GPa) = 0.02054025
#
# Stress axis : x y z
#
# Youngs Moduli (GPa) = 60.48295 67.78820 77.28819
#
# Poissons Ratio (x) = 0.23767 0.37238
# Poissons Ratio (y) = 0.21205 0.27189
# Poissons Ratio (z) = 0.29141 0.23847
#
# Static dielectric constant tensor:
#      x y z
#    x 3.946370 0.000000 0.000000 
#    y 0.000000 3.768730 0.000000 
#    z 0.000000 0.000000 3.552410 
# 
# 
# High freq. dielectric constant tensor:
#      x y z
#    x 1.755040 0.000000 0.000000 
#    y 0.000000 1.762640 0.000000 
#    z 0.000000 0.000000 1.746550 
# 
# From -- ./inp_files/14026.got.cif
#   From: 2010.03.12/outbox.cif.g09.slc.cpg/sg20_8_cif.got.tgz:14026.got - 2010.04.14 01:38:04.
