data_PCOD8158623
_publ_section_title
;
Structure prediction by ZEFSAII (Michael W. Deem and Ramdas Pophale) SiO2 
 PCOD8158623
Probable space group: C 2 2 21
;
_chemical_formula_sum "Si O2"
_cell_formula_units_Z 56
_cell_length_a 12.642126
_cell_length_b 11.980952
_cell_length_c 18.260881
_cell_angle_alpha 90.000000
_cell_angle_beta 90.000000
_cell_angle_gamma 90.000000
_cell_volume 2765.878950
_symmetry_space_group_name_H-M "C 2 2 21"
_symmetry_group_IT_number 20
_symmetry_cell_setting 'orthorhombic'
loop_
_space_group_symop_operation_xyz
x,y,z
-x,-y,1/2+z
x,-y,-z
-x,y,1/2-z
1/2+x,1/2+y,z
1/2-x,1/2-y,1/2+z
1/2+x,1/2-y,-z
1/2-x,1/2+y,1/2-z
loop_
_atom_site_type_symbol
_atom_site_label
_atom_site_fract_x
_atom_site_fract_y
_atom_site_fract_z
Si Si1 0.224749 0.763956 0.382214
Si Si2 0.544545 0.586696 0.560501
Si Si3 0.687129 0.628410 0.989492
Si Si4 0.913423 0.064144 0.192143
Si Si5 0.294501 0.940459 0.273007
Si Si6 0.785393 0.274616 0.149124
Si Si7 0.618123 0.833333 0.756746
O O1 0.301904 0.692524 0.433543
O O2 0.294765 0.861555 0.344695
O O3 0.179422 0.682607 0.319694
O O4 0.129753 0.815409 0.430044
O O5 0.587090 0.500000 0.500000
O O6 0.433342 0.640792 0.537194
O O7 0.529555 0.518704 0.635717
O O8 0.769885 0.682817 0.933076
O O9 0.718410 0.500000 0.000000
O O10 0.867326 0.171933 0.150006
O O11 0.000000 0.105868 0.250000
O O12 0.820696 0.998353 0.234672
O O13 0.327292 0.874068 0.200274
O O14 0.381534 0.037338 0.281375
O O15 0.671181 0.239347 0.180025
O O16 0.500000 0.788018 0.750000
#
# Coordination Sequence:
#
# PCOD8158623 Si02
#       7
#     8   8   8   8   8   8   8
#     4  10  21  38  58  83 114 148 188 235 283 334
#     4  10  21  36  57  82 110 147 189 230 278 333
#     4  11  22  37  57  80 112 149 186 231 279 337
#     4  10  20  35  58  84 111 143 187 235 277 330
#     4   9  20  36  56  83 113 144 183 233 281 330
#     4  10  20  35  56  82 111 145 184 229 279 330
#     4  10  20  37  59  82 110 146 187 229 280 338
#
# _framework density 20.246728999999998
#
# number of rings (size 3 to 8) (size 9 to 14) (size 15 to 20)
#    0.000    2.000    0.000    3.429    0.000   10.286 
#    0.000    2.857    0.000    0.000    0.000    0.000 
#    0.000    0.000    0.000    0.000    0.000    0.000 
#
# Total GULP energy -347263.059694 kJ/mol
# GULP energy per Si atom -12402.252132 kJ/mol
# Density = 2.020065 g / cm^3
# Si number density = 20.246729 Si / 1000 Ang^3
#
#
#
# Elastic Constant Matrix: (Units=GPa)
#
#
# Indices 1 2 3 4 5 6 
#
# 1 67.6264 21.4658 26.1502 0.0000 0.0000 0.0000
# 2 21.4658 99.0257 30.8975 0.0000 0.0000 0.0000
# 3 26.1502 30.8975 88.6518 0.0000 0.0000 0.0000
# 4 0.0000 0.0000 0.0000 38.5068 0.0000 0.0000
# 5 0.0000 0.0000 0.0000 0.0000 32.0259 0.0000
# 6 0.0000 0.0000 0.0000 0.0000 0.0000 20.7568
#
#
#
# Elastic Compliance Matrix: (Units=1/GPa)
#
#
# Indices 1 2 3 4 5 6 
#
# 1 0.017187 -0.002405 -0.004231 0.000000 0.000000 0.000000
# 2 -0.002405 0.011667 -0.003357 0.000000 0.000000 0.000000
# 3 -0.004231 -0.003357 0.013698 0.000000 0.000000 0.000000
# 4 0.000000 0.000000 0.000000 0.025969 0.000000 0.000000
# 5 0.000000 0.000000 0.000000 0.000000 0.031225 0.000000
# 6 0.000000 0.000000 0.000000 0.000000 0.000000 0.048177
#
#
# Mechanical properties :
#
#
# Convention : Reuss Voigt Hill
#
# Bulk Modulus (GPa) = 44.31615 45.81454 45.06534
# Shear Modulus (GPa) = 28.50107 30.04394 29.27250
#
# Velocity S-wave (km/s) = 3.75599 3.85631 3.80648
# Velocity P-wave (km/s) = 6.38322 6.51962 6.45178
#
# Compressibility (1/GPa) = 0.02256514
#
# Stress axis : x y z
#
# Youngs Moduli (GPa) = 58.18409 85.71062 73.00246
#
# Poissons Ratio (x) = 0.20616 0.30890
# Poissons Ratio (y) = 0.13995 0.24505
# Poissons Ratio (z) = 0.24620 0.28771
#
# Static dielectric constant tensor:
#      x y z
#    x 3.383810 0.000000 0.000000 
#    y 0.000000 3.811600 0.000000 
#    z 0.000000 0.000000 3.689890 
# 
# 
# High freq. dielectric constant tensor:
#      x y z
#    x 1.769640 0.000000 0.000000 
#    y 0.000000 1.802390 0.000000 
#    z 0.000000 0.000000 1.791740 
# 
# From -- ./inp_files/27181.got.cif
#   From: 2010.03.12/outbox.cif.g09.slc.cpg/sg20_14_cif.got.tgz:27181.got - 2010.04.14 01:38:04.
