data_PCOD8158852
_publ_section_title
;
Structure prediction by ZEFSAII (Michael W. Deem and Ramdas Pophale) SiO2 
 PCOD8158852
Probable space group: C 2 2 21
;
_chemical_formula_sum "Si O2"
_cell_formula_units_Z 64
_cell_length_a 23.216969
_cell_length_b 7.435905
_cell_length_c 18.203989
_cell_angle_alpha 90.000000
_cell_angle_beta 90.000000
_cell_angle_gamma 90.000000
_cell_volume 3142.721659
_symmetry_space_group_name_H-M "C 2 2 21"
_symmetry_group_IT_number 20
_symmetry_cell_setting 'orthorhombic'
loop_
_space_group_symop_operation_xyz
x,y,z
-x,-y,1/2+z
x,-y,-z
-x,y,1/2-z
1/2+x,1/2+y,z
1/2-x,1/2-y,1/2+z
1/2+x,1/2-y,-z
1/2-x,1/2+y,1/2-z
loop_
_atom_site_type_symbol
_atom_site_label
_atom_site_fract_x
_atom_site_fract_y
_atom_site_fract_z
Si Si1 0.405120 0.496010 0.416141
Si Si2 0.921484 0.221445 0.821143
Si Si3 0.225094 0.983384 0.083043
Si Si4 0.017677 0.485372 0.412532
Si Si5 0.282617 0.125421 0.333816
Si Si6 0.087846 0.630369 0.163695
Si Si7 0.286388 0.272011 0.177057
Si Si8 0.490866 0.353818 0.832560
O O1 0.425691 0.500000 0.500000
O O2 0.339336 0.563178 0.406037
O O3 0.409950 0.291907 0.392868
O O4 0.446023 0.617274 0.366623
O O5 0.942011 0.353602 0.885353
O O6 0.937363 0.303070 0.741700
O O7 0.853865 0.190698 0.827672
O O8 0.953048 0.032944 0.832121
O O9 0.269920 0.100405 0.128896
O O10 0.227105 0.772105 0.102713
O O11 0.245462 0.000000 0.000000
O O12 0.013132 0.500000 0.500000
O O13 0.042409 0.293996 0.383240
O O14 0.954895 0.488113 0.373390
O O15 0.348047 0.050688 0.328219
O O16 0.265895 0.228929 0.259291
O O17 0.243344 0.954291 0.350639
O O18 0.500000 0.280708 0.750000
#
# Coordination Sequence:
#
# PCOD8158852 Si02
#       8
#     8   8   8   8   8   8   8   8
#     4  10  20  38  66  95 129 160 201 270 329 370
#     4  11  24  44  62  91 135 168 209 266 314 382
#     4  10  23  42  65  97 131 165 211 272 327 373
#     4  12  26  42  63  96 130 171 217 266 323 381
#     4  10  22  40  67  98 122 168 216 266 326 377
#     4  10  20  43  63  90 133 157 207 279 315 368
#     4  11  23  42  68  92 130 170 215 264 312 394
#     4  12  23  38  66  95 122 170 214 251 324 392
#
# _framework density 20.364515000000001
#
# number of rings (size 3 to 8) (size 9 to 14) (size 15 to 20)
#    0.000    1.250    3.750    1.875    1.750    2.000 
#    0.000    1.250    0.000    0.000    0.000    0.000 
#    0.000    0.000    0.000    0.000    0.000    0.000 
#
# Total GULP energy -396864.230696 kJ/mol
# GULP energy per Si atom -12402.007209 kJ/mol
# Density = 2.031816 g / cm^3
# Si number density = 20.364515 Si / 1000 Ang^3
#
#
#
# Elastic Constant Matrix: (Units=GPa)
#
#
# Indices 1 2 3 4 5 6 
#
# 1 68.9977 32.0012 38.2055 0.0000 0.0000 0.0000
# 2 32.0012 95.4949 34.5562 0.0000 0.0000 0.0000
# 3 38.2055 34.5562 132.5775 0.0000 0.0000 0.0000
# 4 0.0000 0.0000 0.0000 27.1686 0.0000 0.0000
# 5 0.0000 0.0000 0.0000 0.0000 24.9003 0.0000
# 6 0.0000 0.0000 0.0000 0.0000 0.0000 12.5750
#
#
#
# Elastic Compliance Matrix: (Units=1/GPa)
#
#
# Indices 1 2 3 4 5 6 
#
# 1 0.019095 -0.004867 -0.004234 0.000000 0.000000 0.000000
# 2 -0.004867 0.012803 -0.001935 0.000000 0.000000 0.000000
# 3 -0.004234 -0.001935 0.009267 0.000000 0.000000 0.000000
# 4 0.000000 0.000000 0.000000 0.036807 0.000000 0.000000
# 5 0.000000 0.000000 0.000000 0.000000 0.040160 0.000000
# 6 0.000000 0.000000 0.000000 0.000000 0.000000 0.079523
#
#
# Mechanical properties :
#
#
# Convention : Reuss Voigt Hill
#
# Bulk Modulus (GPa) = 52.37255 56.28844 54.33049
# Shear Modulus (GPa) = 22.11505 25.74927 23.93216
#
# Velocity S-wave (km/s) = 3.29897 3.55972 3.43182
# Velocity P-wave (km/s) = 6.34699 6.67802 6.51461
#
# Compressibility (1/GPa) = 0.01909397
#
# Stress axis : x y z
#
# Youngs Moduli (GPa) = 52.36984 78.10867 107.90765
#
# Poissons Ratio (x) = 0.38013 0.45690
# Poissons Ratio (y) = 0.25487 0.20875
# Poissons Ratio (z) = 0.22174 0.15111
#
# Static dielectric constant tensor:
#      x y z
#    x 3.831480 0.000000 0.000000 
#    y 0.000000 3.667790 0.000000 
#    z 0.000000 0.000000 3.774590 
# 
# 
# High freq. dielectric constant tensor:
#      x y z
#    x 1.791820 0.000000 0.000000 
#    y 0.000000 1.799280 0.000000 
#    z 0.000000 0.000000 1.800320 
# 
# From -- ./inp_files/25532.got.cif
#   From: 2010.03.12/outbox.cif.g09.slc.cpg/sg20_13_cif.got.tgz:25532.got - 2010.04.14 01:38:04.
