data_PCOD8158471
_publ_section_title
;
Structure prediction by ZEFSAII (Michael W. Deem and Ramdas Pophale) SiO2 
 PCOD8158471
Probable space group: C 2 2 21
;
_chemical_formula_sum "Si O2"
_cell_formula_units_Z 56
_cell_length_a 5.192189
_cell_length_b 30.964348
_cell_length_c 16.209690
_cell_angle_alpha 90.000000
_cell_angle_beta 90.000000
_cell_angle_gamma 90.000000
_cell_volume 2606.076391
_symmetry_space_group_name_H-M "C 2 2 21"
_symmetry_group_IT_number 20
_symmetry_cell_setting 'orthorhombic'
loop_
_space_group_symop_operation_xyz
x,y,z
-x,-y,1/2+z
x,-y,-z
-x,y,1/2-z
1/2+x,1/2+y,z
1/2-x,1/2-y,1/2+z
1/2+x,1/2-y,-z
1/2-x,1/2+y,1/2-z
loop_
_atom_site_type_symbol
_atom_site_label
_atom_site_fract_x
_atom_site_fract_y
_atom_site_fract_z
Si Si1 0.580786 0.485451 0.594303
Si Si2 0.453010 0.124360 0.914825
Si Si3 0.580657 0.977178 0.411912
Si Si4 0.954668 0.108203 0.156360
Si Si5 0.442619 0.665549 0.844761
Si Si6 0.971669 0.748754 0.054246
Si Si7 0.961937 0.345459 0.902261
O O1 0.621552 0.500000 0.500000
O O2 0.342008 0.510439 0.637201
O O3 0.550276 0.434061 0.599178
O O4 0.843156 0.501582 0.638502
O O5 0.456599 0.073209 0.922537
O O6 0.676219 0.139101 0.852126
O O7 0.172558 0.138918 0.885995
O O8 0.521141 0.144538 0.002786
O O9 0.623254 0.000000 0.500000
O O10 0.683061 0.132876 0.152946
O O11 0.000000 0.093812 0.250000
O O12 0.180372 0.138775 0.123774
O O13 0.500000 0.673726 0.750000
O O14 0.405124 0.711552 0.887279
O O15 0.974298 0.705930 0.110560
O O16 0.752189 0.744047 0.985031
#
# Coordination Sequence:
#
# PCOD8158471 Si02
#       7
#     8   8   8   8   8   8   8
#     4  10  19  38  61  89 129 172 228 271 331 402
#     4  12  23  43  73  98 132 178 232 284 325 418
#     4  10  20  36  62  95 121 163 229 275 323 380
#     4  12  26  42  63 102 144 180 225 292 350 396
#     4  12  26  45  68 103 143 179 220 286 350 391
#     4  12  23  46  70 104 135 175 233 279 327 413
#     4  12  23  42  73  97 132 179 233 273 338 416
#
# _framework density 21.488240000000001
#
# number of rings (size 3 to 8) (size 9 to 14) (size 15 to 20)
#    0.000    0.571    2.857    7.714    0.000    1.143 
#    0.000    4.286    0.000    0.000    0.000    0.000 
#    0.000    0.000    0.000    0.000    0.000    0.000 
#
# Total GULP energy -347278.840109 kJ/mol
# GULP energy per Si atom -12402.815718 kJ/mol
# Density = 2.143933 g / cm^3
# Si number density = 21.488240 Si / 1000 Ang^3
#
#
#
# Elastic Constant Matrix: (Units=GPa)
#
#
# Indices 1 2 3 4 5 6 
#
# 1 135.4017 23.9360 -5.9609 0.0000 0.0000 0.0000
# 2 23.9360 157.9752 17.8064 0.0000 0.0000 0.0000
# 3 -5.9609 17.8064 53.1597 0.0000 0.0000 0.0000
# 4 0.0000 0.0000 0.0000 15.7364 0.0000 0.0000
# 5 0.0000 0.0000 0.0000 0.0000 39.4462 0.0000
# 6 0.0000 0.0000 0.0000 0.0000 0.0000 42.0062
#
#
#
# Elastic Compliance Matrix: (Units=1/GPa)
#
#
# Indices 1 2 3 4 5 6 
#
# 1 0.007674 -0.001309 0.001299 0.000000 0.000000 0.000000
# 2 -0.001309 0.006802 -0.002425 0.000000 0.000000 0.000000
# 3 0.001299 -0.002425 0.019769 0.000000 0.000000 0.000000
# 4 0.000000 0.000000 0.000000 0.063547 0.000000 0.000000
# 5 0.000000 0.000000 0.000000 0.000000 0.025351 0.000000
# 6 0.000000 0.000000 0.000000 0.000000 0.000000 0.023806
#
#
# Mechanical properties :
#
#
# Convention : Reuss Voigt Hill
#
# Bulk Modulus (GPa) = 34.04307 46.45550 40.24928
# Shear Modulus (GPa) = 30.93850 40.15479 35.54664
#
# Velocity S-wave (km/s) = 3.79857 4.32752 4.07164
# Velocity P-wave (km/s) = 5.92587 6.82905 6.39342
#
# Compressibility (1/GPa) = 0.02937455
#
# Stress axis : x y z
#
# Youngs Moduli (GPa) = 130.30925 147.01944 50.58362
#
# Poissons Ratio (x) = 0.19247 -0.06571
# Poissons Ratio (y) = 0.17060 0.12267
# Poissons Ratio (z) = -0.16928 0.35654
#
# Static dielectric constant tensor:
#      x y z
#    x 5.024800 0.000000 0.000000 
#    y 0.000000 3.943260 0.000000 
#    z 0.000000 0.000000 3.579760 
# 
# 
# High freq. dielectric constant tensor:
#      x y z
#    x 1.878950 0.000000 0.000000 
#    y 0.000000 1.858870 0.000000 
#    z 0.000000 0.000000 1.809110 
# 
# From -- ./inp_files/17958.got.cif
#   From: 2010.03.12/outbox.cif.g09.slc.cpg/sg20_9_cif.got.tgz:17958.got - 2010.04.14 01:38:04.
