data_PCOD8158483
_publ_section_title
;
Structure prediction by ZEFSAII (Michael W. Deem and Ramdas Pophale) SiO2 
 PCOD8158483
Probable space group: C 2 2 21
;
_chemical_formula_sum "Si O2"
_cell_formula_units_Z 52
_cell_length_a 17.434854
_cell_length_b 10.665966
_cell_length_c 15.312840
_cell_angle_alpha 90.000000
_cell_angle_beta 90.000000
_cell_angle_gamma 90.000000
_cell_volume 2847.568988
_symmetry_space_group_name_H-M "C 2 2 21"
_symmetry_group_IT_number 20
_symmetry_cell_setting 'orthorhombic'
loop_
_space_group_symop_operation_xyz
x,y,z
-x,-y,1/2+z
x,-y,-z
-x,y,1/2-z
1/2+x,1/2+y,z
1/2-x,1/2-y,1/2+z
1/2+x,1/2-y,-z
1/2-x,1/2+y,1/2-z
loop_
_atom_site_type_symbol
_atom_site_label
_atom_site_fract_x
_atom_site_fract_y
_atom_site_fract_z
Si Si1 0.500000 0.581077 0.750000
Si Si2 0.484897 0.208115 0.589532
Si Si3 0.424697 0.984543 0.694948
Si Si4 0.616572 0.612214 0.202305
Si Si5 0.209232 0.936621 0.087573
Si Si6 0.933186 0.237405 0.599599
Si Si7 0.854130 0.664775 0.822721
O O1 0.424576 0.494728 0.760454
O O2 0.492145 0.665436 0.663192
O O3 0.438721 0.085346 0.618726
O O4 0.448375 0.328160 0.638646
O O5 0.480900 0.221800 0.485409
O O6 0.573333 0.190136 0.615180
O O7 0.500000 0.954751 0.750000
O O8 0.363125 0.040434 0.762955
O O9 0.396600 0.856825 0.649642
O O10 0.686615 0.549358 0.151433
O O11 0.656529 0.714685 0.262266
O O12 0.135904 0.850147 0.068576
O O13 0.277540 0.850476 0.122205
O O14 0.239500 0.000000 0.000000
#
# Coordination Sequence:
#
# PCOD8158483 Si02
#       7
#     4   8   8   8   8   8   8
#     4  10  20  34  62  84 116 148 208 246 280 366
#     4  10  19  38  66  83 116 161 204 247 289 365
#     4   9  19  36  58  89 112 150 203 240 296 350
#     4  10  19  41  60  85 117 161 208 234 305 368
#     4  11  24  38  57  90 124 158 196 254 316 355
#     4  11  21  36  60  89 118 157 198 256 299 358
#     4  10  22  38  63  85 119 162 198 257 296 369
#
# _framework density 18.261191
#
# number of rings (size 3 to 8) (size 9 to 14) (size 15 to 20)
#    0.000    1.846    3.846    1.385    2.154    2.462 
#    0.000    0.000    0.000    0.000    0.000    0.000 
#    0.000    0.000    0.000    0.000    0.000    0.000 
#
# Total GULP energy -322393.617191 kJ/mol
# GULP energy per Si atom -12399.754507 kJ/mol
# Density = 1.821963 g / cm^3
# Si number density = 18.261191 Si / 1000 Ang^3
#
#
#
# Elastic Constant Matrix: (Units=GPa)
#
#
# Indices 1 2 3 4 5 6 
#
# 1 81.1619 29.2856 47.5436 0.0000 0.0000 0.0000
# 2 29.2856 95.3531 45.3540 0.0000 0.0000 0.0000
# 3 47.5436 45.3540 117.8828 0.0000 0.0000 0.0000
# 4 0.0000 0.0000 0.0000 22.9965 0.0000 0.0000
# 5 0.0000 0.0000 0.0000 0.0000 24.5669 0.0000
# 6 0.0000 0.0000 0.0000 0.0000 0.0000 26.5980
#
#
#
# Elastic Compliance Matrix: (Units=1/GPa)
#
#
# Indices 1 2 3 4 5 6 
#
# 1 0.016547 -0.002335 -0.005775 0.000000 0.000000 0.000000
# 2 -0.002335 0.013166 -0.004124 0.000000 0.000000 0.000000
# 3 -0.005775 -0.004124 0.012399 0.000000 0.000000 0.000000
# 4 0.000000 0.000000 0.000000 0.043485 0.000000 0.000000
# 5 0.000000 0.000000 0.000000 0.000000 0.040705 0.000000
# 6 0.000000 0.000000 0.000000 0.000000 0.000000 0.037597
#
#
# Mechanical properties :
#
#
# Convention : Reuss Voigt Hill
#
# Bulk Modulus (GPa) = 56.67779 59.86269 58.27024
# Shear Modulus (GPa) = 25.74046 26.31326 26.02686
#
# Velocity S-wave (km/s) = 3.75850 3.80009 3.77935
# Velocity P-wave (km/s) = 7.06681 7.21850 7.14306
#
# Compressibility (1/GPa) = 0.01764360
#
# Stress axis : x y z
#
# Youngs Moduli (GPa) = 60.43547 75.95392 80.65376
#
# Poissons Ratio (x) = 0.17736 0.46578
# Poissons Ratio (y) = 0.14112 0.33259
# Poissons Ratio (z) = 0.34902 0.31321
#
# Static dielectric constant tensor:
#      x y z
#    x 3.020980 0.000000 0.000000 
#    y 0.000000 3.585180 0.000000 
#    z 0.000000 0.000000 3.342160 
# 
# 
# High freq. dielectric constant tensor:
#      x y z
#    x 1.680430 0.000000 0.000000 
#    y 0.000000 1.724670 0.000000 
#    z 0.000000 0.000000 1.708380 
# 
# From -- ./inp_files/21402.got.cif
#   From: 2010.03.12/outbox.cif.g09.slc.cpg/sg20_11_cif.got.tgz:21402.got - 2010.04.14 01:38:04.
