data_PCOD8158503
_publ_section_title
;
Structure prediction by ZEFSAII (Michael W. Deem and Ramdas Pophale) SiO2 
 PCOD8158503
Probable space group: C 2 2 21
;
_chemical_formula_sum "Si O2"
_cell_formula_units_Z 52
_cell_length_a 15.967371
_cell_length_b 19.467997
_cell_length_c 8.211454
_cell_angle_alpha 90.000000
_cell_angle_beta 90.000000
_cell_angle_gamma 90.000000
_cell_volume 2552.552899
_symmetry_space_group_name_H-M "C 2 2 21"
_symmetry_group_IT_number 20
_symmetry_cell_setting 'orthorhombic'
loop_
_space_group_symop_operation_xyz
x,y,z
-x,-y,1/2+z
x,-y,-z
-x,y,1/2-z
1/2+x,1/2+y,z
1/2-x,1/2-y,1/2+z
1/2+x,1/2-y,-z
1/2-x,1/2+y,1/2-z
loop_
_atom_site_type_symbol
_atom_site_label
_atom_site_fract_x
_atom_site_fract_y
_atom_site_fract_z
Si Si1 0.091544 0.885243 0.236216
Si Si2 0.000000 0.400851 0.250000
Si Si3 0.733178 0.090582 0.335320
Si Si4 0.776152 0.790851 0.436677
Si Si5 0.777808 0.078987 0.980370
Si Si6 0.406104 0.000000 0.000000
Si Si7 0.132307 0.000000 0.000000
Si Si8 0.337322 0.821988 0.333737
O O1 0.149499 0.828715 0.155690
O O2 0.127953 0.905336 0.415946
O O3 0.078675 0.951781 0.119489
O O4 0.000000 0.852023 0.250000
O O5 0.036067 0.449152 0.393110
O O6 0.067636 0.346805 0.179771
O O7 0.733017 0.162750 0.426128
O O8 0.812494 0.045127 0.379949
O O9 0.649444 0.047012 0.377831
O O10 0.747517 0.112646 0.148647
O O11 0.697303 0.776163 0.316815
O O12 0.818348 0.721843 0.504396
O O13 0.716926 0.107579 0.838525
O O14 0.760711 0.000000 0.000000
#
# Coordination Sequence:
#
# PCOD8158503 Si02
#       8
#     8   4   8   8   8   4   4   8
#     4  10  22  38  59  95 133 163 219 279 333 388
#     4  12  26  44  68 108 144 172 226 296 356 408
#     4  10  19  39  64  92 125 179 220 269 332 407
#     4  10  22  46  65  89 128 178 226 269 327 413
#     4  11  21  37  66  94 123 174 222 263 333 409
#     4  11  24  42  68 103 150 172 228 297 350 410
#     4   9  18  32  58  85 126 164 214 269 318 390
#     4  11  24  45  67  96 131 178 230 275 335 414
#
# _framework density 20.371762
#
# number of rings (size 3 to 8) (size 9 to 14) (size 15 to 20)
#    0.000    1.538    3.077    1.846    4.308    0.000 
#    8.308    1.538    0.000    0.000    0.000    0.000 
#    0.000    0.000    0.000    0.000    0.000    0.000 
#
# Total GULP energy -322199.509849 kJ/mol
# GULP energy per Si atom -12392.288840 kJ/mol
# Density = 2.032540 g / cm^3
# Si number density = 20.371762 Si / 1000 Ang^3
#
#
#
# Elastic Constant Matrix: (Units=GPa)
#
#
# Indices 1 2 3 4 5 6 
#
# 1 133.8585 45.0629 56.7155 0.0000 0.0000 0.0000
# 2 45.0629 95.0462 34.8779 0.0000 0.0000 0.0000
# 3 56.7155 34.8779 116.7673 0.0000 0.0000 0.0000
# 4 0.0000 0.0000 0.0000 30.8539 0.0000 0.0000
# 5 0.0000 0.0000 0.0000 0.0000 26.0117 0.0000
# 6 0.0000 0.0000 0.0000 0.0000 0.0000 23.6367
#
#
#
# Elastic Compliance Matrix: (Units=1/GPa)
#
#
# Indices 1 2 3 4 5 6 
#
# 1 0.010313 -0.003427 -0.003985 0.000000 0.000000 0.000000
# 2 -0.003427 0.012955 -0.002205 0.000000 0.000000 0.000000
# 3 -0.003985 -0.002205 0.011159 0.000000 0.000000 0.000000
# 4 0.000000 0.000000 0.000000 0.032411 0.000000 0.000000
# 5 0.000000 0.000000 0.000000 0.000000 0.038444 0.000000
# 6 0.000000 0.000000 0.000000 0.000000 0.000000 0.042307
#
#
# Mechanical properties :
#
#
# Convention : Reuss Voigt Hill
#
# Bulk Modulus (GPa) = 65.82683 68.77607 67.30145
# Shear Modulus (GPa) = 29.08876 30.03485 29.56181
#
# Velocity S-wave (km/s) = 3.78285 3.84388 3.81349
# Velocity P-wave (km/s) = 7.17376 7.31671 7.24559
#
# Compressibility (1/GPa) = 0.01519137
#
# Stress axis : x y z
#
# Youngs Moduli (GPa) = 96.96596 77.18920 89.61777
#
# Poissons Ratio (x) = 0.26453 0.35717
# Poissons Ratio (y) = 0.33230 0.19762
# Poissons Ratio (z) = 0.38646 0.17021
#
# Static dielectric constant tensor:
#      x y z
#    x 3.550730 0.000000 0.000000 
#    y 0.000000 3.687040 0.000000 
#    z 0.000000 0.000000 4.430200 
# 
# 
# High freq. dielectric constant tensor:
#      x y z
#    x 1.779080 0.000000 0.000000 
#    y 0.000000 1.799270 0.000000 
#    z 0.000000 0.000000 1.806670 
# 
# From -- ./inp_files/8686.got.cif
#   From: 2010.03.12/outbox.cif.g09.slc.cpg/sg20_5_cif.got.tgz:8686.got - 2010.04.14 01:38:04.
