data_PCOD8158212
_publ_section_title
;
Structure prediction by ZEFSAII (Michael W. Deem and Ramdas Pophale) SiO2 
 PCOD8158212
Probable space group: C 2 2 21
;
_chemical_formula_sum "Si O2"
_cell_formula_units_Z 48
_cell_length_a 28.668000
_cell_length_b 9.389788
_cell_length_c 8.218790
_cell_angle_alpha 90.000000
_cell_angle_beta 90.000000
_cell_angle_gamma 90.000000
_cell_volume 2212.386841
_symmetry_space_group_name_H-M "C 2 2 21"
_symmetry_group_IT_number 20
_symmetry_cell_setting 'orthorhombic'
loop_
_space_group_symop_operation_xyz
x,y,z
-x,-y,1/2+z
x,-y,-z
-x,y,1/2-z
1/2+x,1/2+y,z
1/2-x,1/2-y,1/2+z
1/2+x,1/2-y,-z
1/2-x,1/2+y,1/2-z
loop_
_atom_site_type_symbol
_atom_site_label
_atom_site_fract_x
_atom_site_fract_y
_atom_site_fract_z
Si Si1 0.022241 0.284516 0.070669
Si Si2 0.061889 0.000000 0.000000
Si Si3 0.951309 0.500000 0.000000
Si Si4 0.106613 0.623018 0.763360
Si Si5 0.795732 0.577272 0.840533
Si Si6 0.385120 0.435688 0.827826
Si Si7 0.221349 0.089727 0.345797
O O1 0.026669 0.130951 0.992515
O O2 0.075255 0.353431 0.074461
O O3 0.000000 0.278039 0.250000
O O4 0.986177 0.369808 0.960359
O O5 0.091895 0.997402 0.166297
O O6 0.919053 0.503797 0.841980
O O7 0.161266 0.584041 0.791086
O O8 0.104143 0.768824 0.658927
O O9 0.775697 0.738076 0.869184
O O10 0.755509 0.465549 0.794446
O O11 0.817050 0.500000 0.000000
O O12 0.330318 0.461865 0.803107
O O13 0.402766 0.500000 0.000000
O O14 0.239283 0.000000 0.500000
#
# Coordination Sequence:
#
# PCOD8158212 Si02
#       7
#     8   4   4   8   8   8   8
#     4   9  20  40  60  89 127 159 214 267 314 383
#     4  10  20  42  65  94 124 172 205 266 320 374
#     4  10  18  40  59  84 124 164 199 272 316 368
#     4   9  19  39  62  84 126 163 208 263 313 381
#     4  11  21  38  66  88 124 170 211 256 321 385
#     4   9  20  40  65  94 130 164 214 260 310 385
#     4  10  22  40  59  95 129 165 209 264 313 378
#
# _framework density 21.696024999999999
#
# number of rings (size 3 to 8) (size 9 to 14) (size 15 to 20)
#    0.000    2.333    0.833    1.000    1.167    0.000 
#   27.000    0.000    0.000    0.000    0.000    0.000 
#    0.000    0.000    0.000    0.000    0.000    0.000 
#
# Total GULP energy -297328.225778 kJ/mol
# GULP energy per Si atom -12388.676074 kJ/mol
# Density = 2.164664 g / cm^3
# Si number density = 21.696025 Si / 1000 Ang^3
#
#
#
# Elastic Constant Matrix: (Units=GPa)
#
#
# Indices 1 2 3 4 5 6 
#
# 1 106.3492 50.3654 25.9118 0.0000 0.0000 0.0000
# 2 50.3654 125.3205 30.9051 0.0000 0.0000 0.0000
# 3 25.9118 30.9051 68.6685 0.0000 0.0000 0.0000
# 4 0.0000 0.0000 0.0000 35.1129 0.0000 0.0000
# 5 0.0000 0.0000 0.0000 0.0000 14.1657 0.0000
# 6 0.0000 0.0000 0.0000 0.0000 0.0000 41.2166
#
#
#
# Elastic Compliance Matrix: (Units=1/GPa)
#
#
# Indices 1 2 3 4 5 6 
#
# 1 0.012030 -0.004179 -0.002659 0.000000 0.000000 0.000000
# 2 -0.004179 0.010428 -0.003116 0.000000 0.000000 0.000000
# 3 -0.002659 -0.003116 0.016968 0.000000 0.000000 0.000000
# 4 0.000000 0.000000 0.000000 0.028480 0.000000 0.000000
# 5 0.000000 0.000000 0.000000 0.000000 0.070593 0.000000
# 6 0.000000 0.000000 0.000000 0.000000 0.000000 0.024262
#
#
# Mechanical properties :
#
#
# Convention : Reuss Voigt Hill
#
# Bulk Modulus (GPa) = 51.23403 57.18920 54.21162
# Shear Modulus (GPa) = 26.43068 30.97610 28.70339
#
# Velocity S-wave (km/s) = 3.49410 3.78263 3.64122
# Velocity P-wave (km/s) = 6.32013 6.74494 6.53599
#
# Compressibility (1/GPa) = 0.01951828
#
# Stress axis : x y z
#
# Youngs Moduli (GPa) = 83.12611 95.89982 58.93324
#
# Poissons Ratio (x) = 0.40078 0.15668
# Poissons Ratio (y) = 0.34739 0.18364
# Poissons Ratio (z) = 0.22100 0.29883
#
# Static dielectric constant tensor:
#      x y z
#    x 4.227430 0.000000 0.000000 
#    y 0.000000 3.994050 0.000000 
#    z 0.000000 0.000000 3.537790 
# 
# 
# High freq. dielectric constant tensor:
#      x y z
#    x 1.870400 0.000000 0.000000 
#    y 0.000000 1.855380 0.000000 
#    z 0.000000 0.000000 1.820410 
# 
# From -- ./inp_files/11482.got.cif
#   From: 2010.03.12/outbox.cif.g09.slc.cpg/sg20_6_cif.got.tgz:11482.got - 2010.04.14 01:38:04.
