data_PCOD8158718
_publ_section_title
;
Structure prediction by ZEFSAII (Michael W. Deem and Ramdas Pophale) SiO2 
 PCOD8158718
Probable space group: C 2 2 21
;
_chemical_formula_sum "Si O2"
_cell_formula_units_Z 60
_cell_length_a 12.537934
_cell_length_b 13.390326
_cell_length_c 17.402341
_cell_angle_alpha 90.000000
_cell_angle_beta 90.000000
_cell_angle_gamma 90.000000
_cell_volume 2921.627235
_symmetry_space_group_name_H-M "C 2 2 21"
_symmetry_group_IT_number 20
_symmetry_cell_setting 'orthorhombic'
loop_
_space_group_symop_operation_xyz
x,y,z
-x,-y,1/2+z
x,-y,-z
-x,y,1/2-z
1/2+x,1/2+y,z
1/2-x,1/2-y,1/2+z
1/2+x,1/2-y,-z
1/2-x,1/2+y,1/2-z
loop_
_atom_site_type_symbol
_atom_site_label
_atom_site_fract_x
_atom_site_fract_y
_atom_site_fract_z
Si Si1 0.451220 0.302975 0.007030
Si Si2 0.031930 0.899072 0.867210
Si Si3 0.247209 0.877227 0.799887
Si Si4 0.371046 0.604579 0.589757
Si Si5 0.125433 0.184997 0.747692
Si Si6 0.189142 0.000000 0.500000
Si Si7 0.321147 0.102588 0.027866
Si Si8 0.687568 0.501569 0.334200
O O1 0.538428 0.312759 0.073789
O O2 0.376960 0.399583 0.011387
O O3 0.395617 0.197539 0.018149
O O4 0.510058 0.306957 0.924665
O O5 0.119292 0.858622 0.806526
O O6 0.921411 0.933649 0.829177
O O7 0.083159 0.992268 0.914326
O O8 0.307465 0.783016 0.766796
O O9 0.291059 0.911902 0.882587
O O10 0.264991 0.961761 0.734207
O O11 0.331563 0.629823 0.675626
O O12 0.280588 0.618455 0.526151
O O13 0.000000 0.208551 0.750000
O O14 0.152201 0.112720 0.676634
O O15 0.249171 0.987796 0.582542
O O16 0.379119 0.000000 0.000000
#
# Coordination Sequence:
#
# PCOD8158718 Si02
#       8
#     8   8   8   8   8   4   8   8
#     4  11  21  38  71  98 124 168 221 279 325 388
#     4  11  20  40  68  97 125 162 226 282 323 388
#     4  12  24  38  65  97 129 169 222 267 334 402
#     4  12  20  42  68  96 123 172 220 271 331 399
#     4  12  23  40  64  93 128 170 215 267 329 395
#     4  10  20  36  64  98 120 154 220 280 328 366
#     4  12  24  40  65  96 134 176 221 262 337 427
#     4  11  21  39  64  93 128 166 213 282 325 376
#
# _framework density 20.5365
#
# number of rings (size 3 to 8) (size 9 to 14) (size 15 to 20)
#    0.000    0.533    8.000    2.000    3.733    0.000 
#    0.000    0.000    7.333    0.000    0.000    0.000 
#    0.000    0.000    0.000    0.000    0.000    0.000 
#
# Total GULP energy -371697.541894 kJ/mol
# GULP energy per Si atom -12389.918063 kJ/mol
# Density = 2.048976 g / cm^3
# Si number density = 20.536500 Si / 1000 Ang^3
#
#
#
# Elastic Constant Matrix: (Units=GPa)
#
#
# Indices 1 2 3 4 5 6 
#
# 1 53.7140 51.2117 35.9814 0.0000 0.0000 0.0000
# 2 51.2117 127.8468 47.3680 0.0000 0.0000 0.0000
# 3 35.9814 47.3680 145.4570 0.0000 0.0000 0.0000
# 4 0.0000 0.0000 0.0000 30.2955 0.0000 0.0000
# 5 0.0000 0.0000 0.0000 0.0000 22.2084 0.0000
# 6 0.0000 0.0000 0.0000 0.0000 0.0000 33.9395
#
#
#
# Elastic Compliance Matrix: (Units=1/GPa)
#
#
# Indices 1 2 3 4 5 6 
#
# 1 0.032322 -0.011355 -0.004298 0.000000 0.000000 0.000000
# 2 -0.011355 0.012884 -0.001387 0.000000 0.000000 0.000000
# 3 -0.004298 -0.001387 0.008390 0.000000 0.000000 0.000000
# 4 0.000000 0.000000 0.000000 0.033008 0.000000 0.000000
# 5 0.000000 0.000000 0.000000 0.000000 0.045028 0.000000
# 6 0.000000 0.000000 0.000000 0.000000 0.000000 0.029464
#
#
# Mechanical properties :
#
#
# Convention : Reuss Voigt Hill
#
# Bulk Modulus (GPa) = 51.23802 66.23781 58.73791
# Shear Modulus (GPa) = 24.79165 30.11911 27.45538
#
# Velocity S-wave (km/s) = 3.47825 3.83379 3.66034
# Velocity P-wave (km/s) = 6.41364 7.20562 6.82114
#
# Compressibility (1/GPa) = 0.01951676
#
# Stress axis : x y z
#
# Youngs Moduli (GPa) = 30.93874 77.61475 119.19476
#
# Poissons Ratio (x) = 0.88131 0.51226
# Poissons Ratio (y) = 0.35131 0.16531
# Poissons Ratio (z) = 0.13297 0.10764
#
# Static dielectric constant tensor:
#      x y z
#    x 3.498620 0.000000 0.000000 
#    y 0.000000 3.581570 0.000000 
#    z 0.000000 0.000000 4.305500 
# 
# 
# High freq. dielectric constant tensor:
#      x y z
#    x 1.756330 0.000000 0.000000 
#    y 0.000000 1.786750 0.000000 
#    z 0.000000 0.000000 1.839800 
# 
# From -- ./inp_files/24962.got.cif
#   From: 2010.03.12/outbox.cif.g09.slc.cpg/sg20_13_cif.got.tgz:24962.got - 2010.04.14 01:38:04.
