data_PCOD8158337
_publ_section_title
;
Structure prediction by ZEFSAII (Michael W. Deem and Ramdas Pophale) SiO2 
 PCOD8158337
Probable space group: C 2 2 21
;
_chemical_formula_sum "Si O2"
_cell_formula_units_Z 56
_cell_length_a 12.172494
_cell_length_b 20.626398
_cell_length_c 10.000815
_cell_angle_alpha 90.000000
_cell_angle_beta 90.000000
_cell_angle_gamma 90.000000
_cell_volume 2510.951685
_symmetry_space_group_name_H-M "C 2 2 21"
_symmetry_group_IT_number 20
_symmetry_cell_setting 'orthorhombic'
loop_
_space_group_symop_operation_xyz
x,y,z
-x,-y,1/2+z
x,-y,-z
-x,y,1/2-z
1/2+x,1/2+y,z
1/2-x,1/2-y,1/2+z
1/2+x,1/2-y,-z
1/2-x,1/2+y,1/2-z
loop_
_atom_site_type_symbol
_atom_site_label
_atom_site_fract_x
_atom_site_fract_y
_atom_site_fract_z
Si Si1 0.368622 0.616494 0.974007
Si Si2 0.652794 0.092136 0.843273
Si Si3 0.252803 0.633999 0.395397
Si Si4 0.217431 0.978037 0.695611
Si Si5 0.906422 0.061614 0.593222
Si Si6 0.928081 0.352769 0.091051
Si Si7 0.610583 0.712499 0.302740
O O1 0.350287 0.557863 0.079986
O O2 0.370722 0.684260 0.051027
O O3 0.265811 0.629062 0.877035
O O4 0.478260 0.600175 0.889748
O O5 0.626870 0.093002 0.685081
O O6 0.554845 0.125156 0.930641
O O7 0.678136 0.015567 0.870322
O O8 0.237015 0.572177 0.302057
O O9 0.327287 0.614802 0.522646
O O10 0.131925 0.653214 0.448934
O O11 0.296964 0.694776 0.307889
O O12 0.139827 0.033660 0.765095
O O13 0.923892 0.000000 0.500000
O O14 0.909627 0.288658 0.181010
O O15 0.500000 0.678105 0.250000
#
# Coordination Sequence:
#
# PCOD8158337 Si02
#       7
#     8   8   8   8   8   8   8
#     4  11  24  40  64 101 129 174 218 269 340 394
#     4  11  23  42  62  93 134 175 213 270 322 393
#     4  10  22  42  67  95 125 174 213 271 335 390
#     4  10  22  42  62 101 133 171 215 269 343 399
#     4  10  19  34  61  93 130 159 203 269 324 393
#     4  11  25  44  64  94 130 176 229 265 323 397
#     4  11  22  42  70  92 128 171 218 276 332 389
#
# _framework density 22.302301
#
# number of rings (size 3 to 8) (size 9 to 14) (size 15 to 20)
#    0.000    1.429    4.286    1.286    2.000    2.857 
#   10.286    2.143    0.000    1.714    0.000    0.000 
#    0.000    0.000    0.000    0.000    0.000    0.000 
#
# Total GULP energy -346872.804170 kJ/mol
# GULP energy per Si atom -12388.314435 kJ/mol
# Density = 2.225154 g / cm^3
# Si number density = 22.302301 Si / 1000 Ang^3
#
#
#
# Elastic Constant Matrix: (Units=GPa)
#
#
# Indices 1 2 3 4 5 6 
#
# 1 146.7362 40.3945 30.6504 0.0000 0.0000 0.0000
# 2 40.3945 73.3993 11.3841 0.0000 0.0000 0.0000
# 3 30.6504 11.3841 31.1905 0.0000 0.0000 0.0000
# 4 0.0000 0.0000 0.0000 28.7419 0.0000 0.0000
# 5 0.0000 0.0000 0.0000 0.0000 42.2503 0.0000
# 6 0.0000 0.0000 0.0000 0.0000 0.0000 28.4429
#
#
#
# Elastic Compliance Matrix: (Units=1/GPa)
#
#
# Indices 1 2 3 4 5 6 
#
# 1 0.009588 -0.004044 -0.007946 0.000000 0.000000 0.000000
# 2 -0.004044 0.016148 -0.001919 0.000000 0.000000 0.000000
# 3 -0.007946 -0.001919 0.040570 0.000000 0.000000 0.000000
# 4 0.000000 0.000000 0.000000 0.034792 0.000000 0.000000
# 5 0.000000 0.000000 0.000000 0.000000 0.023668 0.000000
# 6 0.000000 0.000000 0.000000 0.000000 0.000000 0.035158
#
#
# Mechanical properties :
#
#
# Convention : Reuss Voigt Hill
#
# Bulk Modulus (GPa) = 25.98327 46.24267 36.11297
# Shear Modulus (GPa) = 24.92867 31.14683 28.03775
#
# Velocity S-wave (km/s) = 3.34692 3.74113 3.54950
# Velocity P-wave (km/s) = 5.15865 6.28020 5.74685
#
# Compressibility (1/GPa) = 0.03848630
#
# Stress axis : x y z
#
# Youngs Moduli (GPa) = 104.29675 61.92903 24.64885
#
# Poissons Ratio (x) = 0.25046 0.19586
# Poissons Ratio (y) = 0.42180 0.04731
# Poissons Ratio (z) = 0.82873 0.11887
#
# Static dielectric constant tensor:
#      x y z
#    x 4.085490 0.000000 0.000000 
#    y 0.000000 3.838420 0.000000 
#    z 0.000000 0.000000 4.125440 
# 
# 
# High freq. dielectric constant tensor:
#      x y z
#    x 1.874430 0.000000 0.000000 
#    y 0.000000 1.866040 0.000000 
#    z 0.000000 0.000000 1.880150 
# 
# From -- ./inp_files/14316.got.cif
#   From: 2010.03.12/outbox.cif.g09.slc.cpg/sg20_8_cif.got.tgz:14316.got - 2010.04.14 01:38:04.
