data_PCOD8158559
_publ_section_title
;
Structure prediction by ZEFSAII (Michael W. Deem and Ramdas Pophale) SiO2 
 PCOD8158559
Probable space group: C 2 2 21
;
_chemical_formula_sum "Si O2"
_cell_formula_units_Z 40
_cell_length_a 23.990659
_cell_length_b 17.602550
_cell_length_c 5.174100
_cell_angle_alpha 90.000000
_cell_angle_beta 90.000000
_cell_angle_gamma 90.000000
_cell_volume 2185.005741
_symmetry_space_group_name_H-M "C 2 2 21"
_symmetry_group_IT_number 20
_symmetry_cell_setting 'orthorhombic'
loop_
_space_group_symop_operation_xyz
x,y,z
-x,-y,1/2+z
x,-y,-z
-x,y,1/2-z
1/2+x,1/2+y,z
1/2-x,1/2-y,1/2+z
1/2+x,1/2-y,-z
1/2-x,1/2+y,1/2-z
loop_
_atom_site_type_symbol
_atom_site_label
_atom_site_fract_x
_atom_site_fract_y
_atom_site_fract_z
Si Si1 0.052850 0.000000 0.000000
Si Si2 0.766745 0.543081 0.246973
Si Si3 0.620791 0.326675 0.246618
Si Si4 0.642093 0.578240 0.261715
Si Si5 0.500000 0.366222 0.250000
Si Si6 0.718410 0.780002 0.722388
O O1 0.094185 0.987179 0.753765
O O2 0.014627 0.074877 0.980991
O O3 0.789182 0.500000 0.500000
O O4 0.700325 0.536511 0.224966
O O5 0.785342 0.630239 0.256239
O O6 0.793043 0.500000 0.000000
O O7 0.644851 0.382787 0.461214
O O8 0.554289 0.313922 0.302679
O O9 0.654348 0.248170 0.268127
O O10 0.630609 0.360229 0.962411
O O11 0.745952 0.759026 0.448903
#
# Coordination Sequence:
#
# PCOD8158559 Si02
#       6
#     4   8   8   8   4   8
#     4  10  20  32  50  78 116 150 180 220 266 318
#     4  12  23  35  55  86 113 145 189 236 289 332
#     4  11  22  38  54  77 106 148 192 226 263 324
#     4  11  21  33  55  77 111 149 185 218 264 325
#     4  10  22  34  52  78 110 150 188 222 262 330
#     4  12  22  39  59  81 110 152 192 235 283 335
#
# _framework density 18.306588999999999
#
# number of rings (size 3 to 8) (size 9 to 14) (size 15 to 20)
#    0.000    0.800    5.000    3.600    2.800    2.400 
#    0.000    0.000    0.000    0.000    0.000    1.400 
#    0.000    0.000    0.000    0.000    0.000    0.000 
#
# Total GULP energy -247856.962058 kJ/mol
# GULP energy per Si atom -12392.848103 kJ/mol
# Density = 1.826492 g / cm^3
# Si number density = 18.306589 Si / 1000 Ang^3
#
#
#
# Elastic Constant Matrix: (Units=GPa)
#
#
# Indices 1 2 3 4 5 6 
#
# 1 101.6935 45.6081 18.3808 0.0000 0.0000 0.0000
# 2 45.6081 116.3599 37.0202 0.0000 0.0000 0.0000
# 3 18.3808 37.0202 90.9841 0.0000 0.0000 0.0000
# 4 0.0000 0.0000 0.0000 27.5646 0.0000 0.0000
# 5 0.0000 0.0000 0.0000 0.0000 15.5951 0.0000
# 6 0.0000 0.0000 0.0000 0.0000 0.0000 17.9256
#
#
#
# Elastic Compliance Matrix: (Units=1/GPa)
#
#
# Indices 1 2 3 4 5 6 
#
# 1 0.011958 -0.004501 -0.000584 0.000000 0.000000 0.000000
# 2 -0.004501 0.011566 -0.003797 0.000000 0.000000 0.000000
# 3 -0.000584 -0.003797 0.012654 0.000000 0.000000 0.000000
# 4 0.000000 0.000000 0.000000 0.036278 0.000000 0.000000
# 5 0.000000 0.000000 0.000000 0.000000 0.064123 0.000000
# 6 0.000000 0.000000 0.000000 0.000000 0.000000 0.055786
#
#
# Mechanical properties :
#
#
# Convention : Reuss Voigt Hill
#
# Bulk Modulus (GPa) = 54.30811 56.78397 55.54604
# Shear Modulus (GPa) = 23.11957 26.08563 24.60260
#
# Velocity S-wave (km/s) = 3.55760 3.77892 3.66993
# Velocity P-wave (km/s) = 6.82683 7.07997 6.95455
#
# Compressibility (1/GPa) = 0.01841346
#
# Stress axis : x y z
#
# Youngs Moduli (GPa) = 83.62794 86.45879 79.02727
#
# Poissons Ratio (x) = 0.38915 0.04618
# Poissons Ratio (y) = 0.37641 0.30005
# Poissons Ratio (z) = 0.04887 0.32827
#
# Static dielectric constant tensor:
#      x y z
#    x 3.563860 0.000000 0.000000 
#    y 0.000000 3.359470 0.000000 
#    z 0.000000 0.000000 3.779220 
# 
# 
# High freq. dielectric constant tensor:
#      x y z
#    x 1.687080 0.000000 0.000000 
#    y 0.000000 1.678680 0.000000 
#    z 0.000000 0.000000 1.735760 
# 
# From -- ./inp_files/4186.got.cif
#   From: 2010.03.12/outbox.cif.g09.slc.cpg/sg20_3_cif.got.tgz:4186.got - 2010.04.14 01:38:04.
