data_PCOD8158626
_publ_section_title
;
Structure prediction by ZEFSAII (Michael W. Deem and Ramdas Pophale) SiO2 
 PCOD8158626
Probable space group: C 2 2 21
;
_chemical_formula_sum "Si O2"
_cell_formula_units_Z 60
_cell_length_a 29.397985
_cell_length_b 11.872871
_cell_length_c 8.483676
_cell_angle_alpha 90.000000
_cell_angle_beta 90.000000
_cell_angle_gamma 90.000000
_cell_volume 2961.129406
_symmetry_space_group_name_H-M "C 2 2 21"
_symmetry_group_IT_number 20
_symmetry_cell_setting 'orthorhombic'
loop_
_space_group_symop_operation_xyz
x,y,z
-x,-y,1/2+z
x,-y,-z
-x,y,1/2-z
1/2+x,1/2+y,z
1/2-x,1/2-y,1/2+z
1/2+x,1/2-y,-z
1/2-x,1/2+y,1/2-z
loop_
_atom_site_type_symbol
_atom_site_label
_atom_site_fract_x
_atom_site_fract_y
_atom_site_fract_z
Si Si1 0.140414 0.200913 0.340463
Si Si2 0.829076 0.588342 0.357761
Si Si3 0.623574 0.693183 0.985697
Si Si4 0.742260 0.711467 0.253432
Si Si5 0.590118 0.500000 0.500000
Si Si6 0.607144 0.112522 0.424229
Si Si7 0.717041 0.383963 0.055915
Si Si8 0.447180 0.685736 0.774090
O O1 0.194393 0.187489 0.335143
O O2 0.131357 0.312145 0.442315
O O3 0.122679 0.085340 0.411056
O O4 0.115335 0.209520 0.171190
O O5 0.830429 0.500000 0.500000
O O6 0.855711 0.694400 0.419140
O O7 0.777295 0.615967 0.310798
O O8 0.856438 0.557505 0.197957
O O9 0.662342 0.600203 0.943738
O O10 0.577295 0.661602 0.894178
O O11 0.762115 0.838074 0.281060
O O12 0.733202 0.711746 0.067144
O O13 0.559318 0.424141 0.383860
O O14 0.570345 0.195795 0.345587
O O15 0.583837 0.000000 0.500000
O O16 0.739692 0.500000 0.000000
O O17 0.500000 0.703011 0.750000
#
# Coordination Sequence:
#
# PCOD8158626 Si02
#       8
#     8   8   8   8   4   8   8   8
#     4  10  21  38  58  87 121 168 209 257 313 371
#     4  10  20  35  56  86 122 170 214 258 307 361
#     4   9  21  38  59  85 116 157 204 251 318 383
#     4  10  22  35  53  86 119 160 220 260 290 366
#     4  10  24  38  60  92 120 162 196 244 334 364
#     4  10  21  41  64  86 125 166 204 259 323 375
#     4  10  22  38  55  81 119 165 205 258 316 353
#     4  10  23  44  67  94 124 153 203 259 315 392
#
# _framework density 20.262539
#
# number of rings (size 3 to 8) (size 9 to 14) (size 15 to 20)
#    0.000    2.133    0.000    1.600    4.667    7.467 
#    0.000    6.000    0.000    0.000    0.000    0.000 
#    0.000    0.000    0.000    0.000    0.000    0.000 
#
# Total GULP energy -371709.654954 kJ/mol
# GULP energy per Si atom -12390.321832 kJ/mol
# Density = 2.021642 g / cm^3
# Si number density = 20.262539 Si / 1000 Ang^3
#
#
#
# Elastic Constant Matrix: (Units=GPa)
#
#
# Indices 1 2 3 4 5 6 
#
# 1 132.6754 37.4329 57.7774 0.0000 0.0000 0.0000
# 2 37.4329 93.6339 26.0939 0.0000 0.0000 0.0000
# 3 57.7774 26.0939 108.0421 0.0000 0.0000 0.0000
# 4 0.0000 0.0000 0.0000 32.0760 0.0000 0.0000
# 5 0.0000 0.0000 0.0000 0.0000 26.3713 0.0000
# 6 0.0000 0.0000 0.0000 0.0000 0.0000 17.0224
#
#
#
# Elastic Compliance Matrix: (Units=1/GPa)
#
#
# Indices 1 2 3 4 5 6 
#
# 1 0.010475 -0.002816 -0.004922 0.000000 0.000000 0.000000
# 2 -0.002816 0.012208 -0.001442 0.000000 0.000000 0.000000
# 3 -0.004922 -0.001442 0.012236 0.000000 0.000000 0.000000
# 4 0.000000 0.000000 0.000000 0.031176 0.000000 0.000000
# 5 0.000000 0.000000 0.000000 0.000000 0.037920 0.000000
# 6 0.000000 0.000000 0.000000 0.000000 0.000000 0.058746
#
#
# Mechanical properties :
#
#
# Convention : Reuss Voigt Hill
#
# Bulk Modulus (GPa) = 60.39210 64.10663 62.24937
# Shear Modulus (GPa) = 26.78950 29.29707 28.04329
#
# Velocity S-wave (km/s) = 3.64004 3.80659 3.72425
# Velocity P-wave (km/s) = 6.89464 7.14331 7.02007
#
# Compressibility (1/GPa) = 0.01655846
#
# Stress axis : x y z
#
# Youngs Moduli (GPa) = 95.46572 81.91561 81.72682
#
# Poissons Ratio (x) = 0.23069 0.40222
# Poissons Ratio (y) = 0.26884 0.11788
# Poissons Ratio (z) = 0.46984 0.11815
#
# Static dielectric constant tensor:
#      x y z
#    x 3.584240 0.000000 0.000000 
#    y 0.000000 3.650480 0.000000 
#    z 0.000000 0.000000 4.169230 
# 
# 
# High freq. dielectric constant tensor:
#      x y z
#    x 1.765890 0.000000 0.000000 
#    y 0.000000 1.798660 0.000000 
#    z 0.000000 0.000000 1.806650 
# 
# From -- ./inp_files/11135.got.cif
#   From: 2010.03.12/outbox.cif.g09.slc.cpg/sg20_6_cif.got.tgz:11135.got - 2010.04.14 01:38:04.
