data_PCOD8158579
_publ_section_title
;
Structure prediction by ZEFSAII (Michael W. Deem and Ramdas Pophale) SiO2 
 PCOD8158579
Probable space group: C 2 2 21
;
_chemical_formula_sum "Si O2"
_cell_formula_units_Z 60
_cell_length_a 6.499908
_cell_length_b 19.002215
_cell_length_c 26.157192
_cell_angle_alpha 90.000000
_cell_angle_beta 90.000000
_cell_angle_gamma 90.000000
_cell_volume 3230.744082
_symmetry_space_group_name_H-M "C 2 2 21"
_symmetry_group_IT_number 20
_symmetry_cell_setting 'orthorhombic'
loop_
_space_group_symop_operation_xyz
x,y,z
-x,-y,1/2+z
x,-y,-z
-x,y,1/2-z
1/2+x,1/2+y,z
1/2-x,1/2-y,1/2+z
1/2+x,1/2-y,-z
1/2-x,1/2+y,1/2-z
loop_
_atom_site_type_symbol
_atom_site_label
_atom_site_fract_x
_atom_site_fract_y
_atom_site_fract_z
Si Si1 0.577325 0.523685 0.376467
Si Si2 0.621664 0.061491 0.203566
Si Si3 0.227061 0.753912 0.428701
Si Si4 0.078385 0.326400 0.477529
Si Si5 0.000000 0.144713 0.250000
Si Si6 0.738546 0.073009 0.020425
Si Si7 0.532377 0.384645 0.068085
Si Si8 0.759597 0.860062 0.658169
O O1 0.769901 0.510288 0.337654
O O2 0.672581 0.567818 0.422997
O O3 0.492292 0.446961 0.390962
O O4 0.388785 0.569030 0.354087
O O5 0.500000 0.021399 0.250000
O O6 0.466884 0.117009 0.176758
O O7 0.811892 0.100228 0.228916
O O8 0.190700 0.731005 0.487572
O O9 0.448892 0.790606 0.431966
O O10 0.231382 0.688573 0.390780
O O11 0.058666 0.811141 0.410022
O O12 0.229960 0.376309 0.445754
O O13 0.943770 0.370994 0.517770
O O14 0.109343 0.184394 0.201707
O O15 0.924401 0.096139 0.984650
O O16 0.645605 0.000000 0.000000
#
# Coordination Sequence:
#
# PCOD8158579 Si02
#       8
#     8   8   8   8   4   8   8   8
#     4  10  20  34  55  82 113 141 189 238 285 341
#     4   9  18  35  59  88 110 137 178 237 297 345
#     4  11  22  34  53  78 112 155 194 228 280 340
#     4  11  21  34  51  72 112 154 191 227 275 330
#     4   8  18  36  54  88 112 130 180 246 284 344
#     4   9  20  34  51  77 109 143 187 227 272 328
#     4  10  22  36  48  75 115 150 187 236 274 332
#     4  10  20  33  60  85 108 144 188 237 295 342
#
# _framework density 18.571572
#
# number of rings (size 3 to 8) (size 9 to 14) (size 15 to 20)
#    0.000    2.133    1.333    1.600    1.867    8.000 
#    0.000    0.000    1.467    0.000   27.733    0.000 
#    0.000    0.000    0.000    0.000    0.000    0.000 
#
# Total GULP energy -371711.639976 kJ/mol
# GULP energy per Si atom -12390.387999 kJ/mol
# Density = 1.852930 g / cm^3
# Si number density = 18.571572 Si / 1000 Ang^3
#
#
#
# Elastic Constant Matrix: (Units=GPa)
#
#
# Indices 1 2 3 4 5 6 
#
# 1 119.6559 40.8442 45.2343 0.0000 0.0000 0.0000
# 2 40.8442 76.9768 28.3619 0.0000 0.0000 0.0000
# 3 45.2343 28.3619 82.5854 0.0000 0.0000 0.0000
# 4 0.0000 0.0000 0.0000 16.2577 0.0000 0.0000
# 5 0.0000 0.0000 0.0000 0.0000 25.4688 0.0000
# 6 0.0000 0.0000 0.0000 0.0000 0.0000 14.8901
#
#
#
# Elastic Compliance Matrix: (Units=1/GPa)
#
#
# Indices 1 2 3 4 5 6 
#
# 1 0.011716 -0.004410 -0.004903 0.000000 0.000000 0.000000
# 2 -0.004410 0.016533 -0.003262 0.000000 0.000000 0.000000
# 3 -0.004903 -0.003262 0.015914 0.000000 0.000000 0.000000
# 4 0.000000 0.000000 0.000000 0.061509 0.000000 0.000000
# 5 0.000000 0.000000 0.000000 0.000000 0.039264 0.000000
# 6 0.000000 0.000000 0.000000 0.000000 0.000000 0.067159
#
#
# Mechanical properties :
#
#
# Convention : Reuss Voigt Hill
#
# Bulk Modulus (GPa) = 52.59512 56.45543 54.52527
# Shear Modulus (GPa) = 20.52687 22.30849 21.41768
#
# Velocity S-wave (km/s) = 3.32819 3.46962 3.39964
# Velocity P-wave (km/s) = 6.56893 6.82025 6.69577
#
# Compressibility (1/GPa) = 0.01901317
#
# Stress axis : x y z
#
# Youngs Moduli (GPa) = 85.35260 60.48516 62.83645
#
# Poissons Ratio (x) = 0.26675 0.30806
# Poissons Ratio (y) = 0.37643 0.20499
# Poissons Ratio (z) = 0.41845 0.19732
#
# Static dielectric constant tensor:
#      x y z
#    x 3.696090 0.000000 0.000000 
#    y 0.000000 3.329660 0.000000 
#    z 0.000000 0.000000 3.698980 
# 
# 
# High freq. dielectric constant tensor:
#      x y z
#    x 1.742790 0.000000 0.000000 
#    y 0.000000 1.687690 0.000000 
#    z 0.000000 0.000000 1.719040 
# 
# From -- ./inp_files/28456.got.cif
#   From: 2010.03.12/outbox.cif.g09.slc.cpg/sg20_15_cif.got.tgz:28456.got - 2010.04.14 01:38:04.
