data_PCOD8158310
_publ_section_title
;
Structure prediction by ZEFSAII (Michael W. Deem and Ramdas Pophale) SiO2 
 PCOD8158310
Probable space group: C 2 2 21
;
_chemical_formula_sum "Si O2"
_cell_formula_units_Z 44
_cell_length_a 27.361337
_cell_length_b 5.165212
_cell_length_c 17.733203
_cell_angle_alpha 90.000000
_cell_angle_beta 90.000000
_cell_angle_gamma 90.000000
_cell_volume 2506.182264
_symmetry_space_group_name_H-M "C 2 2 21"
_symmetry_group_IT_number 20
_symmetry_cell_setting 'orthorhombic'
loop_
_space_group_symop_operation_xyz
x,y,z
-x,-y,1/2+z
x,-y,-z
-x,y,1/2-z
1/2+x,1/2+y,z
1/2-x,1/2-y,1/2+z
1/2+x,1/2-y,-z
1/2-x,1/2+y,1/2-z
loop_
_atom_site_type_symbol
_atom_site_label
_atom_site_fract_x
_atom_site_fract_y
_atom_site_fract_z
Si Si1 0.684503 0.000000 0.500000
Si Si2 0.577901 0.477881 0.340177
Si Si3 0.802150 0.506833 0.307637
Si Si4 0.248427 0.506187 0.351385
Si Si5 0.902016 0.497755 0.244947
Si Si6 0.000000 0.262395 0.750000
Si Si7 0.882313 0.000000 0.000000
O O1 0.717750 0.977494 0.426688
O O2 0.651339 0.251109 0.494188
O O3 0.598435 0.729804 0.299297
O O4 0.521247 0.419621 0.317258
O O5 0.581544 0.516913 0.429073
O O6 0.610816 0.232477 0.313318
O O7 0.787442 0.494840 0.219905
O O8 0.778566 0.272089 0.353868
O O9 0.861139 0.487109 0.310200
O O10 0.786530 0.771094 0.347368
O O11 0.955619 0.557223 0.281445
#
# Coordination Sequence:
#
# PCOD8158310 Si02
#       7
#     4   8   8   8   8   4   4
#     4  12  24  38  54  85 124 147 180 236 294 340
#     4  10  20  34  54  86 114 144 184 231 288 337
#     4  10  19  34  55  80 106 146 190 224 261 336
#     4  10  21  34  52  80 112 144 183 225 273 327
#     4  10  19  35  57  81 111 144 190 232 282 318
#     4   8  22  34  56  84 116 144 184 246 276 330
#     4  12  22  34  58  85 116 153 176 224 298 352
#
# _framework density 17.556584999999998
#
# number of rings (size 3 to 8) (size 9 to 14) (size 15 to 20)
#    1.091    0.727    0.000    6.000    0.000    2.909 
#    0.000    0.000    0.000    1.091    9.455    0.000 
#    0.000    0.000    0.000    0.000    0.000    0.000 
#
# Total GULP energy -272693.249502 kJ/mol
# GULP energy per Si atom -12395.147705 kJ/mol
# Density = 1.751663 g / cm^3
# Si number density = 17.556585 Si / 1000 Ang^3
#
#
#
# Elastic Constant Matrix: (Units=GPa)
#
#
# Indices 1 2 3 4 5 6 
#
# 1 109.2801 20.1082 33.3967 0.0000 0.0000 0.0000
# 2 20.1082 96.8382 4.8417 0.0000 0.0000 0.0000
# 3 33.3967 4.8417 73.9066 0.0000 0.0000 0.0000
# 4 0.0000 0.0000 0.0000 18.7185 0.0000 0.0000
# 5 0.0000 0.0000 0.0000 0.0000 25.3129 0.0000
# 6 0.0000 0.0000 0.0000 0.0000 0.0000 9.5197
#
#
#
# Elastic Compliance Matrix: (Units=1/GPa)
#
#
# Indices 1 2 3 4 5 6 
#
# 1 0.011006 -0.002043 -0.004839 0.000000 0.000000 0.000000
# 2 -0.002043 0.010740 0.000220 0.000000 0.000000 0.000000
# 3 -0.004839 0.000220 0.015703 0.000000 0.000000 0.000000
# 4 0.000000 0.000000 0.000000 0.053423 0.000000 0.000000
# 5 0.000000 0.000000 0.000000 0.000000 0.039506 0.000000
# 6 0.000000 0.000000 0.000000 0.000000 0.000000 0.105046
#
#
# Mechanical properties :
#
#
# Convention : Reuss Voigt Hill
#
# Bulk Modulus (GPa) = 41.45488 44.07980 42.76734
# Shear Modulus (GPa) = 19.47119 25.48876 22.47998
#
# Velocity S-wave (km/s) = 3.33386 3.81439 3.58219
# Velocity P-wave (km/s) = 6.20346 6.67542 6.44376
#
# Compressibility (1/GPa) = 0.02412261
#
# Stress axis : x y z
#
# Youngs Moduli (GPa) = 90.86172 93.11145 63.68209
#
# Poissons Ratio (x) = 0.19026 0.30818
# Poissons Ratio (y) = 0.18566 -0.01400
# Poissons Ratio (z) = 0.43971 -0.02046
#
# Static dielectric constant tensor:
#      x y z
#    x 3.189240 0.000000 0.000000 
#    y 0.000000 3.497090 0.000000 
#    z 0.000000 0.000000 3.015720 
# 
# 
# High freq. dielectric constant tensor:
#      x y z
#    x 1.674380 0.000000 0.000000 
#    y 0.000000 1.704600 0.000000 
#    z 0.000000 0.000000 1.642790 
# 
# From -- ./inp_files/22234.got.cif
#   From: 2010.03.12/outbox.cif.g09.slc.cpg/sg20_12_cif.got.tgz:22234.got - 2010.04.14 01:38:04.
