data_PCOD8158819
_publ_section_title
;
Structure prediction by ZEFSAII (Michael W. Deem and Ramdas Pophale) SiO2 
 PCOD8158819
Probable space group: C 2 2 21
;
_chemical_formula_sum "Si O2"
_cell_formula_units_Z 44
_cell_length_a 15.230125
_cell_length_b 17.628356
_cell_length_c 7.938341
_cell_angle_alpha 90.000000
_cell_angle_beta 90.000000
_cell_angle_gamma 90.000000
_cell_volume 2131.302188
_symmetry_space_group_name_H-M "C 2 2 21"
_symmetry_group_IT_number 20
_symmetry_cell_setting 'orthorhombic'
loop_
_space_group_symop_operation_xyz
x,y,z
-x,-y,1/2+z
x,-y,-z
-x,y,1/2-z
1/2+x,1/2+y,z
1/2-x,1/2-y,1/2+z
1/2+x,1/2-y,-z
1/2-x,1/2+y,1/2-z
loop_
_atom_site_type_symbol
_atom_site_label
_atom_site_fract_x
_atom_site_fract_y
_atom_site_fract_z
Si Si1 0.625508 0.080489 0.906227
Si Si2 0.543289 0.584341 0.433353
Si Si3 0.068077 0.415420 0.453346
Si Si4 0.500000 0.312338 0.250000
Si Si5 0.719530 0.335248 0.580014
Si Si6 0.652994 0.211394 0.347096
O O1 0.529535 0.119208 0.928537
O O2 0.634513 0.077030 0.704281
O O3 0.699730 0.137841 0.966479
O O4 0.637908 0.000000 0.000000
O O5 0.527544 0.500000 0.500000
O O6 0.500000 0.597818 0.250000
O O7 0.502982 0.638623 0.578105
O O8 0.647146 0.598571 0.407722
O O9 0.045708 0.500000 0.500000
O O10 0.111302 0.368839 0.603130
O O11 0.586284 0.259622 0.230833
O O12 0.673850 0.259841 0.511251
O O13 0.755949 0.310070 0.759672
#
# Coordination Sequence:
#
# PCOD8158819 Si02
#       6
#     8   8   8   4   8   8
#     4  10  20  38  61  91 127 161 209 261 313 396
#     4  11  24  46  71  96 129 180 234 283 338 400
#     4  10  21  38  64  92 125 172 208 252 328 395
#     4  10  24  44  70  96 136 178 220 276 342 404
#     4  11  24  39  63  92 131 162 217 270 335 388
#     4  11  23  41  61  96 127 168 208 271 329 405
#
# _framework density 20.644653999999999
#
# number of rings (size 3 to 8) (size 9 to 14) (size 15 to 20)
#    0.000    1.455    0.909    3.818    2.545    2.909 
#   13.091    0.909    0.000    0.000    0.000    0.000 
#    0.000    0.000    0.000    0.000    0.000    0.000 
#
# Total GULP energy -272688.957674 kJ/mol
# GULP energy per Si atom -12394.952622 kJ/mol
# Density = 2.059767 g / cm^3
# Si number density = 20.644654 Si / 1000 Ang^3
#
#
#
# Elastic Constant Matrix: (Units=GPa)
#
#
# Indices 1 2 3 4 5 6 
#
# 1 101.1405 41.0102 44.7197 0.0000 0.0000 0.0000
# 2 41.0102 93.4265 37.0846 0.0000 0.0000 0.0000
# 3 44.7197 37.0846 114.1131 0.0000 0.0000 0.0000
# 4 0.0000 0.0000 0.0000 28.9839 0.0000 0.0000
# 5 0.0000 0.0000 0.0000 0.0000 39.8017 0.0000
# 6 0.0000 0.0000 0.0000 0.0000 0.0000 66.4469
#
#
#
# Elastic Compliance Matrix: (Units=1/GPa)
#
#
# Indices 1 2 3 4 5 6 
#
# 1 0.013333 -0.004338 -0.003815 0.000000 0.000000 0.000000
# 2 -0.004338 0.013700 -0.002752 0.000000 0.000000 0.000000
# 3 -0.003815 -0.002752 0.011153 0.000000 0.000000 0.000000
# 4 0.000000 0.000000 0.000000 0.034502 0.000000 0.000000
# 5 0.000000 0.000000 0.000000 0.000000 0.025125 0.000000
# 6 0.000000 0.000000 0.000000 0.000000 0.000000 0.015050
#
#
# Mechanical properties :
#
#
# Convention : Reuss Voigt Hill
#
# Bulk Modulus (GPa) = 61.06931 61.58990 61.32961
# Shear Modulus (GPa) = 35.68050 39.43753 37.55901
#
# Velocity S-wave (km/s) = 4.16181 4.37544 4.26996
# Velocity P-wave (km/s) = 7.26221 7.44474 7.35404
#
# Compressibility (1/GPa) = 0.01637484
#
# Stress axis : x y z
#
# Youngs Moduli (GPa) = 75.00028 72.99056 89.66323
#
# Poissons Ratio (x) = 0.31665 0.34209
# Poissons Ratio (y) = 0.32537 0.24677
# Poissons Ratio (z) = 0.28615 0.20089
#
# Static dielectric constant tensor:
#      x y z
#    x 3.828700 0.000000 0.000000 
#    y 0.000000 3.794020 0.000000 
#    z 0.000000 0.000000 3.254820 
# 
# 
# High freq. dielectric constant tensor:
#      x y z
#    x 1.811710 0.000000 0.000000 
#    y 0.000000 1.811640 0.000000 
#    z 0.000000 0.000000 1.810890 
# 
# From -- ./inp_files/8337.got.cif
#   From: 2010.03.12/outbox.cif.g09.slc.cpg/sg20_5_cif.got.tgz:8337.got - 2010.04.14 01:38:04.
