data_PCOD8158434
_publ_section_title
;
Structure prediction by ZEFSAII (Michael W. Deem and Ramdas Pophale) SiO2 
 PCOD8158434
Probable space group: C 2 2 21
;
_chemical_formula_sum "Si O2"
_cell_formula_units_Z 64
_cell_length_a 19.548385
_cell_length_b 18.160166
_cell_length_c 9.285903
_cell_angle_alpha 90.000000
_cell_angle_beta 90.000000
_cell_angle_gamma 90.000000
_cell_volume 3296.513363
_symmetry_space_group_name_H-M "C 2 2 21"
_symmetry_group_IT_number 20
_symmetry_cell_setting 'orthorhombic'
loop_
_space_group_symop_operation_xyz
x,y,z
-x,-y,1/2+z
x,-y,-z
-x,y,1/2-z
1/2+x,1/2+y,z
1/2-x,1/2-y,1/2+z
1/2+x,1/2-y,-z
1/2-x,1/2+y,1/2-z
loop_
_atom_site_type_symbol
_atom_site_label
_atom_site_fract_x
_atom_site_fract_y
_atom_site_fract_z
Si Si1 0.054794 0.440897 0.627012
Si Si2 0.808004 0.080773 0.008012
Si Si3 0.001967 0.317568 0.080986
Si Si4 0.881829 0.219320 0.092917
Si Si5 0.648788 0.203541 0.874131
Si Si6 0.795306 0.572342 0.243344
Si Si7 0.738544 0.194215 0.469690
Si Si8 0.263889 0.092397 0.771409
O O1 0.067643 0.500000 0.500000
O O2 0.123229 0.423174 0.719267
O O3 0.000000 0.465076 0.750000
O O4 0.031066 0.371032 0.535736
O O5 0.866609 0.133401 0.070306
O O6 0.734132 0.078095 0.093409
O O7 0.794283 0.105468 0.846069
O O8 0.840840 0.000000 0.000000
O O9 0.080557 0.307494 0.031526
O O10 0.000000 0.345116 0.250000
O O11 0.961197 0.240153 0.066697
O O12 0.864641 0.233319 0.258239
O O13 0.836341 0.272053 0.991471
O O14 0.710760 0.235451 0.969409
O O15 0.665703 0.126092 0.794539
O O16 0.759768 0.642561 0.169893
O O17 0.773004 0.492394 0.181582
O O18 0.761511 0.140425 0.596447
#
# Coordination Sequence:
#
# PCOD8158434 Si02
#       8
#     8   8   8   8   8   8   8   8
#     4  12  27  39  57  85 123 169 199 238 290 365
#     4  10  21  37  59  88 116 149 192 249 303 350
#     4  10  23  42  60  84 119 160 205 245 298 357
#     4  10  19  37  59  86 114 153 198 248 299 348
#     4  10  21  35  62  87 115 156 197 248 295 360
#     4  11  23  39  59  86 118 155 200 241 298 355
#     4  11  19  36  61  85 113 152 201 245 298 349
#     4  10  22  35  58  87 120 153 189 250 295 351
#
# _framework density 19.414451
#
# number of rings (size 3 to 8) (size 9 to 14) (size 15 to 20)
#    0.000    1.500    3.750    1.500    7.000    0.500 
#    2.250    0.000    0.000    1.500    0.000    0.000 
#    0.000    0.000    0.000    0.000    0.000    0.000 
#
# Total GULP energy -396465.992335 kJ/mol
# GULP energy per Si atom -12389.562260 kJ/mol
# Density = 1.937026 g / cm^3
# Si number density = 19.414451 Si / 1000 Ang^3
#
#
#
# Elastic Constant Matrix: (Units=GPa)
#
#
# Indices 1 2 3 4 5 6 
#
# 1 65.6015 7.1684 -1.8558 0.0000 0.0000 0.0000
# 2 7.1684 78.0363 11.0149 0.0000 0.0000 0.0000
# 3 -1.8558 11.0149 51.2445 0.0000 0.0000 0.0000
# 4 0.0000 0.0000 0.0000 28.6503 0.0000 0.0000
# 5 0.0000 0.0000 0.0000 0.0000 21.3534 0.0000
# 6 0.0000 0.0000 0.0000 0.0000 0.0000 24.2222
#
#
#
# Elastic Compliance Matrix: (Units=1/GPa)
#
#
# Indices 1 2 3 4 5 6 
#
# 1 0.015437 -0.001544 0.000891 0.000000 0.000000 0.000000
# 2 -0.001544 0.013370 -0.002930 0.000000 0.000000 0.000000
# 3 0.000891 -0.002930 0.020176 0.000000 0.000000 0.000000
# 4 0.000000 0.000000 0.000000 0.034904 0.000000 0.000000
# 5 0.000000 0.000000 0.000000 0.000000 0.046831 0.000000
# 6 0.000000 0.000000 0.000000 0.000000 0.000000 0.041285
#
#
# Mechanical properties :
#
#
# Convention : Reuss Voigt Hill
#
# Bulk Modulus (GPa) = 23.91296 25.28190 24.59743
# Shear Modulus (GPa) = 25.89231 26.74883 26.32057
#
# Velocity S-wave (km/s) = 3.65589 3.71587 3.68601
# Velocity P-wave (km/s) = 5.49223 5.60899 5.55092
#
# Compressibility (1/GPa) = 0.04181833
#
# Stress axis : x y z
#
# Youngs Moduli (GPa) = 64.77749 74.79483 49.56315
#
# Poissons Ratio (x) = 0.11547 -0.04416
# Poissons Ratio (y) = 0.10001 0.14521
# Poissons Ratio (z) = -0.05771 0.21913
#
# Static dielectric constant tensor:
#      x y z
#    x 3.507760 0.000000 0.000000 
#    y 0.000000 3.691950 0.000000 
#    z 0.000000 0.000000 3.612020 
# 
# 
# High freq. dielectric constant tensor:
#      x y z
#    x 1.728600 0.000000 0.000000 
#    y 0.000000 1.760190 0.000000 
#    z 0.000000 0.000000 1.756960 
# 
# From -- ./inp_files/10345.got.cif
#   From: 2010.03.12/outbox.cif.g09.slc.cpg/sg20_6_cif.got.tgz:10345.got - 2010.04.14 01:38:04.
