data_PCOD8158782
_publ_section_title
;
Structure prediction by ZEFSAII (Michael W. Deem and Ramdas Pophale) SiO2 
 PCOD8158782
Probable space group: C 2 2 21
;
_chemical_formula_sum "Si O2"
_cell_formula_units_Z 48
_cell_length_a 14.473525
_cell_length_b 16.840286
_cell_length_c 8.973519
_cell_angle_alpha 90.000000
_cell_angle_beta 90.000000
_cell_angle_gamma 90.000000
_cell_volume 2187.190270
_symmetry_space_group_name_H-M "C 2 2 21"
_symmetry_group_IT_number 20
_symmetry_cell_setting 'orthorhombic'
loop_
_space_group_symop_operation_xyz
x,y,z
-x,-y,1/2+z
x,-y,-z
-x,y,1/2-z
1/2+x,1/2+y,z
1/2-x,1/2-y,1/2+z
1/2+x,1/2-y,-z
1/2-x,1/2+y,1/2-z
loop_
_atom_site_type_symbol
_atom_site_label
_atom_site_fract_x
_atom_site_fract_y
_atom_site_fract_z
Si Si1 0.903868 0.901569 0.686453
Si Si2 0.733325 0.973399 0.831200
Si Si3 0.962523 0.824428 0.402390
Si Si4 0.667537 0.814629 0.940581
Si Si5 0.368252 0.734760 0.092700
Si Si6 0.604001 0.887459 0.240254
O O1 0.825764 0.964605 0.732966
O O2 0.912394 0.890161 0.507060
O O3 0.880342 0.814881 0.754270
O O4 0.000000 0.934992 0.750000
O O5 0.676213 0.891074 0.832711
O O6 0.672144 0.038418 0.748371
O O7 0.759110 0.000000 0.000000
O O8 0.890699 0.754275 0.359384
O O9 0.000000 0.864459 0.250000
O O10 0.051034 0.788535 0.482653
O O11 0.770062 0.784184 0.983039
O O12 0.614553 0.838796 0.088859
O O13 0.373679 0.828345 0.124438
O O14 0.500000 0.920052 0.250000
#
# Coordination Sequence:
#
# PCOD8158782 Si02
#       6
#     8   8   8   8   8   8
#     4   9  18  40  67  91 128 169 217 280 339 387
#     4   9  21  37  67  99 132 179 220 274 348 418
#     4  11  22  35  63 103 130 169 225 282 330 396
#     4  10  21  38  62  96 134 167 220 274 332 407
#     4  10  20  37  67  97 123 168 219 279 338 388
#     4  11  19  39  68  97 131 175 212 271 346 402
#
# _framework density 21.945964
#
# number of rings (size 3 to 8) (size 9 to 14) (size 15 to 20)
#    0.000    2.000    3.333    0.500    2.333    0.667 
#    0.000    0.000   14.667    0.000    0.000    0.000 
#    0.000    0.000    0.000    0.000    0.000    0.000 
#
# Total GULP energy -297616.466668 kJ/mol
# GULP energy per Si atom -12400.686111 kJ/mol
# Density = 2.189601 g / cm^3
# Si number density = 21.945964 Si / 1000 Ang^3
#
#
#
# Elastic Constant Matrix: (Units=GPa)
#
#
# Indices 1 2 3 4 5 6 
#
# 1 165.0279 63.2220 52.6144 0.0000 0.0000 0.0000
# 2 63.2220 88.5234 27.7037 0.0000 0.0000 0.0000
# 3 52.6144 27.7037 104.2189 0.0000 0.0000 0.0000
# 4 0.0000 0.0000 0.0000 14.0752 0.0000 0.0000
# 5 0.0000 0.0000 0.0000 0.0000 36.1786 0.0000
# 6 0.0000 0.0000 0.0000 0.0000 0.0000 41.7885
#
#
#
# Elastic Compliance Matrix: (Units=1/GPa)
#
#
# Indices 1 2 3 4 5 6 
#
# 1 0.009208 -0.005586 -0.003164 0.000000 0.000000 0.000000
# 2 -0.005586 0.015710 -0.001356 0.000000 0.000000 0.000000
# 3 -0.003164 -0.001356 0.011553 0.000000 0.000000 0.000000
# 4 0.000000 0.000000 0.000000 0.071047 0.000000 0.000000
# 5 0.000000 0.000000 0.000000 0.000000 0.027641 0.000000
# 6 0.000000 0.000000 0.000000 0.000000 0.000000 0.023930
#
#
# Mechanical properties :
#
#
# Convention : Reuss Voigt Hill
#
# Bulk Modulus (GPa) = 61.50260 71.65003 66.57632
# Shear Modulus (GPa) = 27.06776 32.69045 29.87911
#
# Velocity S-wave (km/s) = 3.51576 3.86371 3.69383
# Velocity P-wave (km/s) = 6.67579 7.25421 6.97100
#
# Compressibility (1/GPa) = 0.01625947
#
# Stress axis : x y z
#
# Youngs Moduli (GPa) = 108.59632 63.65170 86.55851
#
# Poissons Ratio (x) = 0.35558 0.27386
# Poissons Ratio (y) = 0.60666 0.11737
# Poissons Ratio (z) = 0.34358 0.08631
#
# Static dielectric constant tensor:
#      x y z
#    x 4.118420 0.000000 0.000000 
#    y 0.000000 3.861620 0.000000 
#    z 0.000000 0.000000 3.804600 
# 
# 
# High freq. dielectric constant tensor:
#      x y z
#    x 1.877250 0.000000 0.000000 
#    y 0.000000 1.852710 0.000000 
#    z 0.000000 0.000000 1.840630 
# 
# From -- ./inp_files/8420.got.cif
#   From: 2010.03.12/outbox.cif.g09.slc.cpg/sg20_5_cif.got.tgz:8420.got - 2010.04.14 01:38:04.
