data_PCOD8158216
_publ_section_title
;
Structure prediction by ZEFSAII (Michael W. Deem and Ramdas Pophale) SiO2 
 PCOD8158216
Probable space group: C 2 2 21
;
_chemical_formula_sum "Si O2"
_cell_formula_units_Z 28
_cell_length_a 8.063532
_cell_length_b 11.729891
_cell_length_c 11.715975
_cell_angle_alpha 90.000000
_cell_angle_beta 90.000000
_cell_angle_gamma 90.000000
_cell_volume 1108.147897
_symmetry_space_group_name_H-M "C 2 2 21"
_symmetry_group_IT_number 20
_symmetry_cell_setting 'orthorhombic'
loop_
_space_group_symop_operation_xyz
x,y,z
-x,-y,1/2+z
x,-y,-z
-x,y,1/2-z
1/2+x,1/2+y,z
1/2-x,1/2-y,1/2+z
1/2+x,1/2-y,-z
1/2-x,1/2+y,1/2-z
loop_
_atom_site_type_symbol
_atom_site_label
_atom_site_fract_x
_atom_site_fract_y
_atom_site_fract_z
Si Si1 0.082863 0.389085 0.071072
Si Si2 0.315470 0.507855 0.746145
Si Si3 0.369347 0.680575 0.080440
Si Si4 0.875622 0.000000 0.500000
O O1 0.176874 0.421540 0.187691
O O2 0.925925 0.310336 0.101868
O O3 0.026918 0.500000 0.000000
O O4 0.203295 0.312638 0.993355
O O5 0.500000 0.564875 0.750000
O O6 0.331480 0.380150 0.798152
O O7 0.259711 0.503145 0.613241
O O8 0.502965 0.608385 0.008761
#
# Coordination Sequence:
#
# PCOD8158216 Si02
#       4
#     8   8   8   4
#     4  10  20  40  62  96 130 159 207 263 311 375
#     4   9  17  38  61  88 126 165 207 251 313 372
#     4  10  19  38  68  91 126 168 202 257 321 370
#     4  10  18  40  64  90 122 174 206 252 320 370
#
# _framework density 25.267386999999999
#
# number of rings (size 3 to 8) (size 9 to 14) (size 15 to 20)
#    0.000    2.286    7.143    0.000    0.000    0.000 
#   28.286    0.000    0.000    0.000    0.000    0.000 
#    0.000    0.000    0.000    0.000    0.000    0.000 
#
# Total GULP energy -173560.541733 kJ/mol
# GULP energy per Si atom -12397.181552 kJ/mol
# Density = 2.520988 g / cm^3
# Si number density = 25.267387 Si / 1000 Ang^3
#
#
#
# Elastic Constant Matrix: (Units=GPa)
#
#
# Indices 1 2 3 4 5 6 
#
# 1 46.8015 61.2942 40.4714 0.0000 0.0000 0.0000
# 2 61.2942 159.8085 56.5809 0.0000 0.0000 0.0000
# 3 40.4714 56.5809 220.4735 0.0000 0.0000 0.0000
# 4 0.0000 0.0000 0.0000 20.2188 0.0000 0.0000
# 5 0.0000 0.0000 0.0000 0.0000 21.8477 0.0000
# 6 0.0000 0.0000 0.0000 0.0000 0.0000 46.7733
#
#
#
# Elastic Compliance Matrix: (Units=1/GPa)
#
#
# Indices 1 2 3 4 5 6 
#
# 1 0.046437 -0.016271 -0.004349 0.000000 0.000000 0.000000
# 2 -0.016271 0.012584 -0.000243 0.000000 0.000000 0.000000
# 3 -0.004349 -0.000243 0.005396 0.000000 0.000000 0.000000
# 4 0.000000 0.000000 0.000000 0.049459 0.000000 0.000000
# 5 0.000000 0.000000 0.000000 0.000000 0.045771 0.000000
# 6 0.000000 0.000000 0.000000 0.000000 0.000000 0.021380
#
#
# Mechanical properties :
#
#
# Convention : Reuss Voigt Hill
#
# Bulk Modulus (GPa) = 44.06728 82.64186 63.35457
# Shear Modulus (GPa) = 21.70929 35.68378 28.69653
#
# Velocity S-wave (km/s) = 2.93436 3.76206 3.37369
# Velocity P-wave (km/s) = 5.38135 7.18671 6.34853
#
# Compressibility (1/GPa) = 0.02269257
#
# Stress axis : x y z
#
# Youngs Moduli (GPa) = 21.53459 79.46479 185.31518
#
# Poissons Ratio (x) = 1.29299 0.80584
# Poissons Ratio (y) = 0.35039 0.04497
# Poissons Ratio (z) = 0.09364 0.01929
#
# Static dielectric constant tensor:
#      x y z
#    x 4.350320 0.000000 0.000000 
#    y 0.000000 4.236650 0.000000 
#    z 0.000000 0.000000 4.852770 
# 
# 
# High freq. dielectric constant tensor:
#      x y z
#    x 2.002510 0.000000 0.000000 
#    y 0.000000 1.988700 0.000000 
#    z 0.000000 0.000000 2.019820 
# 
# From -- ./inp_files/12416.got.cif
#   From: 2010.03.12/outbox.cif.g09.slc.cpg/sg20_7_cif.got.tgz:12416.got - 2010.04.14 01:38:04.
