data_PCOD8158803
_publ_section_title
;
Structure prediction by ZEFSAII (Michael W. Deem and Ramdas Pophale) SiO2 
 PCOD8158803
Probable space group: C 2 2 21
;
_chemical_formula_sum "Si O2"
_cell_formula_units_Z 20
_cell_length_a 7.574501
_cell_length_b 11.987691
_cell_length_c 9.002005
_cell_angle_alpha 90.000000
_cell_angle_beta 90.000000
_cell_angle_gamma 90.000000
_cell_volume 817.389053
_symmetry_space_group_name_H-M "C 2 2 21"
_symmetry_group_IT_number 20
_symmetry_cell_setting 'orthorhombic'
loop_
_space_group_symop_operation_xyz
x,y,z
-x,-y,1/2+z
x,-y,-z
-x,y,1/2-z
1/2+x,1/2+y,z
1/2-x,1/2-y,1/2+z
1/2+x,1/2-y,-z
1/2-x,1/2+y,1/2-z
loop_
_atom_site_type_symbol
_atom_site_label
_atom_site_fract_x
_atom_site_fract_y
_atom_site_fract_z
Si Si1 0.036487 0.239165 0.548233
Si Si2 0.000000 0.038270 0.750000
Si Si3 0.772077 0.834359 0.783392
O O1 0.981724 0.116081 0.605102
O O2 0.064481 0.228718 0.370259
O O3 0.222998 0.274604 0.627851
O O4 0.892467 0.330065 0.600623
O O5 0.176025 0.962581 0.742392
#
# Coordination Sequence:
#
# PCOD8158803 Si02
#       3
#     8   4   8
#     4  10  23  39  61  91 122 162 202 251 305 364
#     4  10  20  38  60  82 118 162 200 246 300 352
#     4  10  20  39  61  86 122 158 202 250 302 362
#
# _framework density 24.468153999999998
#
# number of rings (size 3 to 8) (size 9 to 14) (size 15 to 20)
#    0.000    2.400    0.000    3.600    0.000    3.200 
#    0.000   48.000    0.000    0.000    0.000    0.000 
#    0.000    0.000    0.000    0.000    0.000    0.000 
#
# Total GULP energy -123962.341523 kJ/mol
# GULP energy per Si atom -12396.234152 kJ/mol
# Density = 2.441246 g / cm^3
# Si number density = 24.468154 Si / 1000 Ang^3
#
#
#
# Elastic Constant Matrix: (Units=GPa)
#
#
# Indices 1 2 3 4 5 6 
#
# 1 85.3413 83.1485 3.8134 0.0000 0.0000 0.0000
# 2 83.1485 144.5285 45.3974 0.0000 0.0000 0.0000
# 3 3.8134 45.3974 128.1811 0.0000 0.0000 0.0000
# 4 0.0000 0.0000 0.0000 28.5896 0.0000 0.0000
# 5 0.0000 0.0000 0.0000 0.0000 37.4652 0.0000
# 6 0.0000 0.0000 0.0000 0.0000 0.0000 58.6339
#
#
#
# Elastic Compliance Matrix: (Units=1/GPa)
#
#
# Indices 1 2 3 4 5 6 
#
# 1 0.030176 -0.019217 0.005908 0.000000 0.000000 0.000000
# 2 -0.019217 0.020022 -0.006520 0.000000 0.000000 0.000000
# 3 0.005908 -0.006520 0.009935 0.000000 0.000000 0.000000
# 4 0.000000 0.000000 0.000000 0.034978 0.000000 0.000000
# 5 0.000000 0.000000 0.000000 0.000000 0.026691 0.000000
# 6 0.000000 0.000000 0.000000 0.000000 0.000000 0.017055
#
#
# Mechanical properties :
#
#
# Convention : Reuss Voigt Hill
#
# Bulk Modulus (GPa) = 48.83412 69.19662 59.01537
# Shear Modulus (GPa) = 26.97754 39.98383 33.48069
#
# Velocity S-wave (km/s) = 3.32408 4.04681 3.70312
# Velocity P-wave (km/s) = 5.89358 7.08359 6.51581
#
# Compressibility (1/GPa) = 0.02047749
#
# Stress axis : x y z
#
# Youngs Moduli (GPa) = 33.13845 49.94432 100.65749
#
# Poissons Ratio (x) = 0.95976 -0.59469
# Poissons Ratio (y) = 0.63681 0.65624
# Poissons Ratio (z) = -0.19578 0.32561
#
# Static dielectric constant tensor:
#      x y z
#    x 5.089730 0.000000 0.000000 
#    y 0.000000 3.966220 0.000000 
#    z 0.000000 0.000000 4.561440 
# 
# 
# High freq. dielectric constant tensor:
#      x y z
#    x 1.995970 0.000000 0.000000 
#    y 0.000000 1.932690 0.000000 
#    z 0.000000 0.000000 1.996350 
# 
# From -- ./inp_files/5395.got.cif
#   From: 2010.03.12/outbox.cif.g09.slc.cpg/sg20_3_cif.got.tgz:5395.got - 2010.04.14 01:38:04.
