data_PCOD8158285
_publ_section_title
;
Structure prediction by ZEFSAII (Michael W. Deem and Ramdas Pophale) SiO2 
 PCOD8158285
Probable space group: C 2 2 21
;
_chemical_formula_sum "Si O2"
_cell_formula_units_Z 64
_cell_length_a 9.922829
_cell_length_b 24.824052
_cell_length_c 13.444353
_cell_angle_alpha 90.000000
_cell_angle_beta 90.000000
_cell_angle_gamma 90.000000
_cell_volume 3311.677874
_symmetry_space_group_name_H-M "C 2 2 21"
_symmetry_group_IT_number 20
_symmetry_cell_setting 'orthorhombic'
loop_
_space_group_symop_operation_xyz
x,y,z
-x,-y,1/2+z
x,-y,-z
-x,y,1/2-z
1/2+x,1/2+y,z
1/2-x,1/2-y,1/2+z
1/2+x,1/2-y,-z
1/2-x,1/2+y,1/2-z
loop_
_atom_site_type_symbol
_atom_site_label
_atom_site_fract_x
_atom_site_fract_y
_atom_site_fract_z
Si Si1 0.022549 0.637250 0.601365
Si Si2 0.742535 0.150088 0.117646
Si Si3 0.810812 0.439129 0.466021
Si Si4 0.301086 0.303394 0.689504
Si Si5 0.970078 0.703166 0.080311
Si Si6 0.916026 0.885762 0.158256
Si Si7 0.996764 0.815645 0.988642
Si Si8 0.189690 0.315808 0.225226
O O1 0.089061 0.663226 0.504286
O O2 0.128267 0.643120 0.691436
O O3 0.958769 0.577802 0.578995
O O4 0.889045 0.673067 0.622320
O O5 0.805133 0.148399 0.229258
O O6 0.598925 0.177830 0.132905
O O7 0.842629 0.184591 0.048498
O O8 0.723233 0.091934 0.068501
O O9 0.817162 0.500000 0.500000
O O10 0.693058 0.428758 0.383881
O O11 0.151086 0.289919 0.655428
O O12 0.399349 0.322690 0.602166
O O13 0.338595 0.247252 0.747339
O O14 0.024456 0.759436 0.040040
O O15 0.843497 0.832754 0.206086
O O16 0.000000 0.912384 0.250000
O O17 0.013568 0.864457 0.069124
#
# Coordination Sequence:
#
# PCOD8158285 Si02
#       8
#     8   8   8   8   8   8   8   8
#     4   9  19  34  57  83 110 152 201 251 285 357
#     4  10  23  37  54  84 118 152 205 245 299 364
#     4   9  20  44  68  81 107 156 206 264 319 353
#     4  12  22  31  55  85 125 172 191 234 292 362
#     4  11  20  33  50  79 120 163 196 232 292 354
#     4  10  22  36  56  89 119 154 203 247 297 365
#     4  11  21  35  52  83 120 167 200 229 289 366
#     4  10  19  33  54  83 122 156 194 230 293 356
#
# _framework density 19.325548999999999
#
# number of rings (size 3 to 8) (size 9 to 14) (size 15 to 20)
#    0.000    1.750    2.500    3.000    5.250    0.000 
#    0.000    2.500   22.000    0.750    0.000    0.000 
#    0.000    0.000    0.000    0.000    0.000    0.000 
#
# Total GULP energy -396494.171880 kJ/mol
# GULP energy per Si atom -12390.442871 kJ/mol
# Density = 1.928156 g / cm^3
# Si number density = 19.325549 Si / 1000 Ang^3
#
#
#
# Elastic Constant Matrix: (Units=GPa)
#
#
# Indices 1 2 3 4 5 6 
#
# 1 71.0929 29.3860 37.6632 0.0000 0.0000 0.0000
# 2 29.3860 96.6365 46.5066 0.0000 0.0000 0.0000
# 3 37.6632 46.5066 111.6972 0.0000 0.0000 0.0000
# 4 0.0000 0.0000 0.0000 22.5846 0.0000 0.0000
# 5 0.0000 0.0000 0.0000 0.0000 32.8289 0.0000
# 6 0.0000 0.0000 0.0000 0.0000 0.0000 15.2173
#
#
#
# Elastic Compliance Matrix: (Units=1/GPa)
#
#
# Indices 1 2 3 4 5 6 
#
# 1 0.017869 -0.003169 -0.004706 0.000000 0.000000 0.000000
# 2 -0.003169 0.013503 -0.004554 0.000000 0.000000 0.000000
# 3 -0.004706 -0.004554 0.012435 0.000000 0.000000 0.000000
# 4 0.000000 0.000000 0.000000 0.044278 0.000000 0.000000
# 5 0.000000 0.000000 0.000000 0.000000 0.030461 0.000000
# 6 0.000000 0.000000 0.000000 0.000000 0.000000 0.065715
#
#
# Mechanical properties :
#
#
# Convention : Reuss Voigt Hill
#
# Bulk Modulus (GPa) = 52.76854 56.28205 54.52530
# Shear Modulus (GPa) = 23.20883 25.18422 24.19653
#
# Velocity S-wave (km/s) = 3.46922 3.61384 3.54227
# Velocity P-wave (km/s) = 6.58875 6.82638 6.70862
#
# Compressibility (1/GPa) = 0.01895069
#
# Stress axis : x y z
#
# Youngs Moduli (GPa) = 55.96277 74.05657 80.41502
#
# Poissons Ratio (x) = 0.23469 0.37841
# Poissons Ratio (y) = 0.17735 0.36618
# Poissons Ratio (z) = 0.26335 0.33723
#
# Static dielectric constant tensor:
#      x y z
#    x 3.565320 0.000000 0.000000 
#    y 0.000000 3.041150 0.000000 
#    z 0.000000 0.000000 3.781410 
# 
# 
# High freq. dielectric constant tensor:
#      x y z
#    x 1.756170 0.000000 0.000000 
#    y 0.000000 1.690480 0.000000 
#    z 0.000000 0.000000 1.768560 
# 
# From -- ./inp_files/19362.got.cif
#   From: 2010.03.12/outbox.cif.g09.slc.cpg/sg20_10_cif.got.tgz:19362.got - 2010.04.14 01:38:04.
