data_PCOD8158323
_publ_section_title
;
Structure prediction by ZEFSAII (Michael W. Deem and Ramdas Pophale) SiO2 
 PCOD8158323
Probable space group: C 2 2 21
;
_chemical_formula_sum "Si O2"
_cell_formula_units_Z 48
_cell_length_a 13.576100
_cell_length_b 12.008834
_cell_length_c 14.633868
_cell_angle_alpha 90.000000
_cell_angle_beta 90.000000
_cell_angle_gamma 90.000000
_cell_volume 2385.805323
_symmetry_space_group_name_H-M "C 2 2 21"
_symmetry_group_IT_number 20
_symmetry_cell_setting 'orthorhombic'
loop_
_space_group_symop_operation_xyz
x,y,z
-x,-y,1/2+z
x,-y,-z
-x,y,1/2-z
1/2+x,1/2+y,z
1/2-x,1/2-y,1/2+z
1/2+x,1/2-y,-z
1/2-x,1/2+y,1/2-z
loop_
_atom_site_type_symbol
_atom_site_label
_atom_site_fract_x
_atom_site_fract_y
_atom_site_fract_z
Si Si1 0.719858 0.031252 0.705128
Si Si2 0.110482 0.394452 0.564805
Si Si3 0.409293 0.831266 0.319886
Si Si4 0.899059 0.377630 0.520733
Si Si5 0.113690 0.116468 0.265513
Si Si6 0.708297 0.247845 0.580330
O O1 0.666418 0.925238 0.658282
O O2 0.826719 0.994283 0.740174
O O3 0.659809 0.063743 0.796454
O O4 0.727749 0.137724 0.639827
O O5 0.120009 0.500000 0.500000
O O6 0.158618 0.286172 0.516172
O O7 0.994427 0.375102 0.587217
O O8 0.500000 0.832772 0.250000
O O9 0.443490 0.833825 0.424139
O O10 0.353458 0.714239 0.304284
O O11 0.856229 0.500000 0.500000
O O12 0.814342 0.301442 0.561599
O O13 0.138315 0.162685 0.367785
O O14 0.000000 0.085317 0.250000
#
# Coordination Sequence:
#
# PCOD8158323 Si02
#       6
#     8   8   8   8   8   8
#     4  10  20  36  56  79 108 144 185 224 270 327
#     4   9  18  34  56  79 108 144 181 222 273 332
#     4  10  19  34  57  80 105 143 183 221 270 333
#     4  11  20  34  55  83 112 139 181 236 277 316
#     4  10  20  36  56  77 107 147 185 220 269 335
#     4  10  21  36  55  82 111 143 184 227 274 325
#
# _framework density 20.118993
#
# number of rings (size 3 to 8) (size 9 to 14) (size 15 to 20)
#    0.000    2.000    0.000    7.000    0.000    0.000 
#    0.000    6.667    0.000    0.000    0.000    0.000 
#    0.000    0.000    0.000    0.000    0.000    0.000 
#
# Total GULP energy -297476.611094 kJ/mol
# GULP energy per Si atom -12394.858796 kJ/mol
# Density = 2.007320 g / cm^3
# Si number density = 20.118993 Si / 1000 Ang^3
#
#
#
# Elastic Constant Matrix: (Units=GPa)
#
#
# Indices 1 2 3 4 5 6 
#
# 1 144.6272 51.1804 30.8313 0.0000 0.0000 0.0000
# 2 51.1804 66.6598 13.5492 0.0000 0.0000 0.0000
# 3 30.8313 13.5492 50.6884 0.0000 0.0000 0.0000
# 4 0.0000 0.0000 0.0000 16.3075 0.0000 0.0000
# 5 0.0000 0.0000 0.0000 0.0000 30.7362 0.0000
# 6 0.0000 0.0000 0.0000 0.0000 0.0000 43.2801
#
#
#
# Elastic Compliance Matrix: (Units=1/GPa)
#
#
# Indices 1 2 3 4 5 6 
#
# 1 0.010349 -0.007049 -0.004411 0.000000 0.000000 0.000000
# 2 -0.007049 0.020665 -0.001236 0.000000 0.000000 0.000000
# 3 -0.004411 -0.001236 0.022742 0.000000 0.000000 0.000000
# 4 0.000000 0.000000 0.000000 0.061321 0.000000 0.000000
# 5 0.000000 0.000000 0.000000 0.000000 0.032535 0.000000
# 6 0.000000 0.000000 0.000000 0.000000 0.000000 0.023105
#
#
# Mechanical properties :
#
#
# Convention : Reuss Voigt Hill
#
# Bulk Modulus (GPa) = 35.25620 50.34412 42.80016
# Shear Modulus (GPa) = 24.32327 29.15907 26.74117
#
# Velocity S-wave (km/s) = 3.48080 3.81114 3.64971
# Velocity P-wave (km/s) = 5.80659 6.66662 6.25141
#
# Compressibility (1/GPa) = 0.02836381
#
# Stress axis : x y z
#
# Youngs Moduli (GPa) = 96.62556 48.39033 43.97244
#
# Poissons Ratio (x) = 0.34113 0.19394
# Poissons Ratio (y) = 0.68116 0.05435
# Poissons Ratio (z) = 0.42617 0.05981
#
# Static dielectric constant tensor:
#      x y z
#    x 3.660540 0.000000 0.000000 
#    y 0.000000 3.695240 0.000000 
#    z 0.000000 0.000000 3.667740 
# 
# 
# High freq. dielectric constant tensor:
#      x y z
#    x 1.785590 0.000000 0.000000 
#    y 0.000000 1.774560 0.000000 
#    z 0.000000 0.000000 1.774200 
# 
# From -- ./inp_files/19923.got.cif
#   From: 2010.03.12/outbox.cif.g09.slc.cpg/sg20_10_cif.got.tgz:19923.got - 2010.04.14 01:38:04.
