data_PCOD8158315
_publ_section_title
;
Structure prediction by ZEFSAII (Michael W. Deem and Ramdas Pophale) SiO2 
 PCOD8158315
Probable space group: C 2 2 21
;
_chemical_formula_sum "Si O2"
_cell_formula_units_Z 48
_cell_length_a 8.325708
_cell_length_b 28.612858
_cell_length_c 10.145845
_cell_angle_alpha 90.000000
_cell_angle_beta 90.000000
_cell_angle_gamma 90.000000
_cell_volume 2416.966539
_symmetry_space_group_name_H-M "C 2 2 21"
_symmetry_group_IT_number 20
_symmetry_cell_setting 'orthorhombic'
loop_
_space_group_symop_operation_xyz
x,y,z
-x,-y,1/2+z
x,-y,-z
-x,y,1/2-z
1/2+x,1/2+y,z
1/2-x,1/2-y,1/2+z
1/2+x,1/2-y,-z
1/2-x,1/2+y,1/2-z
loop_
_atom_site_type_symbol
_atom_site_label
_atom_site_fract_x
_atom_site_fract_y
_atom_site_fract_z
Si Si1 0.129777 0.095215 0.637485
Si Si2 0.614101 0.277936 0.867624
Si Si3 0.638131 0.568565 0.350230
Si Si4 0.638942 0.014433 0.854450
Si Si5 0.818175 0.343017 0.712148
Si Si6 0.830661 0.196603 0.958598
O O1 0.065155 0.076806 0.496142
O O2 0.299251 0.067871 0.660497
O O3 0.162240 0.150762 0.634062
O O4 0.000000 0.083392 0.750000
O O5 0.500000 0.260772 0.750000
O O6 0.703346 0.326410 0.831369
O O7 0.749261 0.238502 0.880227
O O8 0.511045 0.288244 0.999150
O O9 0.500000 0.580814 0.250000
O O10 0.703198 0.516666 0.326715
O O11 0.786726 0.603192 0.323132
O O12 0.500000 0.004759 0.750000
O O13 0.573630 0.000000 0.000000
O O14 0.779330 0.311739 0.585581
O O15 0.000000 0.335623 0.750000
#
# Coordination Sequence:
#
# PCOD8158315 Si02
#       6
#     8   8   8   8   8   8
#     4  10  22  38  56  84 118 150 187 239 298 352
#     4  10  21  36  55  81 111 149 198 243 290 352
#     4  10  20  38  61  84 112 150 196 240 285 351
#     4  10  22  39  59  86 119 152 193 242 291 350
#     4  10  19  34  56  81 109 144 192 244 292 348
#     4  10  21  37  55  80 115 151 191 242 298 355
#
# _framework density 19.859604000000001
#
# number of rings (size 3 to 8) (size 9 to 14) (size 15 to 20)
#    0.000    2.000    0.000    4.500    0.000    5.333 
#    0.000    6.667    0.000    0.000    0.000    0.000 
#    0.000    0.000    0.000    0.000    0.000    0.000 
#
# Total GULP energy -297581.655523 kJ/mol
# GULP energy per Si atom -12399.235647 kJ/mol
# Density = 1.981440 g / cm^3
# Si number density = 19.859604 Si / 1000 Ang^3
#
#
#
# Elastic Constant Matrix: (Units=GPa)
#
#
# Indices 1 2 3 4 5 6 
#
# 1 98.9679 27.5165 65.7907 0.0000 0.0000 0.0000
# 2 27.5165 103.8090 37.5360 0.0000 0.0000 0.0000
# 3 65.7907 37.5360 99.5846 0.0000 0.0000 0.0000
# 4 0.0000 0.0000 0.0000 20.8304 0.0000 0.0000
# 5 0.0000 0.0000 0.0000 0.0000 37.4699 0.0000
# 6 0.0000 0.0000 0.0000 0.0000 0.0000 20.8504
#
#
#
# Elastic Compliance Matrix: (Units=1/GPa)
#
#
# Indices 1 2 3 4 5 6 
#
# 1 0.018044 -0.000547 -0.011714 0.000000 0.000000 0.000000
# 2 -0.000547 0.011170 -0.003849 0.000000 0.000000 0.000000
# 3 -0.011714 -0.003849 0.019232 0.000000 0.000000 0.000000
# 4 0.000000 0.000000 0.000000 0.048007 0.000000 0.000000
# 5 0.000000 0.000000 0.000000 0.000000 0.026688 0.000000
# 6 0.000000 0.000000 0.000000 0.000000 0.000000 0.047961
#
#
# Mechanical properties :
#
#
# Convention : Reuss Voigt Hill
#
# Bulk Modulus (GPa) = 61.63484 62.67200 62.15342
# Shear Modulus (GPa) = 23.95449 27.26472 25.60960
#
# Velocity S-wave (km/s) = 3.47679 3.70925 3.59490
# Velocity P-wave (km/s) = 6.87169 7.06900 6.97104
#
# Compressibility (1/GPa) = 0.01622459
#
# Stress axis : x y z
#
# Youngs Moduli (GPa) = 55.42078 89.52757 51.99782
#
# Poissons Ratio (x) = 0.04897 0.60913
# Poissons Ratio (y) = 0.03032 0.20013
# Poissons Ratio (z) = 0.64922 0.34457
#
# Static dielectric constant tensor:
#      x y z
#    x 3.384670 0.000000 0.000000 
#    y 0.000000 3.647220 0.000000 
#    z 0.000000 0.000000 3.618530 
# 
# 
# High freq. dielectric constant tensor:
#      x y z
#    x 1.762760 0.000000 0.000000 
#    y 0.000000 1.785220 0.000000 
#    z 0.000000 0.000000 1.770900 
# 
# From -- ./inp_files/6485.got.cif
#   From: 2010.03.12/outbox.cif.g09.slc.cpg/sg20_4_cif.got.tgz:6485.got - 2010.04.14 01:38:04.
