data_PCOD8158630
_publ_section_title
;
Structure prediction by ZEFSAII (Michael W. Deem and Ramdas Pophale) SiO2 
 PCOD8158630
Probable space group: C 2 2 21
;
_chemical_formula_sum "Si O2"
_cell_formula_units_Z 64
_cell_length_a 8.797746
_cell_length_b 22.221552
_cell_length_c 16.881268
_cell_angle_alpha 90.000000
_cell_angle_beta 90.000000
_cell_angle_gamma 90.000000
_cell_volume 3300.280639
_symmetry_space_group_name_H-M "C 2 2 21"
_symmetry_group_IT_number 20
_symmetry_cell_setting 'orthorhombic'
loop_
_space_group_symop_operation_xyz
x,y,z
-x,-y,1/2+z
x,-y,-z
-x,y,1/2-z
1/2+x,1/2+y,z
1/2-x,1/2-y,1/2+z
1/2+x,1/2-y,-z
1/2-x,1/2+y,1/2-z
loop_
_atom_site_type_symbol
_atom_site_label
_atom_site_fract_x
_atom_site_fract_y
_atom_site_fract_z
Si Si1 0.176136 0.531872 0.415071
Si Si2 0.599790 0.068246 0.176827
Si Si3 0.188331 0.796900 0.404212
Si Si4 0.160784 0.329899 0.942678
Si Si5 0.659072 0.700159 0.882869
Si Si6 0.676403 0.141670 0.760296
Si Si7 0.175569 0.015528 0.765811
Si Si8 0.682191 0.165315 0.463498
O O1 0.177366 0.500000 0.500000
O O2 0.294696 0.497205 0.358838
O O3 0.217300 0.603223 0.417157
O O4 0.008533 0.525328 0.376379
O O5 0.500000 0.095951 0.250000
O O6 0.677675 0.117726 0.121305
O O7 0.738488 0.031256 0.210662
O O8 0.213494 0.831499 0.487863
O O9 0.308052 0.823169 0.342539
O O10 0.221751 0.725087 0.412375
O O11 0.020075 0.812291 0.373064
O O12 0.187378 0.270120 0.893332
O O13 0.996157 0.331524 0.984756
O O14 0.755649 0.684001 0.806769
O O15 0.720013 0.662257 0.957100
O O16 0.500000 0.126483 0.750000
O O17 0.771953 0.081028 0.759843
O O18 0.000000 0.007980 0.750000
#
# Coordination Sequence:
#
# PCOD8158630 Si02
#       8
#     8   8   8   8   8   8   8   8
#     4  10  20  37  62  86 114 156 197 233 279 341
#     4   9  20  38  59  84 115 154 195 233 279 340
#     4  10  21  36  56  86 118 150 190 242 290 337
#     4   9  19  36  59  85 118 154 192 232 280 342
#     4  10  20  35  57  84 116 149 188 238 289 339
#     4  12  24  39  58  79 110 152 195 238 293 356
#     4  11  24  41  58  84 117 147 188 244 295 343
#     4   9  19  36  57  84 117 152 190 232 283 342
#
# _framework density 19.392291
#
# number of rings (size 3 to 8) (size 9 to 14) (size 15 to 20)
#    0.000    2.000    0.000    3.750    0.000    9.000 
#    0.000    1.875    0.000    0.000    0.000    0.000 
#    0.000    0.000    0.000    0.000    0.000    0.000 
#
# Total GULP energy -396782.798964 kJ/mol
# GULP energy per Si atom -12399.462468 kJ/mol
# Density = 1.934815 g / cm^3
# Si number density = 19.392291 Si / 1000 Ang^3
#
#
#
# Elastic Constant Matrix: (Units=GPa)
#
#
# Indices 1 2 3 4 5 6 
#
# 1 94.9922 39.5256 54.4518 0.0000 0.0000 0.0000
# 2 39.5256 92.4198 55.3021 0.0000 0.0000 0.0000
# 3 54.4518 55.3021 113.6647 0.0000 0.0000 0.0000
# 4 0.0000 0.0000 0.0000 31.5619 0.0000 0.0000
# 5 0.0000 0.0000 0.0000 0.0000 35.8051 0.0000
# 6 0.0000 0.0000 0.0000 0.0000 0.0000 26.4881
#
#
#
# Elastic Compliance Matrix: (Units=1/GPa)
#
#
# Indices 1 2 3 4 5 6 
#
# 1 0.015080 -0.003000 -0.005765 0.000000 0.000000 0.000000
# 2 -0.003000 0.015861 -0.006280 0.000000 0.000000 0.000000
# 3 -0.005765 -0.006280 0.014615 0.000000 0.000000 0.000000
# 4 0.000000 0.000000 0.000000 0.031684 0.000000 0.000000
# 5 0.000000 0.000000 0.000000 0.000000 0.027929 0.000000
# 6 0.000000 0.000000 0.000000 0.000000 0.000000 0.037753
#
#
# Mechanical properties :
#
#
# Convention : Reuss Voigt Hill
#
# Bulk Modulus (GPa) = 64.65393 66.62620 65.64006
# Shear Modulus (GPa) = 28.06391 28.89084 28.47737
#
# Velocity S-wave (km/s) = 3.80829 3.86399 3.83624
# Velocity P-wave (km/s) = 7.26291 7.37149 7.31740
#
# Compressibility (1/GPa) = 0.01546696
#
# Stress axis : x y z
#
# Youngs Moduli (GPa) = 66.31407 63.04828 68.42431
#
# Poissons Ratio (x) = 0.18914 0.39443
# Poissons Ratio (y) = 0.19893 0.42969
# Poissons Ratio (z) = 0.38227 0.39593
#
# Static dielectric constant tensor:
#      x y z
#    x 3.554970 0.000000 0.000000 
#    y 0.000000 3.622310 0.000000 
#    z 0.000000 0.000000 3.655400 
# 
# 
# High freq. dielectric constant tensor:
#      x y z
#    x 1.750250 0.000000 0.000000 
#    y 0.000000 1.757290 0.000000 
#    z 0.000000 0.000000 1.761650 
# 
# From -- ./inp_files/19349.got.cif
#   From: 2010.03.12/outbox.cif.g09.slc.cpg/sg20_10_cif.got.tgz:19349.got - 2010.04.14 01:38:04.
