data_PCOD8158133
_publ_section_title
;
Structure prediction by ZEFSAII (Michael W. Deem and Ramdas Pophale) SiO2 
 PCOD8158133
Probable space group: C 2 2 21
;
_chemical_formula_sum "Si O2"
_cell_formula_units_Z 64
_cell_length_a 24.519756
_cell_length_b 12.010747
_cell_length_c 11.236954
_cell_angle_alpha 90.000000
_cell_angle_beta 90.000000
_cell_angle_gamma 90.000000
_cell_volume 3309.289536
_symmetry_space_group_name_H-M "C 2 2 21"
_symmetry_group_IT_number 20
_symmetry_cell_setting 'orthorhombic'
loop_
_space_group_symop_operation_xyz
x,y,z
-x,-y,1/2+z
x,-y,-z
-x,y,1/2-z
1/2+x,1/2+y,z
1/2-x,1/2-y,1/2+z
1/2+x,1/2-y,-z
1/2-x,1/2+y,1/2-z
loop_
_atom_site_type_symbol
_atom_site_label
_atom_site_fract_x
_atom_site_fract_y
_atom_site_fract_z
Si Si1 0.153064 0.034517 0.135580
Si Si2 0.335480 0.309252 0.220637
Si Si3 0.720243 0.747594 0.149555
Si Si4 0.114633 0.373587 0.143636
Si Si5 0.748734 0.613070 0.432068
Si Si6 0.937899 0.177446 0.246413
Si Si7 0.864993 0.614883 0.366111
Si Si8 0.866940 0.875531 0.963576
O O1 0.204469 0.117651 0.145487
O O2 0.096945 0.092350 0.174799
O O3 0.162755 0.930125 0.221375
O O4 0.145384 0.000000 0.000000
O O5 0.272851 0.265161 0.234507
O O6 0.376963 0.224300 0.287612
O O7 0.354756 0.308363 0.084349
O O8 0.670508 0.823456 0.198083
O O9 0.735158 0.784555 0.016416
O O10 0.065179 0.301675 0.197337
O O11 0.105473 0.502732 0.180660
O O12 0.117359 0.361444 0.000918
O O13 0.735439 0.500000 0.500000
O O14 0.800216 0.588558 0.348910
O O15 0.687919 0.635804 0.377200
O O16 0.916525 0.178050 0.109809
O O17 0.000000 0.137332 0.250000
O O18 0.883275 0.000000 0.000000
#
# Coordination Sequence:
#
# PCOD8158133 Si02
#       8
#     8   8   8   8   8   8   8   8
#     4  11  23  41  58  92 127 154 214 262 298 362
#     4  11  22  33  61  88 130 163 191 242 300 373
#     4   9  19  31  52  88 122 167 188 231 291 361
#     4   9  19  37  59  86 118 154 206 245 285 369
#     4   9  15  29  53  84 120 164 196 222 282 369
#     4  11  24  42  67  84 110 162 209 264 320 355
#     4  10  18  34  62  90 121 158 198 229 303 367
#     4  10  21  38  54  84 125 159 201 241 301 367
#
# _framework density 19.339500000000001
#
# number of rings (size 3 to 8) (size 9 to 14) (size 15 to 20)
#    0.000    2.000    3.750    2.250    5.250    0.500 
#    0.000    0.625    5.500    0.000    0.000    0.000 
#    0.000    0.000    0.000    0.000    0.000    0.000 
#
# Total GULP energy -396545.908282 kJ/mol
# GULP energy per Si atom -12392.059634 kJ/mol
# Density = 1.929548 g / cm^3
# Si number density = 19.339500 Si / 1000 Ang^3
#
#
#
# Elastic Constant Matrix: (Units=GPa)
#
#
# Indices 1 2 3 4 5 6 
#
# 1 93.3230 35.6179 30.6899 0.0000 0.0000 0.0000
# 2 35.6179 139.8764 41.5303 0.0000 0.0000 0.0000
# 3 30.6899 41.5303 75.1495 0.0000 0.0000 0.0000
# 4 0.0000 0.0000 0.0000 22.7583 0.0000 0.0000
# 5 0.0000 0.0000 0.0000 0.0000 24.8045 0.0000
# 6 0.0000 0.0000 0.0000 0.0000 0.0000 17.9817
#
#
#
# Elastic Compliance Matrix: (Units=1/GPa)
#
#
# Indices 1 2 3 4 5 6 
#
# 1 0.012851 -0.002051 -0.004115 0.000000 0.000000 0.000000
# 2 -0.002051 0.008880 -0.004070 0.000000 0.000000 0.000000
# 3 -0.004115 -0.004070 0.017236 0.000000 0.000000 0.000000
# 4 0.000000 0.000000 0.000000 0.043940 0.000000 0.000000
# 5 0.000000 0.000000 0.000000 0.000000 0.040315 0.000000
# 6 0.000000 0.000000 0.000000 0.000000 0.000000 0.055612
#
#
# Mechanical properties :
#
#
# Convention : Reuss Voigt Hill
#
# Bulk Modulus (GPa) = 54.06414 58.22502 56.14458
# Shear Modulus (GPa) = 24.33431 26.47630 25.40530
#
# Velocity S-wave (km/s) = 3.55106 3.70405 3.62836
# Velocity P-wave (km/s) = 6.69547 6.96171 6.82989
#
# Compressibility (1/GPa) = 0.01849655
#
# Stress axis : x y z
#
# Youngs Moduli (GPa) = 77.81258 112.61651 58.01668
#
# Poissons Ratio (x) = 0.23094 0.23874
# Poissons Ratio (y) = 0.15957 0.23611
# Poissons Ratio (z) = 0.32020 0.45832
#
# Static dielectric constant tensor:
#      x y z
#    x 3.237020 0.000000 0.000000 
#    y 0.000000 3.682320 0.000000 
#    z 0.000000 0.000000 3.300670 
# 
# 
# High freq. dielectric constant tensor:
#      x y z
#    x 1.709850 0.000000 0.000000 
#    y 0.000000 1.762580 0.000000 
#    z 0.000000 0.000000 1.748720 
# 
# From -- ./inp_files/16802.got.cif
#   From: 2010.03.12/outbox.cif.g09.slc.cpg/sg20_9_cif.got.tgz:16802.got - 2010.04.14 01:38:04.
