data_PCOD8158438
_publ_section_title
;
Structure prediction by ZEFSAII (Michael W. Deem and Ramdas Pophale) SiO2 
 PCOD8158438
Probable space group: C 2 2 21
;
_chemical_formula_sum "Si O2"
_cell_formula_units_Z 64
_cell_length_a 19.562747
_cell_length_b 9.474050
_cell_length_c 17.546074
_cell_angle_alpha 90.000000
_cell_angle_beta 90.000000
_cell_angle_gamma 90.000000
_cell_volume 3251.962040
_symmetry_space_group_name_H-M "C 2 2 21"
_symmetry_group_IT_number 20
_symmetry_cell_setting 'orthorhombic'
loop_
_space_group_symop_operation_xyz
x,y,z
-x,-y,1/2+z
x,-y,-z
-x,y,1/2-z
1/2+x,1/2+y,z
1/2-x,1/2-y,1/2+z
1/2+x,1/2-y,-z
1/2-x,1/2+y,1/2-z
loop_
_atom_site_type_symbol
_atom_site_label
_atom_site_fract_x
_atom_site_fract_y
_atom_site_fract_z
Si Si1 0.866155 0.889644 0.940744
Si Si2 0.930083 0.780053 0.703223
Si Si3 0.688493 0.210439 0.292705
Si Si4 0.645500 0.871663 0.545694
Si Si5 0.685242 0.546632 0.278708
Si Si6 0.572810 0.962166 0.787441
Si Si7 0.008011 0.611574 0.059774
Si Si8 0.480825 0.371914 0.544034
O O1 0.821353 0.900110 0.865021
O O2 0.945722 0.924375 0.923106
O O3 0.861852 0.737200 0.977161
O O4 0.834586 0.000000 0.000000
O O5 0.880891 0.902624 0.732781
O O6 0.897188 0.622797 0.711230
O O7 0.938711 0.807462 0.613415
O O8 0.000000 0.790792 0.750000
O O9 0.690362 0.186748 0.384192
O O10 0.692534 0.377007 0.274185
O O11 0.749757 0.123781 0.256184
O O12 0.619613 0.146189 0.258118
O O13 0.571691 0.920826 0.580030
O O14 0.681433 0.000000 0.500000
O O15 0.500000 0.972688 0.750000
O O16 0.560392 0.897885 0.870623
O O17 0.036440 0.500000 0.000000
O O18 0.009854 0.764719 0.024576
O O19 0.442896 0.500000 0.500000
#
# Coordination Sequence:
#
# PCOD8158438 Si02
#       8
#     8   8   8   8   8   8   8   8
#     4  10  20  41  65  95 124 169 215 268 321 388
#     4  11  23  40  65  98 131 170 210 265 331 385
#     4  12  27  46  64  98 131 179 218 270 326 392
#     4  10  22  37  69  97 128 164 221 266 317 389
#     4  12  27  45  67  92 137 174 223 268 331 389
#     4  11  23  39  66  97 133 167 214 265 327 386
#     4  10  19  37  60  96 132 168 210 267 323 383
#     4  10  21  35  62  97 132 163 215 269 326 382
#
# _framework density 19.680426000000001
#
# number of rings (size 3 to 8) (size 9 to 14) (size 15 to 20)
#    0.000    1.250    5.000    0.750    5.250    0.500 
#    0.000    2.500    0.000    0.000    0.000    0.000 
#    0.000    0.000    0.000    0.000    0.000    0.000 
#
# Total GULP energy -396681.433731 kJ/mol
# GULP energy per Si atom -12396.294804 kJ/mol
# Density = 1.963563 g / cm^3
# Si number density = 19.680426 Si / 1000 Ang^3
#
#
#
# Elastic Constant Matrix: (Units=GPa)
#
#
# Indices 1 2 3 4 5 6 
#
# 1 54.7708 39.6136 32.2786 0.0000 0.0000 0.0000
# 2 39.6136 151.2986 48.2009 0.0000 0.0000 0.0000
# 3 32.2786 48.2009 116.4400 0.0000 0.0000 0.0000
# 4 0.0000 0.0000 0.0000 37.2693 0.0000 0.0000
# 5 0.0000 0.0000 0.0000 0.0000 24.4927 0.0000
# 6 0.0000 0.0000 0.0000 0.0000 0.0000 33.6328
#
#
#
# Elastic Compliance Matrix: (Units=1/GPa)
#
#
# Indices 1 2 3 4 5 6 
#
# 1 0.024645 -0.004926 -0.004793 0.000000 0.000000 0.000000
# 2 -0.004926 0.008598 -0.002194 0.000000 0.000000 0.000000
# 3 -0.004793 -0.002194 0.010825 0.000000 0.000000 0.000000
# 4 0.000000 0.000000 0.000000 0.026832 0.000000 0.000000
# 5 0.000000 0.000000 0.000000 0.000000 0.040828 0.000000
# 6 0.000000 0.000000 0.000000 0.000000 0.000000 0.029733
#
#
# Mechanical properties :
#
#
# Convention : Reuss Voigt Hill
#
# Bulk Modulus (GPa) = 49.39908 62.52171 55.96040
# Shear Modulus (GPa) = 29.06410 32.57339 30.81875
#
# Velocity S-wave (km/s) = 3.84709 4.07273 3.96151
# Velocity P-wave (km/s) = 6.69989 7.34531 7.03001
#
# Compressibility (1/GPa) = 0.02024329
#
# Stress axis : x y z
#
# Youngs Moduli (GPa) = 40.57594 116.30615 92.37998
#
# Poissons Ratio (x) = 0.57290 0.44277
# Poissons Ratio (y) = 0.19987 0.20265
# Poissons Ratio (z) = 0.19448 0.25514
#
# Static dielectric constant tensor:
#      x y z
#    x 3.124720 0.000000 0.000000 
#    y 0.000000 3.996460 0.000000 
#    z 0.000000 0.000000 3.482820 
# 
# 
# High freq. dielectric constant tensor:
#      x y z
#    x 1.726710 0.000000 0.000000 
#    y 0.000000 1.786100 0.000000 
#    z 0.000000 0.000000 1.781460 
# 
# From -- ./inp_files/25525.got.cif
#   From: 2010.03.12/outbox.cif.g09.slc.cpg/sg20_13_cif.got.tgz:25525.got - 2010.04.14 01:38:04.
