data_PCOD8158735
_publ_section_title
;
Structure prediction by ZEFSAII (Michael W. Deem and Ramdas Pophale) SiO2 
 PCOD8158735
Probable space group: C 2 2 21
;
_chemical_formula_sum "Si O2"
_cell_formula_units_Z 40
_cell_length_a 9.834639
_cell_length_b 9.863808
_cell_length_c 24.537459
_cell_angle_alpha 90.000000
_cell_angle_beta 90.000000
_cell_angle_gamma 90.000000
_cell_volume 2380.305061
_symmetry_space_group_name_H-M "C 2 2 21"
_symmetry_group_IT_number 20
_symmetry_cell_setting 'orthorhombic'
loop_
_space_group_symop_operation_xyz
x,y,z
-x,-y,1/2+z
x,-y,-z
-x,y,1/2-z
1/2+x,1/2+y,z
1/2-x,1/2-y,1/2+z
1/2+x,1/2-y,-z
1/2-x,1/2+y,1/2-z
loop_
_atom_site_type_symbol
_atom_site_label
_atom_site_fract_x
_atom_site_fract_y
_atom_site_fract_z
Si Si1 0.089209 0.612705 0.597351
Si Si2 0.000000 0.767672 0.250000
Si Si3 0.861631 0.840877 0.596286
Si Si4 0.251427 0.000000 0.000000
Si Si5 0.636660 0.386059 0.153825
Si Si6 0.927605 0.675922 0.138805
O O1 0.153491 0.594838 0.537477
O O2 0.207954 0.651341 0.639963
O O3 0.025091 0.470270 0.616747
O O4 0.975575 0.726901 0.596365
O O5 0.890361 0.863117 0.281617
O O6 0.922364 0.674379 0.205332
O O7 0.717835 0.778403 0.615118
O O8 0.845258 0.903639 0.536018
O O9 0.900428 0.959932 0.638439
O O10 0.538425 0.286113 0.118931
#
# Coordination Sequence:
#
# PCOD8158735 Si02
#       6
#     8   4   8   4   8   8
#     4  10  20  37  56  85 103 140 185 224 261 323
#     4   8  16  40  56  72 116 156 160 212 280 310
#     4  10  20  37  56  85 103 140 185 224 261 323
#     4   8  20  36  56  72 124 136 160 236 288 302
#     4   8  18  37  53  75 116 143 171 218 263 310
#     4   8  18  37  53  75 116 143 171 218 263 310
#
# _framework density 16.804568
#
# number of rings (size 3 to 8) (size 9 to 14) (size 15 to 20)
#    1.200    2.400    0.000    0.000    0.000    8.000 
#   14.400    0.000    0.000    0.000    0.000    0.000 
#    0.000    0.000    0.000    0.000    0.000    0.000 
#
# Total GULP energy -247766.234598 kJ/mol
# GULP energy per Si atom -12388.311730 kJ/mol
# Density = 1.676632 g / cm^3
# Si number density = 16.804568 Si / 1000 Ang^3
#
#
#
# Elastic Constant Matrix: (Units=GPa)
#
#
# Indices 1 2 3 4 5 6 
#
# 1 77.3685 45.3928 -7.9440 0.0000 0.0000 0.0000
# 2 45.3928 86.9125 -3.0404 0.0000 0.0000 0.0000
# 3 -7.9440 -3.0404 57.2401 0.0000 0.0000 0.0000
# 4 0.0000 0.0000 0.0000 20.5092 0.0000 0.0000
# 5 0.0000 0.0000 0.0000 0.0000 21.3606 0.0000
# 6 0.0000 0.0000 0.0000 0.0000 0.0000 37.0072
#
#
#
# Elastic Compliance Matrix: (Units=1/GPa)
#
#
# Indices 1 2 3 4 5 6 
#
# 1 0.018884 -0.009790 0.002101 0.000000 0.000000 0.000000
# 2 -0.009790 0.016602 -0.000477 0.000000 0.000000 0.000000
# 3 0.002101 -0.000477 0.017737 0.000000 0.000000 0.000000
# 4 0.000000 0.000000 0.000000 0.048759 0.000000 0.000000
# 5 0.000000 0.000000 0.000000 0.000000 0.046815 0.000000
# 6 0.000000 0.000000 0.000000 0.000000 0.000000 0.027022
#
#
# Mechanical properties :
#
#
# Convention : Reuss Voigt Hill
#
# Bulk Modulus (GPa) = 27.10604 32.25977 29.68290
# Shear Modulus (GPa) = 24.45625 28.24959 26.35292
#
# Velocity S-wave (km/s) = 3.81902 4.10453 3.96435
# Velocity P-wave (km/s) = 5.96756 6.45768 6.21745
#
# Compressibility (1/GPa) = 0.03689215
#
# Stress axis : x y z
#
# Youngs Moduli (GPa) = 52.95352 60.23358 56.38089
#
# Poissons Ratio (x) = 0.58966 -0.11845
# Poissons Ratio (y) = 0.51839 0.02688
# Poissons Ratio (z) = -0.11125 0.02872
#
# Static dielectric constant tensor:
#      x y z
#    x 2.978080 0.000000 0.000000 
#    y 0.000000 2.990350 0.000000 
#    z 0.000000 0.000000 3.120400 
# 
# 
# High freq. dielectric constant tensor:
#      x y z
#    x 1.638860 0.000000 0.000000 
#    y 0.000000 1.639420 0.000000 
#    z 0.000000 0.000000 1.648360 
# 
# From -- ./inp_files/30255.got.cif
#   From: 2010.03.12/outbox.cif.g09.slc.cpg/sg20_16_cif.got.tgz:30255.got - 2010.04.14 01:38:04.
