data_PCOD8158117
_publ_section_title
;
Structure prediction by ZEFSAII (Michael W. Deem and Ramdas Pophale) SiO2 
 PCOD8158117
Probable space group: C 2 2 21
;
_chemical_formula_sum "Si O2"
_cell_formula_units_Z 52
_cell_length_a 11.396862
_cell_length_b 29.836672
_cell_length_c 8.327419
_cell_angle_alpha 90.000000
_cell_angle_beta 90.000000
_cell_angle_gamma 90.000000
_cell_volume 2831.692475
_symmetry_space_group_name_H-M "C 2 2 21"
_symmetry_group_IT_number 20
_symmetry_cell_setting 'orthorhombic'
loop_
_space_group_symop_operation_xyz
x,y,z
-x,-y,1/2+z
x,-y,-z
-x,y,1/2-z
1/2+x,1/2+y,z
1/2-x,1/2-y,1/2+z
1/2+x,1/2-y,-z
1/2-x,1/2+y,1/2-z
loop_
_atom_site_type_symbol
_atom_site_label
_atom_site_fract_x
_atom_site_fract_y
_atom_site_fract_z
Si Si1 0.000000 0.084935 0.250000
Si Si2 0.698526 0.448809 0.968790
Si Si3 0.820281 0.139984 0.054228
Si Si4 0.866614 0.875975 0.295023
Si Si5 0.630289 0.115330 0.304530
Si Si6 0.729237 0.807830 0.502542
Si Si7 0.135029 0.231288 0.291647
O O1 0.904357 0.053922 0.336369
O O2 0.939312 0.116207 0.116187
O O3 0.818016 0.425728 0.907648
O O4 0.728902 0.500000 0.000000
O O5 0.655215 0.425382 0.133297
O O6 0.708402 0.121475 0.147197
O O7 0.834927 0.192972 0.079446
O O8 0.793407 0.129427 0.868835
O O9 0.829346 0.839421 0.427051
O O10 0.000000 0.867106 0.250000
O O11 0.500000 0.103445 0.250000
O O12 0.632606 0.160817 0.410391
O O13 0.790603 0.775245 0.630020
O O14 0.665932 0.779252 0.366379
O O15 0.000000 0.230902 0.250000
#
# Coordination Sequence:
#
# PCOD8158117 Si02
#       7
#     4   8   8   8   8   8   8
#     4  10  18  34  56  84 118 154 172 236 296 348
#     4  10  22  37  60  92 118 145 193 237 292 354
#     4  10  19  35  59  83 113 156 193 229 301 342
#     4  11  20  36  58  84 117 150 186 238 303 358
#     4   9  21  42  60  76 117 160 196 237 287 344
#     4  10  23  35  53  85 110 154 204 237 291 342
#     4  11  21  36  55  80 118 150 197 252 282 336
#
# _framework density 18.363576999999999
#
# number of rings (size 3 to 8) (size 9 to 14) (size 15 to 20)
#    0.000    1.846    2.308    2.769    1.077    3.692 
#    0.000    7.692    0.000    0.000    0.000    0.000 
#    0.000    0.000    0.000    0.000    0.000    0.000 
#
# Total GULP energy -322483.862639 kJ/mol
# GULP energy per Si atom -12403.225486 kJ/mol
# Density = 1.832178 g / cm^3
# Si number density = 18.363577 Si / 1000 Ang^3
#
#
#
# Elastic Constant Matrix: (Units=GPa)
#
#
# Indices 1 2 3 4 5 6 
#
# 1 97.4900 26.8449 20.4085 0.0000 0.0000 0.0000
# 2 26.8449 94.7545 35.4228 0.0000 0.0000 0.0000
# 3 20.4085 35.4228 105.1119 0.0000 0.0000 0.0000
# 4 0.0000 0.0000 0.0000 23.5206 0.0000 0.0000
# 5 0.0000 0.0000 0.0000 0.0000 21.1711 0.0000
# 6 0.0000 0.0000 0.0000 0.0000 0.0000 17.5697
#
#
#
# Elastic Compliance Matrix: (Units=1/GPa)
#
#
# Indices 1 2 3 4 5 6 
#
# 1 0.011272 -0.002718 -0.001273 0.000000 0.000000 0.000000
# 2 -0.002718 0.012730 -0.003762 0.000000 0.000000 0.000000
# 3 -0.001273 -0.003762 0.011029 0.000000 0.000000 0.000000
# 4 0.000000 0.000000 0.000000 0.042516 0.000000 0.000000
# 5 0.000000 0.000000 0.000000 0.000000 0.047234 0.000000
# 6 0.000000 0.000000 0.000000 0.000000 0.000000 0.056916
#
#
# Mechanical properties :
#
#
# Convention : Reuss Voigt Hill
#
# Bulk Modulus (GPa) = 51.21551 51.41208 51.31379
# Shear Modulus (GPa) = 24.54452 26.76429 25.65440
#
# Velocity S-wave (km/s) = 3.65990 3.82182 3.74174
# Velocity P-wave (km/s) = 6.76832 6.89439 6.83164
#
# Compressibility (1/GPa) = 0.01952534
#
# Stress axis : x y z
#
# Youngs Moduli (GPa) = 88.71338 78.55414 90.67242
#
# Poissons Ratio (x) = 0.21349 0.11540
# Poissons Ratio (y) = 0.24110 0.34114
# Poissons Ratio (z) = 0.11291 0.29555
#
# Static dielectric constant tensor:
#      x y z
#    x 3.190000 0.000000 0.000000 
#    y 0.000000 3.262880 0.000000 
#    z 0.000000 0.000000 3.631090 
# 
# 
# High freq. dielectric constant tensor:
#      x y z
#    x 1.700950 0.000000 0.000000 
#    y 0.000000 1.702120 0.000000 
#    z 0.000000 0.000000 1.724590 
# 
# From -- ./inp_files/7527.got.cif
#   From: 2010.03.12/outbox.cif.g09.slc.cpg/sg20_4_cif.got.tgz:7527.got - 2010.04.14 01:38:04.
