data_PCOD8158114
_publ_section_title
;
Structure prediction by ZEFSAII (Michael W. Deem and Ramdas Pophale) SiO2 
 PCOD8158114
Probable space group: C 2 2 21
;
_chemical_formula_sum "Si O2"
_cell_formula_units_Z 52
_cell_length_a 16.337598
_cell_length_b 8.187130
_cell_length_c 19.285927
_cell_angle_alpha 90.000000
_cell_angle_beta 90.000000
_cell_angle_gamma 90.000000
_cell_volume 2579.647770
_symmetry_space_group_name_H-M "C 2 2 21"
_symmetry_group_IT_number 20
_symmetry_cell_setting 'orthorhombic'
loop_
_space_group_symop_operation_xyz
x,y,z
-x,-y,1/2+z
x,-y,-z
-x,y,1/2-z
1/2+x,1/2+y,z
1/2-x,1/2-y,1/2+z
1/2+x,1/2-y,-z
1/2-x,1/2+y,1/2-z
loop_
_atom_site_type_symbol
_atom_site_label
_atom_site_fract_x
_atom_site_fract_y
_atom_site_fract_z
Si Si1 0.303286 0.345250 0.656656
Si Si2 0.228131 0.966833 0.289607
Si Si3 0.916451 0.041340 0.580025
Si Si4 0.313649 0.500000 0.000000
Si Si5 0.760141 0.733914 0.392137
Si Si6 0.160462 0.472513 0.579874
Si Si7 0.911550 0.832909 0.116410
O O1 0.296211 0.173369 0.696305
O O2 0.283531 0.499433 0.708066
O O3 0.392251 0.375102 0.622078
O O4 0.239706 0.354234 0.592238
O O5 0.139956 0.914467 0.321021
O O6 0.264800 0.135432 0.320217
O O7 0.842030 0.168521 0.588494
O O8 0.995233 0.110253 0.619410
O O9 0.934012 0.000000 0.500000
O O10 0.253317 0.602167 0.048104
O O11 0.372580 0.381649 0.043058
O O12 0.679909 0.851441 0.386922
O O13 0.140880 0.500000 0.500000
O O14 0.088620 0.367816 0.617946
#
# Coordination Sequence:
#
# PCOD8158114 Si02
#       7
#     8   8   8   4   8   8   8
#     4  10  20  37  61  86 116 149 208 246 296 349
#     4  10  22  39  64  86 110 161 204 250 293 362
#     4  11  23  37  57  90 126 157 190 249 304 350
#     4  10  18  34  54  80 114 152 194 234 280 360
#     4  10  20  34  59  84 116 148 205 242 292 340
#     4  10  18  34  58  84 114 158 195 242 288 354
#     4  10  21  37  57  84 121 160 193 240 305 356
#
# _framework density 20.157791
#
# number of rings (size 3 to 8) (size 9 to 14) (size 15 to 20)
#    0.000    1.846    2.308    3.692    4.308    0.615 
#    1.385    3.077    0.000    3.692    0.000    0.000 
#    0.000    0.000    0.000    0.000    0.000    0.000 
#
# Total GULP energy -322180.864814 kJ/mol
# GULP energy per Si atom -12391.571724 kJ/mol
# Density = 2.011191 g / cm^3
# Si number density = 20.157791 Si / 1000 Ang^3
#
#
#
# Elastic Constant Matrix: (Units=GPa)
#
#
# Indices 1 2 3 4 5 6 
#
# 1 98.9899 36.5489 17.5023 0.0000 0.0000 0.0000
# 2 36.5489 102.2688 9.4027 0.0000 0.0000 0.0000
# 3 17.5023 9.4027 56.0372 0.0000 0.0000 0.0000
# 4 0.0000 0.0000 0.0000 32.6891 0.0000 0.0000
# 5 0.0000 0.0000 0.0000 0.0000 15.1022 0.0000
# 6 0.0000 0.0000 0.0000 0.0000 0.0000 32.7837
#
#
#
# Elastic Compliance Matrix: (Units=1/GPa)
#
#
# Indices 1 2 3 4 5 6 
#
# 1 0.012150 -0.004056 -0.003114 0.000000 0.000000 0.000000
# 2 -0.004056 0.011285 -0.000627 0.000000 0.000000 0.000000
# 3 -0.003114 -0.000627 0.018923 0.000000 0.000000 0.000000
# 4 0.000000 0.000000 0.000000 0.030591 0.000000 0.000000
# 5 0.000000 0.000000 0.000000 0.000000 0.066215 0.000000
# 6 0.000000 0.000000 0.000000 0.000000 0.000000 0.030503
#
#
# Mechanical properties :
#
#
# Convention : Reuss Voigt Hill
#
# Bulk Modulus (GPa) = 37.36290 42.68930 40.02610
# Shear Modulus (GPa) = 25.74878 29.03780 27.39329
#
# Velocity S-wave (km/s) = 3.57790 3.79954 3.69038
# Velocity P-wave (km/s) = 5.97025 6.36178 6.16912
#
# Compressibility (1/GPa) = 0.02676452
#
# Stress axis : x y z
#
# Youngs Moduli (GPa) = 82.30313 88.61094 52.84523
#
# Poissons Ratio (x) = 0.35940 0.16458
# Poissons Ratio (y) = 0.33381 0.03312
# Poissons Ratio (z) = 0.25632 0.05554
#
# Static dielectric constant tensor:
#      x y z
#    x 3.368160 0.000000 0.000000 
#    y 0.000000 4.039630 0.000000 
#    z 0.000000 0.000000 3.696200 
# 
# 
# High freq. dielectric constant tensor:
#      x y z
#    x 1.742130 0.000000 0.000000 
#    y 0.000000 1.802400 0.000000 
#    z 0.000000 0.000000 1.794050 
# 
# From -- ./inp_files/25215.got.cif
#   From: 2010.03.12/outbox.cif.g09.slc.cpg/sg20_13_cif.got.tgz:25215.got - 2010.04.14 01:38:04.
