data_PCOD8158097
_publ_section_title
;
Structure prediction by ZEFSAII (Michael W. Deem and Ramdas Pophale) SiO2 
 PCOD8158097
Probable space group: C 2 2 21
;
_chemical_formula_sum "Si O2"
_cell_formula_units_Z 60
_cell_length_a 18.003395
_cell_length_b 5.510319
_cell_length_c 29.052260
_cell_angle_alpha 90.000000
_cell_angle_beta 90.000000
_cell_angle_gamma 90.000000
_cell_volume 2882.113461
_symmetry_space_group_name_H-M "C 2 2 21"
_symmetry_group_IT_number 20
_symmetry_cell_setting 'orthorhombic'
loop_
_space_group_symop_operation_xyz
x,y,z
-x,-y,1/2+z
x,-y,-z
-x,y,1/2-z
1/2+x,1/2+y,z
1/2-x,1/2-y,1/2+z
1/2+x,1/2-y,-z
1/2-x,1/2+y,1/2-z
loop_
_atom_site_type_symbol
_atom_site_label
_atom_site_fract_x
_atom_site_fract_y
_atom_site_fract_z
Si Si1 0.663281 0.826359 0.170265
Si Si2 0.899013 0.183074 0.632823
Si Si3 0.452321 0.889598 0.841125
Si Si4 0.096587 0.246928 0.412381
Si Si5 0.919134 0.500000 0.000000
Si Si6 0.482120 0.619207 0.546169
Si Si7 0.921995 0.745927 0.762670
Si Si8 0.670277 0.528245 0.663433
O O1 0.645098 0.558808 0.149370
O O2 0.622069 0.850185 0.218592
O O3 0.750672 0.862458 0.176774
O O4 0.641745 0.059688 0.139864
O O5 0.910819 0.165678 0.578030
O O6 0.978666 0.202032 0.658556
O O7 0.458551 0.082155 0.882631
O O8 0.447913 0.012882 0.791522
O O9 0.376196 0.757000 0.852679
O O10 0.128961 0.352286 0.461571
O O11 0.165903 0.161653 0.379773
O O12 0.042404 0.031514 0.425618
O O13 0.974122 0.357869 0.966909
O O14 0.450642 0.500000 0.500000
O O15 0.000000 0.881850 0.750000
O O16 0.866870 0.918605 0.790757
#
# Coordination Sequence:
#
# PCOD8158097 Si02
#       8
#     8   8   8   8   4   8   8   8
#     4  12  30  44  70 100 147 188 231 285 360 423
#     4  12  24  47  68 103 138 183 236 288 346 416
#     4  11  22  40  70  94 141 180 238 291 340 406
#     4  10  19  38  64 104 135 179 229 294 351 407
#     4  10  18  32  68 108 136 164 236 298 350 406
#     4  10  21  36  69 104 135 173 232 296 348 411
#     4  11  25  43  68 101 135 186 241 296 342 415
#     4  11  26  42  67  96 145 185 230 287 358 425
#
# _framework density 20.818058000000001
#
# number of rings (size 3 to 8) (size 9 to 14) (size 15 to 20)
#    0.000    1.067    4.000    1.600    9.333    0.533 
#    0.000    0.000    1.467    1.600    0.000    0.000 
#    0.000    0.000    0.000    0.000    0.000    0.000 
#
# Total GULP energy -371666.122841 kJ/mol
# GULP energy per Si atom -12388.870761 kJ/mol
# Density = 2.077067 g / cm^3
# Si number density = 20.818058 Si / 1000 Ang^3
#
#
#
# Elastic Constant Matrix: (Units=GPa)
#
#
# Indices 1 2 3 4 5 6 
#
# 1 132.2953 43.2546 22.8837 0.0000 0.0000 0.0000
# 2 43.2546 113.4418 34.3638 0.0000 0.0000 0.0000
# 3 22.8837 34.3638 82.9671 0.0000 0.0000 0.0000
# 4 0.0000 0.0000 0.0000 32.9287 0.0000 0.0000
# 5 0.0000 0.0000 0.0000 0.0000 5.7620 0.0000
# 6 0.0000 0.0000 0.0000 0.0000 0.0000 204.5325
#
#
#
# Elastic Compliance Matrix: (Units=1/GPa)
#
#
# Indices 1 2 3 4 5 6 
#
# 1 0.008735 -0.002974 -0.001177 0.000000 0.000000 0.000000
# 2 -0.002974 0.011092 -0.003774 0.000000 0.000000 0.000000
# 3 -0.001177 -0.003774 0.013941 0.000000 0.000000 0.000000
# 4 0.000000 0.000000 0.000000 0.030369 0.000000 0.000000
# 5 0.000000 0.000000 0.000000 0.000000 0.173552 0.000000
# 6 0.000000 0.000000 0.000000 0.000000 0.000000 0.004889
#
#
# Mechanical properties :
#
#
# Convention : Reuss Voigt Hill
#
# Bulk Modulus (GPa) = 55.81211 58.85649 57.33430
# Shear Modulus (GPa) = 18.91069 63.85809 41.38439
#
# Velocity S-wave (km/s) = 3.01720 5.54445 4.46343
# Velocity P-wave (km/s) = 6.24545 8.32593 7.35958
#
# Compressibility (1/GPa) = 0.01791726
#
# Stress axis : x y z
#
# Youngs Moduli (GPa) = 114.48406 90.15326 71.73143
#
# Poissons Ratio (x) = 0.26810 0.08446
# Poissons Ratio (y) = 0.34046 0.27071
# Poissons Ratio (z) = 0.13480 0.34024
#
# Static dielectric constant tensor:
#      x y z
#    x 3.528140 0.000000 0.000000 
#    y 0.000000 4.160180 0.000000 
#    z 0.000000 0.000000 -1.942120 
# 
# 
# High freq. dielectric constant tensor:
#      x y z
#    x 1.776730 0.000000 0.000000 
#    y 0.000000 1.831420 0.000000 
#    z 0.000000 0.000000 1.834830 
# 
# From -- ./inp_files/30499.got.cif
#   From: 2010.03.12/outbox.cif.g09.slc.cpg/sg20_16_cif.got.tgz:30499.got - 2010.04.14 01:38:04.
