data_PCOD8158725
_publ_section_title
;
Structure prediction by ZEFSAII (Michael W. Deem and Ramdas Pophale) SiO2 
 PCOD8158725
Probable space group: C 2 2 21
;
_chemical_formula_sum "Si O2"
_cell_formula_units_Z 60
_cell_length_a 26.289031
_cell_length_b 9.727773
_cell_length_c 11.459483
_cell_angle_alpha 90.000000
_cell_angle_beta 90.000000
_cell_angle_gamma 90.000000
_cell_volume 2930.576285
_symmetry_space_group_name_H-M "C 2 2 21"
_symmetry_group_IT_number 20
_symmetry_cell_setting 'orthorhombic'
loop_
_space_group_symop_operation_xyz
x,y,z
-x,-y,1/2+z
x,-y,-z
-x,y,1/2-z
1/2+x,1/2+y,z
1/2-x,1/2-y,1/2+z
1/2+x,1/2-y,-z
1/2-x,1/2+y,1/2-z
loop_
_atom_site_type_symbol
_atom_site_label
_atom_site_fract_x
_atom_site_fract_y
_atom_site_fract_z
Si Si1 0.061474 0.722764 0.687178
Si Si2 0.030944 0.357194 0.059992
Si Si3 0.746036 0.104207 0.893318
Si Si4 0.758693 0.640803 0.962104
Si Si5 0.173521 0.960749 0.201912
Si Si6 0.500000 0.477295 0.750000
Si Si7 0.925259 0.885591 0.410162
Si Si8 0.673144 0.232502 0.732153
O O1 0.050030 0.641877 0.807104
O O2 0.120648 0.697443 0.666459
O O3 0.029840 0.670993 0.573453
O O4 0.046464 0.883019 0.704002
O O5 0.041147 0.500000 0.000000
O O6 0.063318 0.252158 0.981485
O O7 0.797784 0.071679 0.823468
O O8 0.694590 0.106767 0.813468
O O9 0.749207 0.264357 0.926911
O O10 0.737737 0.000000 0.000000
O O11 0.706192 0.588256 0.907357
O O12 0.787179 0.742742 0.873397
O O13 0.788573 0.500000 0.000000
O O14 0.119634 0.878338 0.188124
O O15 0.165946 0.125364 0.197858
O O16 0.521099 0.573175 0.852403
O O17 0.906005 0.000000 0.500000
#
# Coordination Sequence:
#
# PCOD8158725 Si02
#       8
#     8   8   8   8   8   4   8   8
#     4  10  21  42  63  93 130 166 217 269 327 391
#     4  10  23  42  65  91 135 172 203 271 339 383
#     4  11  24  43  63  94 133 173 213 270 328 388
#     4  11  23  41  63  91 130 173 215 267 328 388
#     4  11  23  39  67  97 127 168 227 269 324 393
#     4  10  20  36  66  98 122 154 228 274 314 396
#     4  12  21  41  70  98 121 172 226 273 325 393
#     4  11  22  40  67  94 128 174 220 271 323 391
#
# _framework density 20.473789
#
# number of rings (size 3 to 8) (size 9 to 14) (size 15 to 20)
#    0.000    1.333    6.667    0.400    1.867    2.133 
#    4.800    2.000    0.000    0.000    0.000    0.000 
#    0.000    0.000    0.000    0.000    0.000    0.000 
#
# Total GULP energy -371707.645140 kJ/mol
# GULP energy per Si atom -12390.254838 kJ/mol
# Density = 2.042719 g / cm^3
# Si number density = 20.473789 Si / 1000 Ang^3
#
#
#
# Elastic Constant Matrix: (Units=GPa)
#
#
# Indices 1 2 3 4 5 6 
#
# 1 127.5099 35.1919 34.9669 0.0000 0.0000 0.0000
# 2 35.1919 110.3446 33.2974 0.0000 0.0000 0.0000
# 3 34.9669 33.2974 66.5822 0.0000 0.0000 0.0000
# 4 0.0000 0.0000 0.0000 28.6245 0.0000 0.0000
# 5 0.0000 0.0000 0.0000 0.0000 25.8169 0.0000
# 6 0.0000 0.0000 0.0000 0.0000 0.0000 42.4677
#
#
#
# Elastic Compliance Matrix: (Units=1/GPa)
#
#
# Indices 1 2 3 4 5 6 
#
# 1 0.009452 -0.001786 -0.004071 0.000000 0.000000 0.000000
# 2 -0.001786 0.011011 -0.004568 0.000000 0.000000 0.000000
# 3 -0.004071 -0.004568 0.019441 0.000000 0.000000 0.000000
# 4 0.000000 0.000000 0.000000 0.034935 0.000000 0.000000
# 5 0.000000 0.000000 0.000000 0.000000 0.038734 0.000000
# 6 0.000000 0.000000 0.000000 0.000000 0.000000 0.023547
#
#
# Mechanical properties :
#
#
# Convention : Reuss Voigt Hill
#
# Bulk Modulus (GPa) = 52.48305 56.81656 54.64981
# Shear Modulus (GPa) = 30.42810 32.78052 31.60431
#
# Velocity S-wave (km/s) = 3.85931 4.00571 3.93319
# Velocity P-wave (km/s) = 6.74899 7.01466 6.88311
#
# Compressibility (1/GPa) = 0.01905377
#
# Stress axis : x y z
#
# Youngs Moduli (GPa) = 105.80066 90.82075 51.43666
#
# Poissons Ratio (x) = 0.16221 0.20937
# Poissons Ratio (y) = 0.18897 0.23498
# Poissons Ratio (z) = 0.43067 0.41490
#
# Static dielectric constant tensor:
#      x y z
#    x 3.865000 0.000000 0.000000 
#    y 0.000000 3.756760 0.000000 
#    z 0.000000 0.000000 3.746720 
# 
# 
# High freq. dielectric constant tensor:
#      x y z
#    x 1.796560 0.000000 0.000000 
#    y 0.000000 1.787270 0.000000 
#    z 0.000000 0.000000 1.799520 
# 
# From -- ./inp_files/17221.got.cif
#   From: 2010.03.12/outbox.cif.g09.slc.cpg/sg20_9_cif.got.tgz:17221.got - 2010.04.14 01:38:04.
