data_PCOD8158760
_publ_section_title
;
Structure prediction by ZEFSAII (Michael W. Deem and Ramdas Pophale) SiO2 
 PCOD8158760
Probable space group: C 2 2 21
;
_chemical_formula_sum "Si O2"
_cell_formula_units_Z 40
_cell_length_a 9.645365
_cell_length_b 10.270261
_cell_length_c 21.247527
_cell_angle_alpha 90.000000
_cell_angle_beta 90.000000
_cell_angle_gamma 90.000000
_cell_volume 2104.788863
_symmetry_space_group_name_H-M "C 2 2 21"
_symmetry_group_IT_number 20
_symmetry_cell_setting 'orthorhombic'
loop_
_space_group_symop_operation_xyz
x,y,z
-x,-y,1/2+z
x,-y,-z
-x,y,1/2-z
1/2+x,1/2+y,z
1/2-x,1/2-y,1/2+z
1/2+x,1/2-y,-z
1/2-x,1/2+y,1/2-z
loop_
_atom_site_type_symbol
_atom_site_label
_atom_site_fract_x
_atom_site_fract_y
_atom_site_fract_z
Si Si1 0.896383 0.291942 0.613601
Si Si2 0.286835 0.519168 0.870007
Si Si3 0.578796 0.514954 0.928840
Si Si4 0.348554 0.102953 0.260683
Si Si5 0.210787 0.687724 0.376241
O O1 0.800279 0.412241 0.589360
O O2 0.876388 0.277717 0.689733
O O3 0.055092 0.327862 0.597980
O O4 0.851949 0.157097 0.581066
O O5 0.449727 0.498540 0.881773
O O6 0.254607 0.499193 0.795328
O O7 0.239493 0.664442 0.888282
O O8 0.692648 0.406049 0.916212
O O9 0.525797 0.500000 0.000000
O O10 0.500000 0.036203 0.250000
O O11 0.277453 0.153190 0.197473
#
# Coordination Sequence:
#
# PCOD8158760 Si02
#       5
#     8   8   8   8   8
#     4   8  20  39  57  82 118 154 185 251 303 337
#     4   9  21  40  59  87 120 156 189 247 305 347
#     4  11  24  39  57  86 120 159 207 242 287 361
#     4   8  17  37  62  85 119 145 188 248 304 358
#     4  10  20  37  61  89 117 150 199 240 302 361
#
# _framework density 19.004280999999999
#
# number of rings (size 3 to 8) (size 9 to 14) (size 15 to 20)
#    1.200    1.600    0.000    0.000    2.800    5.600 
#    3.600    1.000    0.000    0.000    0.000    0.000 
#    0.000    0.000    0.000    0.000    0.000    0.000 
#
# Total GULP energy -247800.914541 kJ/mol
# GULP energy per Si atom -12390.045727 kJ/mol
# Density = 1.896103 g / cm^3
# Si number density = 19.004281 Si / 1000 Ang^3
#
#
#
# Elastic Constant Matrix: (Units=GPa)
#
#
# Indices 1 2 3 4 5 6 
#
# 1 70.8117 67.5987 22.3682 0.0000 0.0000 0.0000
# 2 67.5987 147.8439 17.8081 0.0000 0.0000 0.0000
# 3 22.3682 17.8081 56.4222 0.0000 0.0000 0.0000
# 4 0.0000 0.0000 0.0000 22.9733 0.0000 0.0000
# 5 0.0000 0.0000 0.0000 0.0000 20.2925 0.0000
# 6 0.0000 0.0000 0.0000 0.0000 0.0000 35.6338
#
#
#
# Elastic Compliance Matrix: (Units=1/GPa)
#
#
# Indices 1 2 3 4 5 6 
#
# 1 0.027643 -0.011767 -0.007245 0.000000 0.000000 0.000000
# 2 -0.011767 0.012040 0.000865 0.000000 0.000000 0.000000
# 3 -0.007245 0.000865 0.020323 0.000000 0.000000 0.000000
# 4 0.000000 0.000000 0.000000 0.043529 0.000000 0.000000
# 5 0.000000 0.000000 0.000000 0.000000 0.049279 0.000000
# 6 0.000000 0.000000 0.000000 0.000000 0.000000 0.028063
#
#
# Mechanical properties :
#
#
# Convention : Reuss Voigt Hill
#
# Bulk Modulus (GPa) = 42.17297 54.51420 48.34358
# Shear Modulus (GPa) = 22.21479 26.93345 24.57412
#
# Velocity S-wave (km/s) = 3.42268 3.76870 3.59985
# Velocity P-wave (km/s) = 6.15298 6.90543 6.54003
#
# Compressibility (1/GPa) = 0.02371187
#
# Stress axis : x y z
#
# Youngs Moduli (GPa) = 36.17506 83.05783 49.20561
#
# Poissons Ratio (x) = 0.97731 0.35650
# Poissons Ratio (y) = 0.42566 -0.04255
# Poissons Ratio (z) = 0.26210 -0.07183
#
# Static dielectric constant tensor:
#      x y z
#    x 3.328830 0.000000 0.000000 
#    y 0.000000 3.404750 0.000000 
#    z 0.000000 0.000000 3.244180 
# 
# 
# High freq. dielectric constant tensor:
#      x y z
#    x 1.732180 0.000000 0.000000 
#    y 0.000000 1.730820 0.000000 
#    z 0.000000 0.000000 1.720190 
# 
# From -- ./inp_files/27099.got.cif
#   From: 2010.03.12/outbox.cif.g09.slc.cpg/sg20_14_cif.got.tgz:27099.got - 2010.04.14 01:38:04.
