data_PCOD8158515
_publ_section_title
;
Structure prediction by ZEFSAII (Michael W. Deem and Ramdas Pophale) SiO2 
 PCOD8158515
Probable space group: C 2 2 21
;
_chemical_formula_sum "Si O2"
_cell_formula_units_Z 52
_cell_length_a 12.068974
_cell_length_b 24.124048
_cell_length_c 8.527322
_cell_angle_alpha 90.000000
_cell_angle_beta 90.000000
_cell_angle_gamma 90.000000
_cell_volume 2482.751188
_symmetry_space_group_name_H-M "C 2 2 21"
_symmetry_group_IT_number 20
_symmetry_cell_setting 'orthorhombic'
loop_
_space_group_symop_operation_xyz
x,y,z
-x,-y,1/2+z
x,-y,-z
-x,y,1/2-z
1/2+x,1/2+y,z
1/2-x,1/2-y,1/2+z
1/2+x,1/2-y,-z
1/2-x,1/2+y,1/2-z
loop_
_atom_site_type_symbol
_atom_site_label
_atom_site_fract_x
_atom_site_fract_y
_atom_site_fract_z
Si Si1 0.152875 0.724171 0.442324
Si Si2 0.849126 0.566065 0.687519
Si Si3 0.646212 0.293919 0.142272
Si Si4 0.952891 0.179015 0.077017
Si Si5 0.610138 0.598320 0.663946
Si Si6 0.000000 0.467639 0.750000
Si Si7 0.540679 0.887023 0.487339
O O1 0.270005 0.700029 0.497236
O O2 0.158949 0.741842 0.259853
O O3 0.142628 0.774856 0.569346
O O4 0.060010 0.676600 0.464055
O O5 0.716965 0.557815 0.656931
O O6 0.872651 0.593057 0.856217
O O7 0.905324 0.505681 0.670644
O O8 0.911216 0.607148 0.564479
O O9 0.656163 0.348970 0.244252
O O10 0.528522 0.291801 0.057117
O O11 0.000000 0.171985 0.250000
O O12 0.920038 0.117809 0.013740
O O13 0.500000 0.572490 0.750000
O O14 0.064127 0.428698 0.628994
#
# Coordination Sequence:
#
# PCOD8158515 Si02
#       7
#     8   8   8   8   8   4   8
#     4  11  21  35  56  84 121 167 208 251 309 378
#     4  10  19  40  65  85 123 161 204 259 325 367
#     4  10  21  37  52  82 122 160 209 251 304 370
#     4  10  22  36  54  80 129 161 211 256 298 369
#     4   9  19  38  59  86 117 169 206 245 309 376
#     4  10  22  40  62 100 124 152 208 280 314 370
#     4  10  22  36  62  90 121 154 206 253 325 367
#
# _framework density 20.944507000000002
#
# number of rings (size 3 to 8) (size 9 to 14) (size 15 to 20)
#    0.000    2.154    1.538    4.154    4.308    2.462 
#    2.769    0.000    0.000    3.692    0.000    0.000 
#    0.000    0.000    0.000    0.000    0.000    0.000 
#
# Total GULP energy -322163.747932 kJ/mol
# GULP energy per Si atom -12390.913382 kJ/mol
# Density = 2.089684 g / cm^3
# Si number density = 20.944507 Si / 1000 Ang^3
#
#
#
# Elastic Constant Matrix: (Units=GPa)
#
#
# Indices 1 2 3 4 5 6 
#
# 1 117.3755 21.2272 21.8128 0.0000 0.0000 0.0000
# 2 21.2272 54.7453 24.2849 0.0000 0.0000 0.0000
# 3 21.8128 24.2849 107.5442 0.0000 0.0000 0.0000
# 4 0.0000 0.0000 0.0000 20.9868 0.0000 0.0000
# 5 0.0000 0.0000 0.0000 0.0000 23.5420 0.0000
# 6 0.0000 0.0000 0.0000 0.0000 0.0000 15.8201
#
#
#
# Elastic Compliance Matrix: (Units=1/GPa)
#
#
# Indices 1 2 3 4 5 6 
#
# 1 0.009297 -0.003077 -0.001191 0.000000 0.000000 0.000000
# 2 -0.003077 0.021318 -0.004190 0.000000 0.000000 0.000000
# 3 -0.001191 -0.004190 0.010486 0.000000 0.000000 0.000000
# 4 0.000000 0.000000 0.000000 0.047649 0.000000 0.000000
# 5 0.000000 0.000000 0.000000 0.000000 0.042477 0.000000
# 6 0.000000 0.000000 0.000000 0.000000 0.000000 0.063211
#
#
# Mechanical properties :
#
#
# Convention : Reuss Voigt Hill
#
# Bulk Modulus (GPa) = 41.34536 46.03498 43.69017
# Shear Modulus (GPa) = 22.78778 26.22579 24.50679
#
# Velocity S-wave (km/s) = 3.30207 3.54242 3.42436
# Velocity P-wave (km/s) = 5.85846 6.22566 6.04485
#
# Compressibility (1/GPa) = 0.02418651
#
# Stress axis : x y z
#
# Youngs Moduli (GPa) = 107.55682 46.90872 95.36356
#
# Poissons Ratio (x) = 0.14432 0.11358
# Poissons Ratio (y) = 0.33092 0.39956
# Poissons Ratio (z) = 0.12810 0.19654
#
# Static dielectric constant tensor:
#      x y z
#    x 3.842830 0.000000 0.000000 
#    y 0.000000 3.513650 0.000000 
#    z 0.000000 0.000000 3.868980 
# 
# 
# High freq. dielectric constant tensor:
#      x y z
#    x 1.815810 0.000000 0.000000 
#    y 0.000000 1.788390 0.000000 
#    z 0.000000 0.000000 1.825500 
# 
# From -- ./inp_files/7512.got.cif
#   From: 2010.03.12/outbox.cif.g09.slc.cpg/sg20_4_cif.got.tgz:7512.got - 2010.04.14 01:38:04.
