data_PCOD8158938
_publ_section_title
;
Structure prediction by ZEFSAII (Michael W. Deem and Ramdas Pophale) SiO2 
 PCOD8158938
Probable space group: C 2 2 21
;
_chemical_formula_sum "Si O2"
_cell_formula_units_Z 64
_cell_length_a 9.043230
_cell_length_b 23.640763
_cell_length_c 14.560463
_cell_angle_alpha 90.000000
_cell_angle_beta 90.000000
_cell_angle_gamma 90.000000
_cell_volume 3112.864745
_symmetry_space_group_name_H-M "C 2 2 21"
_symmetry_group_IT_number 20
_symmetry_cell_setting 'orthorhombic'
loop_
_space_group_symop_operation_xyz
x,y,z
-x,-y,1/2+z
x,-y,-z
-x,y,1/2-z
1/2+x,1/2+y,z
1/2-x,1/2-y,1/2+z
1/2+x,1/2-y,-z
1/2-x,1/2+y,1/2-z
loop_
_atom_site_type_symbol
_atom_site_label
_atom_site_fract_x
_atom_site_fract_y
_atom_site_fract_z
Si Si1 0.173242 0.596473 0.243383
Si Si2 0.324162 0.445480 0.055271
Si Si3 0.835830 0.942220 0.452363
Si Si4 0.150044 0.762092 0.639142
Si Si5 0.676755 0.300095 0.832481
Si Si6 0.828504 0.643815 0.446798
Si Si7 0.843428 0.331431 0.998288
Si Si8 0.833237 0.014957 0.743727
O O1 0.274423 0.636552 0.306164
O O2 0.218323 0.604255 0.138022
O O3 0.212479 0.533418 0.273052
O O4 0.000000 0.610136 0.250000
O O5 0.492149 0.435642 0.023779
O O6 0.299607 0.451630 0.163566
O O7 0.260790 0.500000 0.000000
O O8 0.235247 0.387978 0.035196
O O9 0.753099 0.887710 0.491099
O O10 0.815490 0.943289 0.342416
O O11 0.775317 0.000000 0.500000
O O12 0.213318 0.759235 0.744470
O O13 0.259971 0.794514 0.570505
O O14 0.133852 0.699471 0.596631
O O15 0.995594 0.795783 0.642855
O O16 0.768565 0.287204 0.925574
O O17 0.002415 0.649713 0.456541
O O18 0.000000 0.989604 0.750000
#
# Coordination Sequence:
#
# PCOD8158938 Si02
#       8
#     8   8   8   8   8   8   8   8
#     4  11  21  36  62  96 127 161 211 268 321 371
#     4  10  20  40  62  93 129 166 216 258 312 389
#     4  10  23  40  65  94 127 172 210 258 326 385
#     4  10  24  42  65  93 120 171 219 257 322 380
#     4  10  22  42  66  90 126 160 218 263 312 381
#     4  11  23  37  64  95 124 168 212 264 322 376
#     4  12  23  43  65  93 133 164 214 272 326 383
#     4  10  22  38  62  93 128 169 216 260 317 387
#
# _framework density 20.559840000000001
#
# number of rings (size 3 to 8) (size 9 to 14) (size 15 to 20)
#    0.000    1.500    2.500    2.250    3.500    1.500 
#    6.750    0.000    2.750    0.000    0.000    0.000 
#    0.000    0.000    0.000    0.000    0.000    0.000 
#
# Total GULP energy -396727.743112 kJ/mol
# GULP energy per Si atom -12397.741972 kJ/mol
# Density = 2.051304 g / cm^3
# Si number density = 20.559840 Si / 1000 Ang^3
#
#
#
# Elastic Constant Matrix: (Units=GPa)
#
#
# Indices 1 2 3 4 5 6 
#
# 1 87.3198 36.7664 33.5100 0.0000 0.0000 0.0000
# 2 36.7664 70.4829 36.6659 0.0000 0.0000 0.0000
# 3 33.5100 36.6659 126.5456 0.0000 0.0000 0.0000
# 4 0.0000 0.0000 0.0000 32.8751 0.0000 0.0000
# 5 0.0000 0.0000 0.0000 0.0000 28.1373 0.0000
# 6 0.0000 0.0000 0.0000 0.0000 0.0000 13.4271
#
#
#
# Elastic Compliance Matrix: (Units=1/GPa)
#
#
# Indices 1 2 3 4 5 6 
#
# 1 0.015102 -0.006826 -0.002021 0.000000 0.000000 0.000000
# 2 -0.006826 0.019791 -0.003927 0.000000 0.000000 0.000000
# 3 -0.002021 -0.003927 0.009575 0.000000 0.000000 0.000000
# 4 0.000000 0.000000 0.000000 0.030418 0.000000 0.000000
# 5 0.000000 0.000000 0.000000 0.000000 0.035540 0.000000
# 6 0.000000 0.000000 0.000000 0.000000 0.000000 0.074476
#
#
# Mechanical properties :
#
#
# Convention : Reuss Voigt Hill
#
# Bulk Modulus (GPa) = 52.85386 55.35922 54.10654
# Shear Modulus (GPa) = 23.06709 26.71494 24.89102
#
# Velocity S-wave (km/s) = 3.35318 3.60859 3.48323
# Velocity P-wave (km/s) = 6.38396 6.65935 6.52311
#
# Compressibility (1/GPa) = 0.01892009
#
# Stress axis : x y z
#
# Youngs Moduli (GPa) = 66.21602 50.52679 104.43540
#
# Poissons Ratio (x) = 0.34491 0.21109
# Poissons Ratio (y) = 0.45201 0.41010
# Poissons Ratio (z) = 0.13384 0.19841
#
# Static dielectric constant tensor:
#      x y z
#    x 3.615250 0.000000 0.000000 
#    y 0.000000 3.365440 0.000000 
#    z 0.000000 0.000000 4.022750 
# 
# 
# High freq. dielectric constant tensor:
#      x y z
#    x 1.800030 0.000000 0.000000 
#    y 0.000000 1.777040 0.000000 
#    z 0.000000 0.000000 1.824090 
# 
# From -- ./inp_files/19363.got.cif
#   From: 2010.03.12/outbox.cif.g09.slc.cpg/sg20_10_cif.got.tgz:19363.got - 2010.04.14 01:38:04.
