data_PCOD8158121
_publ_section_title
;
Structure prediction by ZEFSAII (Michael W. Deem and Ramdas Pophale) SiO2 
 PCOD8158121
Probable space group: C 2 2 21
;
_chemical_formula_sum "Si O2"
_cell_formula_units_Z 52
_cell_length_a 15.028588
_cell_length_b 8.707070
_cell_length_c 20.255768
_cell_angle_alpha 90.000000
_cell_angle_beta 90.000000
_cell_angle_gamma 90.000000
_cell_volume 2650.567868
_symmetry_space_group_name_H-M "C 2 2 21"
_symmetry_group_IT_number 20
_symmetry_cell_setting 'orthorhombic'
loop_
_space_group_symop_operation_xyz
x,y,z
-x,-y,1/2+z
x,-y,-z
-x,y,1/2-z
1/2+x,1/2+y,z
1/2-x,1/2-y,1/2+z
1/2+x,1/2-y,-z
1/2-x,1/2+y,1/2-z
loop_
_atom_site_type_symbol
_atom_site_label
_atom_site_fract_x
_atom_site_fract_y
_atom_site_fract_z
Si Si1 0.317575 0.220621 0.109787
Si Si2 0.544984 0.201255 0.606915
Si Si3 0.176789 0.544124 0.703873
Si Si4 0.626294 0.482381 0.212409
Si Si5 0.359240 0.176564 0.662819
Si Si6 0.369214 0.000000 0.000000
Si Si7 0.450121 0.542242 0.855260
O O1 0.225936 0.316786 0.113900
O O2 0.308263 0.096098 0.050920
O O3 0.402808 0.330920 0.098231
O O4 0.334931 0.130204 0.178526
O O5 0.613491 0.158824 0.664593
O O6 0.447036 0.135070 0.621888
O O7 0.545469 0.385674 0.602466
O O8 0.570987 0.124374 0.537931
O O9 0.279890 0.595709 0.693590
O O10 0.153679 0.545996 0.781481
O O11 0.626909 0.663303 0.199612
O O12 0.609983 0.468289 0.290055
O O13 0.549415 0.406437 0.166884
#
# Coordination Sequence:
#
# PCOD8158121 Si02
#       7
#     8   8   8   8   8   4   8
#     4  10  22  38  60  85 121 153 198 241 286 358
#     4  10  21  38  62  78 119 158 194 240 287 345
#     4  10  18  34  57  90 122 148 175 240 301 351
#     4   9  18  31  55  88 124 137 183 224 295 367
#     4  10  18  36  60  89 112 154 187 237 303 352
#     4  10  24  46  52  80 114 162 210 242 284 334
#     4  10  18  35  56  87 113 152 184 235 285 347
#
# _framework density 19.618437
#
# number of rings (size 3 to 8) (size 9 to 14) (size 15 to 20)
#    0.000    2.154    3.077    0.462    0.000    0.615 
#   11.077    7.692    0.000    0.000    0.000    0.000 
#    0.000    0.000    0.000    0.000    0.000    0.000 
#
# Total GULP energy -322339.562342 kJ/mol
# GULP energy per Si atom -12397.675475 kJ/mol
# Density = 1.957378 g / cm^3
# Si number density = 19.618437 Si / 1000 Ang^3
#
#
#
# Elastic Constant Matrix: (Units=GPa)
#
#
# Indices 1 2 3 4 5 6 
#
# 1 135.1210 39.1532 38.6728 0.0000 0.0000 0.0000
# 2 39.1532 56.4804 34.7429 0.0000 0.0000 0.0000
# 3 38.6728 34.7429 85.3159 0.0000 0.0000 0.0000
# 4 0.0000 0.0000 0.0000 33.1383 0.0000 0.0000
# 5 0.0000 0.0000 0.0000 0.0000 18.8802 0.0000
# 6 0.0000 0.0000 0.0000 0.0000 0.0000 28.4161
#
#
#
# Elastic Compliance Matrix: (Units=1/GPa)
#
#
# Indices 1 2 3 4 5 6 
#
# 1 0.009556 -0.005283 -0.002180 0.000000 0.000000 0.000000
# 2 -0.005283 0.026544 -0.008414 0.000000 0.000000 0.000000
# 3 -0.002180 -0.008414 0.016136 0.000000 0.000000 0.000000
# 4 0.000000 0.000000 0.000000 0.030177 0.000000 0.000000
# 5 0.000000 0.000000 0.000000 0.000000 0.052965 0.000000
# 6 0.000000 0.000000 0.000000 0.000000 0.000000 0.035191
#
#
# Mechanical properties :
#
#
# Convention : Reuss Voigt Hill
#
# Bulk Modulus (GPa) = 48.82835 55.78389 52.30612
# Shear Modulus (GPa) = 23.90625 27.04348 25.47487
#
# Velocity S-wave (km/s) = 3.49458 3.71681 3.60740
# Velocity P-wave (km/s) = 6.42073 6.84950 6.63858
#
# Compressibility (1/GPa) = 0.02047990
#
# Stress axis : x y z
#
# Youngs Moduli (GPa) = 104.65104 37.67383 61.97352
#
# Poissons Ratio (x) = 0.19903 0.13510
# Poissons Ratio (y) = 0.55288 0.52148
# Poissons Ratio (z) = 0.22814 0.31701
#
# Static dielectric constant tensor:
#      x y z
#    x 3.854060 0.000000 0.000000 
#    y 0.000000 3.414080 0.000000 
#    z 0.000000 0.000000 3.316010 
# 
# 
# High freq. dielectric constant tensor:
#      x y z
#    x 1.774340 0.000000 0.000000 
#    y 0.000000 1.750290 0.000000 
#    z 0.000000 0.000000 1.736740 
# 
# From -- ./inp_files/27508.got.cif
#   From: 2010.03.12/outbox.cif.g09.slc.cpg/sg20_14_cif.got.tgz:27508.got - 2010.04.14 01:38:04.
