data_PCOD8158994
_publ_section_title
;
Structure prediction by ZEFSAII (Michael W. Deem and Ramdas Pophale) SiO2 
 PCOD8158994
Probable space group: C 2 2 21
;
_chemical_formula_sum "Si O2"
_cell_formula_units_Z 48
_cell_length_a 10.964191
_cell_length_b 25.178935
_cell_length_c 8.304620
_cell_angle_alpha 90.000000
_cell_angle_beta 90.000000
_cell_angle_gamma 90.000000
_cell_volume 2292.628644
_symmetry_space_group_name_H-M "C 2 2 21"
_symmetry_group_IT_number 20
_symmetry_cell_setting 'orthorhombic'
loop_
_space_group_symop_operation_xyz
x,y,z
-x,-y,1/2+z
x,-y,-z
-x,y,1/2-z
1/2+x,1/2+y,z
1/2-x,1/2-y,1/2+z
1/2+x,1/2-y,-z
1/2-x,1/2+y,1/2-z
loop_
_atom_site_type_symbol
_atom_site_label
_atom_site_fract_x
_atom_site_fract_y
_atom_site_fract_z
Si Si1 0.239541 0.026938 0.777024
Si Si2 0.084692 0.000000 0.500000
Si Si3 0.370228 0.428892 0.582576
Si Si4 0.271057 0.680622 0.404512
Si Si5 0.380848 0.761849 0.649347
Si Si6 0.988941 0.637640 0.062699
Si Si7 0.000000 0.430703 0.250000
O O1 0.172764 0.067848 0.896820
O O2 0.383401 0.033014 0.773396
O O3 0.171026 0.036405 0.609618
O O4 0.225285 0.964826 0.820156
O O5 0.003912 0.956439 0.598197
O O6 0.363071 0.367892 0.644788
O O7 0.339044 0.713507 0.541174
O O8 0.234544 0.719621 0.258322
O O9 0.149603 0.653906 0.475056
O O10 0.500000 0.743270 0.750000
O O11 0.421724 0.812015 0.542638
O O12 0.000000 0.616016 0.250000
O O13 0.027434 0.599853 0.917028
#
# Coordination Sequence:
#
# PCOD8158994 Si02
#       7
#     8   4   8   8   8   8   4
#     4  10  23  39  60  96 124 173 219 266 329 398
#     4  10  22  40  60  92 138 162 220 264 316 410
#     4  10  20  42  61  85 133 175 210 277 329 393
#     4  10  20  41  65  89 128 176 221 277 347 391
#     4   9  22  40  60  97 129 172 223 292 329 404
#     4   9  22  42  61  96 137 171 226 288 335 398
#     4  12  22  42  70  98 132 184 224 280 338 412
#
# _framework density 20.936665000000001
#
# number of rings (size 3 to 8) (size 9 to 14) (size 15 to 20)
#    0.000    2.667    1.667    2.000    2.333    5.333 
#    6.000    6.667    0.000    0.000    0.000    0.000 
#    0.000    0.000    0.000    0.000    0.000    0.000 
#
# Total GULP energy -297354.148133 kJ/mol
# GULP energy per Si atom -12389.756172 kJ/mol
# Density = 2.088901 g / cm^3
# Si number density = 20.936665 Si / 1000 Ang^3
#
#
#
# Elastic Constant Matrix: (Units=GPa)
#
#
# Indices 1 2 3 4 5 6 
#
# 1 109.8982 31.8320 39.2927 0.0000 0.0000 0.0000
# 2 31.8320 101.0338 42.1805 0.0000 0.0000 0.0000
# 3 39.2927 42.1805 100.1186 0.0000 0.0000 0.0000
# 4 0.0000 0.0000 0.0000 27.9546 0.0000 0.0000
# 5 0.0000 0.0000 0.0000 0.0000 30.1047 0.0000
# 6 0.0000 0.0000 0.0000 0.0000 0.0000 13.3124
#
#
#
# Elastic Compliance Matrix: (Units=1/GPa)
#
#
# Indices 1 2 3 4 5 6 
#
# 1 0.010908 -0.002002 -0.003438 0.000000 0.000000 0.000000
# 2 -0.002002 0.012377 -0.004429 0.000000 0.000000 0.000000
# 3 -0.003438 -0.004429 0.013203 0.000000 0.000000 0.000000
# 4 0.000000 0.000000 0.000000 0.035772 0.000000 0.000000
# 5 0.000000 0.000000 0.000000 0.000000 0.033217 0.000000
# 6 0.000000 0.000000 0.000000 0.000000 0.000000 0.075118
#
#
# Mechanical properties :
#
#
# Convention : Reuss Voigt Hill
#
# Bulk Modulus (GPa) = 59.69418 59.74012 59.71715
# Shear Modulus (GPa) = 24.28157 27.45738 25.86947
#
# Velocity S-wave (km/s) = 3.40922 3.62532 3.51893
# Velocity P-wave (km/s) = 6.63858 6.79114 6.71530
#
# Compressibility (1/GPa) = 0.01675205
#
# Stress axis : x y z
#
# Youngs Moduli (GPa) = 91.67409 80.79238 75.73820
#
# Poissons Ratio (x) = 0.16171 0.26037
# Poissons Ratio (y) = 0.18349 0.33546
# Poissons Ratio (z) = 0.31516 0.35784
#
# Static dielectric constant tensor:
#      x y z
#    x 3.816680 0.000000 0.000000 
#    y 0.000000 3.637370 0.000000 
#    z 0.000000 0.000000 3.993670 
# 
# 
# High freq. dielectric constant tensor:
#      x y z
#    x 1.824980 0.000000 0.000000 
#    y 0.000000 1.800300 0.000000 
#    z 0.000000 0.000000 1.819640 
# 
# From -- ./inp_files/7454.got.cif
#   From: 2010.03.12/outbox.cif.g09.slc.cpg/sg20_4_cif.got.tgz:7454.got - 2010.04.14 01:38:04.
