data_PCOD8158572
_publ_section_title
;
Structure prediction by ZEFSAII (Michael W. Deem and Ramdas Pophale) SiO2 
 PCOD8158572
Probable space group: C 2 2 21
;
_chemical_formula_sum "Si O2"
_cell_formula_units_Z 44
_cell_length_a 5.066837
_cell_length_b 22.386767
_cell_length_c 20.401964
_cell_angle_alpha 90.000000
_cell_angle_beta 90.000000
_cell_angle_gamma 90.000000
_cell_volume 2314.196803
_symmetry_space_group_name_H-M "C 2 2 21"
_symmetry_group_IT_number 20
_symmetry_cell_setting 'orthorhombic'
loop_
_space_group_symop_operation_xyz
x,y,z
-x,-y,1/2+z
x,-y,-z
-x,y,1/2-z
1/2+x,1/2+y,z
1/2-x,1/2-y,1/2+z
1/2+x,1/2-y,-z
1/2-x,1/2+y,1/2-z
loop_
_atom_site_type_symbol
_atom_site_label
_atom_site_fract_x
_atom_site_fract_y
_atom_site_fract_z
Si Si1 0.250530 0.174454 0.529076
Si Si2 0.285484 0.944346 0.547347
Si Si3 0.500000 0.094262 0.250000
Si Si4 0.383115 0.318273 0.817646
Si Si5 0.802514 0.078856 0.370148
Si Si6 0.747361 0.725269 0.919224
O O1 0.193801 0.110781 0.496940
O O2 0.248411 0.224288 0.473884
O O3 0.522720 0.176780 0.569084
O O4 0.021209 0.187882 0.581332
O O5 0.565742 0.927810 0.578849
O O6 0.057981 0.957483 0.602316
O O7 0.323304 0.000000 0.500000
O O8 0.347568 0.133834 0.304038
O O9 0.704854 0.056708 0.296605
O O10 0.500000 0.295279 0.750000
O O11 0.606233 0.351509 0.862158
O O12 0.274023 0.258671 0.850356
#
# Coordination Sequence:
#
# PCOD8158572 Si02
#       6
#     8   8   4   8   8   8
#     4  10  21  33  54  81 114 156 185 229 290 341
#     4  12  24  39  59  87 122 161 204 250 295 352
#     4  10  20  36  60  90 120 150 186 248 314 354
#     4  10  21  33  59  88 122 148 186 243 307 355
#     4  11  21  37  58  88 123 146 197 244 302 357
#     4  10  20  33  54  83 118 146 184 231 289 363
#
# _framework density 19.013076999999999
#
# number of rings (size 3 to 8) (size 9 to 14) (size 15 to 20)
#    0.000    1.455    3.636    1.636   10.182    0.000 
#    0.000    0.000    0.000    0.000   14.182    0.000 
#    0.000    0.000    0.000    0.000    0.000    0.000 
#
# Total GULP energy -272663.871445 kJ/mol
# GULP energy per Si atom -12393.812338 kJ/mol
# Density = 1.896980 g / cm^3
# Si number density = 19.013077 Si / 1000 Ang^3
#
#
#
# Elastic Constant Matrix: (Units=GPa)
#
#
# Indices 1 2 3 4 5 6 
#
# 1 103.2589 44.4617 43.1536 0.0000 0.0000 0.0000
# 2 44.4617 51.0221 32.8610 0.0000 0.0000 0.0000
# 3 43.1536 32.8610 85.7811 0.0000 0.0000 0.0000
# 4 0.0000 0.0000 0.0000 23.5022 0.0000 0.0000
# 5 0.0000 0.0000 0.0000 0.0000 37.9660 0.0000
# 6 0.0000 0.0000 0.0000 0.0000 0.0000 15.7363
#
#
#
# Elastic Compliance Matrix: (Units=1/GPa)
#
#
# Indices 1 2 3 4 5 6 
#
# 1 0.016326 -0.011864 -0.003668 0.000000 0.000000 0.000000
# 2 -0.011864 0.034641 -0.007302 0.000000 0.000000 0.000000
# 3 -0.003668 -0.007302 0.016300 0.000000 0.000000 0.000000
# 4 0.000000 0.000000 0.000000 0.042549 0.000000 0.000000
# 5 0.000000 0.000000 0.000000 0.000000 0.026339 0.000000
# 6 0.000000 0.000000 0.000000 0.000000 0.000000 0.063547
#
#
# Mechanical properties :
#
#
# Convention : Reuss Voigt Hill
#
# Bulk Modulus (GPa) = 46.29913 53.44607 49.87260
# Shear Modulus (GPa) = 19.79647 23.41329 21.60488
#
# Velocity S-wave (km/s) = 3.23027 3.51298 3.37459
# Velocity P-wave (km/s) = 6.19007 6.68026 6.43983
#
# Compressibility (1/GPa) = 0.02159868
#
# Stress axis : x y z
#
# Youngs Moduli (GPa) = 61.25225 28.86767 61.34980
#
# Poissons Ratio (x) = 0.34250 0.22503
# Poissons Ratio (y) = 0.72672 0.44796
# Poissons Ratio (z) = 0.22468 0.21078
#
# Static dielectric constant tensor:
#      x y z
#    x 3.999290 0.000000 0.000000 
#    y 0.000000 3.061750 0.000000 
#    z 0.000000 0.000000 3.554670 
# 
# 
# High freq. dielectric constant tensor:
#      x y z
#    x 1.769430 0.000000 0.000000 
#    y 0.000000 1.674670 0.000000 
#    z 0.000000 0.000000 1.734180 
# 
# From -- ./inp_files/22781.got.cif
#   From: 2010.03.12/outbox.cif.g09.slc.cpg/sg20_12_cif.got.tgz:22781.got - 2010.04.14 01:38:04.
