data_PCOD8158985
_publ_section_title
;
Structure prediction by ZEFSAII (Michael W. Deem and Ramdas Pophale) SiO2 
 PCOD8158985
Probable space group: C 2 2 21
;
_chemical_formula_sum "Si O2"
_cell_formula_units_Z 60
_cell_length_a 27.652368
_cell_length_b 9.194774
_cell_length_c 11.719347
_cell_angle_alpha 90.000000
_cell_angle_beta 90.000000
_cell_angle_gamma 90.000000
_cell_volume 2979.729225
_symmetry_space_group_name_H-M "C 2 2 21"
_symmetry_group_IT_number 20
_symmetry_cell_setting 'orthorhombic'
loop_
_space_group_symop_operation_xyz
x,y,z
-x,-y,1/2+z
x,-y,-z
-x,y,1/2-z
1/2+x,1/2+y,z
1/2-x,1/2-y,1/2+z
1/2+x,1/2-y,-z
1/2-x,1/2+y,1/2-z
loop_
_atom_site_type_symbol
_atom_site_label
_atom_site_fract_x
_atom_site_fract_y
_atom_site_fract_z
Si Si1 0.050177 0.700358 0.407428
Si Si2 0.000000 0.078548 0.750000
Si Si3 0.359888 0.246752 0.737115
Si Si4 0.587549 0.494228 0.872621
Si Si5 0.639832 0.269840 0.259480
Si Si6 0.542891 0.126107 0.664386
Si Si7 0.303809 0.521037 0.130234
Si Si8 0.192141 0.511241 0.132752
O O1 0.014213 0.820420 0.356633
O O2 0.105261 0.730730 0.366649
O O3 0.043672 0.712855 0.544150
O O4 0.034725 0.543159 0.361567
O O5 0.957322 0.969897 0.713035
O O6 0.375881 0.360293 0.639552
O O7 0.405133 0.151022 0.777856
O O8 0.335840 0.339679 0.837563
O O9 0.318390 0.145805 0.685686
O O10 0.610621 0.648886 0.840062
O O11 0.568407 0.500000 0.000000
O O12 0.682448 0.374864 0.302239
O O13 0.660632 0.127097 0.201056
O O14 0.500000 0.177566 0.750000
O O15 0.247685 0.553237 0.151644
O O16 0.315789 0.500000 0.000000
O O17 0.178078 0.500000 0.000000
#
# Coordination Sequence:
#
# PCOD8158985 Si02
#       8
#     8   4   8   8   8   8   8   8
#     4  10  21  40  58  86 122 159 208 256 307 373
#     4  10  22  38  58  82 118 166 208 248 314 364
#     4  11  23  40  61  93 124 159 209 257 315 370
#     4  10  23  38  58  84 121 161 206 250 310 373
#     4  10  20  41  62  85 125 169 200 262 326 375
#     4  11  23  38  61  90 123 157 213 258 307 366
#     4  10  22  40  64  93 123 163 208 264 325 388
#     4  11  22  39  64  93 125 162 213 263 321 382
#
# _framework density 20.136058999999999
#
# number of rings (size 3 to 8) (size 9 to 14) (size 15 to 20)
#    0.000    1.600    2.000    2.400    2.800    0.000 
#    2.400    1.333    0.000    6.400    0.000    0.000 
#    0.000    0.000    0.000    0.000    0.000    0.000 
#
# Total GULP energy -372016.028181 kJ/mol
# GULP energy per Si atom -12400.534273 kJ/mol
# Density = 2.009023 g / cm^3
# Si number density = 20.136059 Si / 1000 Ang^3
#
#
#
# Elastic Constant Matrix: (Units=GPa)
#
#
# Indices 1 2 3 4 5 6 
#
# 1 91.5313 29.7524 48.2714 0.0000 0.0000 0.0000
# 2 29.7524 80.0402 32.0710 0.0000 0.0000 0.0000
# 3 48.2714 32.0710 126.0425 0.0000 0.0000 0.0000
# 4 0.0000 0.0000 0.0000 19.2462 0.0000 0.0000
# 5 0.0000 0.0000 0.0000 0.0000 30.6319 0.0000
# 6 0.0000 0.0000 0.0000 0.0000 0.0000 4.2484
#
#
#
# Elastic Compliance Matrix: (Units=1/GPa)
#
#
# Indices 1 2 3 4 5 6 
#
# 1 0.014535 -0.003533 -0.004668 0.000000 0.000000 0.000000
# 2 -0.003533 0.014771 -0.002405 0.000000 0.000000 0.000000
# 3 -0.004668 -0.002405 0.010334 0.000000 0.000000 0.000000
# 4 0.000000 0.000000 0.000000 0.051958 0.000000 0.000000
# 5 0.000000 0.000000 0.000000 0.000000 0.032646 0.000000
# 6 0.000000 0.000000 0.000000 0.000000 0.000000 0.235381
#
#
# Mechanical properties :
#
#
# Convention : Reuss Voigt Hill
#
# Bulk Modulus (GPa) = 54.26615 57.53375 55.89995
# Shear Modulus (GPa) = 12.92059 23.32657 18.12358
#
# Velocity S-wave (km/s) = 2.53586 3.40729 3.00335
# Velocity P-wave (km/s) = 5.96509 6.64184 6.31254
#
# Compressibility (1/GPa) = 0.01842769
#
# Stress axis : x y z
#
# Youngs Moduli (GPa) = 68.79844 67.70164 96.77240
#
# Poissons Ratio (x) = 0.23917 0.45171
# Poissons Ratio (y) = 0.24304 0.23278
# Poissons Ratio (z) = 0.32114 0.16285
#
# Static dielectric constant tensor:
#      x y z
#    x 3.671170 0.000000 0.000000 
#    y 0.000000 3.611820 0.000000 
#    z 0.000000 0.000000 3.604010 
# 
# 
# High freq. dielectric constant tensor:
#      x y z
#    x 1.789370 0.000000 0.000000 
#    y 0.000000 1.795010 0.000000 
#    z 0.000000 0.000000 1.787880 
# 
# From -- ./inp_files/17085.got.cif
#   From: 2010.03.12/outbox.cif.g09.slc.cpg/sg20_9_cif.got.tgz:17085.got - 2010.04.14 01:38:04.
