data_PCOD8158840
_publ_section_title
;
Structure prediction by ZEFSAII (Michael W. Deem and Ramdas Pophale) SiO2 
 PCOD8158840
Probable space group: C 2 2 21
;
_chemical_formula_sum "Si O2"
_cell_formula_units_Z 44
_cell_length_a 11.266288
_cell_length_b 15.121213
_cell_length_c 12.550197
_cell_angle_alpha 90.000000
_cell_angle_beta 90.000000
_cell_angle_gamma 90.000000
_cell_volume 2138.050815
_symmetry_space_group_name_H-M "C 2 2 21"
_symmetry_group_IT_number 20
_symmetry_cell_setting 'orthorhombic'
loop_
_space_group_symop_operation_xyz
x,y,z
-x,-y,1/2+z
x,-y,-z
-x,y,1/2-z
1/2+x,1/2+y,z
1/2-x,1/2-y,1/2+z
1/2+x,1/2-y,-z
1/2-x,1/2+y,1/2-z
loop_
_atom_site_type_symbol
_atom_site_label
_atom_site_fract_x
_atom_site_fract_y
_atom_site_fract_z
Si Si1 0.739549 0.324791 0.217907
Si Si2 0.757866 0.901452 0.508690
Si Si3 0.638820 0.646157 0.234285
Si Si4 0.681707 0.008604 0.200993
Si Si5 0.474915 0.914125 0.890480
Si Si6 0.500000 0.243490 0.250000
O O1 0.828722 0.242382 0.220281
O O2 0.792244 0.405255 0.286839
O O3 0.614757 0.302299 0.272553
O O4 0.708890 0.348155 0.096329
O O5 0.818090 0.855653 0.611067
O O6 0.611408 0.905370 0.507691
O O7 0.810375 0.000000 0.500000
O O8 0.500000 0.631132 0.250000
O O9 0.699584 0.568268 0.304742
O O10 0.612721 0.043422 0.303722
O O11 0.593615 0.024532 0.098656
O O12 0.520223 0.817578 0.854046
#
# Coordination Sequence:
#
# PCOD8158840 Si02
#       6
#     8   8   8   8   8   4
#     4  12  22  38  72  96 128 181 218 277 336 396
#     4  11  22  41  68  97 127 178 230 260 334 407
#     4  11  24  42  61  99 138 167 221 279 325 390
#     4   9  19  37  64  89 123 169 215 256 335 381
#     4   9  17  41  62  83 130 167 215 275 310 398
#     4  10  20  38  64  90 136 170 212 270 340 382
#
# _framework density 20.579491999999998
#
# number of rings (size 3 to 8) (size 9 to 14) (size 15 to 20)
#    0.000    1.818    9.091    0.000    3.818    1.455 
#    0.000    0.000    0.000    0.000    0.000    0.000 
#    0.000    0.000    0.000    0.000    0.000    0.000 
#
# Total GULP energy -272621.110139 kJ/mol
# GULP energy per Si atom -12391.868643 kJ/mol
# Density = 2.053265 g / cm^3
# Si number density = 20.579492 Si / 1000 Ang^3
#
#
#
# Elastic Constant Matrix: (Units=GPa)
#
#
# Indices 1 2 3 4 5 6 
#
# 1 145.4095 37.7704 8.7136 0.0000 0.0000 0.0000
# 2 37.7704 124.9043 22.6826 0.0000 0.0000 0.0000
# 3 8.7136 22.6826 56.4401 0.0000 0.0000 0.0000
# 4 0.0000 0.0000 0.0000 15.7347 0.0000 0.0000
# 5 0.0000 0.0000 0.0000 0.0000 12.8577 0.0000
# 6 0.0000 0.0000 0.0000 0.0000 0.0000 39.2147
#
#
#
# Elastic Compliance Matrix: (Units=1/GPa)
#
#
# Indices 1 2 3 4 5 6 
#
# 1 0.007467 -0.002210 -0.000265 0.000000 0.000000 0.000000
# 2 -0.002210 0.009290 -0.003393 0.000000 0.000000 0.000000
# 3 -0.000265 -0.003393 0.019122 0.000000 0.000000 0.000000
# 4 0.000000 0.000000 0.000000 0.063554 0.000000 0.000000
# 5 0.000000 0.000000 0.000000 0.000000 0.077774 0.000000
# 6 0.000000 0.000000 0.000000 0.000000 0.000000 0.025501
#
#
# Mechanical properties :
#
#
# Convention : Reuss Voigt Hill
#
# Bulk Modulus (GPa) = 41.41574 51.67634 46.54604
# Shear Modulus (GPa) = 22.47281 30.73391 26.60336
#
# Velocity S-wave (km/s) = 3.30813 3.86868 3.59933
# Velocity P-wave (km/s) = 5.89577 6.71719 6.31984
#
# Compressibility (1/GPa) = 0.02414541
#
# Stress axis : x y z
#
# Youngs Moduli (GPa) = 133.92224 107.63696 52.29522
#
# Poissons Ratio (x) = 0.23787 0.01384
# Poissons Ratio (y) = 0.29596 0.17741
# Poissons Ratio (z) = 0.03545 0.36516
#
# Static dielectric constant tensor:
#      x y z
#    x 4.128380 0.000000 0.000000 
#    y 0.000000 3.820830 0.000000 
#    z 0.000000 0.000000 3.731930 
# 
# 
# High freq. dielectric constant tensor:
#      x y z
#    x 1.808860 0.000000 0.000000 
#    y 0.000000 1.813640 0.000000 
#    z 0.000000 0.000000 1.769820 
# 
# From -- ./inp_files/19874.got.cif
#   From: 2010.03.12/outbox.cif.g09.slc.cpg/sg20_10_cif.got.tgz:19874.got - 2010.04.14 01:38:04.
