data_PCOD8158076
_publ_section_title
;
Structure prediction by ZEFSAII (Michael W. Deem and Ramdas Pophale) SiO2 
 PCOD8158076
Probable space group: C 2 2 21
;
_chemical_formula_sum "Si O2"
_cell_formula_units_Z 48
_cell_length_a 9.505483
_cell_length_b 10.943242
_cell_length_c 21.873146
_cell_angle_alpha 90.000000
_cell_angle_beta 90.000000
_cell_angle_gamma 90.000000
_cell_volume 2275.262163
_symmetry_space_group_name_H-M "C 2 2 21"
_symmetry_group_IT_number 20
_symmetry_cell_setting 'orthorhombic'
loop_
_space_group_symop_operation_xyz
x,y,z
-x,-y,1/2+z
x,-y,-z
-x,y,1/2-z
1/2+x,1/2+y,z
1/2-x,1/2-y,1/2+z
1/2+x,1/2-y,-z
1/2-x,1/2+y,1/2-z
loop_
_atom_site_type_symbol
_atom_site_label
_atom_site_fract_x
_atom_site_fract_y
_atom_site_fract_z
Si Si1 0.586958 0.839990 0.142712
Si Si2 0.500000 0.666714 0.250000
Si Si3 0.895264 0.000000 0.500000
Si Si4 0.311199 0.759300 0.090950
Si Si5 0.274676 0.195423 0.051036
Si Si6 0.988784 0.171663 0.599734
Si Si7 0.324636 0.480679 0.839190
O O1 0.580020 0.748604 0.199999
O O2 0.428186 0.854401 0.116591
O O3 0.672816 0.788773 0.085340
O O4 0.663846 0.966614 0.163730
O O5 0.626917 0.583917 0.276563
O O6 0.793946 0.060821 0.447917
O O7 0.988441 0.099467 0.534741
O O8 0.345634 0.618668 0.106920
O O9 0.165147 0.795583 0.124496
O O10 0.289578 0.765929 0.019201
O O11 0.425693 0.202915 0.084826
O O12 0.068758 0.092700 0.650296
#
# Coordination Sequence:
#
# PCOD8158076 Si02
#       7
#     8   4   4   8   8   8   8
#     4  10  22  40  62  90 121 159 205 249 299 359
#     4  10  22  42  62  84 116 158 210 254 294 350
#     4  10  18  32  54  80 120 156 180 238 296 342
#     4  10  20  36  59  90 123 153 193 242 301 369
#     4  10  20  35  58  89 122 158 199 240 298 371
#     4  10  20  34  55  83 113 151 196 234 287 356
#     4  10  22  40  62  82 113 155 194 252 304 345
#
# _framework density 21.09647
#
# number of rings (size 3 to 8) (size 9 to 14) (size 15 to 20)
#    0.000    2.000    0.000    5.000    0.000    7.333 
#    0.000    3.333    0.000    0.000    0.000    0.000 
#    0.000    0.000    0.000    0.000    0.000    0.000 
#
# Total GULP energy -297418.840998 kJ/mol
# GULP energy per Si atom -12392.451708 kJ/mol
# Density = 2.104845 g / cm^3
# Si number density = 21.096470 Si / 1000 Ang^3
#
#
#
# Elastic Constant Matrix: (Units=GPa)
#
#
# Indices 1 2 3 4 5 6 
#
# 1 124.3180 11.3229 17.5605 0.0000 0.0000 0.0000
# 2 11.3229 37.7699 9.5120 0.0000 0.0000 0.0000
# 3 17.5605 9.5120 85.9594 0.0000 0.0000 0.0000
# 4 0.0000 0.0000 0.0000 29.7592 0.0000 0.0000
# 5 0.0000 0.0000 0.0000 0.0000 28.1090 0.0000
# 6 0.0000 0.0000 0.0000 0.0000 0.0000 41.1435
#
#
#
# Elastic Compliance Matrix: (Units=1/GPa)
#
#
# Indices 1 2 3 4 5 6 
#
# 1 0.008451 -0.002159 -0.001487 0.000000 0.000000 0.000000
# 2 -0.002159 0.027787 -0.002634 0.000000 0.000000 0.000000
# 3 -0.001487 -0.002634 0.012229 0.000000 0.000000 0.000000
# 4 0.000000 0.000000 0.000000 0.033603 0.000000 0.000000
# 5 0.000000 0.000000 0.000000 0.000000 0.035576 0.000000
# 6 0.000000 0.000000 0.000000 0.000000 0.000000 0.024305
#
#
# Mechanical properties :
#
#
# Convention : Reuss Voigt Hill
#
# Bulk Modulus (GPa) = 27.85060 36.09311 31.97186
# Shear Modulus (GPa) = 30.03392 33.77915 31.90653
#
# Velocity S-wave (km/s) = 3.77722 4.00581 3.89319
# Velocity P-wave (km/s) = 5.67920 6.20815 5.94956
#
# Compressibility (1/GPa) = 0.03590587
#
# Stress axis : x y z
#
# Youngs Moduli (GPa) = 118.33446 35.98866 81.77472
#
# Poissons Ratio (x) = 0.07769 0.12164
# Poissons Ratio (y) = 0.25546 0.21537
# Poissons Ratio (z) = 0.17602 0.09479
#
# Static dielectric constant tensor:
#      x y z
#    x 4.246680 0.000000 0.000000 
#    y 0.000000 4.020300 0.000000 
#    z 0.000000 0.000000 3.572140 
# 
# 
# High freq. dielectric constant tensor:
#      x y z
#    x 1.839340 0.000000 0.000000 
#    y 0.000000 1.815190 0.000000 
#    z 0.000000 0.000000 1.807220 
# 
# From -- ./inp_files/28757.got.cif
#   From: 2010.03.12/outbox.cif.g09.slc.cpg/sg20_15_cif.got.tgz:28757.got - 2010.04.14 01:38:04.
