data_PCOD8158204
_publ_section_title
;
Structure prediction by ZEFSAII (Michael W. Deem and Ramdas Pophale) SiO2 
 PCOD8158204
Probable space group: C 2 2 21
;
_chemical_formula_sum "Si O2"
_cell_formula_units_Z 60
_cell_length_a 16.526367
_cell_length_b 15.054455
_cell_length_c 11.829326
_cell_angle_alpha 90.000000
_cell_angle_beta 90.000000
_cell_angle_gamma 90.000000
_cell_volume 2943.082465
_symmetry_space_group_name_H-M "C 2 2 21"
_symmetry_group_IT_number 20
_symmetry_cell_setting 'orthorhombic'
loop_
_space_group_symop_operation_xyz
x,y,z
-x,-y,1/2+z
x,-y,-z
-x,y,1/2-z
1/2+x,1/2+y,z
1/2-x,1/2-y,1/2+z
1/2+x,1/2-y,-z
1/2-x,1/2+y,1/2-z
loop_
_atom_site_type_symbol
_atom_site_label
_atom_site_fract_x
_atom_site_fract_y
_atom_site_fract_z
Si Si1 0.316750 0.665737 0.661209
Si Si2 0.444298 0.763143 0.143571
Si Si3 0.175469 0.360823 0.742057
Si Si4 0.500000 0.153423 0.250000
Si Si5 0.174502 0.108926 0.374799
Si Si6 0.331847 0.894469 0.014131
Si Si7 0.639479 0.584753 0.617474
Si Si8 0.512571 0.695309 0.924425
O O1 0.310887 0.768620 0.692969
O O2 0.248217 0.628184 0.581512
O O3 0.307869 0.609655 0.774524
O O4 0.400910 0.651476 0.596530
O O5 0.500000 0.791442 0.250000
O O6 0.372589 0.693779 0.178443
O O7 0.406783 0.850429 0.082596
O O8 0.502879 0.711488 0.057596
O O9 0.084325 0.401837 0.761031
O O10 0.245216 0.418322 0.802737
O O11 0.184773 0.350708 0.607918
O O12 0.505661 0.212539 0.361753
O O13 0.190330 0.123417 0.509382
O O14 0.120706 0.020108 0.377967
O O15 0.347202 0.000000 0.000000
O O16 0.551819 0.627528 0.625308
#
# Coordination Sequence:
#
# PCOD8158204 Si02
#       8
#     8   8   8   4   8   8   8   8
#     4  11  22  37  68  93 125 172 214 263 323 404
#     4  11  24  44  61  95 130 169 215 270 329 387
#     4  11  21  41  67  90 127 174 219 267 327 388
#     4  10  18  38  68  88 114 170 222 262 310 400
#     4  10  22  38  65  93 133 171 201 271 325 395
#     4  12  26  45  63  94 133 168 220 280 328 379
#     4  10  19  39  60  97 134 165 210 262 328 389
#     4  10  19  38  64  96 126 168 213 260 326 397
#
# _framework density 20.386787999999999
#
# number of rings (size 3 to 8) (size 9 to 14) (size 15 to 20)
#    0.000    1.333    5.333    1.600    1.867    1.067 
#    8.400    0.000    2.933    0.000    0.000    0.000 
#    0.000    0.000    0.000    0.000    0.000    0.000 
#
# Total GULP energy -371732.548799 kJ/mol
# GULP energy per Si atom -12391.084960 kJ/mol
# Density = 2.034039 g / cm^3
# Si number density = 20.386788 Si / 1000 Ang^3
#
#
#
# Elastic Constant Matrix: (Units=GPa)
#
#
# Indices 1 2 3 4 5 6 
#
# 1 128.5024 26.9496 75.4352 0.0000 0.0000 0.0000
# 2 26.9496 51.0383 12.0459 0.0000 0.0000 0.0000
# 3 75.4352 12.0459 119.3095 0.0000 0.0000 0.0000
# 4 0.0000 0.0000 0.0000 21.9155 0.0000 0.0000
# 5 0.0000 0.0000 0.0000 0.0000 42.7913 0.0000
# 6 0.0000 0.0000 0.0000 0.0000 0.0000 -34.5996
#
#
#
# Elastic Compliance Matrix: (Units=1/GPa)
#
#
# Indices 1 2 3 4 5 6 
#
# 1 0.013642 -0.005294 -0.008091 0.000000 0.000000 0.000000
# 2 -0.005294 0.022126 0.001113 0.000000 0.000000 0.000000
# 3 -0.008091 0.001113 0.013385 0.000000 0.000000 0.000000
# 4 0.000000 0.000000 0.000000 0.045630 0.000000 0.000000
# 5 0.000000 0.000000 0.000000 0.000000 0.023369 0.000000
# 6 0.000000 0.000000 0.000000 0.000000 0.000000 -0.028902
#
#
# Mechanical properties :
#
#
# Convention : Reuss Voigt Hill
#
# Bulk Modulus (GPa) = 40.63478 58.63463 49.63470
# Shear Modulus (GPa) = 40.98554 18.31607 29.65081
#
# Velocity S-wave (km/s) = 4.48861 3.00063 3.81781
# Velocity P-wave (km/s) = 6.84388 6.38972 6.62070
#
# Compressibility (1/GPa) = 0.02460946
#
# Stress axis : x y z
#
# Youngs Moduli (GPa) = 73.30505 45.19657 74.71258
#
# Poissons Ratio (x) = 0.23925 0.60447
# Poissons Ratio (y) = 0.38805 -0.08316
# Poissons Ratio (z) = 0.59309 -0.05031
#
# Static dielectric constant tensor:
#      x y z
#    x 3.831850 0.000000 0.000000 
#    y 0.000000 3.594330 0.000000 
#    z 0.000000 0.000000 5.155130 
# 
# 
# High freq. dielectric constant tensor:
#      x y z
#    x 1.793170 0.000000 0.000000 
#    y 0.000000 1.777670 0.000000 
#    z 0.000000 0.000000 1.808450 
# 
# From -- ./inp_files/15869.got.cif
#   From: 2010.03.12/outbox.cif.g09.slc.cpg/sg20_8_cif.got.tgz:15869.got - 2010.04.14 01:38:04.
