data_PCOD8158234
_publ_section_title
;
Structure prediction by ZEFSAII (Michael W. Deem and Ramdas Pophale) SiO2 
 PCOD8158234
Probable space group: C 2 2 21
;
_chemical_formula_sum "Si O2"
_cell_formula_units_Z 44
_cell_length_a 13.598034
_cell_length_b 17.217242
_cell_length_c 9.253905
_cell_angle_alpha 90.000000
_cell_angle_beta 90.000000
_cell_angle_gamma 90.000000
_cell_volume 2166.530181
_symmetry_space_group_name_H-M "C 2 2 21"
_symmetry_group_IT_number 20
_symmetry_cell_setting 'orthorhombic'
loop_
_space_group_symop_operation_xyz
x,y,z
-x,-y,1/2+z
x,-y,-z
-x,y,1/2-z
1/2+x,1/2+y,z
1/2-x,1/2-y,1/2+z
1/2+x,1/2-y,-z
1/2-x,1/2+y,1/2-z
loop_
_atom_site_type_symbol
_atom_site_label
_atom_site_fract_x
_atom_site_fract_y
_atom_site_fract_z
Si Si1 0.696415 0.833483 0.835307
Si Si2 0.000000 0.599212 0.250000
Si Si3 0.500000 0.349823 0.750000
Si Si4 0.274034 0.566231 0.599540
Si Si5 0.916952 0.500000 0.000000
Si Si6 0.332988 0.713633 0.422586
Si Si7 0.164043 0.968372 0.649098
O O1 0.590180 0.841987 0.765205
O O2 0.764227 0.787402 0.719883
O O3 0.734045 0.921271 0.860340
O O4 0.687236 0.793165 0.992065
O O5 0.987133 0.546119 0.108530
O O6 0.552404 0.295195 0.871765
O O7 0.585073 0.405726 0.696649
O O8 0.323322 0.500000 0.500000
O O9 0.154639 0.558997 0.590252
O O10 0.308128 0.648637 0.541499
O O11 0.318052 0.545998 0.756194
O O12 0.124846 0.000000 0.500000
#
# Coordination Sequence:
#
# PCOD8158234 Si02
#       7
#     8   4   4   8   4   8   8
#     4  11  25  44  64  91 135 170 211 265 317 388
#     4  12  22  42  66  96 128 158 220 258 320 376
#     4  10  22  44  62  94 136 158 218 266 318 382
#     4  10  18  45  66  86 125 176 200 268 323 357
#     4  10  20  40  66  90 124 160 204 272 306 366
#     4  11  24  45  67  91 133 174 210 264 326 381
#     4  11  24  40  67  99 124 167 222 263 316 386
#
# _framework density 20.308973000000002
#
# number of rings (size 3 to 8) (size 9 to 14) (size 15 to 20)
#    0.545    0.727    7.273    0.000    6.364    2.909 
#    0.000    0.000    0.000    0.000    0.000    0.000 
#    0.000    0.000    0.000    0.000    0.000    0.000 
#
# Total GULP energy -272630.133341 kJ/mol
# GULP energy per Si atom -12392.278788 kJ/mol
# Density = 2.026275 g / cm^3
# Si number density = 20.308973 Si / 1000 Ang^3
#
#
#
# Elastic Constant Matrix: (Units=GPa)
#
#
# Indices 1 2 3 4 5 6 
#
# 1 103.0873 19.7385 28.5932 0.0000 0.0000 0.0000
# 2 19.7385 49.8324 29.9683 0.0000 0.0000 0.0000
# 3 28.5932 29.9683 116.6663 0.0000 0.0000 0.0000
# 4 0.0000 0.0000 0.0000 46.6968 0.0000 0.0000
# 5 0.0000 0.0000 0.0000 0.0000 14.4804 0.0000
# 6 0.0000 0.0000 0.0000 0.0000 0.0000 8.4070
#
#
#
# Elastic Compliance Matrix: (Units=1/GPa)
#
#
# Indices 1 2 3 4 5 6 
#
# 1 0.010819 -0.003182 -0.001834 0.000000 0.000000 0.000000
# 2 -0.003182 0.024670 -0.005557 0.000000 0.000000 0.000000
# 3 -0.001834 -0.005557 0.010448 0.000000 0.000000 0.000000
# 4 0.000000 0.000000 0.000000 0.021415 0.000000 0.000000
# 5 0.000000 0.000000 0.000000 0.000000 0.069059 0.000000
# 6 0.000000 0.000000 0.000000 0.000000 0.000000 0.118948
#
#
# Mechanical properties :
#
#
# Convention : Reuss Voigt Hill
#
# Bulk Modulus (GPa) = 40.33889 47.35399 43.84644
# Shear Modulus (GPa) = 17.55813 26.66924 22.11369
#
# Velocity S-wave (km/s) = 2.94351 3.62771 3.30337
# Velocity P-wave (km/s) = 5.60875 6.39644 6.01550
#
# Compressibility (1/GPa) = 0.02478997
#
# Stress axis : x y z
#
# Youngs Moduli (GPa) = 92.43393 40.53567 95.70850
#
# Poissons Ratio (x) = 0.12899 0.17553
# Poissons Ratio (y) = 0.29415 0.53185
# Poissons Ratio (z) = 0.16953 0.22526
#
# Static dielectric constant tensor:
#      x y z
#    x 3.992840 0.000000 0.000000 
#    y 0.000000 3.926030 0.000000 
#    z 0.000000 0.000000 3.870100 
# 
# 
# High freq. dielectric constant tensor:
#      x y z
#    x 1.794010 0.000000 0.000000 
#    y 0.000000 1.775940 0.000000 
#    z 0.000000 0.000000 1.794810 
# 
# From -- ./inp_files/8356.got.cif
#   From: 2010.03.12/outbox.cif.g09.slc.cpg/sg20_5_cif.got.tgz:8356.got - 2010.04.14 01:38:04.
