data_PCOD8158470
_publ_section_title
;
Structure prediction by ZEFSAII (Michael W. Deem and Ramdas Pophale) SiO2 
 PCOD8158470
Probable space group: C 2 2 21
;
_chemical_formula_sum "Si O2"
_cell_formula_units_Z 64
_cell_length_a 23.331010
_cell_length_b 9.024496
_cell_length_c 14.927539
_cell_angle_alpha 90.000000
_cell_angle_beta 90.000000
_cell_angle_gamma 90.000000
_cell_volume 3143.002389
_symmetry_space_group_name_H-M "C 2 2 21"
_symmetry_group_IT_number 20
_symmetry_cell_setting 'orthorhombic'
loop_
_space_group_symop_operation_xyz
x,y,z
-x,-y,1/2+z
x,-y,-z
-x,y,1/2-z
1/2+x,1/2+y,z
1/2-x,1/2-y,1/2+z
1/2+x,1/2-y,-z
1/2-x,1/2+y,1/2-z
loop_
_atom_site_type_symbol
_atom_site_label
_atom_site_fract_x
_atom_site_fract_y
_atom_site_fract_z
Si Si1 0.707786 0.326085 0.014095
Si Si2 0.726086 0.853762 0.151731
Si Si3 0.598794 0.240779 0.665014
Si Si4 0.408101 0.259861 0.408019
Si Si5 0.553200 0.480984 0.802036
Si Si6 0.900280 0.550559 0.673149
Si Si7 0.274563 0.680987 0.167571
Si Si8 0.513896 0.755112 0.066526
O O1 0.640274 0.283984 0.015963
O O2 0.730783 0.275519 0.109639
O O3 0.717178 0.500000 0.000000
O O4 0.742626 0.234453 0.938611
O O5 0.659271 0.884682 0.138505
O O6 0.735525 0.738796 0.232189
O O7 0.762902 0.004300 0.162367
O O8 0.584911 0.368624 0.736636
O O9 0.594417 0.086577 0.720722
O O10 0.662149 0.278735 0.630031
O O11 0.554955 0.227813 0.581350
O O12 0.404551 0.393826 0.337463
O O13 0.468817 0.245789 0.461476
O O14 0.398181 0.123146 0.342654
O O15 0.500000 0.555224 0.750000
O O16 0.530833 0.400233 0.890609
O O17 0.953684 0.612360 0.616978
#
# Coordination Sequence:
#
# PCOD8158470 Si02
#       8
#     8   8   8   8   8   8   8   8
#     4  12  25  41  64  97 134 169 223 285 338 387
#     4  11  23  42  64  98 133 174 225 278 331 401
#     4   9  22  41  63  85 128 177 211 256 338 408
#     4  12  22  34  65  97 123 157 217 285 324 376
#     4   9  20  37  56  87 125 163 209 260 318 388
#     4  10  20  36  60  92 124 158 213 271 328 375
#     4  11  24  41  68  93 133 182 223 270 341 407
#     4  10  19  38  61  88 123 165 207 259 328 390
#
# _framework density 20.362694000000001
#
# number of rings (size 3 to 8) (size 9 to 14) (size 15 to 20)
#    0.000    1.500    2.500    3.750    5.250    1.000 
#    0.000    6.250    0.000    0.000    0.000    0.000 
#    0.000    0.000    0.000    0.000    0.000    0.000 
#
# Total GULP energy -396700.640812 kJ/mol
# GULP energy per Si atom -12396.895025 kJ/mol
# Density = 2.031635 g / cm^3
# Si number density = 20.362694 Si / 1000 Ang^3
#
#
#
# Elastic Constant Matrix: (Units=GPa)
#
#
# Indices 1 2 3 4 5 6 
#
# 1 79.2866 24.5284 31.2410 0.0000 0.0000 0.0000
# 2 24.5284 143.6753 48.0307 0.0000 0.0000 0.0000
# 3 31.2410 48.0307 84.2166 0.0000 0.0000 0.0000
# 4 0.0000 0.0000 0.0000 28.3308 0.0000 0.0000
# 5 0.0000 0.0000 0.0000 0.0000 32.6617 0.0000
# 6 0.0000 0.0000 0.0000 0.0000 0.0000 23.1248
#
#
#
# Elastic Compliance Matrix: (Units=1/GPa)
#
#
# Indices 1 2 3 4 5 6 
#
# 1 0.014857 -0.000857 -0.005022 0.000000 0.000000 0.000000
# 2 -0.000857 0.008649 -0.004615 0.000000 0.000000 0.000000
# 3 -0.005022 -0.004615 0.016369 0.000000 0.000000 0.000000
# 4 0.000000 0.000000 0.000000 0.035297 0.000000 0.000000
# 5 0.000000 0.000000 0.000000 0.000000 0.030617 0.000000
# 6 0.000000 0.000000 0.000000 0.000000 0.000000 0.043244
#
#
# Mechanical properties :
#
#
# Convention : Reuss Voigt Hill
#
# Bulk Modulus (GPa) = 52.94890 57.19761 55.07326
# Shear Modulus (GPa) = 28.35801 30.38201 29.37001
#
# Velocity S-wave (km/s) = 3.73587 3.86689 3.80194
# Velocity P-wave (km/s) = 6.68343 6.93451 6.81013
#
# Compressibility (1/GPa) = 0.01888613
#
# Stress axis : x y z
#
# Youngs Moduli (GPa) = 67.31013 115.61705 61.09075
#
# Poissons Ratio (x) = 0.09913 0.30681
# Poissons Ratio (y) = 0.05771 0.28192
# Poissons Ratio (z) = 0.33804 0.53355
#
# Static dielectric constant tensor:
#      x y z
#    x 3.749530 0.000000 0.000000 
#    y 0.000000 3.710920 0.000000 
#    z 0.000000 0.000000 3.558880 
# 
# 
# High freq. dielectric constant tensor:
#      x y z
#    x 1.787210 0.000000 0.000000 
#    y 0.000000 1.798710 0.000000 
#    z 0.000000 0.000000 1.783450 
# 
# From -- ./inp_files/22064.got.cif
#   From: 2010.03.12/outbox.cif.g09.slc.cpg/sg20_12_cif.got.tgz:22064.got - 2010.04.14 01:38:04.
