data_PCOD8158529
_publ_section_title
;
Structure prediction by ZEFSAII (Michael W. Deem and Ramdas Pophale) SiO2 
 PCOD8158529
Probable space group: C 2 2 21
;
_chemical_formula_sum "Si O2"
_cell_formula_units_Z 48
_cell_length_a 21.958415
_cell_length_b 8.851392
_cell_length_c 10.641344
_cell_angle_alpha 90.000000
_cell_angle_beta 90.000000
_cell_angle_gamma 90.000000
_cell_volume 2068.278637
_symmetry_space_group_name_H-M "C 2 2 21"
_symmetry_group_IT_number 20
_symmetry_cell_setting 'orthorhombic'
loop_
_space_group_symop_operation_xyz
x,y,z
-x,-y,1/2+z
x,-y,-z
-x,y,1/2-z
1/2+x,1/2+y,z
1/2-x,1/2-y,1/2+z
1/2+x,1/2-y,-z
1/2-x,1/2+y,1/2-z
loop_
_atom_site_type_symbol
_atom_site_label
_atom_site_fract_x
_atom_site_fract_y
_atom_site_fract_z
Si Si1 0.592504 0.844626 0.064206
Si Si2 0.810901 0.414785 0.869263
Si Si3 0.869657 0.910270 0.123051
Si Si4 0.474447 0.226575 0.050356
Si Si5 0.173996 0.921238 0.865245
Si Si6 0.430955 0.941235 0.180740
O O1 0.650039 0.748120 0.109458
O O2 0.547852 0.878715 0.183672
O O3 0.546563 0.748308 0.974710
O O4 0.615256 0.000000 0.000000
O O5 0.830182 0.241070 0.875791
O O6 0.742995 0.417987 0.812561
O O7 0.860725 0.507498 0.789429
O O8 0.809537 0.500000 0.000000
O O9 0.942308 0.872942 0.110876
O O10 0.864070 0.999596 0.254458
O O11 0.847193 0.000000 0.000000
O O12 0.471132 0.084799 0.143280
O O13 0.433913 0.186775 0.926555
O O14 0.168067 0.000000 0.000000
#
# Coordination Sequence:
#
# PCOD8158529 Si02
#       6
#     8   8   8   8   8   8
#     4  12  26  42  71 105 145 188 251 304 363 438
#     4  10  22  45  75 100 147 189 252 301 359 453
#     4  11  24  45  75 104 140 197 245 297 384 443
#     4  10  21  42  72  99 131 188 244 302 350 439
#     4  11  29  46  64 111 157 189 232 315 385 432
#     4  10  19  41  70 105 126 178 251 303 341 425
#
# _framework density 23.207705000000001
#
# number of rings (size 3 to 8) (size 9 to 14) (size 15 to 20)
#    0.000    1.333    5.000    1.500    7.000    2.667 
#    0.000    1.667    0.000    0.000    0.000    0.000 
#    0.000    0.000    0.000    0.000    0.000    0.000 
#
# Total GULP energy -297455.033234 kJ/mol
# GULP energy per Si atom -12393.959718 kJ/mol
# Density = 2.315488 g / cm^3
# Si number density = 23.207705 Si / 1000 Ang^3
#
#
#
# Elastic Constant Matrix: (Units=GPa)
#
#
# Indices 1 2 3 4 5 6 
#
# 1 125.9393 31.9452 22.4175 0.0000 0.0000 0.0000
# 2 31.9452 96.1984 36.1500 0.0000 0.0000 0.0000
# 3 22.4175 36.1500 107.3690 0.0000 0.0000 0.0000
# 4 0.0000 0.0000 0.0000 23.8556 0.0000 0.0000
# 5 0.0000 0.0000 0.0000 0.0000 16.0463 0.0000
# 6 0.0000 0.0000 0.0000 0.0000 0.0000 21.3500
#
#
#
# Elastic Compliance Matrix: (Units=1/GPa)
#
#
# Indices 1 2 3 4 5 6 
#
# 1 0.008758 -0.002543 -0.000972 0.000000 0.000000 0.000000
# 2 -0.002543 0.012639 -0.003725 0.000000 0.000000 0.000000
# 3 -0.000972 -0.003725 0.010771 0.000000 0.000000 0.000000
# 4 0.000000 0.000000 0.000000 0.041919 0.000000 0.000000
# 5 0.000000 0.000000 0.000000 0.000000 0.062319 0.000000
# 6 0.000000 0.000000 0.000000 0.000000 0.000000 0.046839
#
#
# Mechanical properties :
#
#
# Convention : Reuss Voigt Hill
#
# Bulk Modulus (GPa) = 56.53424 56.72578 56.63001
# Shear Modulus (GPa) = 24.55534 28.18331 26.36933
#
# Velocity S-wave (km/s) = 3.25633 3.48860 3.37446
# Velocity P-wave (km/s) = 6.20896 6.38144 6.29579
#
# Compressibility (1/GPa) = 0.01768840
#
# Stress axis : x y z
#
# Youngs Moduli (GPa) = 114.17487 79.11823 92.84421
#
# Poissons Ratio (x) = 0.20120 0.09029
# Poissons Ratio (y) = 0.29035 0.34580
# Poissons Ratio (z) = 0.11103 0.29468
#
# Static dielectric constant tensor:
#      x y z
#    x 4.644710 0.000000 0.000000 
#    y 0.000000 4.069660 0.000000 
#    z 0.000000 0.000000 4.303430 
# 
# 
# High freq. dielectric constant tensor:
#      x y z
#    x 1.922500 0.000000 0.000000 
#    y 0.000000 1.904660 0.000000 
#    z 0.000000 0.000000 1.922550 
# 
# From -- ./inp_files/16660.got.cif
#   From: 2010.03.12/outbox.cif.g09.slc.cpg/sg20_9_cif.got.tgz:16660.got - 2010.04.14 01:38:04.
