data_PCOD8158636
_publ_section_title
;
Structure prediction by ZEFSAII (Michael W. Deem and Ramdas Pophale) SiO2 
 PCOD8158636
Probable space group: C 2 2 21
;
_chemical_formula_sum "Si O2"
_cell_formula_units_Z 56
_cell_length_a 15.907575
_cell_length_b 9.128436
_cell_length_c 18.860857
_cell_angle_alpha 90.000000
_cell_angle_beta 90.000000
_cell_angle_gamma 90.000000
_cell_volume 2738.809193
_symmetry_space_group_name_H-M "C 2 2 21"
_symmetry_group_IT_number 20
_symmetry_cell_setting 'orthorhombic'
loop_
_space_group_symop_operation_xyz
x,y,z
-x,-y,1/2+z
x,-y,-z
-x,y,1/2-z
1/2+x,1/2+y,z
1/2-x,1/2-y,1/2+z
1/2+x,1/2-y,-z
1/2-x,1/2+y,1/2-z
loop_
_atom_site_type_symbol
_atom_site_label
_atom_site_fract_x
_atom_site_fract_y
_atom_site_fract_z
Si Si1 0.577190 0.102072 0.386519
Si Si2 0.657779 0.864418 0.209270
Si Si3 0.001026 0.149225 0.527314
Si Si4 0.261589 0.913308 0.809912
Si Si5 0.416285 0.460577 0.337767
Si Si6 0.000000 0.270754 0.750000
Si Si7 0.436728 0.898558 0.437561
Si Si8 0.000000 0.801583 0.750000
O O1 0.568705 0.245431 0.435996
O O2 0.676168 0.075354 0.377494
O O3 0.538855 0.125913 0.308991
O O4 0.528799 0.964339 0.419620
O O5 0.736324 0.753040 0.208013
O O6 0.624030 0.896872 0.130113
O O7 0.582937 0.799949 0.259913
O O8 0.693346 0.014693 0.241458
O O9 0.932077 0.098410 0.584037
O O10 0.951092 0.232989 0.464616
O O11 0.045949 0.000000 0.500000
O O12 0.179739 0.997467 0.834232
O O13 0.426711 0.330560 0.281350
O O14 0.479938 0.595832 0.318443
O O15 0.396422 0.000000 0.500000
#
# Coordination Sequence:
#
# PCOD8158636 Si02
#       8
#     8   8   8   8   8   4   8   4
#     4  10  20  35  58  84 112 144 188 238 287 335
#     4  11  22  38  61  89 120 151 190 240 298 350
#     4  10  20  38  61  81 110 157 205 236 273 352
#     4  11  22  36  58  91 121 143 182 250 308 339
#     4   9  19  34  59  89 116 148 191 239 293 344
#     4   9  16  33  58  84 110 146 186 228 278 344
#     4  10  22  40  60  82 112 160 205 233 275 357
#     4   9  18  35  60  86 112 150 192 232 282 346
#
# _framework density 20.446843000000001
#
# number of rings (size 3 to 8) (size 9 to 14) (size 15 to 20)
#    0.000    2.000    0.000    4.286    0.000    3.429 
#    0.000    7.143    0.000    3.429    0.000    0.000 
#    0.000    0.000    0.000    0.000    0.000    0.000 
#
# Total GULP energy -347098.582359 kJ/mol
# GULP energy per Si atom -12396.377941 kJ/mol
# Density = 2.040030 g / cm^3
# Si number density = 20.446843 Si / 1000 Ang^3
#
#
#
# Elastic Constant Matrix: (Units=GPa)
#
#
# Indices 1 2 3 4 5 6 
#
# 1 113.1334 46.3746 57.7195 0.0000 0.0000 0.0000
# 2 46.3746 119.6774 55.5741 0.0000 0.0000 0.0000
# 3 57.7195 55.5741 119.8494 0.0000 0.0000 0.0000
# 4 0.0000 0.0000 0.0000 31.9773 0.0000 0.0000
# 5 0.0000 0.0000 0.0000 0.0000 25.5193 0.0000
# 6 0.0000 0.0000 0.0000 0.0000 0.0000 27.9104
#
#
#
# Elastic Compliance Matrix: (Units=1/GPa)
#
#
# Indices 1 2 3 4 5 6 
#
# 1 0.012309 -0.002570 -0.004736 0.000000 0.000000 0.000000
# 2 -0.002570 0.011186 -0.003949 0.000000 0.000000 0.000000
# 3 -0.004736 -0.003949 0.012456 0.000000 0.000000 0.000000
# 4 0.000000 0.000000 0.000000 0.031272 0.000000 0.000000
# 5 0.000000 0.000000 0.000000 0.000000 0.039186 0.000000
# 6 0.000000 0.000000 0.000000 0.000000 0.000000 0.035829
#
#
# Mechanical properties :
#
#
# Convention : Reuss Voigt Hill
#
# Bulk Modulus (GPa) = 74.40673 74.66628 74.53651
# Shear Modulus (GPa) = 29.54589 29.94753 29.74671
#
# Velocity S-wave (km/s) = 3.80545 3.83123 3.81836
# Velocity P-wave (km/s) = 7.46846 7.49451 7.48150
#
# Compressibility (1/GPa) = 0.01343964
#
# Stress axis : x y z
#
# Youngs Moduli (GPa) = 81.24060 89.40135 80.28387
#
# Poissons Ratio (x) = 0.22980 0.38024
# Poissons Ratio (y) = 0.20882 0.31702
# Poissons Ratio (z) = 0.38477 0.35303
#
# Static dielectric constant tensor:
#      x y z
#    x 3.627040 0.000000 0.000000 
#    y 0.000000 4.054260 0.000000 
#    z 0.000000 0.000000 3.864970 
# 
# 
# High freq. dielectric constant tensor:
#      x y z
#    x 1.772090 0.000000 0.000000 
#    y 0.000000 1.820180 0.000000 
#    z 0.000000 0.000000 1.799700 
# 
# From -- ./inp_files/27610.got.cif
#   From: 2010.03.12/outbox.cif.g09.slc.cpg/sg20_14_cif.got.tgz:27610.got - 2010.04.14 01:38:04.
