data_PCOD8158006
_publ_section_title
;
Structure prediction by ZEFSAII (Michael W. Deem and Ramdas Pophale) SiO2 
 PCOD8158006
Probable space group: C 2 2 21
;
_chemical_formula_sum "Si O2"
_cell_formula_units_Z 52
_cell_length_a 21.621732
_cell_length_b 8.369542
_cell_length_c 14.831545
_cell_angle_alpha 90.000000
_cell_angle_beta 90.000000
_cell_angle_gamma 90.000000
_cell_volume 2683.975622
_symmetry_space_group_name_H-M "C 2 2 21"
_symmetry_group_IT_number 20
_symmetry_cell_setting 'orthorhombic'
loop_
_space_group_symop_operation_xyz
x,y,z
-x,-y,1/2+z
x,-y,-z
-x,y,1/2-z
1/2+x,1/2+y,z
1/2-x,1/2-y,1/2+z
1/2+x,1/2-y,-z
1/2-x,1/2+y,1/2-z
loop_
_atom_site_type_symbol
_atom_site_label
_atom_site_fract_x
_atom_site_fract_y
_atom_site_fract_z
Si Si1 0.566246 0.562185 0.903725
Si Si2 0.598101 0.081289 0.095429
Si Si3 0.813283 0.865764 0.625710
Si Si4 0.610120 0.152703 0.750038
Si Si5 0.726251 0.160261 0.040750
Si Si6 0.000000 0.880205 0.750000
Si Si7 0.695409 0.060060 0.599023
O O1 0.561482 0.753062 0.897483
O O2 0.636326 0.505007 0.885732
O O3 0.518495 0.491456 0.832666
O O4 0.543360 0.500000 0.000000
O O5 0.671867 0.106038 0.108017
O O6 0.578511 0.966196 0.177568
O O7 0.581830 0.000000 0.000000
O O8 0.832124 0.748860 0.706641
O O9 0.809612 0.766189 0.533593
O O10 0.746945 0.945778 0.644099
O O11 0.557332 0.272944 0.717377
O O12 0.635614 0.058047 0.663040
O O13 0.778834 0.259331 0.091621
O O14 0.757845 0.000000 0.000000
O O15 0.675723 0.000000 0.500000
#
# Coordination Sequence:
#
# PCOD8158006 Si02
#       7
#     8   8   8   8   8   4   8
#     4  11  19  39  64  86 117 155 202 254 312 351
#     4  11  19  34  64  94 113 147 202 260 301 352
#     4  10  18  32  59  89 117 147 194 252 302 359
#     4  11  23  39  59  86 127 161 206 252 298 349
#     4  10  17  32  56  92 119 143 188 247 304 362
#     4  10  26  44  58  88 120 164 214 260 282 362
#     4  10  22  37  57  88 127 161 188 242 310 381
#
# _framework density 19.374244000000001
#
# number of rings (size 3 to 8) (size 9 to 14) (size 15 to 20)
#    0.000    1.538    6.154    1.385    2.154    0.615 
#    0.000    9.231    0.000    0.000    0.000    0.000 
#    0.000    0.000    0.000    0.000    0.000    0.000 
#
# Total GULP energy -322440.793589 kJ/mol
# GULP energy per Si atom -12401.568984 kJ/mol
# Density = 1.933015 g / cm^3
# Si number density = 19.374244 Si / 1000 Ang^3
#
#
#
# Elastic Constant Matrix: (Units=GPa)
#
#
# Indices 1 2 3 4 5 6 
#
# 1 68.2364 37.8876 53.5919 0.0000 0.0000 0.0000
# 2 37.8876 139.0238 51.8533 0.0000 0.0000 0.0000
# 3 53.5919 51.8533 115.8766 0.0000 0.0000 0.0000
# 4 0.0000 0.0000 0.0000 29.2496 0.0000 0.0000
# 5 0.0000 0.0000 0.0000 0.0000 22.2520 0.0000
# 6 0.0000 0.0000 0.0000 0.0000 0.0000 17.2445
#
#
#
# Elastic Compliance Matrix: (Units=1/GPa)
#
#
# Indices 1 2 3 4 5 6 
#
# 1 0.023934 -0.002874 -0.009783 0.000000 0.000000 0.000000
# 2 -0.002874 0.008979 -0.002689 0.000000 0.000000 0.000000
# 3 -0.009783 -0.002689 0.014358 0.000000 0.000000 0.000000
# 4 0.000000 0.000000 0.000000 0.034189 0.000000 0.000000
# 5 0.000000 0.000000 0.000000 0.000000 0.044940 0.000000
# 6 0.000000 0.000000 0.000000 0.000000 0.000000 0.057990
#
#
# Mechanical properties :
#
#
# Convention : Reuss Voigt Hill
#
# Bulk Modulus (GPa) = 60.31699 67.75581 64.03640
# Shear Modulus (GPa) = 22.66466 25.73615 24.20040
#
# Velocity S-wave (km/s) = 3.42399 3.64863 3.53810
# Velocity P-wave (km/s) = 6.84338 7.26623 7.05797
#
# Compressibility (1/GPa) = 0.01657908
#
# Stress axis : x y z
#
# Youngs Moduli (GPa) = 41.78106 111.36964 69.64801
#
# Poissons Ratio (x) = 0.32004 0.68140
# Poissons Ratio (y) = 0.12007 0.18728
# Poissons Ratio (z) = 0.40876 0.29947
#
# Static dielectric constant tensor:
#      x y z
#    x 3.110450 0.000000 0.000000 
#    y 0.000000 3.833310 0.000000 
#    z 0.000000 0.000000 3.405200 
# 
# 
# High freq. dielectric constant tensor:
#      x y z
#    x 1.714490 0.000000 0.000000 
#    y 0.000000 1.773990 0.000000 
#    z 0.000000 0.000000 1.744570 
# 
# From -- ./inp_files/21706.got.cif
#   From: 2010.03.12/outbox.cif.g09.slc.cpg/sg20_11_cif.got.tgz:21706.got - 2010.04.14 01:38:04.
