data_PCOD8158255
_publ_section_title
;
Structure prediction by ZEFSAII (Michael W. Deem and Ramdas Pophale) SiO2 
 PCOD8158255
Probable space group: C 2 2 21
;
_chemical_formula_sum "Si O2"
_cell_formula_units_Z 32
_cell_length_a 14.055678
_cell_length_b 26.945022
_cell_length_c 5.184039
_cell_angle_alpha 90.000000
_cell_angle_beta 90.000000
_cell_angle_gamma 90.000000
_cell_volume 1963.353957
_symmetry_space_group_name_H-M "C 2 2 21"
_symmetry_group_IT_number 20
_symmetry_cell_setting 'orthorhombic'
loop_
_space_group_symop_operation_xyz
x,y,z
-x,-y,1/2+z
x,-y,-z
-x,y,1/2-z
1/2+x,1/2+y,z
1/2-x,1/2-y,1/2+z
1/2+x,1/2-y,-z
1/2-x,1/2+y,1/2-z
loop_
_atom_site_type_symbol
_atom_site_label
_atom_site_fract_x
_atom_site_fract_y
_atom_site_fract_z
Si Si1 0.060988 0.942687 0.500617
Si Si2 0.606238 0.265982 0.338845
Si Si3 0.766222 0.686902 0.943565
Si Si4 0.801692 0.856144 0.955163
O O1 0.157445 0.911163 0.507764
O O2 0.000000 0.928669 0.250000
O O3 0.091598 0.000000 0.500000
O O4 0.000000 0.928982 0.750000
O O5 0.500000 0.256546 0.250000
O O6 0.638458 0.217875 0.501915
O O7 0.612592 0.315700 0.515092
O O8 0.678572 0.273486 0.094627
O O9 0.746035 0.649019 0.176742
O O10 0.776446 0.654393 0.681296
#
# Coordination Sequence:
#
# PCOD8158255 Si02
#       4
#     8   8   8   8
#     4  10  20  32  47  71  97 127 170 205 238 296
#     4  10  20  33  50  67 101 133 165 200 249 278
#     4  10  20  34  44  73  96 124 174 202 226 304
#     4  10  19  32  47  66  98 128 164 197 238 286
#
# _framework density 16.298639000000001
#
# number of rings (size 3 to 8) (size 9 to 14) (size 15 to 20)
#    1.500    0.500    2.500    2.250    3.500    0.000 
#    0.000    0.000    0.000    0.000    0.000    0.000 
#    0.000    4.000    0.000    0.000    0.000    0.000 
#
# Total GULP energy -198289.262659 kJ/mol
# GULP energy per Si atom -12393.078916 kJ/mol
# Density = 1.626154 g / cm^3
# Si number density = 16.298639 Si / 1000 Ang^3
#
#
#
# Elastic Constant Matrix: (Units=GPa)
#
#
# Indices 1 2 3 4 5 6 
#
# 1 43.9974 8.2055 1.2491 0.0000 0.0000 0.0000
# 2 8.2055 66.0835 15.2476 0.0000 0.0000 0.0000
# 3 1.2491 15.2476 103.8567 0.0000 0.0000 0.0000
# 4 0.0000 0.0000 0.0000 58.4921 0.0000 0.0000
# 5 0.0000 0.0000 0.0000 0.0000 16.7502 0.0000
# 6 0.0000 0.0000 0.0000 0.0000 0.0000 29.6388
#
#
#
# Elastic Compliance Matrix: (Units=1/GPa)
#
#
# Indices 1 2 3 4 5 6 
#
# 1 0.023270 -0.002924 0.000149 0.000000 0.000000 0.000000
# 2 -0.002924 0.016030 -0.002318 0.000000 0.000000 0.000000
# 3 0.000149 -0.002318 0.009967 0.000000 0.000000 0.000000
# 4 0.000000 0.000000 0.000000 0.017096 0.000000 0.000000
# 5 0.000000 0.000000 0.000000 0.000000 0.059701 0.000000
# 6 0.000000 0.000000 0.000000 0.000000 0.000000 0.033740
#
#
# Mechanical properties :
#
#
# Convention : Reuss Voigt Hill
#
# Bulk Modulus (GPa) = 25.58742 29.26022 27.42382
# Shear Modulus (GPa) = 27.31995 33.59194 30.45594
#
# Velocity S-wave (km/s) = 4.09860 4.54478 4.32744
# Velocity P-wave (km/s) = 6.17505 6.74771 6.46772
#
# Compressibility (1/GPa) = 0.03908171
#
# Stress axis : x y z
#
# Youngs Moduli (GPa) = 42.97442 62.38178 100.32896
#
# Poissons Ratio (x) = 0.18239 -0.01499
# Poissons Ratio (y) = 0.12565 0.23259
# Poissons Ratio (z) = -0.00642 0.14462
#
# Static dielectric constant tensor:
#      x y z
#    x 2.581060 0.000000 0.000000 
#    y 0.000000 2.898140 0.000000 
#    z 0.000000 0.000000 3.265030 
# 
# 
# High freq. dielectric constant tensor:
#      x y z
#    x 1.575580 0.000000 0.000000 
#    y 0.000000 1.607450 0.000000 
#    z 0.000000 0.000000 1.647740 
# 
# From -- ./inp_files/1315.got.cif
#   From: 2010.03.12/outbox.cif.g09.slc.cpg/sg20_1_cif.got.tgz:1315.got - 2010.04.14 01:38:04.
