data_PCOD8158110
_publ_section_title
;
Structure prediction by ZEFSAII (Michael W. Deem and Ramdas Pophale) SiO2 
 PCOD8158110
Probable space group: C 2 2 21
;
_chemical_formula_sum "Si O2"
_cell_formula_units_Z 48
_cell_length_a 8.272539
_cell_length_b 27.372474
_cell_length_c 10.102415
_cell_angle_alpha 90.000000
_cell_angle_beta 90.000000
_cell_angle_gamma 90.000000
_cell_volume 2287.589425
_symmetry_space_group_name_H-M "C 2 2 21"
_symmetry_group_IT_number 20
_symmetry_cell_setting 'orthorhombic'
loop_
_space_group_symop_operation_xyz
x,y,z
-x,-y,1/2+z
x,-y,-z
-x,y,1/2-z
1/2+x,1/2+y,z
1/2-x,1/2-y,1/2+z
1/2+x,1/2-y,-z
1/2-x,1/2+y,1/2-z
loop_
_atom_site_type_symbol
_atom_site_label
_atom_site_fract_x
_atom_site_fract_y
_atom_site_fract_z
Si Si1 0.323174 0.845515 0.685724
Si Si2 0.022044 0.257029 0.904927
Si Si3 0.612025 0.431329 0.627770
Si Si4 0.299286 0.427233 0.482036
Si Si5 0.683928 0.004961 0.289640
Si Si6 0.278080 0.681055 0.457551
O O1 0.500000 0.858028 0.750000
O O2 0.339458 0.799116 0.588154
O O3 0.249793 0.890325 0.602872
O O4 0.198802 0.831857 0.803518
O O5 0.000000 0.243565 0.750000
O O6 0.868031 0.281071 0.976367
O O7 0.064534 0.208228 0.985295
O O8 0.500000 0.415257 0.750000
O O9 0.492901 0.435848 0.502020
O O10 0.706712 0.481818 0.661004
O O11 0.249902 0.454232 0.347613
O O12 0.200533 0.450597 0.605307
O O13 0.253640 0.370311 0.465344
O O14 0.500000 0.997925 0.250000
#
# Coordination Sequence:
#
# PCOD8158110 Si02
#       6
#     8   8   8   8   8   8
#     4   9  18  34  59  88 117 158 204 253 293 361
#     4   9  22  36  56  88 125 156 206 248 302 362
#     4  10  18  33  64  88 118 152 208 254 301 355
#     4  10  22  38  62  93 123 156 210 258 306 377
#     4  10  21  40  62  88 126 162 206 259 316 371
#     4  10  19  38  59  86 127 159 208 246 302 365
#
# _framework density 20.982786999999998
#
# number of rings (size 3 to 8) (size 9 to 14) (size 15 to 20)
#    0.000    2.667    3.333    0.500    4.667    0.000 
#    0.000   17.500    0.000    0.000    0.000    0.000 
#    0.000    0.000    0.000    0.000    0.000    0.000 
#
# Total GULP energy -297388.201888 kJ/mol
# GULP energy per Si atom -12391.175079 kJ/mol
# Density = 2.093503 g / cm^3
# Si number density = 20.982787 Si / 1000 Ang^3
#
#
#
# Elastic Constant Matrix: (Units=GPa)
#
#
# Indices 1 2 3 4 5 6 
#
# 1 114.4973 61.7144 43.9743 0.0000 0.0000 0.0000
# 2 61.7144 140.5576 34.7435 0.0000 0.0000 0.0000
# 3 43.9743 34.7435 40.7881 0.0000 0.0000 0.0000
# 4 0.0000 0.0000 0.0000 15.9485 0.0000 0.0000
# 5 0.0000 0.0000 0.0000 0.0000 30.1284 0.0000
# 6 0.0000 0.0000 0.0000 0.0000 0.0000 42.1714
#
#
#
# Elastic Compliance Matrix: (Units=1/GPa)
#
#
# Indices 1 2 3 4 5 6 
#
# 1 0.016185 -0.003538 -0.014436 0.000000 0.000000 0.000000
# 2 -0.003538 0.009785 -0.004521 0.000000 0.000000 0.000000
# 3 -0.014436 -0.004521 0.043931 0.000000 0.000000 0.000000
# 4 0.000000 0.000000 0.000000 0.062702 0.000000 0.000000
# 5 0.000000 0.000000 0.000000 0.000000 0.033191 0.000000
# 6 0.000000 0.000000 0.000000 0.000000 0.000000 0.023713
#
#
# Mechanical properties :
#
#
# Convention : Reuss Voigt Hill
#
# Bulk Modulus (GPa) = 40.14046 64.07861 52.10953
# Shear Modulus (GPa) = 20.59303 28.01039 24.30171
#
# Velocity S-wave (km/s) = 3.13617 3.65762 3.40689
# Velocity P-wave (km/s) = 5.68206 6.96007 6.35328
#
# Compressibility (1/GPa) = 0.02491252
#
# Stress axis : x y z
#
# Youngs Moduli (GPa) = 61.78529 102.19242 22.76295
#
# Poissons Ratio (x) = 0.36157 0.32860
# Poissons Ratio (y) = 0.21860 0.10291
# Poissons Ratio (z) = 0.89191 0.46199
#
# Static dielectric constant tensor:
#      x y z
#    x 3.951850 0.000000 0.000000 
#    y 0.000000 3.864700 0.000000 
#    z 0.000000 0.000000 3.390340 
# 
# 
# High freq. dielectric constant tensor:
#      x y z
#    x 1.824380 0.000000 0.000000 
#    y 0.000000 1.828460 0.000000 
#    z 0.000000 0.000000 1.769880 
# 
# From -- ./inp_files/13104.got.cif
#   From: 2010.03.12/outbox.cif.g09.slc.cpg/sg20_7_cif.got.tgz:13104.got - 2010.04.14 01:38:04.
