data_PCOD8158504
_publ_section_title
;
Structure prediction by ZEFSAII (Michael W. Deem and Ramdas Pophale) SiO2 
 PCOD8158504
Probable space group: C 2 2 21
;
_chemical_formula_sum "Si O2"
_cell_formula_units_Z 48
_cell_length_a 11.545688
_cell_length_b 16.762410
_cell_length_c 12.376650
_cell_angle_alpha 90.000000
_cell_angle_beta 90.000000
_cell_angle_gamma 90.000000
_cell_volume 2395.297086
_symmetry_space_group_name_H-M "C 2 2 21"
_symmetry_group_IT_number 20
_symmetry_cell_setting 'orthorhombic'
loop_
_space_group_symop_operation_xyz
x,y,z
-x,-y,1/2+z
x,-y,-z
-x,y,1/2-z
1/2+x,1/2+y,z
1/2-x,1/2-y,1/2+z
1/2+x,1/2-y,-z
1/2-x,1/2+y,1/2-z
loop_
_atom_site_type_symbol
_atom_site_label
_atom_site_fract_x
_atom_site_fract_y
_atom_site_fract_z
Si Si1 0.266534 0.410649 0.956551
Si Si2 0.598631 0.825047 0.118139
Si Si3 0.365360 0.938924 0.760720
Si Si4 0.360517 0.884904 0.163135
Si Si5 0.235921 0.088031 0.037174
Si Si6 0.491615 0.348922 0.621669
O O1 0.194744 0.410263 0.847424
O O2 0.389005 0.368943 0.936479
O O3 0.284002 0.500000 0.000000
O O4 0.199698 0.354911 0.041024
O O5 0.491402 0.887590 0.114564
O O6 0.647196 0.818973 0.241663
O O7 0.551298 0.738455 0.086468
O O8 0.500000 0.922109 0.750000
O O9 0.315258 0.886957 0.860626
O O10 0.332663 0.030787 0.781262
O O11 0.270442 0.859370 0.068494
O O12 0.102372 0.091228 0.070521
O O13 0.271041 0.000000 0.000000
O O14 0.500000 0.361432 0.750000
#
# Coordination Sequence:
#
# PCOD8158504 Si02
#       6
#     8   8   8   8   8   8
#     4  12  24  42  69  97 127 173 228 268 314 394
#     4  11  23  40  66  95 130 168 210 269 336 379
#     4  11  19  36  65 100 126 160 225 279 316 374
#     4  10  19  39  64  92 129 165 213 274 332 373
#     4  10  23  40  64  93 127 171 218 269 325 386
#     4  12  25  43  63  92 134 178 210 264 334 395
#
# _framework density 20.039268
#
# number of rings (size 3 to 8) (size 9 to 14) (size 15 to 20)
#    0.000    1.000    6.667    1.500    2.333    1.333 
#    0.000    0.833    0.000    0.000    0.000    0.000 
#    0.000    0.000    0.000    0.000    0.000    0.000 
#
# Total GULP energy -297573.916802 kJ/mol
# GULP energy per Si atom -12398.913200 kJ/mol
# Density = 1.999366 g / cm^3
# Si number density = 20.039268 Si / 1000 Ang^3
#
#
#
# Elastic Constant Matrix: (Units=GPa)
#
#
# Indices 1 2 3 4 5 6 
#
# 1 160.9050 36.3565 95.0180 0.0000 0.0000 0.0000
# 2 36.3565 60.1861 38.4763 0.0000 0.0000 0.0000
# 3 95.0180 38.4763 147.9286 0.0000 0.0000 0.0000
# 4 0.0000 0.0000 0.0000 15.4478 0.0000 0.0000
# 5 0.0000 0.0000 0.0000 0.0000 40.0335 0.0000
# 6 0.0000 0.0000 0.0000 0.0000 0.0000 26.4036
#
#
#
# Elastic Compliance Matrix: (Units=1/GPa)
#
#
# Indices 1 2 3 4 5 6 
#
# 1 0.010291 -0.002388 -0.005989 0.000000 0.000000 0.000000
# 2 -0.002388 0.020483 -0.003794 0.000000 0.000000 0.000000
# 3 -0.005989 -0.003794 0.011594 0.000000 0.000000 0.000000
# 4 0.000000 0.000000 0.000000 0.064734 0.000000 0.000000
# 5 0.000000 0.000000 0.000000 0.000000 0.024979 0.000000
# 6 0.000000 0.000000 0.000000 0.000000 0.000000 0.037874
#
#
# Mechanical properties :
#
#
# Convention : Reuss Voigt Hill
#
# Bulk Modulus (GPa) = 55.47492 78.74681 67.11086
# Shear Modulus (GPa) = 24.96194 29.65490 27.30842
#
# Velocity S-wave (km/s) = 3.53321 3.85104 3.69554
# Velocity P-wave (km/s) = 6.66243 7.69127 7.19526
#
# Compressibility (1/GPa) = 0.01802617
#
# Stress axis : x y z
#
# Youngs Moduli (GPa) = 97.17149 48.82128 86.25297
#
# Poissons Ratio (x) = 0.11657 0.51658
# Poissons Ratio (y) = 0.23202 0.32724
# Poissons Ratio (z) = 0.58198 0.18522
#
# Static dielectric constant tensor:
#      x y z
#    x 3.681670 0.000000 0.000000 
#    y 0.000000 3.423940 0.000000 
#    z 0.000000 0.000000 4.033270 
# 
# 
# High freq. dielectric constant tensor:
#      x y z
#    x 1.781570 0.000000 0.000000 
#    y 0.000000 1.759440 0.000000 
#    z 0.000000 0.000000 1.800580 
# 
# From -- ./inp_files/14132.got.cif
#   From: 2010.03.12/outbox.cif.g09.slc.cpg/sg20_8_cif.got.tgz:14132.got - 2010.04.14 01:38:04.
