data_PCOD8158707
_publ_section_title
;
Structure prediction by ZEFSAII (Michael W. Deem and Ramdas Pophale) SiO2 
 PCOD8158707
Probable space group: C 2 2 21
;
_chemical_formula_sum "Si O2"
_cell_formula_units_Z 48
_cell_length_a 7.511313
_cell_length_b 15.584215
_cell_length_c 18.160011
_cell_angle_alpha 90.000000
_cell_angle_beta 90.000000
_cell_angle_gamma 90.000000
_cell_volume 2125.773055
_symmetry_space_group_name_H-M "C 2 2 21"
_symmetry_group_IT_number 20
_symmetry_cell_setting 'orthorhombic'
loop_
_space_group_symop_operation_xyz
x,y,z
-x,-y,1/2+z
x,-y,-z
-x,y,1/2-z
1/2+x,1/2+y,z
1/2-x,1/2-y,1/2+z
1/2+x,1/2-y,-z
1/2-x,1/2+y,1/2-z
loop_
_atom_site_type_symbol
_atom_site_label
_atom_site_fract_x
_atom_site_fract_y
_atom_site_fract_z
Si Si1 0.768387 0.578178 0.553224
Si Si2 0.854478 0.513789 0.919339
Si Si3 0.487655 0.523212 0.665197
Si Si4 0.728533 0.237743 0.053291
Si Si5 0.511969 0.320605 0.834803
Si Si6 0.854074 0.322406 0.920745
O O1 0.722282 0.500000 0.500000
O O2 0.638998 0.576122 0.623152
O O3 0.740458 0.664472 0.507940
O O4 0.971805 0.573595 0.581783
O O5 0.706432 0.552030 0.864547
O O6 0.914683 0.417299 0.895533
O O7 0.769420 0.500000 0.000000
O O8 0.500000 0.548747 0.750000
O O9 0.513716 0.421879 0.652568
O O10 0.527134 0.238908 0.083428
O O11 0.858152 0.229358 0.122268
O O12 0.775325 0.323385 0.005597
O O13 0.500000 0.294826 0.750000
O O14 0.702506 0.288473 0.865215
#
# Coordination Sequence:
#
# PCOD8158707 Si02
#       6
#     8   8   8   8   8   8
#     4  11  20  36  61  88 116 153 202 253 295 352
#     4  10  20  36  62  89 115 150 203 252 296 348
#     4  10  21  35  58  89 120 154 196 251 308 358
#     4  12  22  37  63  91 119 158 205 250 301 363
#     4  10  22  38  60  91 121 153 200 258 306 356
#     4  11  22  37  62  92 116 158 200 251 299 361
#
# _framework density 22.580022
#
# number of rings (size 3 to 8) (size 9 to 14) (size 15 to 20)
#    0.000    1.333    6.667    0.500    2.333    1.333 
#    0.000    5.000   11.000    0.000    0.000    0.000 
#    0.000    0.000    0.000    0.000    0.000    0.000 
#
# Total GULP energy -297637.192938 kJ/mol
# GULP energy per Si atom -12401.549706 kJ/mol
# Density = 2.252863 g / cm^3
# Si number density = 22.580022 Si / 1000 Ang^3
#
#
#
# Elastic Constant Matrix: (Units=GPa)
#
#
# Indices 1 2 3 4 5 6 
#
# 1 153.9537 26.3104 87.5518 0.0000 0.0000 0.0000
# 2 26.3104 20.9569 18.4603 0.0000 0.0000 0.0000
# 3 87.5518 18.4603 158.4444 0.0000 0.0000 0.0000
# 4 0.0000 0.0000 0.0000 24.1759 0.0000 0.0000
# 5 0.0000 0.0000 0.0000 0.0000 37.9099 0.0000
# 6 0.0000 0.0000 0.0000 0.0000 0.0000 19.9936
#
#
#
# Elastic Compliance Matrix: (Units=1/GPa)
#
#
# Indices 1 2 3 4 5 6 
#
# 1 0.010896 -0.009334 -0.004933 0.000000 0.000000 0.000000
# 2 -0.009334 0.061170 -0.001969 0.000000 0.000000 0.000000
# 3 -0.004933 -0.001969 0.009267 0.000000 0.000000 0.000000
# 4 0.000000 0.000000 0.000000 0.041364 0.000000 0.000000
# 5 0.000000 0.000000 0.000000 0.000000 0.026378 0.000000
# 6 0.000000 0.000000 0.000000 0.000000 0.000000 0.050016
#
#
# Mechanical properties :
#
#
# Convention : Reuss Voigt Hill
#
# Bulk Modulus (GPa) = 20.46670 66.44446 43.45558
# Shear Modulus (GPa) = 20.17343 29.81805 24.99574
#
# Velocity S-wave (km/s) = 2.99225 3.63788 3.33075
# Velocity P-wave (km/s) = 4.58496 6.86554 5.83770
#
# Compressibility (1/GPa) = 0.04885985
#
# Stress axis : x y z
#
# Youngs Moduli (GPa) = 91.77494 16.34787 107.91131
#
# Poissons Ratio (x) = 0.15259 0.53237
# Poissons Ratio (y) = 0.85663 0.21250
# Poissons Ratio (z) = 0.45277 0.03219
#
# Static dielectric constant tensor:
#      x y z
#    x 4.097200 0.000000 0.000000 
#    y 0.000000 4.093290 0.000000 
#    z 0.000000 0.000000 3.924840 
# 
# 
# High freq. dielectric constant tensor:
#      x y z
#    x 1.900750 0.000000 0.000000 
#    y 0.000000 1.885280 0.000000 
#    z 0.000000 0.000000 1.867430 
# 
# From -- ./inp_files/18890.got.cif
#   From: 2010.03.12/outbox.cif.g09.slc.cpg/sg20_10_cif.got.tgz:18890.got - 2010.04.14 01:38:04.
