data_PCOD8158989
_publ_section_title
;
Structure prediction by ZEFSAII (Michael W. Deem and Ramdas Pophale) SiO2 
 PCOD8158989
Probable space group: C 2 2 21
;
_chemical_formula_sum "Si O2"
_cell_formula_units_Z 28
_cell_length_a 13.618513
_cell_length_b 18.323659
_cell_length_c 4.867543
_cell_angle_alpha 90.000000
_cell_angle_beta 90.000000
_cell_angle_gamma 90.000000
_cell_volume 1214.651491
_symmetry_space_group_name_H-M "C 2 2 21"
_symmetry_group_IT_number 20
_symmetry_cell_setting 'orthorhombic'
loop_
_space_group_symop_operation_xyz
x,y,z
-x,-y,1/2+z
x,-y,-z
-x,y,1/2-z
1/2+x,1/2+y,z
1/2-x,1/2-y,1/2+z
1/2+x,1/2-y,-z
1/2-x,1/2+y,1/2-z
loop_
_atom_site_type_symbol
_atom_site_label
_atom_site_fract_x
_atom_site_fract_y
_atom_site_fract_z
Si Si1 0.749618 0.920111 0.539043
Si Si2 0.307296 0.724721 0.685611
Si Si3 0.383246 0.919274 0.454287
Si Si4 0.000000 0.692757 0.250000
O O1 0.823953 0.856560 0.439624
O O2 0.651205 0.913307 0.358611
O O3 0.799747 0.000000 0.500000
O O4 0.712484 0.907085 0.848538
O O5 0.272489 0.776018 0.431545
O O6 0.407476 0.755414 0.818967
O O7 0.469176 0.860021 0.498694
O O8 0.427636 0.000000 0.500000
#
# Coordination Sequence:
#
# PCOD8158989 Si02
#       4
#     8   8   8   4
#     4  10  20  41  63  87 129 174 217 269 327 390
#     4  12  24  42  63  97 135 173 224 274 335 400
#     4  10  22  37  61  94 128 168 213 268 337 400
#     4  12  24  40  68  98 138 176 218 280 336 406
#
# _framework density 23.051881000000002
#
# number of rings (size 3 to 8) (size 9 to 14) (size 15 to 20)
#    0.000    1.143    5.714    0.000    0.000    8.000 
#    0.000    0.000    0.000    8.571    0.000    0.000 
#    0.000    0.000    0.000    0.000    0.000    0.000 
#
# Total GULP energy -173525.186672 kJ/mol
# GULP energy per Si atom -12394.656191 kJ/mol
# Density = 2.299941 g / cm^3
# Si number density = 23.051881 Si / 1000 Ang^3
#
#
#
# Elastic Constant Matrix: (Units=GPa)
#
#
# Indices 1 2 3 4 5 6 
#
# 1 77.1134 49.9089 1.6920 0.0000 0.0000 0.0000
# 2 49.9089 191.4033 6.6602 0.0000 0.0000 0.0000
# 3 1.6920 6.6602 64.4057 0.0000 0.0000 0.0000
# 4 0.0000 0.0000 0.0000 38.3480 0.0000 0.0000
# 5 0.0000 0.0000 0.0000 0.0000 27.4119 0.0000
# 6 0.0000 0.0000 0.0000 0.0000 0.0000 43.2001
#
#
#
# Elastic Compliance Matrix: (Units=1/GPa)
#
#
# Indices 1 2 3 4 5 6 
#
# 1 0.015601 -0.004068 0.000011 0.000000 0.000000 0.000000
# 2 -0.004068 0.006304 -0.000545 0.000000 0.000000 0.000000
# 3 0.000011 -0.000545 0.015583 0.000000 0.000000 0.000000
# 4 0.000000 0.000000 0.000000 0.026077 0.000000 0.000000
# 5 0.000000 0.000000 0.000000 0.000000 0.036480 0.000000
# 6 0.000000 0.000000 0.000000 0.000000 0.000000 0.023148
#
#
# Mechanical properties :
#
#
# Convention : Reuss Voigt Hill
#
# Bulk Modulus (GPa) = 35.35728 49.93829 42.64779
# Shear Modulus (GPa) = 35.25449 40.10276 37.67863
#
# Velocity S-wave (km/s) = 3.91494 4.17546 4.04730
# Velocity P-wave (km/s) = 5.98390 6.70496 6.35467
#
# Compressibility (1/GPa) = 0.02828272
#
# Stress axis : x y z
#
# Youngs Moduli (GPa) = 64.09947 158.62037 64.17396
#
# Poissons Ratio (x) = 0.64532 -0.00070
# Poissons Ratio (y) = 0.26078 0.03498
# Poissons Ratio (z) = -0.00070 0.08646
#
# Static dielectric constant tensor:
#      x y z
#    x 3.476930 0.000000 0.000000 
#    y 0.000000 4.677840 0.000000 
#    z 0.000000 0.000000 4.149680 
# 
# 
# High freq. dielectric constant tensor:
#      x y z
#    x 1.840960 0.000000 0.000000 
#    y 0.000000 1.939530 0.000000 
#    z 0.000000 0.000000 1.926470 
# 
# From -- ./inp_files/1702.got.cif
#   From: 2010.03.12/outbox.cif.g09.slc.cpg/sg20_1_cif.got.tgz:1702.got - 2010.04.14 01:38:04.
