data_PCOD8158075
_publ_section_title
;
Structure prediction by ZEFSAII (Michael W. Deem and Ramdas Pophale) SiO2 
 PCOD8158075
Probable space group: C 2 2 21
;
_chemical_formula_sum "Si O2"
_cell_formula_units_Z 48
_cell_length_a 18.198803
_cell_length_b 11.545250
_cell_length_c 12.592346
_cell_angle_alpha 90.000000
_cell_angle_beta 90.000000
_cell_angle_gamma 90.000000
_cell_volume 2645.774422
_symmetry_space_group_name_H-M "C 2 2 21"
_symmetry_group_IT_number 20
_symmetry_cell_setting 'orthorhombic'
loop_
_space_group_symop_operation_xyz
x,y,z
-x,-y,1/2+z
x,-y,-z
-x,y,1/2-z
1/2+x,1/2+y,z
1/2-x,1/2-y,1/2+z
1/2+x,1/2-y,-z
1/2-x,1/2+y,1/2-z
loop_
_atom_site_type_symbol
_atom_site_label
_atom_site_fract_x
_atom_site_fract_y
_atom_site_fract_z
Si Si1 0.410598 0.152393 0.108077
Si Si2 0.779452 0.886352 0.897995
Si Si3 0.725310 0.146760 0.688621
Si Si4 0.473571 0.000000 0.500000
Si Si5 0.829715 0.875159 0.124641
Si Si6 0.627941 0.022371 0.192229
Si Si7 0.709471 0.000000 0.500000
O O1 0.401843 0.293990 0.107127
O O2 0.417971 0.108460 0.230148
O O3 0.478098 0.112455 0.033347
O O4 0.337213 0.098610 0.058826
O O5 0.807763 0.768520 0.847164
O O6 0.697663 0.913376 0.858232
O O7 0.840335 0.985002 0.864654
O O8 0.774380 0.867854 0.024495
O O9 0.790759 0.171385 0.769934
O O10 0.756429 0.068468 0.589748
O O11 0.654766 0.085827 0.739071
O O12 0.424127 0.969606 0.398559
#
# Coordination Sequence:
#
# PCOD8158075 Si02
#       7
#     8   8   8   4   8   8   4
#     4  10  19  33  52  75 110 142 188 222 268 324
#     4  10  19  32  56  82 115 137 175 237 285 345
#     4  10  18  32  54  80 115 139 178 232 286 344
#     4  11  22  36  52  82 110 146 189 238 260 311
#     4  10  19  31  49  83 110 147 178 220 291 334
#     4  10  20  35  53  87 107 142 187 231 285 320
#     4   9  18  30  50  78 106 142 181 220 280 325
#
# _framework density 18.142137000000002
#
# number of rings (size 3 to 8) (size 9 to 14) (size 15 to 20)
#    0.000    2.000    3.333    2.500    0.000    0.000 
#    0.000    0.000    0.000    0.000   17.333    0.000 
#    0.000    0.000    0.000    0.000    0.000    0.000 
#
# Total GULP energy -297321.317194 kJ/mol
# GULP energy per Si atom -12388.388216 kJ/mol
# Density = 1.810084 g / cm^3
# Si number density = 18.142137 Si / 1000 Ang^3
#
#
#
# Elastic Constant Matrix: (Units=GPa)
#
#
# Indices 1 2 3 4 5 6 
#
# 1 54.6441 37.1120 30.3692 0.0000 0.0000 0.0000
# 2 37.1120 139.3627 55.8993 0.0000 0.0000 0.0000
# 3 30.3692 55.8993 121.7698 0.0000 0.0000 0.0000
# 4 0.0000 0.0000 0.0000 22.9895 0.0000 0.0000
# 5 0.0000 0.0000 0.0000 0.0000 25.5785 0.0000
# 6 0.0000 0.0000 0.0000 0.0000 0.0000 20.4689
#
#
#
# Elastic Compliance Matrix: (Units=1/GPa)
#
#
# Indices 1 2 3 4 5 6 
#
# 1 0.023614 -0.004812 -0.003680 0.000000 0.000000 0.000000
# 2 -0.004812 0.009776 -0.003287 0.000000 0.000000 0.000000
# 3 -0.003680 -0.003287 0.010639 0.000000 0.000000 0.000000
# 4 0.000000 0.000000 0.000000 0.043498 0.000000 0.000000
# 5 0.000000 0.000000 0.000000 0.000000 0.039095 0.000000
# 6 0.000000 0.000000 0.000000 0.000000 0.000000 0.048855
#
#
# Mechanical properties :
#
#
# Convention : Reuss Voigt Hill
#
# Bulk Modulus (GPa) = 48.85433 62.50420 55.67926
# Shear Modulus (GPa) = 24.28846 26.63378 25.46112
#
# Velocity S-wave (km/s) = 3.66291 3.83569 3.75030
# Velocity P-wave (km/s) = 6.69898 7.35826 7.03635
#
# Compressibility (1/GPa) = 0.02046902
#
# Stress axis : x y z
#
# Youngs Moduli (GPa) = 42.34816 102.29561 93.99238
#
# Poissons Ratio (x) = 0.49226 0.34591
# Poissons Ratio (y) = 0.20379 0.30899
# Poissons Ratio (z) = 0.15585 0.33629
#
# Static dielectric constant tensor:
#      x y z
#    x 2.871140 0.000000 0.000000 
#    y 0.000000 3.556230 0.000000 
#    z 0.000000 0.000000 3.795820 
# 
# 
# High freq. dielectric constant tensor:
#      x y z
#    x 1.637740 0.000000 0.000000 
#    y 0.000000 1.704390 0.000000 
#    z 0.000000 0.000000 1.731780 
# 
# From -- ./inp_files/14286.got.cif
#   From: 2010.03.12/outbox.cif.g09.slc.cpg/sg20_8_cif.got.tgz:14286.got - 2010.04.14 01:38:04.
