data_PCOD8158826
_publ_section_title
;
Structure prediction by ZEFSAII (Michael W. Deem and Ramdas Pophale) SiO2 
 PCOD8158826
Probable space group: C 2 2 21
;
_chemical_formula_sum "Si O2"
_cell_formula_units_Z 64
_cell_length_a 15.477985
_cell_length_b 11.792704
_cell_length_c 17.509356
_cell_angle_alpha 90.000000
_cell_angle_beta 90.000000
_cell_angle_gamma 90.000000
_cell_volume 3195.935399
_symmetry_space_group_name_H-M "C 2 2 21"
_symmetry_group_IT_number 20
_symmetry_cell_setting 'orthorhombic'
loop_
_space_group_symop_operation_xyz
x,y,z
-x,-y,1/2+z
x,-y,-z
-x,y,1/2-z
1/2+x,1/2+y,z
1/2-x,1/2-y,1/2+z
1/2+x,1/2-y,-z
1/2-x,1/2+y,1/2-z
loop_
_atom_site_type_symbol
_atom_site_label
_atom_site_fract_x
_atom_site_fract_y
_atom_site_fract_z
Si Si1 0.329120 0.106041 0.670173
Si Si2 0.989143 0.603539 0.902439
Si Si3 0.693233 0.855987 0.804749
Si Si4 0.944470 0.643287 0.072139
Si Si5 0.665615 0.479840 0.088095
Si Si6 0.268755 0.178480 0.133835
Si Si7 0.813995 0.332078 0.157334
Si Si8 0.958986 0.814310 0.331539
O O1 0.423607 0.141062 0.639849
O O2 0.258327 0.189232 0.632370
O O3 0.319411 0.110096 0.760545
O O4 0.309492 0.975330 0.650396
O O5 0.969882 0.471668 0.882748
O O6 0.910246 0.679685 0.873629
O O7 0.993882 0.631592 0.992077
O O8 0.690022 0.862358 0.713397
O O9 0.779918 0.795749 0.834233
O O10 0.611036 0.783775 0.827948
O O11 0.839579 0.651644 0.067571
O O12 0.968443 0.760283 0.114319
O O13 0.682469 0.604839 0.121576
O O14 0.751655 0.404074 0.101352
O O15 0.582852 0.426436 0.131092
O O16 0.643892 0.500000 0.000000
O O17 0.000000 0.847687 0.250000
#
# Coordination Sequence:
#
# PCOD8158826 Si02
#       8
#     8   8   8   8   8   8   8   8
#     4  11  22  38  65  94 130 162 217 277 321 380
#     4  11  22  38  58  95 127 166 213 266 324 385
#     4  10  20  38  62  96 123 159 214 271 318 383
#     4  11  22  38  61  89 124 166 216 261 319 393
#     4  11  23  40  66  95 129 168 218 270 332 400
#     4  11  22  38  63  92 127 166 211 258 331 396
#     4  10  21  37  65  92 126 169 211 258 326 399
#     4  11  23  40  68  95 122 171 223 274 319 398
#
# _framework density 20.025435999999999
#
# number of rings (size 3 to 8) (size 9 to 14) (size 15 to 20)
#    0.000    1.250    5.000    1.125    1.750    0.000 
#    0.000    3.750    0.000    0.000    0.000    0.000 
#    0.000    0.000    0.000    0.000    0.000    0.000 
#
# Total GULP energy -396718.387491 kJ/mol
# GULP energy per Si atom -12397.449609 kJ/mol
# Density = 1.997986 g / cm^3
# Si number density = 20.025436 Si / 1000 Ang^3
#
#
#
# Elastic Constant Matrix: (Units=GPa)
#
#
# Indices 1 2 3 4 5 6 
#
# 1 97.3416 44.7786 32.6485 0.0000 0.0000 0.0000
# 2 44.7786 98.7440 44.5024 0.0000 0.0000 0.0000
# 3 32.6485 44.5024 76.1606 0.0000 0.0000 0.0000
# 4 0.0000 0.0000 0.0000 23.2699 0.0000 0.0000
# 5 0.0000 0.0000 0.0000 0.0000 29.0824 0.0000
# 6 0.0000 0.0000 0.0000 0.0000 0.0000 45.1925
#
#
#
# Elastic Compliance Matrix: (Units=1/GPa)
#
#
# Indices 1 2 3 4 5 6 
#
# 1 0.013465 -0.004758 -0.002992 0.000000 0.000000 0.000000
# 2 -0.004758 0.015429 -0.006976 0.000000 0.000000 0.000000
# 3 -0.002992 -0.006976 0.018489 0.000000 0.000000 0.000000
# 4 0.000000 0.000000 0.000000 0.042974 0.000000 0.000000
# 5 0.000000 0.000000 0.000000 0.000000 0.034385 0.000000
# 6 0.000000 0.000000 0.000000 0.000000 0.000000 0.022128
#
#
# Mechanical properties :
#
#
# Convention : Reuss Voigt Hill
#
# Bulk Modulus (GPa) = 55.76800 57.34502 56.55651
# Shear Modulus (GPa) = 27.42759 29.53006 28.47882
#
# Velocity S-wave (km/s) = 3.70488 3.84425 3.77521
# Velocity P-wave (km/s) = 6.79783 6.95720 6.87798
#
# Compressibility (1/GPa) = 0.01793143
#
# Stress axis : x y z
#
# Youngs Moduli (GPa) = 74.26475 64.81462 54.08624
#
# Poissons Ratio (x) = 0.30837 0.16184
# Poissons Ratio (y) = 0.35333 0.37729
# Poissons Ratio (z) = 0.22222 0.45213
#
# Static dielectric constant tensor:
#      x y z
#    x 3.603760 0.000000 0.000000 
#    y 0.000000 3.823200 0.000000 
#    z 0.000000 0.000000 3.173740 
# 
# 
# High freq. dielectric constant tensor:
#      x y z
#    x 1.778120 0.000000 0.000000 
#    y 0.000000 1.775220 0.000000 
#    z 0.000000 0.000000 1.773560 
# 
# From -- ./inp_files/24979.got.cif
#   From: 2010.03.12/outbox.cif.g09.slc.cpg/sg20_13_cif.got.tgz:24979.got - 2010.04.14 01:38:04.
