data_PCOD8158228
_publ_section_title
;
Structure prediction by ZEFSAII (Michael W. Deem and Ramdas Pophale) SiO2 
 PCOD8158228
Probable space group: C 2 2 21
;
_chemical_formula_sum "Si O2"
_cell_formula_units_Z 40
_cell_length_a 14.838782
_cell_length_b 13.834428
_cell_length_c 9.303081
_cell_angle_alpha 90.000000
_cell_angle_beta 90.000000
_cell_angle_gamma 90.000000
_cell_volume 1909.792855
_symmetry_space_group_name_H-M "C 2 2 21"
_symmetry_group_IT_number 20
_symmetry_cell_setting 'orthorhombic'
loop_
_space_group_symop_operation_xyz
x,y,z
-x,-y,1/2+z
x,-y,-z
-x,y,1/2-z
1/2+x,1/2+y,z
1/2-x,1/2-y,1/2+z
1/2+x,1/2-y,-z
1/2-x,1/2+y,1/2-z
loop_
_atom_site_type_symbol
_atom_site_label
_atom_site_fract_x
_atom_site_fract_y
_atom_site_fract_z
Si Si1 0.394043 0.500000 0.500000
Si Si2 0.500000 0.208845 0.250000
Si Si3 0.000000 0.821088 0.750000
Si Si4 0.322517 0.304861 0.613125
Si Si5 0.291019 0.500000 0.000000
Si Si6 0.548440 0.380220 0.440623
Si Si7 0.685540 0.837258 0.850867
O O1 0.333831 0.419897 0.580672
O O2 0.460546 0.441734 0.387536
O O3 0.543533 0.274031 0.375444
O O4 0.419523 0.143656 0.312911
O O5 0.086398 0.761805 0.811310
O O6 0.039514 0.881660 0.615416
O O7 0.303780 0.243721 0.471973
O O8 0.236895 0.293105 0.714641
O O9 0.355212 0.570892 0.905446
O O10 0.226957 0.439596 0.895052
#
# Coordination Sequence:
#
# PCOD8158228 Si02
#       7
#     4   4   4   8   4   8   8
#     4   9  20  38  65 104 136 162 221 284 349 394
#     4  12  24  43  67 100 136 182 228 285 335 408
#     4  10  18  43  63 104 136 170 206 291 351 398
#     4  11  24  42  68 106 141 177 227 291 352 407
#     4  11  24  40  67  98 132 178 229 278 335 400
#     4  10  21  38  73  99 135 168 221 287 347 391
#     4  12  26  43  66 100 143 185 230 278 347 414
#
# _framework density 20.944680000000002
#
# number of rings (size 3 to 8) (size 9 to 14) (size 15 to 20)
#    0.000    1.200    6.000    1.200    2.800    3.200 
#    0.000    2.000    0.000    0.000    0.000    0.000 
#    0.000    0.000    0.000    0.000    0.000    0.000 
#
# Total GULP energy -247801.470564 kJ/mol
# GULP energy per Si atom -12390.073528 kJ/mol
# Density = 2.089701 g / cm^3
# Si number density = 20.944680 Si / 1000 Ang^3
#
#
#
# Elastic Constant Matrix: (Units=GPa)
#
#
# Indices 1 2 3 4 5 6 
#
# 1 170.8065 56.1393 61.1494 0.0000 0.0000 0.0000
# 2 56.1393 63.3791 40.9131 0.0000 0.0000 0.0000
# 3 61.1494 40.9131 102.3506 0.0000 0.0000 0.0000
# 4 0.0000 0.0000 0.0000 29.4291 0.0000 0.0000
# 5 0.0000 0.0000 0.0000 0.0000 43.5132 0.0000
# 6 0.0000 0.0000 0.0000 0.0000 0.0000 43.3522
#
#
#
# Elastic Compliance Matrix: (Units=1/GPa)
#
#
# Indices 1 2 3 4 5 6 
#
# 1 0.008857 -0.005970 -0.002905 0.000000 0.000000 0.000000
# 2 -0.005970 0.025289 -0.006542 0.000000 0.000000 0.000000
# 3 -0.002905 -0.006542 0.014121 0.000000 0.000000 0.000000
# 4 0.000000 0.000000 0.000000 0.033980 0.000000 0.000000
# 5 0.000000 0.000000 0.000000 0.000000 0.022982 0.000000
# 6 0.000000 0.000000 0.000000 0.000000 0.000000 0.023067
#
#
# Mechanical properties :
#
#
# Convention : Reuss Voigt Hill
#
# Bulk Modulus (GPa) = 57.36348 72.54887 64.95617
# Shear Modulus (GPa) = 30.31394 35.14786 32.73090
#
# Velocity S-wave (km/s) = 3.80851 4.10094 3.95743
# Velocity P-wave (km/s) = 6.84012 7.55891 7.20848
#
# Compressibility (1/GPa) = 0.01743269
#
# Stress axis : x y z
#
# Youngs Moduli (GPa) = 112.90911 39.54278 70.81523
#
# Poissons Ratio (x) = 0.23605 0.20573
# Poissons Ratio (y) = 0.67402 0.46330
# Poissons Ratio (z) = 0.32802 0.25870
#
# Static dielectric constant tensor:
#      x y z
#    x 4.102810 0.000000 0.000000 
#    y 0.000000 3.507910 0.000000 
#    z 0.000000 0.000000 3.884740 
# 
# 
# High freq. dielectric constant tensor:
#      x y z
#    x 1.830250 0.000000 0.000000 
#    y 0.000000 1.780530 0.000000 
#    z 0.000000 0.000000 1.824970 
# 
# From -- ./inp_files/8186.got.cif
#   From: 2010.03.12/outbox.cif.g09.slc.cpg/sg20_5_cif.got.tgz:8186.got - 2010.04.14 01:38:04.
