data_PCOD8158280
_publ_section_title
;
Structure prediction by ZEFSAII (Michael W. Deem and Ramdas Pophale) SiO2 
 PCOD8158280
Probable space group: C 2 2 21
;
_chemical_formula_sum "Si O2"
_cell_formula_units_Z 48
_cell_length_a 28.821358
_cell_length_b 5.006963
_cell_length_c 17.658312
_cell_angle_alpha 90.000000
_cell_angle_beta 90.000000
_cell_angle_gamma 90.000000
_cell_volume 2548.226384
_symmetry_space_group_name_H-M "C 2 2 21"
_symmetry_group_IT_number 20
_symmetry_cell_setting 'orthorhombic'
loop_
_space_group_symop_operation_xyz
x,y,z
-x,-y,1/2+z
x,-y,-z
-x,y,1/2-z
1/2+x,1/2+y,z
1/2-x,1/2-y,1/2+z
1/2+x,1/2-y,-z
1/2-x,1/2+y,1/2-z
loop_
_atom_site_type_symbol
_atom_site_label
_atom_site_fract_x
_atom_site_fract_y
_atom_site_fract_z
Si Si1 0.649672 0.458936 0.611945
Si Si2 0.741901 0.267170 0.547031
Si Si3 0.227258 0.306389 0.786424
Si Si4 0.464305 0.068344 0.182833
Si Si5 0.859182 0.537938 0.205742
Si Si6 0.044980 0.068732 0.417054
O O1 0.689084 0.369037 0.554350
O O2 0.655059 0.768073 0.635882
O O3 0.600252 0.417650 0.572295
O O4 0.653198 0.266623 0.685519
O O5 0.768501 0.500000 0.500000
O O6 0.765840 0.217535 0.627448
O O7 0.744069 0.000000 0.500000
O O8 0.258984 0.563793 0.768864
O O9 0.172772 0.378232 0.776674
O O10 0.500000 0.019602 0.250000
O O11 0.413753 0.060877 0.222721
O O12 0.471937 0.353286 0.144100
O O13 0.471627 0.852334 0.116007
O O14 0.023563 0.000000 0.500000
#
# Coordination Sequence:
#
# PCOD8158280 Si02
#       6
#     8   8   8   8   8   8
#     4  10  19  33  52  79 111 141 175 214 284 340
#     4  12  23  33  50  79 113 144 181 231 275 318
#     4  12  21  37  57  76 108 150 196 219 267 336
#     4  10  21  36  58  83 113 145 189 230 281 328
#     4  10  19  35  56  79 103 146 187 226 265 324
#     4  10  20  34  55  84 116 146 173 226 287 350
#
# _framework density 18.836632999999999
#
# number of rings (size 3 to 8) (size 9 to 14) (size 15 to 20)
#    0.000    1.333    3.333    3.500    0.000    2.667 
#    0.000    0.000    0.000    3.000    0.000    0.000 
#    0.000    0.000    0.000    0.000    0.000    0.000 
#
# Total GULP energy -297564.376033 kJ/mol
# GULP energy per Si atom -12398.515668 kJ/mol
# Density = 1.879376 g / cm^3
# Si number density = 18.836633 Si / 1000 Ang^3
#
#
#
# Elastic Constant Matrix: (Units=GPa)
#
#
# Indices 1 2 3 4 5 6 
#
# 1 73.1234 25.9854 48.7956 0.0000 0.0000 0.0000
# 2 25.9854 92.6433 22.7049 0.0000 0.0000 0.0000
# 3 48.7956 22.7049 107.2820 0.0000 0.0000 0.0000
# 4 0.0000 0.0000 0.0000 29.5031 0.0000 0.0000
# 5 0.0000 0.0000 0.0000 0.0000 4.6495 0.0000
# 6 0.0000 0.0000 0.0000 0.0000 0.0000 12.7798
#
#
#
# Elastic Compliance Matrix: (Units=1/GPa)
#
#
# Indices 1 2 3 4 5 6 
#
# 1 0.020774 -0.003703 -0.008665 0.000000 0.000000 0.000000
# 2 -0.003703 0.012045 -0.000865 0.000000 0.000000 0.000000
# 3 -0.008665 -0.000865 0.013445 0.000000 0.000000 0.000000
# 4 0.000000 0.000000 0.000000 0.033895 0.000000 0.000000
# 5 0.000000 0.000000 0.000000 0.000000 0.215075 0.000000
# 6 0.000000 0.000000 0.000000 0.000000 0.000000 0.078248
#
#
# Mechanical properties :
#
#
# Convention : Reuss Voigt Hill
#
# Bulk Modulus (GPa) = 50.51003 52.00228 51.25615
# Shear Modulus (GPa) = 12.29870 21.09067 16.69468
#
# Velocity S-wave (km/s) = 2.55799 3.34977 2.98029
# Velocity P-wave (km/s) = 5.96636 6.52902 6.25402
#
# Compressibility (1/GPa) = 0.01979805
#
# Stress axis : x y z
#
# Youngs Moduli (GPa) = 48.13807 83.02389 74.37542
#
# Poissons Ratio (x) = 0.30745 0.64445
# Poissons Ratio (y) = 0.17826 0.06432
# Poissons Ratio (z) = 0.41711 0.07180
#
# Static dielectric constant tensor:
#      x y z
#    x 3.266480 0.000000 0.000000 
#    y 0.000000 3.723340 0.000000 
#    z 0.000000 0.000000 3.352660 
# 
# 
# High freq. dielectric constant tensor:
#      x y z
#    x 1.695880 0.000000 0.000000 
#    y 0.000000 1.758910 0.000000 
#    z 0.000000 0.000000 1.718020 
# 
# From -- ./inp_files/22154.got.cif
#   From: 2010.03.12/outbox.cif.g09.slc.cpg/sg20_12_cif.got.tgz:22154.got - 2010.04.14 01:38:04.
