data_PCOD8158236
_publ_section_title
;
Structure prediction by ZEFSAII (Michael W. Deem and Ramdas Pophale) SiO2 
 PCOD8158236
Probable space group: C 2 2 21
;
_chemical_formula_sum "Si O2"
_cell_formula_units_Z 52
_cell_length_a 34.444846
_cell_length_b 20.765728
_cell_length_c 5.235402
_cell_angle_alpha 90.000000
_cell_angle_beta 90.000000
_cell_angle_gamma 90.000000
_cell_volume 3744.738046
_symmetry_space_group_name_H-M "C 2 2 21"
_symmetry_group_IT_number 20
_symmetry_cell_setting 'orthorhombic'
loop_
_space_group_symop_operation_xyz
x,y,z
-x,-y,1/2+z
x,-y,-z
-x,y,1/2-z
1/2+x,1/2+y,z
1/2-x,1/2-y,1/2+z
1/2+x,1/2-y,-z
1/2-x,1/2+y,1/2-z
loop_
_atom_site_type_symbol
_atom_site_label
_atom_site_fract_x
_atom_site_fract_y
_atom_site_fract_z
Si Si1 0.023815 0.575427 0.997604
Si Si2 0.701260 0.273639 0.338782
Si Si3 0.852428 0.661594 0.048088
Si Si4 0.843346 0.500000 0.500000
Si Si5 0.729187 0.326950 0.833999
Si Si6 0.288767 0.932737 0.875397
Si Si7 0.890498 0.615735 0.568661
O O1 0.063705 0.613937 0.972869
O O2 0.000000 0.595474 0.750000
O O3 0.033042 0.500000 0.000000
O O4 0.000000 0.596104 0.250000
O O5 0.662010 0.232348 0.368614
O O6 0.703170 0.320863 0.581298
O O7 0.737755 0.226588 0.330268
O O8 0.701730 0.317070 0.082074
O O9 0.815651 0.616525 0.961348
O O10 0.874595 0.633707 0.290911
O O11 0.879907 0.665722 0.796713
O O12 0.815054 0.449308 0.633932
O O13 0.872436 0.546359 0.661327
O O14 0.748136 0.397874 0.818168
O O15 0.277883 0.000000 0.000000
#
# Coordination Sequence:
#
# PCOD8158236 Si02
#       7
#     8   8   8   4   8   8   8
#     4  10  20  32  44  58  80 107 133 157 194 256
#     4   9  17  31  40  58  71  98 132 158 201 250
#     4  10  20  29  46  59  79  98 129 174 211 246
#     4  10  20  28  40  58  86  98 132 172 206 264
#     4   9  18  27  44  52  76 102 126 159 200 254
#     4  10  19  28  39  59  82 102 130 166 216 252
#     4  11  19  31  44  62  77 105 127 168 214 241
#
# _framework density 13.886151999999999
#
# number of rings (size 3 to 8) (size 9 to 14) (size 15 to 20)
#    0.000    2.154    2.308    1.846    2.154    3.692 
#    0.000    0.000    0.000    0.000    0.000    0.000 
#    0.000    0.000    0.000    0.000    0.000    0.000 
#
# Total GULP energy -322136.626228 kJ/mol
# GULP energy per Si atom -12389.870240 kJ/mol
# Density = 1.385455 g / cm^3
# Si number density = 13.886152 Si / 1000 Ang^3
#
#
#
# Elastic Constant Matrix: (Units=GPa)
#
#
# Indices 1 2 3 4 5 6 
#
# 1 69.5115 35.1942 29.7695 0.0000 0.0000 0.0000
# 2 35.1942 44.2679 18.9189 0.0000 0.0000 0.0000
# 3 29.7695 18.9189 90.0303 0.0000 0.0000 0.0000
# 4 0.0000 0.0000 0.0000 14.5694 0.0000 0.0000
# 5 0.0000 0.0000 0.0000 0.0000 18.5365 0.0000
# 6 0.0000 0.0000 0.0000 0.0000 0.0000 -275.8172
#
#
#
# Elastic Compliance Matrix: (Units=1/GPa)
#
#
# Indices 1 2 3 4 5 6 
#
# 1 0.025718 -0.018471 -0.004622 0.000000 0.000000 0.000000
# 2 -0.018471 0.038085 -0.001896 0.000000 0.000000 0.000000
# 3 -0.004622 -0.001896 0.013034 0.000000 0.000000 0.000000
# 4 0.000000 0.000000 0.000000 0.068637 0.000000 0.000000
# 5 0.000000 0.000000 0.000000 0.000000 0.053948 0.000000
# 6 0.000000 0.000000 0.000000 0.000000 0.000000 -0.003626
#
#
# Mechanical properties :
#
#
# Convention : Reuss Voigt Hill
#
# Bulk Modulus (GPa) = 37.23140 41.28610 39.25875
# Shear Modulus (GPa) = 19.62896 -40.54713 -10.45908
#
# Velocity S-wave (km/s) = 3.76382 -5.40954 -2.74743
# Velocity P-wave (km/s) = 6.76451 3.03662 4.27420
#
# Compressibility (1/GPa) = 0.02685905
#
# Stress axis : x y z
#
# Youngs Moduli (GPa) = 38.88395 26.25740 76.72163
#
# Poissons Ratio (x) = 0.48499 0.35464
# Poissons Ratio (y) = 0.71821 0.14543
# Poissons Ratio (z) = 0.17974 0.04977
#
# Static dielectric constant tensor:
#      x y z
#    x 2.589670 0.000000 0.000000 
#    y 0.000000 2.876920 0.000000 
#    z 0.000000 0.000000 9.764700 
# 
# 
# High freq. dielectric constant tensor:
#      x y z
#    x 1.497500 0.000000 0.000000 
#    y 0.000000 1.487800 0.000000 
#    z 0.000000 0.000000 1.544530 
# 
# From -- ./inp_files/4754.got.cif
#   From: 2010.03.12/outbox.cif.g09.slc.cpg/sg20_3_cif.got.tgz:4754.got - 2010.04.14 01:38:04.
