data_PCOD8158340
_publ_section_title
;
Structure prediction by ZEFSAII (Michael W. Deem and Ramdas Pophale) SiO2 
 PCOD8158340
Probable space group: C 2 2 21
;
_chemical_formula_sum "Si O2"
_cell_formula_units_Z 64
_cell_length_a 13.951976
_cell_length_b 13.487450
_cell_length_c 18.340275
_cell_angle_alpha 90.000000
_cell_angle_beta 90.000000
_cell_angle_gamma 90.000000
_cell_volume 3451.210202
_symmetry_space_group_name_H-M "C 2 2 21"
_symmetry_group_IT_number 20
_symmetry_cell_setting 'orthorhombic'
loop_
_space_group_symop_operation_xyz
x,y,z
-x,-y,1/2+z
x,-y,-z
-x,y,1/2-z
1/2+x,1/2+y,z
1/2-x,1/2-y,1/2+z
1/2+x,1/2-y,-z
1/2-x,1/2+y,1/2-z
loop_
_atom_site_type_symbol
_atom_site_label
_atom_site_fract_x
_atom_site_fract_y
_atom_site_fract_z
Si Si1 0.966549 0.684856 0.824515
Si Si2 0.392661 0.825560 0.911511
Si Si3 0.040512 0.467729 0.839208
Si Si4 0.742253 0.763920 0.364249
Si Si5 0.690216 0.917345 0.948991
Si Si6 0.602495 0.213339 0.252743
Si Si7 0.047689 0.735538 0.979454
Si Si8 0.792222 0.114539 0.502093
O O1 0.854646 0.707802 0.824981
O O2 0.000000 0.739406 0.750000
O O3 0.994845 0.570289 0.814511
O O4 0.013619 0.726160 0.897015
O O5 0.459693 0.916452 0.888912
O O6 0.359579 0.774049 0.835586
O O7 0.455715 0.756409 0.966076
O O8 0.296252 0.858990 0.950217
O O9 0.133966 0.482178 0.889265
O O10 0.078822 0.401679 0.770307
O O11 0.736856 0.660143 0.410173
O O12 0.824323 0.760869 0.303347
O O13 0.767172 0.854784 0.416147
O O14 0.614951 0.855486 0.997446
O O15 0.743470 0.000000 0.000000
O O16 0.500000 0.270845 0.250000
O O17 0.108485 0.835550 0.979080
O O18 0.812676 0.000000 0.500000
#
# Coordination Sequence:
#
# PCOD8158340 Si02
#       8
#     8   8   8   8   8   8   8   8
#     4  12  22  34  54  81 128 150 183 232 301 345
#     4  10  19  34  63  83 114 146 193 241 296 339
#     4   9  18  32  55  91 111 145 188 245 291 341
#     4  10  22  36  56  94 117 149 193 243 289 346
#     4   9  16  34  61  82 115 142 190 241 285 334
#     4   9  18  36  58  87 117 147 188 246 299 337
#     4  10  22  36  55  88 114 149 191 236 294 340
#     4  11  22  37  60  85 113 152 200 242 277 341
#
# _framework density 18.544218999999998
#
# number of rings (size 3 to 8) (size 9 to 14) (size 15 to 20)
#    0.000    2.000    2.500    4.125    1.750    0.000 
#    0.000    0.625    0.000    2.250    0.000    0.000 
#    0.000    0.000    0.000    0.000    0.000    0.000 
#
# Total GULP energy -396436.326096 kJ/mol
# GULP energy per Si atom -12388.635191 kJ/mol
# Density = 1.850201 g / cm^3
# Si number density = 18.544219 Si / 1000 Ang^3
#
#
#
# Elastic Constant Matrix: (Units=GPa)
#
#
# Indices 1 2 3 4 5 6 
#
# 1 92.5786 46.6566 63.1145 0.0000 0.0000 0.0000
# 2 46.6566 82.3196 48.8895 0.0000 0.0000 0.0000
# 3 63.1145 48.8895 168.4122 0.0000 0.0000 0.0000
# 4 0.0000 0.0000 0.0000 8.1122 0.0000 0.0000
# 5 0.0000 0.0000 0.0000 0.0000 39.9359 0.0000
# 6 0.0000 0.0000 0.0000 0.0000 0.0000 20.3532
#
#
#
# Elastic Compliance Matrix: (Units=1/GPa)
#
#
# Indices 1 2 3 4 5 6 
#
# 1 0.017501 -0.007279 -0.004446 0.000000 0.000000 0.000000
# 2 -0.007279 0.017706 -0.002412 0.000000 0.000000 0.000000
# 3 -0.004446 -0.002412 0.008304 0.000000 0.000000 0.000000
# 4 0.000000 0.000000 0.000000 0.123272 0.000000 0.000000
# 5 0.000000 0.000000 0.000000 0.000000 0.025040 0.000000
# 6 0.000000 0.000000 0.000000 0.000000 0.000000 0.049132
#
#
# Mechanical properties :
#
#
# Convention : Reuss Voigt Hill
#
# Bulk Modulus (GPa) = 65.62712 73.40351 69.51531
# Shear Modulus (GPa) = 18.22780 25.99024 22.10902
#
# Velocity S-wave (km/s) = 3.13858 3.74776 3.45662
# Velocity P-wave (km/s) = 6.97142 7.64176 7.31427
#
# Compressibility (1/GPa) = 0.01523760
#
# Stress axis : x y z
#
# Youngs Moduli (GPa) = 57.14107 56.47899 120.42277
#
# Poissons Ratio (x) = 0.41109 0.53535
# Poissons Ratio (y) = 0.41591 0.29048
# Poissons Ratio (z) = 0.25402 0.13624
#
# Static dielectric constant tensor:
#      x y z
#    x 3.428940 0.000000 0.000000 
#    y 0.000000 3.171400 0.000000 
#    z 0.000000 0.000000 3.785570 
# 
# 
# High freq. dielectric constant tensor:
#      x y z
#    x 1.710600 0.000000 0.000000 
#    y 0.000000 1.681110 0.000000 
#    z 0.000000 0.000000 1.746890 
# 
# From -- ./inp_files/25024.got.cif
#   From: 2010.03.12/outbox.cif.g09.slc.cpg/sg20_13_cif.got.tgz:25024.got - 2010.04.14 01:38:04.
