data_PCOD8158305
_publ_section_title
;
Structure prediction by ZEFSAII (Michael W. Deem and Ramdas Pophale) SiO2 
 PCOD8158305
Probable space group: C 2 2 21
;
_chemical_formula_sum "Si O2"
_cell_formula_units_Z 48
_cell_length_a 9.061372
_cell_length_b 16.011873
_cell_length_c 16.834460
_cell_angle_alpha 90.000000
_cell_angle_beta 90.000000
_cell_angle_gamma 90.000000
_cell_volume 2442.504018
_symmetry_space_group_name_H-M "C 2 2 21"
_symmetry_group_IT_number 20
_symmetry_cell_setting 'orthorhombic'
loop_
_space_group_symop_operation_xyz
x,y,z
-x,-y,1/2+z
x,-y,-z
-x,y,1/2-z
1/2+x,1/2+y,z
1/2-x,1/2-y,1/2+z
1/2+x,1/2-y,-z
1/2-x,1/2+y,1/2-z
loop_
_atom_site_type_symbol
_atom_site_label
_atom_site_fract_x
_atom_site_fract_y
_atom_site_fract_z
Si Si1 0.433223 0.672758 0.585618
Si Si2 0.724173 0.506573 0.907345
Si Si3 0.763372 0.316154 0.650149
Si Si4 0.994441 0.566383 0.160378
Si Si5 0.675790 0.766934 0.671340
Si Si6 0.558672 0.342350 0.900653
O O1 0.349051 0.592454 0.622215
O O2 0.318652 0.750153 0.584660
O O3 0.579414 0.688182 0.639801
O O4 0.477863 0.658205 0.494067
O O5 0.900411 0.504154 0.886032
O O6 0.632990 0.428969 0.870534
O O7 0.710956 0.500000 0.000000
O O8 0.810558 0.272213 0.733491
O O9 0.590438 0.330198 0.648125
O O10 0.837892 0.408518 0.635477
O O11 0.911216 0.652233 0.142865
O O12 0.000000 0.534953 0.250000
O O13 0.833794 0.766756 0.626660
#
# Coordination Sequence:
#
# PCOD8158305 Si02
#       6
#     8   8   8   8   8   8
#     4  10  19  34  54  78 108 140 173 220 271 314
#     4   9  19  35  54  77 108 139 174 221 272 319
#     4  10  19  34  55  78 103 137 180 222 263 316
#     4   8  16  33  54  73  99 138 176 208 258 323
#     4   9  18  34  54  76 104 138 176 218 260 312
#     4  10  19  34  56  80 104 140 182 217 263 326
#
# _framework density 19.651964
#
# number of rings (size 3 to 8) (size 9 to 14) (size 15 to 20)
#    0.000    2.667    0.000    3.000    0.000    1.333 
#    0.000   15.833    0.000    0.000    0.000    0.000 
#    0.000    0.000    0.000    0.000    0.000    0.000 
#
# Total GULP energy -297344.652503 kJ/mol
# GULP energy per Si atom -12389.360521 kJ/mol
# Density = 1.960723 g / cm^3
# Si number density = 19.651964 Si / 1000 Ang^3
#
#
#
# Elastic Constant Matrix: (Units=GPa)
#
#
# Indices 1 2 3 4 5 6 
#
# 1 148.0390 48.0073 29.9335 0.0000 0.0000 0.0000
# 2 48.0073 76.7929 18.8099 0.0000 0.0000 0.0000
# 3 29.9335 18.8099 38.2249 0.0000 0.0000 0.0000
# 4 0.0000 0.0000 0.0000 12.4822 0.0000 0.0000
# 5 0.0000 0.0000 0.0000 0.0000 36.6618 0.0000
# 6 0.0000 0.0000 0.0000 0.0000 0.0000 36.9683
#
#
#
# Elastic Compliance Matrix: (Units=1/GPa)
#
#
# Indices 1 2 3 4 5 6 
#
# 1 0.009242 -0.004554 -0.004996 0.000000 0.000000 0.000000
# 2 -0.004554 0.017051 -0.004824 0.000000 0.000000 0.000000
# 3 -0.004996 -0.004824 0.032448 0.000000 0.000000 0.000000
# 4 0.000000 0.000000 0.000000 0.080114 0.000000 0.000000
# 5 0.000000 0.000000 0.000000 0.000000 0.027276 0.000000
# 6 0.000000 0.000000 0.000000 0.000000 0.000000 0.027050
#
#
# Mechanical properties :
#
#
# Convention : Reuss Voigt Hill
#
# Bulk Modulus (GPa) = 33.34329 50.72870 42.03600
# Shear Modulus (GPa) = 21.55853 28.30954 24.93404
#
# Velocity S-wave (km/s) = 3.31572 3.79957 3.56586
# Velocity P-wave (km/s) = 5.62693 6.71703 6.19600
#
# Compressibility (1/GPa) = 0.02999104
#
# Stress axis : x y z
#
# Youngs Moduli (GPa) = 108.20162 58.64917 30.81896
#
# Poissons Ratio (x) = 0.26708 0.15399
# Poissons Ratio (y) = 0.49273 0.14868
# Poissons Ratio (z) = 0.54062 0.28294
#
# Static dielectric constant tensor:
#      x y z
#    x 3.902930 0.000000 0.000000 
#    y 0.000000 3.641290 0.000000 
#    z 0.000000 0.000000 3.360190 
# 
# 
# High freq. dielectric constant tensor:
#      x y z
#    x 1.775630 0.000000 0.000000 
#    y 0.000000 1.732590 0.000000 
#    z 0.000000 0.000000 1.756000 
# 
# From -- ./inp_files/18919.got.cif
#   From: 2010.03.12/outbox.cif.g09.slc.cpg/sg20_10_cif.got.tgz:18919.got - 2010.04.14 01:38:04.
