data_PCOD8158967
_publ_section_title
;
Structure prediction by ZEFSAII (Michael W. Deem and Ramdas Pophale) SiO2 
 PCOD8158967
Probable space group: C 2 2 21
;
_chemical_formula_sum "Si O2"
_cell_formula_units_Z 28
_cell_length_a 24.025137
_cell_length_b 4.813945
_cell_length_c 10.187173
_cell_angle_alpha 90.000000
_cell_angle_beta 90.000000
_cell_angle_gamma 90.000000
_cell_volume 1178.204503
_symmetry_space_group_name_H-M "C 2 2 21"
_symmetry_group_IT_number 20
_symmetry_cell_setting 'orthorhombic'
loop_
_space_group_symop_operation_xyz
x,y,z
-x,-y,1/2+z
x,-y,-z
-x,y,1/2-z
1/2+x,1/2+y,z
1/2-x,1/2-y,1/2+z
1/2+x,1/2-y,-z
1/2-x,1/2+y,1/2-z
loop_
_atom_site_type_symbol
_atom_site_label
_atom_site_fract_x
_atom_site_fract_y
_atom_site_fract_z
Si Si1 0.787744 0.500000 0.000000
Si Si2 0.550051 0.504085 0.345019
Si Si3 0.727530 0.912219 0.170790
Si Si4 0.877489 0.500781 0.786146
O O1 0.749637 0.769090 0.036850
O O2 0.829400 0.411473 0.113981
O O3 0.533351 0.500000 0.500000
O O4 0.500000 0.409972 0.250000
O O5 0.567692 0.812180 0.301715
O O6 0.602954 0.312111 0.313376
O O7 0.745548 0.710516 0.293870
O O8 0.659411 0.953989 0.153971
#
# Coordination Sequence:
#
# PCOD8158967 Si02
#       4
#     4   8   8   8
#     4  10  20  40  68  96 136 180 226 266 338 432
#     4  12  25  46  73  99 131 181 240 294 348 410
#     4  10  22  36  63 103 134 170 226 274 326 422
#     4  11  22  41  70  99 134 182 224 278 355 414
#
# _framework density 23.764973000000001
#
# number of rings (size 3 to 8) (size 9 to 14) (size 15 to 20)
#    0.000    1.143    2.857    4.286    0.000    3.429 
#    2.571    0.000   12.571    0.000    0.000    0.000 
#    0.000    0.000    0.000    0.000    0.000    0.000 
#
# Total GULP energy -173450.991008 kJ/mol
# GULP energy per Si atom -12389.356501 kJ/mol
# Density = 2.371088 g / cm^3
# Si number density = 23.764973 Si / 1000 Ang^3
#
#
#
# Elastic Constant Matrix: (Units=GPa)
#
#
# Indices 1 2 3 4 5 6 
#
# 1 123.2688 28.9440 52.1366 0.0000 0.0000 0.0000
# 2 28.9440 86.6525 4.3325 0.0000 0.0000 0.0000
# 3 52.1366 4.3325 83.8441 0.0000 0.0000 0.0000
# 4 0.0000 0.0000 0.0000 14.4248 0.0000 0.0000
# 5 0.0000 0.0000 0.0000 0.0000 15.7769 0.0000
# 6 0.0000 0.0000 0.0000 0.0000 0.0000 -13.6966
#
#
#
# Elastic Compliance Matrix: (Units=1/GPa)
#
#
# Indices 1 2 3 4 5 6 
#
# 1 0.012066 -0.003665 -0.007314 0.000000 0.000000 0.000000
# 2 -0.003665 0.012683 0.001623 0.000000 0.000000 0.000000
# 3 -0.007314 0.001623 0.016391 0.000000 0.000000 0.000000
# 4 0.000000 0.000000 0.000000 0.069325 0.000000 0.000000
# 5 0.000000 0.000000 0.000000 0.000000 0.063384 0.000000
# 6 0.000000 0.000000 0.000000 0.000000 0.000000 -0.073011
#
#
# Mechanical properties :
#
#
# Convention : Reuss Voigt Hill
#
# Bulk Modulus (GPa) = 44.58245 51.62128 48.10186
# Shear Modulus (GPa) = 39.36227 17.19117 28.27672
#
# Velocity S-wave (km/s) = 4.07420 2.69250 3.45316
# Velocity P-wave (km/s) = 6.39786 5.60667 6.01529
#
# Compressibility (1/GPa) = 0.02243035
#
# Stress axis : x y z
#
# Youngs Moduli (GPa) = 82.87632 78.84393 61.00954
#
# Poissons Ratio (x) = 0.28894 0.44621
# Poissons Ratio (y) = 0.30372 -0.09904
# Poissons Ratio (z) = 0.60613 -0.12800
#
# Static dielectric constant tensor:
#      x y z
#    x 4.324460 0.000000 0.000000 
#    y 0.000000 4.176600 0.000000 
#    z 0.000000 0.000000 8.747820 
# 
# 
# High freq. dielectric constant tensor:
#      x y z
#    x 1.937270 0.000000 0.000000 
#    y 0.000000 1.964040 0.000000 
#    z 0.000000 0.000000 1.943940 
# 
# From -- ./inp_files/16043.got.cif
#   From: 2010.03.12/outbox.cif.g09.slc.cpg/sg20_9_cif.got.tgz:16043.got - 2010.04.14 01:38:04.
