data_PCOD8158541
_publ_section_title
;
Structure prediction by ZEFSAII (Michael W. Deem and Ramdas Pophale) SiO2 
 PCOD8158541
Probable space group: C 2 2 21
;
_chemical_formula_sum "Si O2"
_cell_formula_units_Z 60
_cell_length_a 8.368423
_cell_length_b 12.498975
_cell_length_c 26.157456
_cell_angle_alpha 90.000000
_cell_angle_beta 90.000000
_cell_angle_gamma 90.000000
_cell_volume 2735.983836
_symmetry_space_group_name_H-M "C 2 2 21"
_symmetry_group_IT_number 20
_symmetry_cell_setting 'orthorhombic'
loop_
_space_group_symop_operation_xyz
x,y,z
-x,-y,1/2+z
x,-y,-z
-x,y,1/2-z
1/2+x,1/2+y,z
1/2-x,1/2-y,1/2+z
1/2+x,1/2-y,-z
1/2-x,1/2+y,1/2-z
loop_
_atom_site_type_symbol
_atom_site_label
_atom_site_fract_x
_atom_site_fract_y
_atom_site_fract_z
Si Si1 0.435414 0.500000 0.500000
Si Si2 0.119018 0.875201 0.823090
Si Si3 0.190499 0.608393 0.424687
Si Si4 0.347951 0.346929 0.061210
Si Si5 0.674832 0.742595 0.743988
Si Si6 0.114216 0.939331 0.336842
Si Si7 0.081947 0.532228 0.889129
Si Si8 0.428980 0.825501 0.192666
O O1 0.321087 0.538856 0.454599
O O2 0.554340 0.595621 0.516066
O O3 0.247315 0.876891 0.867688
O O4 0.214231 0.843689 0.771429
O O5 0.996391 0.780333 0.834547
O O6 0.026913 0.986970 0.814702
O O7 0.160352 0.721664 0.452076
O O8 0.015810 0.553846 0.421818
O O9 0.445833 0.371726 0.113763
O O10 0.163418 0.387290 0.069228
O O11 0.500000 0.790043 0.750000
O O12 0.679253 0.646014 0.703538
O O13 0.739207 0.693158 0.797594
O O14 0.267585 0.012084 0.355174
O O15 0.955796 0.581891 0.848467
O O16 0.500000 0.846548 0.250000
#
# Coordination Sequence:
#
# PCOD8158541 Si02
#       8
#     4   8   8   8   8   8   8   8
#     4  12  28  44  74 108 136 180 234 294 358 442
#     4  11  21  44  71  96 141 186 230 292 353 411
#     4  12  24  46  71 107 133 176 238 290 362 430
#     4  10  23  49  71  97 141 177 226 288 357 425
#     4  11  24  40  68 104 145 188 243 290 342 420
#     4  10  21  46  69  96 138 190 228 286 356 415
#     4  10  22  43  73  98 138 182 229 286 356 415
#     4  10  19  43  68  97 142 181 235 292 330 415
#
# _framework density 21.929956000000001
#
# number of rings (size 3 to 8) (size 9 to 14) (size 15 to 20)
#    0.800    0.533    6.667    0.000    1.867    5.333 
#    2.400    0.667    0.000    0.000    0.000    0.000 
#    0.000    0.000    0.000    0.000    0.000    0.000 
#
# Total GULP energy -371677.677434 kJ/mol
# GULP energy per Si atom -12389.255914 kJ/mol
# Density = 2.188004 g / cm^3
# Si number density = 21.929956 Si / 1000 Ang^3
#
#
#
# Elastic Constant Matrix: (Units=GPa)
#
#
# Indices 1 2 3 4 5 6 
#
# 1 113.1494 36.7399 24.1521 0.0000 0.0000 0.0000
# 2 36.7399 92.4253 15.6124 0.0000 0.0000 0.0000
# 3 24.1521 15.6124 44.4131 0.0000 0.0000 0.0000
# 4 0.0000 0.0000 0.0000 25.6490 0.0000 0.0000
# 5 0.0000 0.0000 0.0000 0.0000 33.2079 0.0000
# 6 0.0000 0.0000 0.0000 0.0000 0.0000 37.0496
#
#
#
# Elastic Compliance Matrix: (Units=1/GPa)
#
#
# Indices 1 2 3 4 5 6 
#
# 1 0.011009 -0.003577 -0.004729 0.000000 0.000000 0.000000
# 2 -0.003577 0.012665 -0.002507 0.000000 0.000000 0.000000
# 3 -0.004729 -0.002507 0.025969 0.000000 0.000000 0.000000
# 4 0.000000 0.000000 0.000000 0.038988 0.000000 0.000000
# 5 0.000000 0.000000 0.000000 0.000000 0.030113 0.000000
# 6 0.000000 0.000000 0.000000 0.000000 0.000000 0.026991
#
#
# Mechanical properties :
#
#
# Convention : Reuss Voigt Hill
#
# Bulk Modulus (GPa) = 35.69350 44.77738 40.23544
# Shear Modulus (GPa) = 28.29656 30.74686 29.52171
#
# Velocity S-wave (km/s) = 3.59599 3.74846 3.67302
# Velocity P-wave (km/s) = 5.79250 6.26077 6.03118
#
# Compressibility (1/GPa) = 0.02801630
#
# Stress axis : x y z
#
# Youngs Moduli (GPa) = 90.83574 78.95786 38.50771
#
# Poissons Ratio (x) = 0.28245 0.18211
# Poissons Ratio (y) = 0.32495 0.09653
# Poissons Ratio (z) = 0.42958 0.19793
#
# Static dielectric constant tensor:
#      x y z
#    x 4.109390 0.000000 0.000000 
#    y 0.000000 3.851850 0.000000 
#    z 0.000000 0.000000 3.730720 
# 
# 
# High freq. dielectric constant tensor:
#      x y z
#    x 1.870490 0.000000 0.000000 
#    y 0.000000 1.846970 0.000000 
#    z 0.000000 0.000000 1.842800 
# 
# From -- ./inp_files/31033.got.cif
#   From: 2010.03.12/outbox.cif.g09.slc.cpg/sg20_16_cif.got.tgz:31033.got - 2010.04.14 01:38:04.
