data_PCOD8158137
_publ_section_title
;
Structure prediction by ZEFSAII (Michael W. Deem and Ramdas Pophale) SiO2 
 PCOD8158137
Probable space group: C 2 2 21
;
_chemical_formula_sum "Si O2"
_cell_formula_units_Z 64
_cell_length_a 14.536901
_cell_length_b 11.675125
_cell_length_c 18.835146
_cell_angle_alpha 90.000000
_cell_angle_beta 90.000000
_cell_angle_gamma 90.000000
_cell_volume 3196.703546
_symmetry_space_group_name_H-M "C 2 2 21"
_symmetry_group_IT_number 20
_symmetry_cell_setting 'orthorhombic'
loop_
_space_group_symop_operation_xyz
x,y,z
-x,-y,1/2+z
x,-y,-z
-x,y,1/2-z
1/2+x,1/2+y,z
1/2-x,1/2-y,1/2+z
1/2+x,1/2-y,-z
1/2-x,1/2+y,1/2-z
loop_
_atom_site_type_symbol
_atom_site_label
_atom_site_fract_x
_atom_site_fract_y
_atom_site_fract_z
Si Si1 0.662383 0.498983 0.644500
Si Si2 0.362897 0.009104 0.641254
Si Si3 0.607995 0.655754 0.243234
Si Si4 0.400998 0.899811 0.216147
Si Si5 0.342960 0.731786 0.925903
Si Si6 0.467261 0.613885 0.037369
Si Si7 0.137463 0.237938 0.093568
Si Si8 0.549032 0.960274 0.582417
O O1 0.763575 0.469600 0.611431
O O2 0.658473 0.457176 0.725654
O O3 0.649603 0.636479 0.637162
O O4 0.581127 0.423806 0.610050
O O5 0.444272 0.932008 0.607831
O O6 0.353559 0.011574 0.727833
O O7 0.391023 0.135254 0.615346
O O8 0.500000 0.639075 0.250000
O O9 0.643910 0.772463 0.283234
O O10 0.640160 0.656349 0.161927
O O11 0.500000 0.880059 0.250000
O O12 0.404904 0.946142 0.135403
O O13 0.237268 0.764617 0.943607
O O14 0.396772 0.844189 0.903062
O O15 0.387006 0.677757 0.995459
O O16 0.555728 0.695140 0.042803
O O17 0.503607 0.500000 0.000000
O O18 0.554810 0.000000 0.500000
#
# Coordination Sequence:
#
# PCOD8158137 Si02
#       8
#     8   8   8   8   8   8   8   8
#     4  10  21  37  61  87 114 155 202 237 297 355
#     4   9  20  38  61  86 112 157 202 247 293 353
#     4  10  18  34  66  87 108 155 213 245 279 353
#     4   8  18  35  57  85 111 149 199 250 289 340
#     4  10  24  38  57  91 126 156 189 254 308 354
#     4  10  21  38  60  83 122 157 195 245 298 360
#     4  10  20  39  63  85 116 156 207 248 287 359
#     4  11  22  36  62  85 122 156 198 246 308 358
#
# _framework density 20.020624000000002
#
# number of rings (size 3 to 8) (size 9 to 14) (size 15 to 20)
#    0.000    2.250    1.250    1.500    3.500    4.000 
#    0.000    1.875    5.500    0.000    0.000    0.000 
#    0.000    0.000    0.000    0.000    0.000    0.000 
#
# Total GULP energy -396516.255861 kJ/mol
# GULP energy per Si atom -12391.132996 kJ/mol
# Density = 1.997506 g / cm^3
# Si number density = 20.020624 Si / 1000 Ang^3
#
#
#
# Elastic Constant Matrix: (Units=GPa)
#
#
# Indices 1 2 3 4 5 6 
#
# 1 126.4234 51.9368 32.7814 0.0000 0.0000 0.0000
# 2 51.9368 63.9649 33.8871 0.0000 0.0000 0.0000
# 3 32.7814 33.8871 94.1221 0.0000 0.0000 0.0000
# 4 0.0000 0.0000 0.0000 23.8102 0.0000 0.0000
# 5 0.0000 0.0000 0.0000 0.0000 21.9577 0.0000
# 6 0.0000 0.0000 0.0000 0.0000 0.0000 23.1879
#
#
#
# Elastic Compliance Matrix: (Units=1/GPa)
#
#
# Indices 1 2 3 4 5 6 
#
# 1 0.011921 -0.009242 -0.000824 0.000000 0.000000 0.000000
# 2 -0.009242 0.026484 -0.006316 0.000000 0.000000 0.000000
# 3 -0.000824 -0.006316 0.013186 0.000000 0.000000 0.000000
# 4 0.000000 0.000000 0.000000 0.041999 0.000000 0.000000
# 5 0.000000 0.000000 0.000000 0.000000 0.045542 0.000000
# 6 0.000000 0.000000 0.000000 0.000000 0.000000 0.043126
#
#
# Mechanical properties :
#
#
# Convention : Reuss Voigt Hill
#
# Bulk Modulus (GPa) = 53.12145 57.96903 55.54524
# Shear Modulus (GPa) = 22.59401 24.85150 23.72275
#
# Velocity S-wave (km/s) = 3.36301 3.52702 3.44600
# Velocity P-wave (km/s) = 6.45529 6.75308 6.60586
#
# Compressibility (1/GPa) = 0.01882479
#
# Stress axis : x y z
#
# Youngs Moduli (GPa) = 83.88875 37.75848 75.84037
#
# Poissons Ratio (x) = 0.34898 0.06251
# Poissons Ratio (y) = 0.77533 0.47902
# Poissons Ratio (z) = 0.06914 0.23849
#
# Static dielectric constant tensor:
#      x y z
#    x 3.730300 0.000000 0.000000 
#    y 0.000000 3.723760 0.000000 
#    z 0.000000 0.000000 3.732130 
# 
# 
# High freq. dielectric constant tensor:
#      x y z
#    x 1.780920 0.000000 0.000000 
#    y 0.000000 1.768970 0.000000 
#    z 0.000000 0.000000 1.769300 
# 
# From -- ./inp_files/25005.got.cif
#   From: 2010.03.12/outbox.cif.g09.slc.cpg/sg20_13_cif.got.tgz:25005.got - 2010.04.14 01:38:04.
