data_PCOD8158922
_publ_section_title
;
Structure prediction by ZEFSAII (Michael W. Deem and Ramdas Pophale) SiO2 
 PCOD8158922
Probable space group: C 2 2 21
;
_chemical_formula_sum "Si O2"
_cell_formula_units_Z 32
_cell_length_a 27.272979
_cell_length_b 9.622147
_cell_length_c 5.074204
_cell_angle_alpha 90.000000
_cell_angle_beta 90.000000
_cell_angle_gamma 90.000000
_cell_volume 1331.596021
_symmetry_space_group_name_H-M "C 2 2 21"
_symmetry_group_IT_number 20
_symmetry_cell_setting 'orthorhombic'
loop_
_space_group_symop_operation_xyz
x,y,z
-x,-y,1/2+z
x,-y,-z
-x,y,1/2-z
1/2+x,1/2+y,z
1/2-x,1/2-y,1/2+z
1/2+x,1/2-y,-z
1/2-x,1/2+y,1/2-z
loop_
_atom_site_type_symbol
_atom_site_label
_atom_site_fract_x
_atom_site_fract_y
_atom_site_fract_z
Si Si1 0.951851 0.355268 0.374266
Si Si2 0.366226 0.752487 0.681761
Si Si3 0.380389 0.000000 0.000000
Si Si4 0.777621 0.203101 0.352414
Si Si5 0.176272 0.000000 0.500000
O O1 0.970301 0.500000 0.500000
O O2 0.923589 0.258909 0.590822
O O3 0.913246 0.386670 0.148250
O O4 0.000000 0.279718 0.250000
O O5 0.332289 0.753498 0.423001
O O6 0.357777 0.620842 0.874246
O O7 0.348914 0.899526 0.811862
O O8 0.754951 0.299242 0.119017
O O9 0.713313 0.449246 0.729282
#
# Coordination Sequence:
#
# PCOD8158922 Si02
#       5
#     8   8   4   8   4
#     4  10  20  39  70 111 151 196 254 320 387 456
#     4  11  25  46  75 117 152 204 257 322 389 458
#     4  10  22  44  70 115 150 188 257 318 382 456
#     4  12  27  52  76 113 150 207 259 314 380 463
#     4  12  26  54  74 113 152 212 253 328 380 468
#
# _framework density 24.031313000000001
#
# number of rings (size 3 to 8) (size 9 to 14) (size 15 to 20)
#    0.000    1.000    3.750    2.250    0.000    0.000 
#   15.750    0.000    0.000    0.000   91.000    0.000 
#    0.000    0.000    0.000    0.000    0.000    0.000 
#
# Total GULP energy -198221.123165 kJ/mol
# GULP energy per Si atom -12388.820198 kJ/mol
# Density = 2.397662 g / cm^3
# Si number density = 24.031313 Si / 1000 Ang^3
#
#
#
# Elastic Constant Matrix: (Units=GPa)
#
#
# Indices 1 2 3 4 5 6 
#
# 1 114.0771 67.2612 53.2932 0.0000 0.0000 0.0000
# 2 67.2612 121.2759 57.3878 0.0000 0.0000 0.0000
# 3 53.2932 57.3878 145.7986 0.0000 0.0000 0.0000
# 4 0.0000 0.0000 0.0000 51.5114 0.0000 0.0000
# 5 0.0000 0.0000 0.0000 0.0000 45.9859 0.0000
# 6 0.0000 0.0000 0.0000 0.0000 0.0000 26.9091
#
#
#
# Elastic Compliance Matrix: (Units=1/GPa)
#
#
# Indices 1 2 3 4 5 6 
#
# 1 0.013719 -0.006434 -0.002482 0.000000 0.000000 0.000000
# 2 -0.006434 0.013151 -0.002824 0.000000 0.000000 0.000000
# 3 -0.002482 -0.002824 0.008878 0.000000 0.000000 0.000000
# 4 0.000000 0.000000 0.000000 0.019413 0.000000 0.000000
# 5 0.000000 0.000000 0.000000 0.000000 0.021746 0.000000
# 6 0.000000 0.000000 0.000000 0.000000 0.000000 0.037162
#
#
# Mechanical properties :
#
#
# Convention : Reuss Voigt Hill
#
# Bulk Modulus (GPa) = 81.52532 81.89290 81.70911
# Shear Modulus (GPa) = 35.30091 38.42857 36.86474
#
# Velocity S-wave (km/s) = 3.83685 4.00322 3.92092
# Velocity P-wave (km/s) = 7.32304 7.45112 7.38736
#
# Compressibility (1/GPa) = 0.01226613
#
# Stress axis : x y z
#
# Youngs Moduli (GPa) = 72.88959 76.04138 112.64119
#
# Poissons Ratio (x) = 0.48928 0.27959
# Poissons Ratio (y) = 0.46900 0.31813
# Poissons Ratio (z) = 0.18092 0.21477
#
# Static dielectric constant tensor:
#      x y z
#    x 4.207320 0.000000 0.000000 
#    y 0.000000 3.997270 0.000000 
#    z 0.000000 0.000000 4.921640 
# 
# 
# High freq. dielectric constant tensor:
#      x y z
#    x 1.939720 0.000000 0.000000 
#    y 0.000000 1.916780 0.000000 
#    z 0.000000 0.000000 1.989190 
# 
# From -- ./inp_files/604.got.cif
#   From: 2010.03.12/outbox.cif.g09.slc.cpg/sg20_1_cif.got.tgz:604.got - 2010.04.14 01:38:04.
