data_PCOD8158071
_publ_section_title
;
Structure prediction by ZEFSAII (Michael W. Deem and Ramdas Pophale) SiO2 
 PCOD8158071
Probable space group: C 2 2 21
;
_chemical_formula_sum "Si O2"
_cell_formula_units_Z 60
_cell_length_a 10.786166
_cell_length_b 30.549957
_cell_length_c 9.745657
_cell_angle_alpha 90.000000
_cell_angle_beta 90.000000
_cell_angle_gamma 90.000000
_cell_volume 3211.358756
_symmetry_space_group_name_H-M "C 2 2 21"
_symmetry_group_IT_number 20
_symmetry_cell_setting 'orthorhombic'
loop_
_space_group_symop_operation_xyz
x,y,z
-x,-y,1/2+z
x,-y,-z
-x,y,1/2-z
1/2+x,1/2+y,z
1/2-x,1/2-y,1/2+z
1/2+x,1/2-y,-z
1/2-x,1/2+y,1/2-z
loop_
_atom_site_type_symbol
_atom_site_label
_atom_site_fract_x
_atom_site_fract_y
_atom_site_fract_z
Si Si1 0.670116 0.975421 0.637686
Si Si2 0.139616 0.907077 0.768188
Si Si3 0.504749 0.095759 0.488154
Si Si4 0.762425 0.349530 0.549338
Si Si5 0.644219 0.681750 0.734076
Si Si6 0.240071 0.347032 0.516424
Si Si7 0.144702 0.715687 0.258896
Si Si8 0.000000 0.543311 0.750000
O O1 0.779628 0.951126 0.718462
O O2 0.555193 0.941842 0.613845
O O3 0.717952 0.000000 0.500000
O O4 0.622097 0.014192 0.732624
O O5 0.164677 0.878101 0.633583
O O6 0.000000 0.922988 0.750000
O O7 0.162802 0.877974 0.903888
O O8 0.388851 0.122877 0.432665
O O9 0.614889 0.128483 0.519675
O O10 0.460085 0.073455 0.625857
O O11 0.709241 0.341654 0.396696
O O12 0.786935 0.302728 0.622626
O O13 0.500000 0.669928 0.750000
O O14 0.705786 0.665721 0.871860
O O15 0.666398 0.733188 0.724157
O O16 0.207776 0.304925 0.607092
O O17 0.000000 0.703669 0.250000
#
# Coordination Sequence:
#
# PCOD8158071 Si02
#       8
#     8   8   8   8   8   8   8   4
#     4   9  19  34  55  82 115 148 179 234 294 341
#     4  10  21  37  59  81 109 156 198 224 274 356
#     4  10  19  33  58  84 107 142 187 235 288 336
#     4  11  21  36  60  83 111 145 200 239 284 349
#     4  11  23  36  53  81 118 154 188 239 294 340
#     4  10  20  37  59  79 115 147 191 242 288 339
#     4  10  20  37  57  81 112 148 192 241 294 347
#     4  10  18  32  52  84 116 132 176 232 298 336
#
# _framework density 18.683682000000001
#
# number of rings (size 3 to 8) (size 9 to 14) (size 15 to 20)
#    0.000    1.867    1.333    3.200    0.000    0.000 
#    0.000    1.333    5.867    5.600    0.000    0.000 
#    0.000    0.000    0.000    0.000    0.000    0.000 
#
# Total GULP energy -371887.676782 kJ/mol
# GULP energy per Si atom -12396.255893 kJ/mol
# Density = 1.864116 g / cm^3
# Si number density = 18.683682 Si / 1000 Ang^3
#
#
#
# Elastic Constant Matrix: (Units=GPa)
#
#
# Indices 1 2 3 4 5 6 
#
# 1 72.0545 14.5955 35.5938 0.0000 0.0000 0.0000
# 2 14.5955 56.6253 26.4511 0.0000 0.0000 0.0000
# 3 35.5938 26.4511 119.8404 0.0000 0.0000 0.0000
# 4 0.0000 0.0000 0.0000 22.1367 0.0000 0.0000
# 5 0.0000 0.0000 0.0000 0.0000 22.3801 0.0000
# 6 0.0000 0.0000 0.0000 0.0000 0.0000 22.2664
#
#
#
# Elastic Compliance Matrix: (Units=1/GPa)
#
#
# Indices 1 2 3 4 5 6 
#
# 1 0.016505 -0.002190 -0.004419 0.000000 0.000000 0.000000
# 2 -0.002190 0.019981 -0.003760 0.000000 0.000000 0.000000
# 3 -0.004419 -0.003760 0.010487 0.000000 0.000000 0.000000
# 4 0.000000 0.000000 0.000000 0.045174 0.000000 0.000000
# 5 0.000000 0.000000 0.000000 0.000000 0.044682 0.000000
# 6 0.000000 0.000000 0.000000 0.000000 0.000000 0.044911
#
#
# Mechanical properties :
#
#
# Convention : Reuss Voigt Hill
#
# Bulk Modulus (GPa) = 38.11667 44.64454 41.38060
# Shear Modulus (GPa) = 23.67188 24.81531 24.24360
#
# Velocity S-wave (km/s) = 3.56333 3.64838 3.60610
# Velocity P-wave (km/s) = 6.11352 6.45711 6.28766
#
# Compressibility (1/GPa) = 0.02623524
#
# Stress axis : x y z
#
# Youngs Moduli (GPa) = 60.58850 50.04835 95.35933
#
# Poissons Ratio (x) = 0.10961 0.42136
# Poissons Ratio (y) = 0.13270 0.35852
# Poissons Ratio (z) = 0.26772 0.18816
#
# Static dielectric constant tensor:
#      x y z
#    x 3.358000 0.000000 0.000000 
#    y 0.000000 3.614440 0.000000 
#    z 0.000000 0.000000 3.435430 
# 
# 
# High freq. dielectric constant tensor:
#      x y z
#    x 1.716140 0.000000 0.000000 
#    y 0.000000 1.734400 0.000000 
#    z 0.000000 0.000000 1.732110 
# 
# From -- ./inp_files/7625.got.cif
#   From: 2010.03.12/outbox.cif.g09.slc.cpg/sg20_4_cif.got.tgz:7625.got - 2010.04.14 01:38:04.
