data_PCOD8158227
_publ_section_title
;
Structure prediction by ZEFSAII (Michael W. Deem and Ramdas Pophale) SiO2 
 PCOD8158227
Probable space group: C 2 2 21
;
_chemical_formula_sum "Si O2"
_cell_formula_units_Z 48
_cell_length_a 18.297241
_cell_length_b 8.521986
_cell_length_c 14.863294
_cell_angle_alpha 90.000000
_cell_angle_beta 90.000000
_cell_angle_gamma 90.000000
_cell_volume 2317.616068
_symmetry_space_group_name_H-M "C 2 2 21"
_symmetry_group_IT_number 20
_symmetry_cell_setting 'orthorhombic'
loop_
_space_group_symop_operation_xyz
x,y,z
-x,-y,1/2+z
x,-y,-z
-x,y,1/2-z
1/2+x,1/2+y,z
1/2-x,1/2-y,1/2+z
1/2+x,1/2-y,-z
1/2-x,1/2+y,1/2-z
loop_
_atom_site_type_symbol
_atom_site_label
_atom_site_fract_x
_atom_site_fract_y
_atom_site_fract_z
Si Si1 0.824343 0.500000 0.000000
Si Si2 0.026120 0.784919 0.344224
Si Si3 0.957094 0.534922 0.604241
Si Si4 0.307067 0.188712 0.160102
Si Si5 0.825292 0.610011 0.719263
Si Si6 0.590645 0.768084 0.378370
Si Si7 0.050039 0.000000 0.500000
O O1 0.778423 0.381902 0.936451
O O2 0.877780 0.588209 0.933543
O O3 0.113358 0.766366 0.350442
O O4 0.000000 0.866589 0.250000
O O5 0.985944 0.618241 0.344089
O O6 0.002286 0.890382 0.431603
O O7 0.958549 0.500000 0.500000
O O8 0.874921 0.574347 0.633052
O O9 0.005449 0.686319 0.633071
O O10 0.251585 0.322768 0.188098
O O11 0.308260 0.054012 0.233952
O O12 0.866535 0.736324 0.783756
O O13 0.599920 0.606071 0.433288
#
# Coordination Sequence:
#
# PCOD8158227 Si02
#       7
#     4   8   8   8   8   8   4
#     4  10  18  42  71  85 132 182 228 274 340 414
#     4  12  23  45  75  98 135 182 238 289 342 412
#     4  12  20  46  72  96 127 186 242 279 339 425
#     4  11  23  45  65 101 133 184 231 283 345 419
#     4  11  26  41  69  98 139 181 228 286 353 413
#     4  11  20  40  70  96 127 180 233 276 336 416
#     4  12  24  38  67 107 136 164 230 296 338 404
#
# _framework density 20.710937000000001
#
# number of rings (size 3 to 8) (size 9 to 14) (size 15 to 20)
#    0.000    0.667    9.167    0.500    2.333    1.333 
#    7.500    0.833    0.000    0.000    0.000    0.000 
#    0.000    0.000    0.000    0.000    0.000    0.000 
#
# Total GULP energy -297511.157931 kJ/mol
# GULP energy per Si atom -12396.298247 kJ/mol
# Density = 2.066380 g / cm^3
# Si number density = 20.710937 Si / 1000 Ang^3
#
#
#
# Elastic Constant Matrix: (Units=GPa)
#
#
# Indices 1 2 3 4 5 6 
#
# 1 86.2445 28.7731 27.8765 0.0000 0.0000 0.0000
# 2 28.7731 79.6073 21.8708 0.0000 0.0000 0.0000
# 3 27.8765 21.8708 98.0298 0.0000 0.0000 0.0000
# 4 0.0000 0.0000 0.0000 38.7058 0.0000 0.0000
# 5 0.0000 0.0000 0.0000 0.0000 17.7567 0.0000
# 6 0.0000 0.0000 0.0000 0.0000 0.0000 22.3478
#
#
#
# Elastic Compliance Matrix: (Units=1/GPa)
#
#
# Indices 1 2 3 4 5 6 
#
# 1 0.013984 -0.004221 -0.003035 0.000000 0.000000 0.000000
# 2 -0.004221 0.014656 -0.002070 0.000000 0.000000 0.000000
# 3 -0.003035 -0.002070 0.011526 0.000000 0.000000 0.000000
# 4 0.000000 0.000000 0.000000 0.025836 0.000000 0.000000
# 5 0.000000 0.000000 0.000000 0.000000 0.056317 0.000000
# 6 0.000000 0.000000 0.000000 0.000000 0.000000 0.044747
#
#
# Mechanical properties :
#
#
# Convention : Reuss Voigt Hill
#
# Bulk Modulus (GPa) = 46.47855 46.76917 46.62386
# Shear Modulus (GPa) = 25.92188 28.11947 27.02068
#
# Velocity S-wave (km/s) = 3.54164 3.68871 3.61592
# Velocity P-wave (km/s) = 6.26215 6.38537 6.32406
#
# Compressibility (1/GPa) = 0.02151530
#
# Stress axis : x y z
#
# Youngs Moduli (GPa) = 71.51040 68.23288 86.76226
#
# Poissons Ratio (x) = 0.28798 0.26332
# Poissons Ratio (y) = 0.30181 0.17956
# Poissons Ratio (z) = 0.21703 0.14121
#
# Static dielectric constant tensor:
#      x y z
#    x 3.498980 0.000000 0.000000 
#    y 0.000000 3.829780 0.000000 
#    z 0.000000 0.000000 4.246740 
# 
# 
# High freq. dielectric constant tensor:
#      x y z
#    x 1.773270 0.000000 0.000000 
#    y 0.000000 1.809460 0.000000 
#    z 0.000000 0.000000 1.832330 
# 
# From -- ./inp_files/21333.got.cif
#   From: 2010.03.12/outbox.cif.g09.slc.cpg/sg20_11_cif.got.tgz:21333.got - 2010.04.14 01:38:04.
