data_PCOD8158907
_publ_section_title
;
Structure prediction by ZEFSAII (Michael W. Deem and Ramdas Pophale) SiO2 
 PCOD8158907
Probable space group: C 2 2 21
;
_chemical_formula_sum "Si O2"
_cell_formula_units_Z 64
_cell_length_a 8.933119
_cell_length_b 18.534717
_cell_length_c 16.840256
_cell_angle_alpha 90.000000
_cell_angle_beta 90.000000
_cell_angle_gamma 90.000000
_cell_volume 2788.288887
_symmetry_space_group_name_H-M "C 2 2 21"
_symmetry_group_IT_number 20
_symmetry_cell_setting 'orthorhombic'
loop_
_space_group_symop_operation_xyz
x,y,z
-x,-y,1/2+z
x,-y,-z
-x,y,1/2-z
1/2+x,1/2+y,z
1/2-x,1/2-y,1/2+z
1/2+x,1/2-y,-z
1/2-x,1/2+y,1/2-z
loop_
_atom_site_type_symbol
_atom_site_label
_atom_site_fract_x
_atom_site_fract_y
_atom_site_fract_z
Si Si1 0.828034 0.397269 0.269198
Si Si2 0.534285 0.881835 0.584487
Si Si3 0.516325 0.556233 0.429305
Si Si4 0.578514 0.151578 0.925194
Si Si5 0.754392 0.135549 0.174655
Si Si6 0.782721 0.705293 0.856189
Si Si7 0.676922 0.306942 0.976577
Si Si8 0.756025 0.037787 0.317878
O O1 0.806451 0.387897 0.364452
O O2 0.725921 0.338172 0.221970
O O3 0.780881 0.477129 0.245737
O O4 0.000000 0.381766 0.250000
O O5 0.432200 0.895850 0.506028
O O6 0.421943 0.856087 0.653950
O O7 0.657536 0.822376 0.558635
O O8 0.621799 0.952521 0.617498
O O9 0.549038 0.500000 0.500000
O O10 0.669329 0.579015 0.386048
O O11 0.436233 0.628331 0.460022
O O12 0.407964 0.518682 0.364313
O O13 0.415963 0.154870 0.886909
O O14 0.628969 0.233268 0.936831
O O15 0.831150 0.213909 0.168026
O O16 0.773976 0.110993 0.266235
O O17 0.666258 0.706799 0.928729
#
# Coordination Sequence:
#
# PCOD8158907 Si02
#       8
#     8   8   8   8   8   8   8   8
#     4  10  22  39  65  96 131 172 231 283 344 405
#     4  10  23  40  67  98 133 179 225 280 350 408
#     4  11  25  43  71  97 137 187 230 278 350 412
#     4  10  20  39  66 100 127 173 231 289 342 400
#     4  12  23  41  67  98 137 179 229 286 343 413
#     4  10  21  37  67  98 131 175 224 284 344 402
#     4  10  20  41  66  98 138 176 227 288 340 417
#     4  11  25  46  66  96 139 184 231 283 343 424
#
# _framework density 22.953146
#
# number of rings (size 3 to 8) (size 9 to 14) (size 15 to 20)
#    0.000    1.500    2.500    2.250    3.500    3.000 
#    0.000    7.500    2.750    0.000    0.000    0.000 
#    0.000    0.000    0.000    0.000    0.000    0.000 
#
# Total GULP energy -396632.813403 kJ/mol
# GULP energy per Si atom -12394.775419 kJ/mol
# Density = 2.290090 g / cm^3
# Si number density = 22.953146 Si / 1000 Ang^3
#
#
#
# Elastic Constant Matrix: (Units=GPa)
#
#
# Indices 1 2 3 4 5 6 
#
# 1 42.1241 0.7224 7.0228 0.0000 0.0000 0.0000
# 2 0.7224 98.9661 50.3568 0.0000 0.0000 0.0000
# 3 7.0228 50.3568 125.8222 0.0000 0.0000 0.0000
# 4 0.0000 0.0000 0.0000 50.2560 0.0000 0.0000
# 5 0.0000 0.0000 0.0000 0.0000 27.5132 0.0000
# 6 0.0000 0.0000 0.0000 0.0000 0.0000 17.3225
#
#
#
# Elastic Compliance Matrix: (Units=1/GPa)
#
#
# Indices 1 2 3 4 5 6 
#
# 1 0.023994 0.000636 -0.001594 0.000000 0.000000 0.000000
# 2 0.000636 0.012705 -0.005120 0.000000 0.000000 0.000000
# 3 -0.001594 -0.005120 0.010086 0.000000 0.000000 0.000000
# 4 0.000000 0.000000 0.000000 0.019898 0.000000 0.000000
# 5 0.000000 0.000000 0.000000 0.000000 0.036346 0.000000
# 6 0.000000 0.000000 0.000000 0.000000 0.000000 0.057729
#
#
# Mechanical properties :
#
#
# Convention : Reuss Voigt Hill
#
# Bulk Modulus (GPa) = 28.87775 42.56848 35.72312
# Shear Modulus (GPa) = 27.10649 32.93904 30.02276
#
# Velocity S-wave (km/s) = 3.44022 3.79232 3.62055
# Velocity P-wave (km/s) = 5.32810 6.14505 5.75110
#
# Compressibility (1/GPa) = 0.03462874
#
# Stress axis : x y z
#
# Youngs Moduli (GPa) = 41.67680 78.70770 99.14767
#
# Poissons Ratio (x) = -0.05004 0.15801
# Poissons Ratio (y) = -0.02650 0.50768
# Poissons Ratio (z) = 0.06642 0.40301
#
# Static dielectric constant tensor:
#      x y z
#    x 3.972520 0.000000 0.000000 
#    y 0.000000 3.845570 0.000000 
#    z 0.000000 0.000000 4.808590 
# 
# 
# High freq. dielectric constant tensor:
#      x y z
#    x 1.882580 0.000000 0.000000 
#    y 0.000000 1.893600 0.000000 
#    z 0.000000 0.000000 1.928310 
# 
# From -- ./inp_files/23902.got.cif
#   From: 2010.03.12/outbox.cif.g09.slc.cpg/sg20_12_cif.got.tgz:23902.got - 2010.04.14 01:38:04.
