data_PCOD8158080
_publ_section_title
;
Structure prediction by ZEFSAII (Michael W. Deem and Ramdas Pophale) SiO2 
 PCOD8158080
Probable space group: C 2 2 21
;
_chemical_formula_sum "Si O2"
_cell_formula_units_Z 48
_cell_length_a 24.448077
_cell_length_b 8.512325
_cell_length_c 8.118105
_cell_angle_alpha 90.000000
_cell_angle_beta 90.000000
_cell_angle_gamma 90.000000
_cell_volume 1689.458645
_symmetry_space_group_name_H-M "C 2 2 21"
_symmetry_group_IT_number 20
_symmetry_cell_setting 'orthorhombic'
loop_
_space_group_symop_operation_xyz
x,y,z
-x,-y,1/2+z
x,-y,-z
-x,y,1/2-z
1/2+x,1/2+y,z
1/2-x,1/2-y,1/2+z
1/2+x,1/2-y,-z
1/2-x,1/2+y,1/2-z
loop_
_atom_site_type_symbol
_atom_site_label
_atom_site_fract_x
_atom_site_fract_y
_atom_site_fract_z
Si Si1 0.227963 0.732680 0.921696
Si Si2 0.912950 0.804850 0.913538
Si Si3 0.133614 0.456567 0.203737
Si Si4 0.500000 0.483408 0.250000
Si Si5 0.184870 0.004184 0.708294
Si Si6 0.405057 0.278170 0.293902
Si Si7 0.289225 0.000000 0.000000
O O1 0.170094 0.640826 0.933363
O O2 0.276724 0.610093 0.905767
O O3 0.224409 0.875102 0.789128
O O4 0.251790 0.849575 0.066928
O O5 0.909840 0.660441 0.785806
O O6 0.859109 0.910399 0.900552
O O7 0.915516 0.745597 0.099743
O O8 0.965845 0.909251 0.874984
O O9 0.101111 0.604685 0.121426
O O10 0.172847 0.535950 0.341960
O O11 0.458331 0.372963 0.357809
O O12 0.149528 0.117845 0.831703
#
# Coordination Sequence:
#
# PCOD8158080 Si02
#       7
#     8   8   8   4   8   8   4
#     4  11  21  34  58  96 133 165 211 263 314 374
#     4  10  21  37  62  91 116 162 214 270 319 388
#     4  11  21  38  65  96 125 164 224 263 304 386
#     4  10  22  34  58  94 120 156 202 286 338 364
#     4  10  18  32  54  85 128 157 208 263 305 371
#     4  11  20  39  64  91 115 164 217 274 319 381
#     4  12  20  36  64  96 130 178 202 266 310 372
#
# _framework density 28.411465
#
# number of rings (size 3 to 8) (size 9 to 14) (size 15 to 20)
#    0.000    1.333    5.000    2.000    0.000    2.000 
#    0.000    0.000   33.000    0.000    0.000    0.000 
#    0.000    0.000    0.000    0.000    0.000    0.000 
#
# Total GULP energy -297323.163137 kJ/mol
# GULP energy per Si atom -12388.465131 kJ/mol
# Density = 2.834680 g / cm^3
# Si number density = 28.411465 Si / 1000 Ang^3
#
#
#
# Elastic Constant Matrix: (Units=GPa)
#
#
# Indices 1 2 3 4 5 6 
#
# 1 162.0188 92.9018 10.1049 0.0000 0.0000 0.0000
# 2 92.9018 231.2292 22.7091 0.0000 0.0000 0.0000
# 3 10.1049 22.7091 22.6929 0.0000 0.0000 0.0000
# 4 0.0000 0.0000 0.0000 49.9439 0.0000 0.0000
# 5 0.0000 0.0000 0.0000 0.0000 28.3295 0.0000
# 6 0.0000 0.0000 0.0000 0.0000 0.0000 75.9783
#
#
#
# Elastic Compliance Matrix: (Units=1/GPa)
#
#
# Indices 1 2 3 4 5 6 
#
# 1 0.008023 -0.003186 -0.000385 0.000000 0.000000 0.000000
# 2 -0.003186 0.006061 -0.004647 0.000000 0.000000 0.000000
# 3 -0.000385 -0.004647 0.048888 0.000000 0.000000 0.000000
# 4 0.000000 0.000000 0.000000 0.020022 0.000000 0.000000
# 5 0.000000 0.000000 0.000000 0.000000 0.035299 0.000000
# 6 0.000000 0.000000 0.000000 0.000000 0.000000 0.013162
#
#
# Mechanical properties :
#
#
# Convention : Reuss Voigt Hill
#
# Bulk Modulus (GPa) = 21.48792 74.15249 47.82020
# Shear Modulus (GPa) = 30.59954 50.19867 40.39910
#
# Velocity S-wave (km/s) = 3.28535 4.20795 3.77494
# Velocity P-wave (km/s) = 4.68731 7.05445 5.98900
#
# Compressibility (1/GPa) = 0.04653779
#
# Stress axis : x y z
#
# Youngs Moduli (GPa) = 124.64628 164.99092 20.45492
#
# Poissons Ratio (x) = 0.52558 0.00787
# Poissons Ratio (y) = 0.39707 0.09505
# Poissons Ratio (z) = 0.04794 0.76668
#
# Static dielectric constant tensor:
#      x y z
#    x 5.502780 0.000000 0.000000 
#    y 0.000000 5.782780 0.000000 
#    z 0.000000 0.000000 4.838660 
# 
# 
# High freq. dielectric constant tensor:
#      x y z
#    x 2.141360 0.000000 0.000000 
#    y 0.000000 2.184750 0.000000 
#    z 0.000000 0.000000 2.136720 
# 
# From -- ./inp_files/16676.got.cif
#   From: 2010.03.12/outbox.cif.g09.slc.cpg/sg20_9_cif.got.tgz:16676.got - 2010.04.14 01:38:04.
