data_PCOD8158955
_publ_section_title
;
Structure prediction by ZEFSAII (Michael W. Deem and Ramdas Pophale) SiO2 
 PCOD8158955
Probable space group: C 2 2 21
;
_chemical_formula_sum "Si O2"
_cell_formula_units_Z 64
_cell_length_a 11.478959
_cell_length_b 29.380761
_cell_length_c 9.288426
_cell_angle_alpha 90.000000
_cell_angle_beta 90.000000
_cell_angle_gamma 90.000000
_cell_volume 3132.619670
_symmetry_space_group_name_H-M "C 2 2 21"
_symmetry_group_IT_number 20
_symmetry_cell_setting 'orthorhombic'
loop_
_space_group_symop_operation_xyz
x,y,z
-x,-y,1/2+z
x,-y,-z
-x,y,1/2-z
1/2+x,1/2+y,z
1/2-x,1/2-y,1/2+z
1/2+x,1/2-y,-z
1/2-x,1/2+y,1/2-z
loop_
_atom_site_type_symbol
_atom_site_label
_atom_site_fract_x
_atom_site_fract_y
_atom_site_fract_z
Si Si1 0.808215 0.547762 0.535726
Si Si2 0.444355 0.288901 0.592285
Si Si3 0.814144 0.629082 0.710058
Si Si4 0.543094 0.459754 0.407596
Si Si5 0.060730 0.859353 0.398432
Si Si6 0.875424 0.386118 0.703674
Si Si7 0.289113 0.842259 0.972542
Si Si8 0.044556 0.688227 0.987736
O O1 0.875282 0.500000 0.500000
O O2 0.864174 0.578774 0.664744
O O3 0.680988 0.534201 0.588933
O O4 0.806482 0.577559 0.390792
O O5 0.500000 0.281575 0.750000
O O6 0.537832 0.320303 0.513192
O O7 0.317775 0.311423 0.578458
O O8 0.423955 0.241102 0.512634
O O9 0.699351 0.637494 0.614663
O O10 0.912657 0.665586 0.663563
O O11 0.773225 0.631727 0.875476
O O12 0.483031 0.500000 0.500000
O O13 0.500000 0.469011 0.250000
O O14 0.509328 0.408053 0.454639
O O15 0.000000 0.845064 0.250000
O O16 0.800809 0.379459 0.847615
O O17 0.893334 0.338080 0.619536
O O18 0.000000 0.406525 0.750000
O O19 0.405793 0.812942 0.991233
#
# Coordination Sequence:
#
# PCOD8158955 Si02
#       8
#     8   8   8   8   8   8   8   8
#     4   9  19  39  63  89 120 162 205 255 315 365
#     4  12  27  38  60  95 126 158 215 263 304 368
#     4  10  20  40  67  85 128 163 205 256 315 377
#     4   9  19  36  58  85 118 159 204 245 307 374
#     4  10  21  40  57  87 123 163 203 254 313 362
#     4   9  21  42  65  88 121 163 204 254 316 371
#     4  11  23  41  61  93 124 163 211 253 316 378
#     4  10  24  43  63  88 121 169 210 254 313 378
#
# _framework density 20.430184000000001
#
# number of rings (size 3 to 8) (size 9 to 14) (size 15 to 20)
#    0.000    2.000    1.250    1.125    7.000    3.000 
#    2.250    4.375    0.000    0.000    0.000    0.000 
#    0.000    0.000    0.000    0.000    0.000    0.000 
#
# Total GULP energy -396524.449635 kJ/mol
# GULP energy per Si atom -12391.389051 kJ/mol
# Density = 2.038368 g / cm^3
# Si number density = 20.430184 Si / 1000 Ang^3
#
#
#
# Elastic Constant Matrix: (Units=GPa)
#
#
# Indices 1 2 3 4 5 6 
#
# 1 87.0086 30.2465 36.9194 0.0000 0.0000 0.0000
# 2 30.2465 149.9146 64.0906 0.0000 0.0000 0.0000
# 3 36.9194 64.0906 110.8232 0.0000 0.0000 0.0000
# 4 0.0000 0.0000 0.0000 10.5364 0.0000 0.0000
# 5 0.0000 0.0000 0.0000 0.0000 34.0450 0.0000
# 6 0.0000 0.0000 0.0000 0.0000 0.0000 23.6189
#
#
#
# Elastic Compliance Matrix: (Units=1/GPa)
#
#
# Indices 1 2 3 4 5 6 
#
# 1 0.013512 -0.001065 -0.003885 0.000000 0.000000 0.000000
# 2 -0.001065 0.008945 -0.004818 0.000000 0.000000 0.000000
# 3 -0.003885 -0.004818 0.013104 0.000000 0.000000 0.000000
# 4 0.000000 0.000000 0.000000 0.094909 0.000000 0.000000
# 5 0.000000 0.000000 0.000000 0.000000 0.029373 0.000000
# 6 0.000000 0.000000 0.000000 0.000000 0.000000 0.042339
#
#
# Mechanical properties :
#
#
# Convention : Reuss Voigt Hill
#
# Bulk Modulus (GPa) = 62.40693 67.80660 65.10676
# Shear Modulus (GPa) = 22.02047 28.07271 25.04659
#
# Velocity S-wave (km/s) = 3.28661 3.71088 3.50517
# Velocity P-wave (km/s) = 6.70933 7.18487 6.95117
#
# Compressibility (1/GPa) = 0.01602386
#
# Stress axis : x y z
#
# Youngs Moduli (GPa) = 74.00811 111.79103 76.31100
#
# Poissons Ratio (x) = 0.11907 0.29650
# Poissons Ratio (y) = 0.07883 0.36769
# Poissons Ratio (z) = 0.28755 0.53865
#
# Static dielectric constant tensor:
#      x y z
#    x 3.620940 0.000000 0.000000 
#    y 0.000000 3.929040 0.000000 
#    z 0.000000 0.000000 3.821780 
# 
# 
# High freq. dielectric constant tensor:
#      x y z
#    x 1.791820 0.000000 0.000000 
#    y 0.000000 1.794790 0.000000 
#    z 0.000000 0.000000 1.801670 
# 
# From -- ./inp_files/7704.got.cif
#   From: 2010.03.12/outbox.cif.g09.slc.cpg/sg20_4_cif.got.tgz:7704.got - 2010.04.14 01:38:04.
