data_PCOD8158092
_publ_section_title
;
Structure prediction by ZEFSAII (Michael W. Deem and Ramdas Pophale) SiO2 
 PCOD8158092
Probable space group: C 2 2 21
;
_chemical_formula_sum "Si O2"
_cell_formula_units_Z 44
_cell_length_a 19.026397
_cell_length_b 6.135883
_cell_length_c 20.466249
_cell_angle_alpha 90.000000
_cell_angle_beta 90.000000
_cell_angle_gamma 90.000000
_cell_volume 2389.306573
_symmetry_space_group_name_H-M "C 2 2 21"
_symmetry_group_IT_number 20
_symmetry_cell_setting 'orthorhombic'
loop_
_space_group_symop_operation_xyz
x,y,z
-x,-y,1/2+z
x,-y,-z
-x,y,1/2-z
1/2+x,1/2+y,z
1/2-x,1/2-y,1/2+z
1/2+x,1/2-y,-z
1/2-x,1/2+y,1/2-z
loop_
_atom_site_type_symbol
_atom_site_label
_atom_site_fract_x
_atom_site_fract_y
_atom_site_fract_z
Si Si1 0.826545 0.101044 0.784289
Si Si2 0.178175 0.239654 0.186752
Si Si3 0.749524 0.876548 0.562896
Si Si4 0.079119 0.491169 0.728190
Si Si5 0.160593 0.000000 0.500000
Si Si6 0.354787 0.238255 0.881640
O O1 0.753300 0.226734 0.778168
O O2 0.890283 0.265113 0.798870
O O3 0.848642 0.988105 0.716372
O O4 0.814699 0.927556 0.842415
O O5 0.186623 0.208284 0.108743
O O6 0.124093 0.428953 0.208504
O O7 0.708060 0.662344 0.542036
O O8 0.781667 0.000000 0.500000
O O9 0.698542 0.040854 0.602518
O O10 0.082843 0.656107 0.666020
O O11 0.000000 0.460978 0.750000
O O12 0.115668 0.849738 0.550905
#
# Coordination Sequence:
#
# PCOD8158092 Si02
#       6
#     8   8   8   8   4   8
#     4  11  19  33  59  84 112 146 192 234 290 336
#     4  11  19  34  57  84 113 149 189 239 283 349
#     4  10  20  32  55  92 117 146 192 246 287 339
#     4  11  24  36  54  85 121 151 192 246 297 349
#     4  10  18  32  58  90 122 146 190 250 290 342
#     4  10  19  34  56  86 117 147 194 237 292 344
#
# _framework density 18.415385000000001
#
# number of rings (size 3 to 8) (size 9 to 14) (size 15 to 20)
#    0.000    1.455    5.455    1.091    0.000    2.909 
#    0.000    0.000    2.000    0.000   11.818    0.000 
#    0.000    0.000    0.000    0.000    0.000    0.000 
#
# Total GULP energy -272577.921471 kJ/mol
# GULP energy per Si atom -12389.905521 kJ/mol
# Density = 1.837347 g / cm^3
# Si number density = 18.415385 Si / 1000 Ang^3
#
#
#
# Elastic Constant Matrix: (Units=GPa)
#
#
# Indices 1 2 3 4 5 6 
#
# 1 85.4581 34.4055 30.6262 0.0000 0.0000 0.0000
# 2 34.4055 104.5271 47.2328 0.0000 0.0000 0.0000
# 3 30.6262 47.2328 115.9500 0.0000 0.0000 0.0000
# 4 0.0000 0.0000 0.0000 40.4562 0.0000 0.0000
# 5 0.0000 0.0000 0.0000 0.0000 14.6614 0.0000
# 6 0.0000 0.0000 0.0000 0.0000 0.0000 13.8573
#
#
#
# Elastic Compliance Matrix: (Units=1/GPa)
#
#
# Indices 1 2 3 4 5 6 
#
# 1 0.013941 -0.003585 -0.002222 0.000000 0.000000 0.000000
# 2 -0.003585 0.012647 -0.004205 0.000000 0.000000 0.000000
# 3 -0.002222 -0.004205 0.010924 0.000000 0.000000 0.000000
# 4 0.000000 0.000000 0.000000 0.024718 0.000000 0.000000
# 5 0.000000 0.000000 0.000000 0.000000 0.068207 0.000000
# 6 0.000000 0.000000 0.000000 0.000000 0.000000 0.072164
#
#
# Mechanical properties :
#
#
# Convention : Reuss Voigt Hill
#
# Bulk Modulus (GPa) = 57.17920 58.94047 58.05984
# Shear Modulus (GPa) = 21.88621 26.70634 24.29628
#
# Velocity S-wave (km/s) = 3.45117 3.81231 3.63622
# Velocity P-wave (km/s) = 6.85550 7.17313 7.01611
#
# Compressibility (1/GPa) = 0.01748888
#
# Stress axis : x y z
#
# Youngs Moduli (GPa) = 71.72990 79.07069 91.53961
#
# Poissons Ratio (x) = 0.28345 0.20341
# Poissons Ratio (y) = 0.25713 0.38492
# Poissons Ratio (z) = 0.15939 0.33249
#
# Static dielectric constant tensor:
#      x y z
#    x 2.768050 0.000000 0.000000 
#    y 0.000000 3.752280 0.000000 
#    z 0.000000 0.000000 3.733560 
# 
# 
# High freq. dielectric constant tensor:
#      x y z
#    x 1.638000 0.000000 0.000000 
#    y 0.000000 1.744260 0.000000 
#    z 0.000000 0.000000 1.727530 
# 
# From -- ./inp_files/26018.got.cif
#   From: 2010.03.12/outbox.cif.g09.slc.cpg/sg20_14_cif.got.tgz:26018.got - 2010.04.14 01:38:04.
