data_PCOD8158061
_publ_section_title
;
Structure prediction by ZEFSAII (Michael W. Deem and Ramdas Pophale) SiO2 
 PCOD8158061
Probable space group: C 2 2 21
;
_chemical_formula_sum "Si O2"
_cell_formula_units_Z 48
_cell_length_a 13.316353
_cell_length_b 17.191809
_cell_length_c 12.569764
_cell_angle_alpha 90.000000
_cell_angle_beta 90.000000
_cell_angle_gamma 90.000000
_cell_volume 2877.623693
_symmetry_space_group_name_H-M "C 2 2 21"
_symmetry_group_IT_number 20
_symmetry_cell_setting 'orthorhombic'
loop_
_space_group_symop_operation_xyz
x,y,z
-x,-y,1/2+z
x,-y,-z
-x,y,1/2-z
1/2+x,1/2+y,z
1/2-x,1/2-y,1/2+z
1/2+x,1/2-y,-z
1/2-x,1/2+y,1/2-z
loop_
_atom_site_type_symbol
_atom_site_label
_atom_site_fract_x
_atom_site_fract_y
_atom_site_fract_z
Si Si1 0.613895 0.249551 0.434691
Si Si2 0.617819 0.364046 0.250000
Si Si3 0.196803 0.826971 0.632367
Si Si4 0.303197 0.326971 0.632368
Si Si5 0.619929 0.537576 0.250000
Si Si6 0.886105 0.250449 0.565309
O O1 0.649997 0.318510 0.356176
O O2 0.621925 0.280518 0.554938
O O3 0.689257 0.177374 0.414025
O O4 0.500000 0.222493 0.411335
O O5 0.500000 0.375327 0.250000
O O6 0.665170 0.450612 0.250000
O O7 0.649997 0.318510 0.143824
O O8 0.191638 0.787525 0.750000
O O9 0.161645 0.917113 0.644558
O O10 0.310743 0.822626 0.585975
O O11 0.338355 0.417113 0.644558
O O12 0.378075 0.280518 0.554938
O O13 0.500000 0.540089 0.250000
#
# Coordination Sequence:
#
# PCOD8158061 Si02
#       6
#     8   8   8   8   8   8
#     4  10  18  31  50  70  95 120 154 196 226 271
#     4   9  17  28  46  71  95 121 147 183 239 278
#     4   9  19  31  45  70  95 124 157 181 232 275
#     4   9  19  31  45  70  95 124 157 181 232 275
#     4   9  17  30  45  69  99 121 146 185 232 282
#     4  10  18  31  50  70  95 120 154 196 226 271
#
# _framework density 16.680430000000001
#
# number of rings (size 3 to 8) (size 9 to 14) (size 15 to 20)
#    1.000    1.667    1.667    1.000    0.000    1.333 
#    0.000    5.000    0.000    0.000    0.000   37.333 
#    0.000    0.000    0.000    0.000    0.000    0.000 
#
# Total GULP energy -297322.558890 kJ/mol
# GULP energy per Si atom -12388.439954 kJ/mol
# Density = 1.664246 g / cm^3
# Si number density = 16.680430 Si / 1000 Ang^3
#
#
#
# Elastic Constant Matrix: (Units=GPa)
#
#
# Indices 1 2 3 4 5 6 
#
# 1 88.1001 36.9858 13.8342 0.0000 0.0000 0.0000
# 2 36.9858 50.7884 2.4765 0.0000 0.0000 0.0000
# 3 13.8342 2.4765 86.1220 0.0000 0.0000 0.0000
# 4 0.0000 0.0000 0.0000 18.5222 0.0000 0.0000
# 5 0.0000 0.0000 0.0000 0.0000 21.2279 0.0000
# 6 0.0000 0.0000 0.0000 0.0000 0.0000 19.4175
#
#
#
# Elastic Compliance Matrix: (Units=1/GPa)
#
#
# Indices 1 2 3 4 5 6 
#
# 1 0.016812 -0.012128 -0.002352 0.000000 0.000000 0.000000
# 2 -0.012128 0.028467 0.001130 0.000000 0.000000 0.000000
# 3 -0.002352 0.001130 0.011957 0.000000 0.000000 0.000000
# 4 0.000000 0.000000 0.000000 0.053989 0.000000 0.000000
# 5 0.000000 0.000000 0.000000 0.000000 0.047108 0.000000
# 6 0.000000 0.000000 0.000000 0.000000 0.000000 0.051500
#
#
# Mechanical properties :
#
#
# Convention : Reuss Voigt Hill
#
# Bulk Modulus (GPa) = 32.74998 36.84483 34.79740
# Shear Modulus (GPa) = 20.26667 23.28112 21.77389
#
# Velocity S-wave (km/s) = 3.48946 3.73998 3.61689
# Velocity P-wave (km/s) = 5.99262 6.38643 6.19266
#
# Compressibility (1/GPa) = 0.03053437
#
# Stress axis : x y z
#
# Youngs Moduli (GPa) = 59.48284 35.12898 83.63489
#
# Poissons Ratio (x) = 0.42605 0.19669
# Poissons Ratio (y) = 0.72141 -0.09448
# Poissons Ratio (z) = 0.13989 -0.03968
#
# Static dielectric constant tensor:
#      x y z
#    x 3.051550 0.000000 0.000000 
#    y 0.000000 3.037620 0.000000 
#    z 0.000000 0.000000 3.173960 
# 
# 
# High freq. dielectric constant tensor:
#      x y z
#    x 1.634770 0.000000 0.000000 
#    y 0.000000 1.604530 0.000000 
#    z 0.000000 0.000000 1.650990 
# 
# From -- ./inp_files/15198.got.cif
#   From: 2010.03.12/outbox.cif.g09.slc.cpg/sg20_8_cif.got.tgz:15198.got - 2010.04.14 01:38:04.
