data_PCOD8158436
_publ_section_title
;
Structure prediction by ZEFSAII (Michael W. Deem and Ramdas Pophale) SiO2 
 PCOD8158436
Probable space group: C 2 2 21
;
_chemical_formula_sum "Si O2"
_cell_formula_units_Z 44
_cell_length_a 26.613649
_cell_length_b 9.428505
_cell_length_c 9.058389
_cell_angle_alpha 90.000000
_cell_angle_beta 90.000000
_cell_angle_gamma 90.000000
_cell_volume 2272.993676
_symmetry_space_group_name_H-M "C 2 2 21"
_symmetry_group_IT_number 20
_symmetry_cell_setting 'orthorhombic'
loop_
_space_group_symop_operation_xyz
x,y,z
-x,-y,1/2+z
x,-y,-z
-x,y,1/2-z
1/2+x,1/2+y,z
1/2-x,1/2-y,1/2+z
1/2+x,1/2-y,-z
1/2-x,1/2+y,1/2-z
loop_
_atom_site_type_symbol
_atom_site_label
_atom_site_fract_x
_atom_site_fract_y
_atom_site_fract_z
Si Si1 0.172969 0.712626 0.990732
Si Si2 0.309957 0.984159 0.745967
Si Si3 0.268399 0.500000 0.500000
Si Si4 0.588850 0.116728 0.384422
Si Si5 0.479322 0.354706 0.085321
Si Si6 0.563560 0.150909 0.069434
O O1 0.204238 0.626522 0.116106
O O2 0.116008 0.733225 0.045277
O O3 0.172734 0.629905 0.833530
O O4 0.197047 0.865165 0.971050
O O5 0.263770 0.020307 0.851652
O O6 0.353013 0.913759 0.848483
O O7 0.575751 0.278864 0.435346
O O8 0.554182 0.110558 0.239808
O O9 0.569031 0.000000 0.500000
O O10 0.500000 0.385950 0.250000
O O11 0.519253 0.248891 0.006698
O O12 0.475805 0.500000 0.000000
O O13 0.567527 0.000000 0.000000
#
# Coordination Sequence:
#
# PCOD8158436 Si02
#       6
#     8   8   4   8   8   8
#     4  10  21  38  59  86 116 155 199 240 296 355
#     4  10  20  40  59  82 118 154 196 239 289 362
#     4  12  22  34  62  88 118 150 196 258 298 332
#     4  10  19  37  60  83 113 151 196 236 287 348
#     4  10  23  38  57  87 120 149 192 248 296 347
#     4  10  19  38  61  81 112 154 196 236 285 362
#
# _framework density 19.357731000000001
#
# number of rings (size 3 to 8) (size 9 to 14) (size 15 to 20)
#    0.000    1.818    4.545    1.636    1.273    1.455 
#    0.000    0.000    4.000    0.000    0.000    0.000 
#    0.000    0.000    0.000    0.000    0.000    0.000 
#
# Total GULP energy -272572.030348 kJ/mol
# GULP energy per Si atom -12389.637743 kJ/mol
# Density = 1.931367 g / cm^3
# Si number density = 19.357731 Si / 1000 Ang^3
#
#
#
# Elastic Constant Matrix: (Units=GPa)
#
#
# Indices 1 2 3 4 5 6 
#
# 1 92.9314 63.8945 38.1579 0.0000 0.0000 0.0000
# 2 63.8945 134.7636 44.7466 0.0000 0.0000 0.0000
# 3 38.1579 44.7466 76.2651 0.0000 0.0000 0.0000
# 4 0.0000 0.0000 0.0000 30.7403 0.0000 0.0000
# 5 0.0000 0.0000 0.0000 0.0000 20.3315 0.0000
# 6 0.0000 0.0000 0.0000 0.0000 0.0000 33.9241
#
#
#
# Elastic Compliance Matrix: (Units=1/GPa)
#
#
# Indices 1 2 3 4 5 6 
#
# 1 0.017252 -0.006599 -0.004760 0.000000 0.000000 0.000000
# 2 -0.006599 0.011740 -0.003586 0.000000 0.000000 0.000000
# 3 -0.004760 -0.003586 0.017598 0.000000 0.000000 0.000000
# 4 0.000000 0.000000 0.000000 0.032531 0.000000 0.000000
# 5 0.000000 0.000000 0.000000 0.000000 0.049185 0.000000
# 6 0.000000 0.000000 0.000000 0.000000 0.000000 0.029478
#
#
# Mechanical properties :
#
#
# Convention : Reuss Voigt Hill
#
# Bulk Modulus (GPa) = 59.88316 66.39534 63.13925
# Shear Modulus (GPa) = 25.87445 27.47660 26.67552
#
# Velocity S-wave (km/s) = 3.65998 3.77160 3.71621
# Velocity P-wave (km/s) = 6.99019 7.30344 7.14853
#
# Compressibility (1/GPa) = 0.01669918
#
# Stress axis : x y z
#
# Youngs Moduli (GPa) = 57.96308 85.17849 56.82486
#
# Poissons Ratio (x) = 0.56211 0.27049
# Poissons Ratio (y) = 0.38251 0.20379
# Poissons Ratio (z) = 0.27590 0.30548
#
# Static dielectric constant tensor:
#      x y z
#    x 3.598600 0.000000 0.000000 
#    y 0.000000 3.834640 0.000000 
#    z 0.000000 0.000000 3.697190 
# 
# 
# High freq. dielectric constant tensor:
#      x y z
#    x 1.744280 0.000000 0.000000 
#    y 0.000000 1.749320 0.000000 
#    z 0.000000 0.000000 1.757510 
# 
# From -- ./inp_files/6370.got.cif
#   From: 2010.03.12/outbox.cif.g09.slc.cpg/sg20_4_cif.got.tgz:6370.got - 2010.04.14 01:38:04.
