data_PCOD8158379
_publ_section_title
;
Structure prediction by ZEFSAII (Michael W. Deem and Ramdas Pophale) SiO2 
 PCOD8158379
Probable space group: C 2 2 21
;
_chemical_formula_sum "Si O2"
_cell_formula_units_Z 60
_cell_length_a 8.971327
_cell_length_b 26.584169
_cell_length_c 13.128903
_cell_angle_alpha 90.000000
_cell_angle_beta 90.000000
_cell_angle_gamma 90.000000
_cell_volume 3131.181307
_symmetry_space_group_name_H-M "C 2 2 21"
_symmetry_group_IT_number 20
_symmetry_cell_setting 'orthorhombic'
loop_
_space_group_symop_operation_xyz
x,y,z
-x,-y,1/2+z
x,-y,-z
-x,y,1/2-z
1/2+x,1/2+y,z
1/2-x,1/2-y,1/2+z
1/2+x,1/2-y,-z
1/2-x,1/2+y,1/2-z
loop_
_atom_site_type_symbol
_atom_site_label
_atom_site_fract_x
_atom_site_fract_y
_atom_site_fract_z
Si Si1 0.734588 0.866750 0.994856
Si Si2 0.975024 0.727604 0.135695
Si Si3 0.026789 0.390752 0.636170
Si Si4 0.500000 0.484664 0.750000
Si Si5 0.502944 0.675473 0.368216
Si Si6 0.332502 0.764730 0.451443
Si Si7 0.418992 0.456129 0.065740
Si Si8 0.660037 0.421114 0.919505
O O1 0.652711 0.825410 0.067200
O O2 0.830572 0.904028 0.063404
O O3 0.619186 0.900667 0.931507
O O4 0.833645 0.834535 0.914263
O O5 0.941037 0.668563 0.141101
O O6 0.000000 0.749091 0.250000
O O7 0.836218 0.751458 0.076117
O O8 0.122399 0.742689 0.071035
O O9 0.000000 0.411789 0.750000
O O10 0.160848 0.421298 0.581568
O O11 0.588713 0.523757 0.679781
O O12 0.605086 0.449146 0.817255
O O13 0.500000 0.663615 0.250000
O O14 0.448632 0.732857 0.384246
O O15 0.388843 0.637064 0.420891
O O16 0.340162 0.500000 0.000000
O O17 0.587087 0.447520 0.019163
#
# Coordination Sequence:
#
# PCOD8158379 Si02
#       8
#     8   8   8   4   8   8   8   8
#     4  10  22  38  55  87 125 158 199 243 308 365
#     4  10  22  37  55  85 127 165 205 256 303 370
#     4  10  20  32  59  90 121 148 192 257 306 350
#     4  10  20  40  68  86 116 150 214 244 304 374
#     4  11  20  33  60  86 114 157 203 248 298 358
#     4  11  21  36  55  87 123 163 207 246 299 377
#     4   9  21  39  64  86 113 158 201 256 297 364
#     4  10  19  35  63  93 114 147 197 254 307 355
#
# _framework density 19.162095000000001
#
# number of rings (size 3 to 8) (size 9 to 14) (size 15 to 20)
#    0.000    1.867    3.333    0.800    7.467    0.000 
#    1.200    2.000    5.867    0.000    0.000    0.000 
#    0.000    0.000    0.000    0.000    0.000    0.000 
#
# Total GULP energy -371714.144891 kJ/mol
# GULP energy per Si atom -12390.471496 kJ/mol
# Density = 1.911848 g / cm^3
# Si number density = 19.162095 Si / 1000 Ang^3
#
#
#
# Elastic Constant Matrix: (Units=GPa)
#
#
# Indices 1 2 3 4 5 6 
#
# 1 111.9580 27.6699 28.3274 0.0000 0.0000 0.0000
# 2 27.6699 77.5404 22.5060 0.0000 0.0000 0.0000
# 3 28.3274 22.5060 72.0661 0.0000 0.0000 0.0000
# 4 0.0000 0.0000 0.0000 25.2758 0.0000 0.0000
# 5 0.0000 0.0000 0.0000 0.0000 21.6252 0.0000
# 6 0.0000 0.0000 0.0000 0.0000 0.0000 33.2050
#
#
#
# Elastic Compliance Matrix: (Units=1/GPa)
#
#
# Indices 1 2 3 4 5 6 
#
# 1 0.010439 -0.002787 -0.003233 0.000000 0.000000 0.000000
# 2 -0.002787 0.014926 -0.003566 0.000000 0.000000 0.000000
# 3 -0.003233 -0.003566 0.016261 0.000000 0.000000 0.000000
# 4 0.000000 0.000000 0.000000 0.039564 0.000000 0.000000
# 5 0.000000 0.000000 0.000000 0.000000 0.046242 0.000000
# 6 0.000000 0.000000 0.000000 0.000000 0.000000 0.030116
#
#
# Mechanical properties :
#
#
# Convention : Reuss Voigt Hill
#
# Bulk Modulus (GPa) = 44.53529 46.50791 45.52160
# Shear Modulus (GPa) = 27.14404 28.22529 27.68467
#
# Velocity S-wave (km/s) = 3.76779 3.84210 3.80513
# Velocity P-wave (km/s) = 6.49770 6.63369 6.56605
#
# Compressibility (1/GPa) = 0.02245410
#
# Stress axis : x y z
#
# Youngs Moduli (GPa) = 95.79824 66.99756 61.49848
#
# Poissons Ratio (x) = 0.18670 0.19882
# Poissons Ratio (y) = 0.26695 0.21930
# Poissons Ratio (z) = 0.30971 0.23891
#
# Static dielectric constant tensor:
#      x y z
#    x 3.468850 0.000000 0.000000 
#    y 0.000000 3.545510 0.000000 
#    z 0.000000 0.000000 2.968040 
# 
# 
# High freq. dielectric constant tensor:
#      x y z
#    x 1.737630 0.000000 0.000000 
#    y 0.000000 1.741670 0.000000 
#    z 0.000000 0.000000 1.725880 
# 
# From -- ./inp_files/13368.got.cif
#   From: 2010.03.12/outbox.cif.g09.slc.cpg/sg20_7_cif.got.tgz:13368.got - 2010.04.14 01:38:04.
