data_PCOD8158631
_publ_section_title
;
Structure prediction by ZEFSAII (Michael W. Deem and Ramdas Pophale) SiO2 
 PCOD8158631
Probable space group: C 2 2 21
;
_chemical_formula_sum "Si O2"
_cell_formula_units_Z 48
_cell_length_a 14.444772
_cell_length_b 26.357339
_cell_length_c 5.335980
_cell_angle_alpha 90.000000
_cell_angle_beta 90.000000
_cell_angle_gamma 90.000000
_cell_volume 2031.545000
_symmetry_space_group_name_H-M "C 2 2 21"
_symmetry_group_IT_number 20
_symmetry_cell_setting 'orthorhombic'
loop_
_space_group_symop_operation_xyz
x,y,z
-x,-y,1/2+z
x,-y,-z
-x,y,1/2-z
1/2+x,1/2+y,z
1/2-x,1/2-y,1/2+z
1/2+x,1/2-y,-z
1/2-x,1/2+y,1/2-z
loop_
_atom_site_type_symbol
_atom_site_label
_atom_site_fract_x
_atom_site_fract_y
_atom_site_fract_z
Si Si1 0.652390 0.945333 0.948400
Si Si2 0.600720 0.744871 0.237573
Si Si3 0.723638 0.806122 0.559054
Si Si4 0.256170 0.914000 0.069676
Si Si5 0.947709 0.940112 0.500360
Si Si6 0.584246 0.159782 0.067324
O O1 0.687994 0.939911 0.662198
O O2 0.580228 0.899799 0.010247
O O3 0.731810 0.943313 0.165896
O O4 0.603867 0.000000 0.000000
O O5 0.500000 0.716258 0.250000
O O6 0.659958 0.757095 0.488896
O O7 0.669050 0.711848 0.064240
O O8 0.573674 0.801672 0.157351
O O9 0.715353 0.855160 0.376083
O O10 0.686126 0.827864 0.820708
O O11 0.150314 0.913045 0.990013
O O12 0.000000 0.922084 0.250000
O O13 0.932581 0.000000 0.500000
O O14 0.000000 0.922001 0.750000
O O15 0.500000 0.172089 0.250000
#
# Coordination Sequence:
#
# PCOD8158631 Si02
#       6
#     8   8   8   8   8   8
#     4  11  23  41  67  98 134 180 232 284 341 411
#     4  12  23  42  70  98 136 180 231 283 354 421
#     4  11  24  41  67  98 133 177 227 284 347 417
#     4  11  23  41  65  95 132 178 228 286 347 411
#     4  10  20  35  57  86 124 170 217 272 338 403
#     4  11  23  42  66  98 134 180 230 288 349 418
#
# _framework density 23.627336
#
# number of rings (size 3 to 8) (size 9 to 14) (size 15 to 20)
#    0.000    1.000    5.000    2.500    0.000    2.000 
#    0.000    6.667    0.000    0.000    0.000    0.000 
#    0.000    0.000    0.000    0.000    0.000    0.000 
#
# Total GULP energy -297316.028864 kJ/mol
# GULP energy per Si atom -12388.167869 kJ/mol
# Density = 2.357356 g / cm^3
# Si number density = 23.627336 Si / 1000 Ang^3
#
#
#
# Elastic Constant Matrix: (Units=GPa)
#
#
# Indices 1 2 3 4 5 6 
#
# 1 111.9110 9.2576 8.4856 0.0000 0.0000 0.0000
# 2 9.2576 94.2091 11.7220 0.0000 0.0000 0.0000
# 3 8.4856 11.7220 101.0073 0.0000 0.0000 0.0000
# 4 0.0000 0.0000 0.0000 21.4488 0.0000 0.0000
# 5 0.0000 0.0000 0.0000 0.0000 32.3653 0.0000
# 6 0.0000 0.0000 0.0000 0.0000 0.0000 24.5939
#
#
#
# Elastic Compliance Matrix: (Units=1/GPa)
#
#
# Indices 1 2 3 4 5 6 
#
# 1 0.009053 -0.000807 -0.000667 0.000000 0.000000 0.000000
# 2 -0.000807 0.010842 -0.001190 0.000000 0.000000 0.000000
# 3 -0.000667 -0.001190 0.010094 0.000000 0.000000 0.000000
# 4 0.000000 0.000000 0.000000 0.046623 0.000000 0.000000
# 5 0.000000 0.000000 0.000000 0.000000 0.030897 0.000000
# 6 0.000000 0.000000 0.000000 0.000000 0.000000 0.040660
#
#
# Mechanical properties :
#
#
# Convention : Reuss Voigt Hill
#
# Bulk Modulus (GPa) = 40.54909 40.67308 40.61109
# Shear Modulus (GPa) = 30.91795 34.19243 32.55519
#
# Velocity S-wave (km/s) = 3.62134 3.80828 3.71598
# Velocity P-wave (km/s) = 5.88937 6.04889 5.96966
#
# Compressibility (1/GPa) = 0.02466146
#
# Stress axis : x y z
#
# Youngs Moduli (GPa) = 110.46097 92.23331 99.06427
#
# Poissons Ratio (x) = 0.07440 0.06607
# Poissons Ratio (y) = 0.08910 0.11793
# Poissons Ratio (z) = 0.07367 0.10980
#
# Static dielectric constant tensor:
#      x y z
#    x 4.402220 0.000000 0.000000 
#    y 0.000000 4.375420 0.000000 
#    z 0.000000 0.000000 4.310820 
# 
# 
# High freq. dielectric constant tensor:
#      x y z
#    x 1.929420 0.000000 0.000000 
#    y 0.000000 1.932270 0.000000 
#    z 0.000000 0.000000 1.932310 
# 
# From -- ./inp_files/2020.got.cif
#   From: 2010.03.12/outbox.cif.g09.slc.cpg/sg20_2_cif.got.tgz:2020.got - 2010.04.14 01:38:04.
