data_PCOD8158574
_publ_section_title
;
Structure prediction by ZEFSAII (Michael W. Deem and Ramdas Pophale) SiO2 
 PCOD8158574
Probable space group: C 2 2 21
;
_chemical_formula_sum "Si O2"
_cell_formula_units_Z 52
_cell_length_a 18.430184
_cell_length_b 15.152166
_cell_length_c 9.742747
_cell_angle_alpha 90.000000
_cell_angle_beta 90.000000
_cell_angle_gamma 90.000000
_cell_volume 2720.732319
_symmetry_space_group_name_H-M "C 2 2 21"
_symmetry_group_IT_number 20
_symmetry_cell_setting 'orthorhombic'
loop_
_space_group_symop_operation_xyz
x,y,z
-x,-y,1/2+z
x,-y,-z
-x,y,1/2-z
1/2+x,1/2+y,z
1/2-x,1/2-y,1/2+z
1/2+x,1/2-y,-z
1/2-x,1/2+y,1/2-z
loop_
_atom_site_type_symbol
_atom_site_label
_atom_site_fract_x
_atom_site_fract_y
_atom_site_fract_z
Si Si1 0.653821 0.608183 0.266217
Si Si2 0.937809 0.233870 0.645347
Si Si3 0.299083 0.500000 0.000000
Si Si4 0.217633 0.652297 0.872008
Si Si5 0.932406 0.725570 0.663327
Si Si6 0.938900 0.028772 0.643898
Si Si7 0.218665 0.719102 0.169332
O O1 0.648229 0.567776 0.420122
O O2 0.598313 0.688336 0.242441
O O3 0.634834 0.528521 0.163388
O O4 0.737132 0.642019 0.249756
O O5 0.961059 0.251099 0.488762
O O6 0.918876 0.130775 0.660004
O O7 0.867566 0.290992 0.688639
O O8 0.000000 0.263277 0.750000
O O9 0.246181 0.446664 0.103535
O O10 0.130709 0.651884 0.846592
O O11 0.256450 0.688409 0.735087
O O12 0.235587 0.714283 0.005566
O O13 0.000000 0.687811 0.750000
O O14 0.000000 0.998733 0.750000
O O15 0.972570 0.000000 0.500000
#
# Coordination Sequence:
#
# PCOD8158574 Si02
#       7
#     8   8   4   8   8   8   8
#     4  10  20  33  55  77 110 138 178 219 262 320
#     4  10  21  34  54  78 107 142 177 218 271 326
#     4  10  20  34  56  82 104 144 178 222 272 324
#     4   9  19  35  56  78 108 141 180 223 266 319
#     4  10  20  35  55  79 108 140 181 222 265 313
#     4  11  22  33  50  77 113 146 171 212 269 325
#     4   9  19  36  52  80 104 140 180 222 263 313
#
# _framework density 19.112501000000002
#
# number of rings (size 3 to 8) (size 9 to 14) (size 15 to 20)
#    0.000    2.154    1.538    1.385    1.077    4.923 
#    0.000    0.000    0.000    8.308    0.000    0.000 
#    0.000    0.000    0.000    0.000    0.000    0.000 
#
# Total GULP energy -322186.702003 kJ/mol
# GULP energy per Si atom -12391.796231 kJ/mol
# Density = 1.906900 g / cm^3
# Si number density = 19.112501 Si / 1000 Ang^3
#
#
#
# Elastic Constant Matrix: (Units=GPa)
#
#
# Indices 1 2 3 4 5 6 
#
# 1 104.4878 18.6694 66.4276 0.0000 0.0000 0.0000
# 2 18.6694 35.9048 25.3712 0.0000 0.0000 0.0000
# 3 66.4276 25.3712 101.1913 0.0000 0.0000 0.0000
# 4 0.0000 0.0000 0.0000 28.2796 0.0000 0.0000
# 5 0.0000 0.0000 0.0000 0.0000 31.3299 0.0000
# 6 0.0000 0.0000 0.0000 0.0000 0.0000 11.5401
#
#
#
# Elastic Compliance Matrix: (Units=1/GPa)
#
#
# Indices 1 2 3 4 5 6 
#
# 1 0.016463 -0.001122 -0.010526 0.000000 0.000000 0.000000
# 2 -0.001122 0.033925 -0.007769 0.000000 0.000000 0.000000
# 3 -0.010526 -0.007769 0.018740 0.000000 0.000000 0.000000
# 4 0.000000 0.000000 0.000000 0.035361 0.000000 0.000000
# 5 0.000000 0.000000 0.000000 0.000000 0.031918 0.000000
# 6 0.000000 0.000000 0.000000 0.000000 0.000000 0.086655
#
#
# Mechanical properties :
#
#
# Convention : Reuss Voigt Hill
#
# Bulk Modulus (GPa) = 33.01068 51.39115 42.20092
# Shear Modulus (GPa) = 18.38282 22.97095 20.67689
#
# Velocity S-wave (km/s) = 3.10469 3.47058 3.29272
# Velocity P-wave (km/s) = 5.49194 6.55797 6.04849
#
# Compressibility (1/GPa) = 0.03029322
#
# Stress axis : x y z
#
# Youngs Moduli (GPa) = 60.74363 29.47692 53.36253
#
# Poissons Ratio (x) = 0.03309 0.56167
# Poissons Ratio (y) = 0.06818 0.41457
# Poissons Ratio (z) = 0.63936 0.22901
#
# Static dielectric constant tensor:
#      x y z
#    x 3.546120 0.000000 0.000000 
#    y 0.000000 3.337120 0.000000 
#    z 0.000000 0.000000 3.656390 
# 
# 
# High freq. dielectric constant tensor:
#      x y z
#    x 1.739130 0.000000 0.000000 
#    y 0.000000 1.712670 0.000000 
#    z 0.000000 0.000000 1.748830 
# 
# From -- ./inp_files/9508.got.cif
#   From: 2010.03.12/outbox.cif.g09.slc.cpg/sg20_5_cif.got.tgz:9508.got - 2010.04.14 01:38:04.
