data_PCOD8158113
_publ_section_title
;
Structure prediction by ZEFSAII (Michael W. Deem and Ramdas Pophale) SiO2 
 PCOD8158113
Probable space group: C 2 2 21
;
_chemical_formula_sum "Si O2"
_cell_formula_units_Z 52
_cell_length_a 8.215970
_cell_length_b 16.195401
_cell_length_c 19.686297
_cell_angle_alpha 90.000000
_cell_angle_beta 90.000000
_cell_angle_gamma 90.000000
_cell_volume 2619.476963
_symmetry_space_group_name_H-M "C 2 2 21"
_symmetry_group_IT_number 20
_symmetry_cell_setting 'orthorhombic'
loop_
_space_group_symop_operation_xyz
x,y,z
-x,-y,1/2+z
x,-y,-z
-x,y,1/2-z
1/2+x,1/2+y,z
1/2-x,1/2-y,1/2+z
1/2+x,1/2-y,-z
1/2-x,1/2+y,1/2-z
loop_
_atom_site_type_symbol
_atom_site_label
_atom_site_fract_x
_atom_site_fract_y
_atom_site_fract_z
Si Si1 0.000000 0.745289 0.750000
Si Si2 0.033925 0.108645 0.825697
Si Si3 0.761423 0.518106 0.924331
Si Si4 0.060189 0.682773 0.546273
Si Si5 0.265229 0.771385 0.651688
Si Si6 0.275664 0.199707 0.637765
Si Si7 0.922964 0.651252 0.107583
O O1 0.129324 0.800315 0.706764
O O2 0.095137 0.684861 0.801642
O O3 0.115163 0.038545 0.872744
O O4 0.147094 0.189354 0.819480
O O5 0.000000 0.074087 0.750000
O O6 0.864033 0.130930 0.861911
O O7 0.888419 0.592026 0.929559
O O8 0.861527 0.441777 0.893581
O O9 0.690228 0.500000 0.000000
O O10 0.176943 0.751170 0.580424
O O11 0.070084 0.693875 0.466118
O O12 0.872276 0.695195 0.566910
O O13 0.396632 0.844361 0.640951
O O14 0.201329 0.291454 0.649566
#
# Coordination Sequence:
#
# PCOD8158113 Si02
#       7
#     4   8   8   8   8   8   8
#     4  10  18  34  52  84 114 146 186 238 288 330
#     4  10  18  35  60  85 110 153 200 235 283 351
#     4   9  20  38  57  82 121 155 186 239 294 341
#     4   9  18  35  57  84 110 148 190 230 278 348
#     4   9  18  31  58  82 112 145 189 235 283 337
#     4  10  20  33  60  84 111 145 197 239 282 338
#     4  10  19  34  55  85 117 146 183 237 295 331
#
# _framework density 19.851292999999998
#
# number of rings (size 3 to 8) (size 9 to 14) (size 15 to 20)
#    0.000    2.462    1.538    0.923    0.000    1.231 
#    1.385    5.385    3.385    0.000    0.000    0.000 
#    0.000    0.000    0.000    0.000    0.000    0.000 
#
# Total GULP energy -322332.007542 kJ/mol
# GULP energy per Si atom -12397.384905 kJ/mol
# Density = 1.980611 g / cm^3
# Si number density = 19.851293 Si / 1000 Ang^3
#
#
#
# Elastic Constant Matrix: (Units=GPa)
#
#
# Indices 1 2 3 4 5 6 
#
# 1 137.7163 41.0675 51.2591 0.0000 0.0000 0.0000
# 2 41.0675 69.9592 25.8881 0.0000 0.0000 0.0000
# 3 51.2591 25.8881 86.3623 0.0000 0.0000 0.0000
# 4 0.0000 0.0000 0.0000 20.1768 0.0000 0.0000
# 5 0.0000 0.0000 0.0000 0.0000 42.8952 0.0000
# 6 0.0000 0.0000 0.0000 0.0000 0.0000 26.5412
#
#
#
# Elastic Compliance Matrix: (Units=1/GPa)
#
#
# Indices 1 2 3 4 5 6 
#
# 1 0.010344 -0.004274 -0.004858 0.000000 0.000000 0.000000
# 2 -0.004274 0.017844 -0.002812 0.000000 0.000000 0.000000
# 3 -0.004858 -0.002812 0.015306 0.000000 0.000000 0.000000
# 4 0.000000 0.000000 0.000000 0.049562 0.000000 0.000000
# 5 0.000000 0.000000 0.000000 0.000000 0.023313 0.000000
# 6 0.000000 0.000000 0.000000 0.000000 0.000000 0.037677
#
#
# Mechanical properties :
#
#
# Convention : Reuss Voigt Hill
#
# Bulk Modulus (GPa) = 51.00918 58.94079 54.97499
# Shear Modulus (GPa) = 27.10472 29.64417 28.37445
#
# Velocity S-wave (km/s) = 3.69912 3.86853 3.78478
# Velocity P-wave (km/s) = 6.63296 7.05051 6.84492
#
# Compressibility (1/GPa) = 0.01960431
#
# Stress axis : x y z
#
# Youngs Moduli (GPa) = 96.67157 56.04203 65.33549
#
# Poissons Ratio (x) = 0.23955 0.31742
# Poissons Ratio (y) = 0.41322 0.18371
# Poissons Ratio (z) = 0.46967 0.15758
#
# Static dielectric constant tensor:
#      x y z
#    x 3.849620 0.000000 0.000000 
#    y 0.000000 3.133750 0.000000 
#    z 0.000000 0.000000 3.744370 
# 
# 
# High freq. dielectric constant tensor:
#      x y z
#    x 1.788200 0.000000 0.000000 
#    y 0.000000 1.723140 0.000000 
#    z 0.000000 0.000000 1.784730 
# 
# From -- ./inp_files/23701.got.cif
#   From: 2010.03.12/outbox.cif.g09.slc.cpg/sg20_12_cif.got.tgz:23701.got - 2010.04.14 01:38:04.
