data_PCOD8158364
_publ_section_title
;
Structure prediction by ZEFSAII (Michael W. Deem and Ramdas Pophale) SiO2 
 PCOD8158364
Probable space group: C 2 2 21
;
_chemical_formula_sum "Si O2"
_cell_formula_units_Z 44
_cell_length_a 29.526141
_cell_length_b 9.088170
_cell_length_c 8.643867
_cell_angle_alpha 90.000000
_cell_angle_beta 90.000000
_cell_angle_gamma 90.000000
_cell_volume 2319.483073
_symmetry_space_group_name_H-M "C 2 2 21"
_symmetry_group_IT_number 20
_symmetry_cell_setting 'orthorhombic'
loop_
_space_group_symop_operation_xyz
x,y,z
-x,-y,1/2+z
x,-y,-z
-x,y,1/2-z
1/2+x,1/2+y,z
1/2-x,1/2-y,1/2+z
1/2+x,1/2-y,-z
1/2-x,1/2+y,1/2-z
loop_
_atom_site_type_symbol
_atom_site_label
_atom_site_fract_x
_atom_site_fract_y
_atom_site_fract_z
Si Si1 0.586173 0.273373 0.078864
Si Si2 0.611381 0.427964 0.771552
Si Si3 0.709665 0.421027 0.849558
Si Si4 0.000000 0.819398 0.250000
Si Si5 0.729465 0.903830 0.137737
Si Si6 0.356719 0.000000 0.500000
Si Si7 0.944743 0.000000 0.000000
O O1 0.608001 0.398313 0.187614
O O2 0.537196 0.228070 0.151493
O O3 0.614428 0.124016 0.084936
O O4 0.585263 0.331611 0.901735
O O5 0.664600 0.388432 0.749204
O O6 0.587442 0.395911 0.606573
O O7 0.737215 0.270559 0.881101
O O8 0.746015 0.539147 0.789961
O O9 0.689311 0.500000 0.000000
O O10 0.976413 0.915172 0.118428
O O11 0.675167 0.931675 0.135466
O O12 0.752488 0.000000 0.000000
#
# Coordination Sequence:
#
# PCOD8158364 Si02
#       7
#     8   8   8   4   8   4   4
#     4  10  19  37  62  79 117 147 197 234 299 345
#     4  10  19  35  59  87 110 158 185 242 284 354
#     4  12  21  38  58  87 121 156 200 243 293 345
#     4  10  20  36  56  92 108 150 186 252 290 352
#     4  10  23  37  59  85 117 158 200 242 286 349
#     4  10  20  41  58  82 116 162 186 237 298 354
#     4  10  20  33  60  84 118 136 196 239 290 340
#
# _framework density 18.969743999999999
#
# number of rings (size 3 to 8) (size 9 to 14) (size 15 to 20)
#    0.545    1.091    3.636    3.273    3.818    0.000 
#    0.000    1.818    0.000    0.000    0.000    0.000 
#    0.000    0.000    0.000    0.000    0.000    0.000 
#
# Total GULP energy -272549.856906 kJ/mol
# GULP energy per Si atom -12388.629859 kJ/mol
# Density = 1.892657 g / cm^3
# Si number density = 18.969744 Si / 1000 Ang^3
#
#
#
# Elastic Constant Matrix: (Units=GPa)
#
#
# Indices 1 2 3 4 5 6 
#
# 1 119.8245 28.2940 49.7743 0.0000 0.0000 0.0000
# 2 28.2940 88.6577 25.3364 0.0000 0.0000 0.0000
# 3 49.7743 25.3364 95.2959 0.0000 0.0000 0.0000
# 4 0.0000 0.0000 0.0000 23.2101 0.0000 0.0000
# 5 0.0000 0.0000 0.0000 0.0000 45.5725 0.0000
# 6 0.0000 0.0000 0.0000 0.0000 0.0000 65.8700
#
#
#
# Elastic Compliance Matrix: (Units=1/GPa)
#
#
# Indices 1 2 3 4 5 6 
#
# 1 0.010982 -0.002019 -0.005199 0.000000 0.000000 0.000000
# 2 -0.002019 0.012578 -0.002290 0.000000 0.000000 0.000000
# 3 -0.005199 -0.002290 0.013818 0.000000 0.000000 0.000000
# 4 0.000000 0.000000 0.000000 0.043085 0.000000 0.000000
# 5 0.000000 0.000000 0.000000 0.000000 0.021943 0.000000
# 6 0.000000 0.000000 0.000000 0.000000 0.000000 0.015181
#
#
# Mechanical properties :
#
#
# Convention : Reuss Voigt Hill
#
# Bulk Modulus (GPa) = 54.45918 56.73196 55.59557
# Shear Modulus (GPa) = 35.03273 40.28874 37.66073
#
# Velocity S-wave (km/s) = 4.30207 4.61352 4.46051
# Velocity P-wave (km/s) = 7.31080 7.63877 7.47658
#
# Compressibility (1/GPa) = 0.01836238
#
# Stress axis : x y z
#
# Youngs Moduli (GPa) = 91.05797 79.50406 72.36928
#
# Poissons Ratio (x) = 0.16051 0.37627
# Poissons Ratio (y) = 0.18384 0.16570
# Poissons Ratio (z) = 0.47344 0.18203
#
# Static dielectric constant tensor:
#      x y z
#    x 3.620530 0.000000 0.000000 
#    y 0.000000 3.243720 0.000000 
#    z 0.000000 0.000000 3.046320 
# 
# 
# High freq. dielectric constant tensor:
#      x y z
#    x 1.744800 0.000000 0.000000 
#    y 0.000000 1.713700 0.000000 
#    z 0.000000 0.000000 1.725570 
# 
# From -- ./inp_files/11395.got.cif
#   From: 2010.03.12/outbox.cif.g09.slc.cpg/sg20_6_cif.got.tgz:11395.got - 2010.04.14 01:38:04.
