data_PCOD8158173
_publ_section_title
;
Structure prediction by ZEFSAII (Michael W. Deem and Ramdas Pophale) SiO2 
 PCOD8158173
Probable space group: C 2 2 21
;
_chemical_formula_sum "Si O2"
_cell_formula_units_Z 60
_cell_length_a 20.600703
_cell_length_b 11.472421
_cell_length_c 13.020964
_cell_angle_alpha 90.000000
_cell_angle_beta 90.000000
_cell_angle_gamma 90.000000
_cell_volume 3077.373821
_symmetry_space_group_name_H-M "C 2 2 21"
_symmetry_group_IT_number 20
_symmetry_cell_setting 'orthorhombic'
loop_
_space_group_symop_operation_xyz
x,y,z
-x,-y,1/2+z
x,-y,-z
-x,y,1/2-z
1/2+x,1/2+y,z
1/2-x,1/2-y,1/2+z
1/2+x,1/2-y,-z
1/2-x,1/2+y,1/2-z
loop_
_atom_site_type_symbol
_atom_site_label
_atom_site_fract_x
_atom_site_fract_y
_atom_site_fract_z
Si Si1 0.795780 0.347762 0.259732
Si Si2 0.670177 0.294270 0.362114
Si Si3 0.443432 0.500000 0.500000
Si Si4 0.246200 0.242063 0.436284
Si Si5 0.337294 0.900889 0.700172
Si Si6 0.638377 0.704326 0.072315
Si Si7 0.975450 0.175754 0.864898
Si Si8 0.550276 0.874107 0.956545
O O1 0.721295 0.368377 0.295220
O O2 0.795075 0.324054 0.138831
O O3 0.836523 0.462655 0.278859
O O4 0.827949 0.237523 0.319570
O O5 0.695365 0.296102 0.478180
O O6 0.664616 0.167047 0.308598
O O7 0.600448 0.355665 0.363791
O O8 0.399750 0.417736 0.573805
O O9 0.486944 0.426300 0.422886
O O10 0.276297 0.133406 0.372522
O O11 0.306261 0.311233 0.485992
O O12 0.405250 0.877989 0.644618
O O13 0.589929 0.810010 0.046261
O O14 0.000000 0.184238 0.750000
O O15 0.987254 0.298682 0.924327
O O16 0.528787 0.000000 0.000000
#
# Coordination Sequence:
#
# PCOD8158173 Si02
#       8
#     8   8   4   8   8   8   8   8
#     4  10  20  36  62  91 119 157 198 255 320 367
#     4  10  22  40  57  88 126 155 199 252 308 374
#     4  10  24  40  64  86 120 172 210 252 298 366
#     4   9  21  35  55  90 123 152 197 255 314 370
#     4  10  19  36  63  89 117 159 199 252 310 365
#     4   9  19  36  59  86 117 152 206 248 298 366
#     4  11  23  44  63  88 124 168 212 248 306 372
#     4  10  18  36  66  87 110 157 208 246 291 367
#
# _framework density 19.497143000000001
#
# number of rings (size 3 to 8) (size 9 to 14) (size 15 to 20)
#    0.000    2.133    2.667    0.000    1.867    4.800 
#    4.800    0.000    0.000    0.000    0.000    0.000 
#    0.000    0.000    0.000    0.000    0.000    0.000 
#
# Total GULP energy -371912.684572 kJ/mol
# GULP energy per Si atom -12397.089486 kJ/mol
# Density = 1.945277 g / cm^3
# Si number density = 19.497143 Si / 1000 Ang^3
#
#
#
# Elastic Constant Matrix: (Units=GPa)
#
#
# Indices 1 2 3 4 5 6 
#
# 1 74.5822 11.8330 9.7562 0.0000 0.0000 0.0000
# 2 11.8330 92.6765 17.1289 0.0000 0.0000 0.0000
# 3 9.7562 17.1289 94.7982 0.0000 0.0000 0.0000
# 4 0.0000 0.0000 0.0000 23.5206 0.0000 0.0000
# 5 0.0000 0.0000 0.0000 0.0000 12.8262 0.0000
# 6 0.0000 0.0000 0.0000 0.0000 0.0000 17.2287
#
#
#
# Elastic Compliance Matrix: (Units=1/GPa)
#
#
# Indices 1 2 3 4 5 6 
#
# 1 0.013803 -0.001552 -0.001140 0.000000 0.000000 0.000000
# 2 -0.001552 0.011337 -0.001889 0.000000 0.000000 0.000000
# 3 -0.001140 -0.001889 0.011007 0.000000 0.000000 0.000000
# 4 0.000000 0.000000 0.000000 0.042516 0.000000 0.000000
# 5 0.000000 0.000000 0.000000 0.000000 0.077965 0.000000
# 6 0.000000 0.000000 0.000000 0.000000 0.000000 0.058043
#
#
# Mechanical properties :
#
#
# Convention : Reuss Voigt Hill
#
# Bulk Modulus (GPa) = 37.05530 37.72145 37.38837
# Shear Modulus (GPa) = 21.47496 25.60435 23.53966
#
# Velocity S-wave (km/s) = 3.32240 3.62779 3.47845
# Velocity P-wave (km/s) = 5.81073 6.07758 5.94565
#
# Compressibility (1/GPa) = 0.02698669
#
# Stress axis : x y z
#
# Youngs Moduli (GPa) = 72.44613 88.20332 90.84833
#
# Poissons Ratio (x) = 0.13686 0.10359
# Poissons Ratio (y) = 0.11241 0.17160
# Poissons Ratio (z) = 0.08260 0.16660
#
# Static dielectric constant tensor:
#      x y z
#    x 3.584030 0.000000 0.000000 
#    y 0.000000 3.432400 0.000000 
#    z 0.000000 0.000000 3.636560 
# 
# 
# High freq. dielectric constant tensor:
#      x y z
#    x 1.754680 0.000000 0.000000 
#    y 0.000000 1.743650 0.000000 
#    z 0.000000 0.000000 1.761210 
# 
# From -- ./inp_files/16389.got.cif
#   From: 2010.03.12/outbox.cif.g09.slc.cpg/sg20_9_cif.got.tgz:16389.got - 2010.04.14 01:38:04.
