data_PCOD8158796
_publ_section_title
;
Structure prediction by ZEFSAII (Michael W. Deem and Ramdas Pophale) SiO2 
 PCOD8158796
Probable space group: C 2 2 21
;
_chemical_formula_sum "Si O2"
_cell_formula_units_Z 40
_cell_length_a 19.887955
_cell_length_b 10.042498
_cell_length_c 10.122118
_cell_angle_alpha 90.000000
_cell_angle_beta 90.000000
_cell_angle_gamma 90.000000
_cell_volume 2021.637470
_symmetry_space_group_name_H-M "C 2 2 21"
_symmetry_group_IT_number 20
_symmetry_cell_setting 'orthorhombic'
loop_
_space_group_symop_operation_xyz
x,y,z
-x,-y,1/2+z
x,-y,-z
-x,y,1/2-z
1/2+x,1/2+y,z
1/2-x,1/2-y,1/2+z
1/2+x,1/2-y,-z
1/2-x,1/2+y,1/2-z
loop_
_atom_site_type_symbol
_atom_site_label
_atom_site_fract_x
_atom_site_fract_y
_atom_site_fract_z
Si Si1 0.530463 0.500000 0.000000
Si Si2 0.640624 0.299925 0.089033
Si Si3 0.363123 0.093996 0.184179
Si Si4 0.473439 0.000000 0.000000
Si Si5 0.000000 0.853705 0.750000
Si Si6 0.249947 0.500000 0.500000
Si Si7 0.090688 0.644151 0.855845
O O1 0.574482 0.612128 0.927934
O O2 0.485497 0.439056 0.882522
O O3 0.639116 0.228659 0.231058
O O4 0.705881 0.392723 0.079373
O O5 0.639428 0.186572 0.975643
O O6 0.294518 0.083577 0.102581
O O7 0.368054 0.962586 0.273585
O O8 0.427304 0.099437 0.086602
O O9 0.519256 0.087796 0.905085
O O10 0.930585 0.770741 0.732740
#
# Coordination Sequence:
#
# PCOD8158796 Si02
#       7
#     4   8   8   4   4   4   8
#     4   9  22  39  60  90 125 176 195 244 322 375
#     4  10  22  41  61  85 124 167 205 255 306 375
#     4  11  22  38  64  92 122 163 206 266 309 363
#     4  11  20  35  58 108 121 147 204 250 328 373
#     4  10  20  38  58  88 132 160 202 248 302 398
#     4  10  26  42  58  90 120 167 223 250 304 370
#     4  11  20  36  65  91 124 158 198 259 317 367
#
# _framework density 19.785941999999999
#
# number of rings (size 3 to 8) (size 9 to 14) (size 15 to 20)
#    0.000    1.600    4.000    0.000    2.800    3.200 
#    0.000    0.000    0.000    2.400    0.000    0.000 
#    0.000    0.000    0.000    0.000    0.000    0.000 
#
# Total GULP energy -248019.268713 kJ/mol
# GULP energy per Si atom -12400.963436 kJ/mol
# Density = 1.974091 g / cm^3
# Si number density = 19.785942 Si / 1000 Ang^3
#
#
#
# Elastic Constant Matrix: (Units=GPa)
#
#
# Indices 1 2 3 4 5 6 
#
# 1 78.2768 29.2948 43.8913 0.0000 0.0000 0.0000
# 2 29.2948 87.9919 60.2316 0.0000 0.0000 0.0000
# 3 43.8913 60.2316 126.3034 0.0000 0.0000 0.0000
# 4 0.0000 0.0000 0.0000 54.8994 0.0000 0.0000
# 5 0.0000 0.0000 0.0000 0.0000 21.8433 0.0000
# 6 0.0000 0.0000 0.0000 0.0000 0.0000 16.2388
#
#
#
# Elastic Compliance Matrix: (Units=1/GPa)
#
#
# Indices 1 2 3 4 5 6 
#
# 1 0.016170 -0.002282 -0.004531 0.000000 0.000000 0.000000
# 2 -0.002282 0.017194 -0.007407 0.000000 0.000000 0.000000
# 3 -0.004531 -0.007407 0.013024 0.000000 0.000000 0.000000
# 4 0.000000 0.000000 0.000000 0.018215 0.000000 0.000000
# 5 0.000000 0.000000 0.000000 0.000000 0.045781 0.000000
# 6 0.000000 0.000000 0.000000 0.000000 0.000000 0.061581
#
#
# Mechanical properties :
#
#
# Convention : Reuss Voigt Hill
#
# Bulk Modulus (GPa) = 55.71268 62.15637 58.93452
# Shear Modulus (GPa) = 24.22635 29.20660 26.71648
#
# Velocity S-wave (km/s) = 3.50297 3.84621 3.67860
# Velocity P-wave (km/s) = 6.67682 7.15591 6.92051
#
# Compressibility (1/GPa) = 0.01794924
#
# Stress axis : x y z
#
# Youngs Moduli (GPa) = 61.84396 58.15868 76.78094
#
# Poissons Ratio (x) = 0.13271 0.34789
# Poissons Ratio (y) = 0.14112 0.56869
# Poissons Ratio (z) = 0.28021 0.43076
#
# Static dielectric constant tensor:
#      x y z
#    x 3.354320 0.000000 0.000000 
#    y 0.000000 3.723930 0.000000 
#    z 0.000000 0.000000 3.793930 
# 
# 
# High freq. dielectric constant tensor:
#      x y z
#    x 1.745530 0.000000 0.000000 
#    y 0.000000 1.775280 0.000000 
#    z 0.000000 0.000000 1.783450 
# 
# From -- ./inp_files/7270.got.cif
#   From: 2010.03.12/outbox.cif.g09.slc.cpg/sg20_4_cif.got.tgz:7270.got - 2010.04.14 01:38:04.
