data_PCOD8158034
_publ_section_title
;
Structure prediction by ZEFSAII (Michael W. Deem and Ramdas Pophale) SiO2 
 PCOD8158034
Probable space group: C 2 2 21
;
_chemical_formula_sum "Si O2"
_cell_formula_units_Z 40
_cell_length_a 24.382169
_cell_length_b 7.606572
_cell_length_c 8.930542
_cell_angle_alpha 90.000000
_cell_angle_beta 90.000000
_cell_angle_gamma 90.000000
_cell_volume 1656.300507
_symmetry_space_group_name_H-M "C 2 2 21"
_symmetry_group_IT_number 20
_symmetry_cell_setting 'orthorhombic'
loop_
_space_group_symop_operation_xyz
x,y,z
-x,-y,1/2+z
x,-y,-z
-x,y,1/2-z
1/2+x,1/2+y,z
1/2-x,1/2-y,1/2+z
1/2+x,1/2-y,-z
1/2-x,1/2+y,1/2-z
loop_
_atom_site_type_symbol
_atom_site_label
_atom_site_fract_x
_atom_site_fract_y
_atom_site_fract_z
Si Si1 0.148503 0.328633 0.390784
Si Si2 0.054282 0.315936 0.171282
Si Si3 0.834483 0.152815 0.823642
Si Si4 0.253945 0.970174 0.827104
Si Si5 0.944994 0.733807 0.336256
O O1 0.133280 0.500000 0.500000
O O2 0.103554 0.257851 0.276863
O O3 0.155203 0.159387 0.498686
O O4 0.202517 0.371505 0.293870
O O5 0.057172 0.524913 0.165869
O O6 0.000000 0.247257 0.250000
O O7 0.055524 0.216547 0.011917
O O8 0.802343 0.976495 0.770648
O O9 0.788174 0.298052 0.784344
O O10 0.891393 0.181296 0.737033
O O11 0.237243 0.000000 0.000000
O O12 0.000000 0.799808 0.250000
#
# Coordination Sequence:
#
# PCOD8158034 Si02
#       5
#     8   8   8   8   8
#     4   9  17  33  47  73 114 151 184 235 292 350
#     4  10  18  27  48  78 118 148 188 249 301 349
#     4  10  19  37  58  80 119 155 195 242 300 360
#     4   9  20  36  54  85 116 156 193 245 293 356
#     4  10  19  30  52  84 115 151 194 245 304 348
#
# _framework density 24.150207000000002
#
# number of rings (size 3 to 8) (size 9 to 14) (size 15 to 20)
#    0.000    2.800    4.000    1.200    2.800    3.200 
#    0.000    0.000    0.000    0.000    0.000   12.600 
#    0.000    0.000    0.000    0.200    0.000    0.000 
#
# Total GULP energy -247765.858205 kJ/mol
# GULP energy per Si atom -12388.292910 kJ/mol
# Density = 2.409524 g / cm^3
# Si number density = 24.150207 Si / 1000 Ang^3
#
#
#
# Elastic Constant Matrix: (Units=GPa)
#
#
# Indices 1 2 3 4 5 6 
#
# 1 202.2028 0.2407 100.0864 0.0000 0.0000 0.0000
# 2 0.2407 21.9058 -9.9378 0.0000 0.0000 0.0000
# 3 100.0864 -9.9378 136.9401 0.0000 0.0000 0.0000
# 4 0.0000 0.0000 0.0000 9.4745 0.0000 0.0000
# 5 0.0000 0.0000 0.0000 0.0000 55.3521 0.0000
# 6 0.0000 0.0000 0.0000 0.0000 0.0000 16.8763
#
#
#
# Elastic Compliance Matrix: (Units=1/GPa)
#
#
# Indices 1 2 3 4 5 6 
#
# 1 0.007912 -0.002803 -0.005986 0.000000 0.000000 0.000000
# 2 -0.002803 0.048197 0.005546 0.000000 0.000000 0.000000
# 3 -0.005986 0.005546 0.012080 0.000000 0.000000 0.000000
# 4 0.000000 0.000000 0.000000 0.105547 0.000000 0.000000
# 5 0.000000 0.000000 0.000000 0.000000 0.018066 0.000000
# 6 0.000000 0.000000 0.000000 0.000000 0.000000 0.059255
#
#
# Mechanical properties :
#
#
# Convention : Reuss Voigt Hill
#
# Bulk Modulus (GPa) = 16.20651 60.20303 38.20477
# Shear Modulus (GPa) = 17.97859 34.38454 26.18156
#
# Velocity S-wave (km/s) = 2.73142 3.77739 3.29616
# Velocity P-wave (km/s) = 4.08324 6.63382 5.50819
#
# Compressibility (1/GPa) = 0.06170359
#
# Stress axis : x y z
#
# Youngs Moduli (GPa) = 126.39384 20.74825 82.78204
#
# Poissons Ratio (x) = 0.05815 0.49553
# Poissons Ratio (y) = 0.35422 -0.45911
# Poissons Ratio (z) = 0.75658 -0.11507
#
# Static dielectric constant tensor:
#      x y z
#    x 4.468940 0.000000 0.000000 
#    y 0.000000 3.997140 0.000000 
#    z 0.000000 0.000000 4.521830 
# 
# 
# High freq. dielectric constant tensor:
#      x y z
#    x 1.967600 0.000000 0.000000 
#    y 0.000000 1.949440 0.000000 
#    z 0.000000 0.000000 1.960130 
# 
# From -- ./inp_files/10514.got.cif
#   From: 2010.03.12/outbox.cif.g09.slc.cpg/sg20_6_cif.got.tgz:10514.got - 2010.04.14 01:38:04.
