data_PCOD8158522
_publ_section_title
;
Structure prediction by ZEFSAII (Michael W. Deem and Ramdas Pophale) SiO2 
 PCOD8158522
Probable space group: C 2 2 21
;
_chemical_formula_sum "Si O2"
_cell_formula_units_Z 40
_cell_length_a 21.527969
_cell_length_b 10.856164
_cell_length_c 7.624034
_cell_angle_alpha 90.000000
_cell_angle_beta 90.000000
_cell_angle_gamma 90.000000
_cell_volume 1781.821846
_symmetry_space_group_name_H-M "C 2 2 21"
_symmetry_group_IT_number 20
_symmetry_cell_setting 'orthorhombic'
loop_
_space_group_symop_operation_xyz
x,y,z
-x,-y,1/2+z
x,-y,-z
-x,y,1/2-z
1/2+x,1/2+y,z
1/2-x,1/2-y,1/2+z
1/2+x,1/2-y,-z
1/2-x,1/2+y,1/2-z
loop_
_atom_site_type_symbol
_atom_site_label
_atom_site_fract_x
_atom_site_fract_y
_atom_site_fract_z
Si Si1 0.832407 0.186610 0.196036
Si Si2 0.079076 0.000000 0.500000
Si Si3 0.782442 0.367343 0.916230
Si Si4 0.066085 0.362270 0.301113
Si Si5 0.091295 0.633294 0.284471
Si Si6 0.000000 0.830173 0.250000
O O1 0.786619 0.130128 0.339998
O O2 0.878788 0.283787 0.288759
O O3 0.875062 0.077321 0.122277
O O4 0.789519 0.255090 0.052370
O O5 0.031935 0.912448 0.396850
O O6 0.834478 0.348980 0.763561
O O7 0.797031 0.500000 0.000000
O O8 0.069522 0.499373 0.220359
O O9 0.075860 0.352473 0.508957
O O10 0.000000 0.303811 0.250000
O O11 0.053949 0.737706 0.175184
#
# Coordination Sequence:
#
# PCOD8158522 Si02
#       6
#     8   4   8   8   8   4
#     4  11  26  45  68 104 143 188 232 290 353 421
#     4  12  28  46  68 100 156 182 232 290 354 438
#     4  11  23  48  74  97 139 188 239 290 343 419
#     4  10  19  40  68  98 131 167 228 299 335 404
#     4  10  20  42  73  92 129 176 235 287 342 403
#     4  12  24  48  70 100 140 190 226 292 360 416
#
# _framework density 22.448934000000001
#
# number of rings (size 3 to 8) (size 9 to 14) (size 15 to 20)
#    0.000    1.200    9.000    0.000    4.200    0.000 
#   12.600    0.000    0.000    0.000    0.000    0.000 
#    0.000    0.000    0.000    0.000    0.000    0.000 
#
# Total GULP energy -247900.489489 kJ/mol
# GULP energy per Si atom -12395.024474 kJ/mol
# Density = 2.239784 g / cm^3
# Si number density = 22.448934 Si / 1000 Ang^3
#
#
#
# Elastic Constant Matrix: (Units=GPa)
#
#
# Indices 1 2 3 4 5 6 
#
# 1 198.6669 71.5894 45.0755 0.0000 0.0000 0.0000
# 2 71.5894 149.9914 24.4439 0.0000 0.0000 0.0000
# 3 45.0755 24.4439 26.1357 0.0000 0.0000 0.0000
# 4 0.0000 0.0000 0.0000 14.4208 0.0000 0.0000
# 5 0.0000 0.0000 0.0000 0.0000 50.4809 0.0000
# 6 0.0000 0.0000 0.0000 0.0000 0.0000 34.7181
#
#
#
# Elastic Compliance Matrix: (Units=1/GPa)
#
#
# Indices 1 2 3 4 5 6 
#
# 1 0.008763 -0.002029 -0.013216 0.000000 0.000000 0.000000
# 2 -0.002029 0.008336 -0.004297 0.000000 0.000000 0.000000
# 3 -0.013216 -0.004297 0.065075 0.000000 0.000000 0.000000
# 4 0.000000 0.000000 0.000000 0.069344 0.000000 0.000000
# 5 0.000000 0.000000 0.000000 0.000000 0.019809 0.000000
# 6 0.000000 0.000000 0.000000 0.000000 0.000000 0.028803
#
#
# Mechanical properties :
#
#
# Convention : Reuss Voigt Hill
#
# Bulk Modulus (GPa) = 23.20773 73.00129 48.10451
# Shear Modulus (GPa) = 19.71779 35.50296 27.61038
#
# Velocity S-wave (km/s) = 2.96689 3.98112 3.51083
# Velocity P-wave (km/s) = 4.70075 7.32952 6.15707
#
# Compressibility (1/GPa) = 0.04308909
#
# Stress axis : x y z
#
# Youngs Moduli (GPa) = 114.11290 119.96655 15.36700
#
# Poissons Ratio (x) = 0.24338 0.20309
# Poissons Ratio (y) = 0.23151 0.06603
# Poissons Ratio (z) = 1.50815 0.51551
#
# Static dielectric constant tensor:
#      x y z
#    x 4.453980 0.000000 0.000000 
#    y 0.000000 4.411120 0.000000 
#    z 0.000000 0.000000 3.545280 
# 
# 
# High freq. dielectric constant tensor:
#      x y z
#    x 1.910610 0.000000 0.000000 
#    y 0.000000 1.900240 0.000000 
#    z 0.000000 0.000000 1.832450 
# 
# From -- ./inp_files/10012.got.cif
#   From: 2010.03.12/outbox.cif.g09.slc.cpg/sg20_6_cif.got.tgz:10012.got - 2010.04.14 01:38:04.
