data_PCOD8158983
_publ_section_title
;
Structure prediction by ZEFSAII (Michael W. Deem and Ramdas Pophale) SiO2 
 PCOD8158983
Probable space group: C 2 2 21
;
_chemical_formula_sum "Si O2"
_cell_formula_units_Z 60
_cell_length_a 17.576333
_cell_length_b 13.038190
_cell_length_c 11.772843
_cell_angle_alpha 90.000000
_cell_angle_beta 90.000000
_cell_angle_gamma 90.000000
_cell_volume 2697.906721
_symmetry_space_group_name_H-M "C 2 2 21"
_symmetry_group_IT_number 20
_symmetry_cell_setting 'orthorhombic'
loop_
_space_group_symop_operation_xyz
x,y,z
-x,-y,1/2+z
x,-y,-z
-x,y,1/2-z
1/2+x,1/2+y,z
1/2-x,1/2-y,1/2+z
1/2+x,1/2-y,-z
1/2-x,1/2+y,1/2-z
loop_
_atom_site_type_symbol
_atom_site_label
_atom_site_fract_x
_atom_site_fract_y
_atom_site_fract_z
Si Si1 0.985590 0.500000 0.000000
Si Si2 0.676193 0.309463 0.617058
Si Si3 0.271786 0.690804 0.883970
Si Si4 0.026607 0.303290 0.373014
Si Si5 0.721041 0.090220 0.303231
Si Si6 0.219793 0.883807 0.136979
Si Si7 0.622565 0.749074 0.002891
Si Si8 0.073266 0.396483 0.815504
O O1 0.942112 0.396447 0.043094
O O2 0.041579 0.515197 0.105000
O O3 0.684271 0.359245 0.491377
O O4 0.588933 0.285401 0.646735
O O5 0.715398 0.384706 0.707503
O O6 0.716543 0.199595 0.610927
O O7 0.298023 0.808863 0.874236
O O8 0.296150 0.626084 0.773285
O O9 0.180738 0.695202 0.909350
O O10 0.958245 0.243446 0.436148
O O11 0.000000 0.345484 0.250000
O O12 0.638146 0.050696 0.261488
O O13 0.753388 0.000481 0.383614
O O14 0.151258 0.861139 0.046860
O O15 0.618098 0.810925 0.885257
O O16 0.000000 0.348882 0.750000
#
# Coordination Sequence:
#
# PCOD8158983 Si02
#       8
#     4   8   8   8   8   8   8   8
#     4  10  26  34  60 100 134 172 210 258 336 406
#     4  10  23  40  60  97 122 173 219 265 331 396
#     4  10  20  41  61  90 126 168 217 262 333 388
#     4  11  23  40  64  89 138 174 215 266 334 404
#     4  11  23  39  67  94 130 169 221 277 326 406
#     4  10  22  38  66  92 130 168 220 272 330 391
#     4  10  22  42  61  94 127 180 214 275 329 389
#     4  11  23  39  59  95 140 168 211 266 340 404
#
# _framework density 22.239464000000002
#
# number of rings (size 3 to 8) (size 9 to 14) (size 15 to 20)
#    0.000    1.600    4.000    2.000   11.200    2.667 
#    0.000    0.000    0.000   12.000    0.000    0.000 
#    0.000    0.000    0.000    0.000    0.000    0.000 
#
# Total GULP energy -371645.074919 kJ/mol
# GULP energy per Si atom -12388.169164 kJ/mol
# Density = 2.218885 g / cm^3
# Si number density = 22.239464 Si / 1000 Ang^3
#
#
#
# Elastic Constant Matrix: (Units=GPa)
#
#
# Indices 1 2 3 4 5 6 
#
# 1 100.5082 15.6125 23.3180 0.0000 0.0000 0.0000
# 2 15.6125 49.5229 -7.3700 0.0000 0.0000 0.0000
# 3 23.3180 -7.3700 88.7888 0.0000 0.0000 0.0000
# 4 0.0000 0.0000 0.0000 5.4616 0.0000 0.0000
# 5 0.0000 0.0000 0.0000 0.0000 43.5713 0.0000
# 6 0.0000 0.0000 0.0000 0.0000 0.0000 13.0663
#
#
#
# Elastic Compliance Matrix: (Units=1/GPa)
#
#
# Indices 1 2 3 4 5 6 
#
# 1 0.011352 -0.004073 -0.003319 0.000000 0.000000 0.000000
# 2 -0.004073 0.021907 0.002888 0.000000 0.000000 0.000000
# 3 -0.003319 0.002888 0.012374 0.000000 0.000000 0.000000
# 4 0.000000 0.000000 0.000000 0.183097 0.000000 0.000000
# 5 0.000000 0.000000 0.000000 0.000000 0.022951 0.000000
# 6 0.000000 0.000000 0.000000 0.000000 0.000000 0.076533
#
#
# Mechanical properties :
#
#
# Convention : Reuss Voigt Hill
#
# Bulk Modulus (GPa) = 27.30429 33.54898 30.42664
# Shear Modulus (GPa) = 14.30900 26.23713 20.27306
#
# Velocity S-wave (km/s) = 2.53930 3.43848 3.02251
# Velocity P-wave (km/s) = 4.57181 5.55719 5.08841
#
# Compressibility (1/GPa) = 0.03662428
#
# Stress axis : x y z
#
# Youngs Moduli (GPa) = 88.08857 45.64855 80.81353
#
# Poissons Ratio (x) = 0.18592 0.26825
# Poissons Ratio (y) = 0.35877 -0.23339
# Poissons Ratio (z) = 0.29240 -0.13183
#
# Static dielectric constant tensor:
#      x y z
#    x 3.918500 0.000000 0.000000 
#    y 0.000000 3.459430 0.000000 
#    z 0.000000 0.000000 4.930630 
# 
# 
# High freq. dielectric constant tensor:
#      x y z
#    x 1.858330 0.000000 0.000000 
#    y 0.000000 1.837100 0.000000 
#    z 0.000000 0.000000 1.905650 
# 
# From -- ./inp_files/15882.got.cif
#   From: 2010.03.12/outbox.cif.g09.slc.cpg/sg20_8_cif.got.tgz:15882.got - 2010.04.14 01:38:04.
