data_PCOD8158382
_publ_section_title
;
Structure prediction by ZEFSAII (Michael W. Deem and Ramdas Pophale) SiO2 
 PCOD8158382
Probable space group: C 2 2 21
;
_chemical_formula_sum "Si O2"
_cell_formula_units_Z 60
_cell_length_a 28.651774
_cell_length_b 8.424304
_cell_length_c 12.908861
_cell_angle_alpha 90.000000
_cell_angle_beta 90.000000
_cell_angle_gamma 90.000000
_cell_volume 3115.827971
_symmetry_space_group_name_H-M "C 2 2 21"
_symmetry_group_IT_number 20
_symmetry_cell_setting 'orthorhombic'
loop_
_space_group_symop_operation_xyz
x,y,z
-x,-y,1/2+z
x,-y,-z
-x,y,1/2-z
1/2+x,1/2+y,z
1/2-x,1/2-y,1/2+z
1/2+x,1/2-y,-z
1/2-x,1/2+y,1/2-z
loop_
_atom_site_type_symbol
_atom_site_label
_atom_site_fract_x
_atom_site_fract_y
_atom_site_fract_z
Si Si1 0.794119 0.055286 0.703123
Si Si2 0.648782 0.500000 0.000000
Si Si3 0.143211 0.321720 0.734385
Si Si4 0.526810 0.598588 0.900471
Si Si5 0.696420 0.936582 0.392335
Si Si6 0.658350 0.597132 0.394945
Si Si7 0.402887 0.166563 0.441584
Si Si8 0.072857 0.056203 0.686655
O O1 0.810333 0.233411 0.726769
O O2 0.738761 0.068366 0.688702
O O3 0.819941 0.980895 0.602833
O O4 0.806157 0.952854 0.804097
O O5 0.620632 0.329861 0.011100
O O6 0.155288 0.456929 0.653593
O O7 0.119735 0.393060 0.835681
O O8 0.107795 0.203561 0.676778
O O9 0.543369 0.780723 0.918616
O O10 0.556306 0.524212 0.804443
O O11 0.471703 0.591653 0.884090
O O12 0.541442 0.500000 0.000000
O O13 0.671203 0.774837 0.420521
O O14 0.716950 0.000000 0.500000
O O15 0.666783 0.500000 0.500000
O O16 0.603890 0.589531 0.356885
O O17 0.401342 0.000000 0.500000
#
# Coordination Sequence:
#
# PCOD8158382 Si02
#       8
#     8   4   8   8   8   8   8   8
#     4  10  21  41  61  85 119 161 209 252 312 368
#     4  10  20  40  64  88 126 166 192 262 322 360
#     4   9  21  39  57  85 122 162 199 252 318 363
#     4  10  19  35  64  89 118 158 205 255 312 368
#     4  12  23  38  60  88 122 160 208 263 305 366
#     4  11  24  40  62  86 121 167 208 245 309 386
#     4  10  21  36  62  95 124 154 206 258 318 374
#     4   9  20  40  59  84 121 164 198 250 307 372
#
# _framework density 19.256519000000001
#
# number of rings (size 3 to 8) (size 9 to 14) (size 15 to 20)
#    0.000    1.867    1.333    3.600    1.867    0.000 
#    0.000    6.667    0.000    3.200    0.000    0.000 
#    0.000    0.000    0.000    0.000    0.000    0.000 
#
# Total GULP energy -371693.044869 kJ/mol
# GULP energy per Si atom -12389.768162 kJ/mol
# Density = 1.921269 g / cm^3
# Si number density = 19.256519 Si / 1000 Ang^3
#
#
#
# Elastic Constant Matrix: (Units=GPa)
#
#
# Indices 1 2 3 4 5 6 
#
# 1 120.6696 51.7521 35.4786 0.0000 0.0000 0.0000
# 2 51.7521 101.9307 48.2537 0.0000 0.0000 0.0000
# 3 35.4786 48.2537 113.3297 0.0000 0.0000 0.0000
# 4 0.0000 0.0000 0.0000 31.9509 0.0000 0.0000
# 5 0.0000 0.0000 0.0000 0.0000 14.9576 0.0000
# 6 0.0000 0.0000 0.0000 0.0000 0.0000 7.5890
#
#
#
# Elastic Compliance Matrix: (Units=1/GPa)
#
#
# Indices 1 2 3 4 5 6 
#
# 1 0.010746 -0.004838 -0.001304 0.000000 0.000000 0.000000
# 2 -0.004838 0.014466 -0.004645 0.000000 0.000000 0.000000
# 3 -0.001304 -0.004645 0.011210 0.000000 0.000000 0.000000
# 4 0.000000 0.000000 0.000000 0.031298 0.000000 0.000000
# 5 0.000000 0.000000 0.000000 0.000000 0.066856 0.000000
# 6 0.000000 0.000000 0.000000 0.000000 0.000000 0.131769
#
#
# Mechanical properties :
#
#
# Convention : Reuss Voigt Hill
#
# Bulk Modulus (GPa) = 67.35275 67.43321 67.39298
# Shear Modulus (GPa) = 17.07259 24.26253 20.66756
#
# Velocity S-wave (km/s) = 2.98079 3.55345 3.27964
# Velocity P-wave (km/s) = 6.84831 7.20627 7.02957
#
# Compressibility (1/GPa) = 0.01484720
#
# Stress axis : x y z
#
# Youngs Moduli (GPa) = 93.06193 69.12805 89.20950
#
# Poissons Ratio (x) = 0.33447 0.11631
# Poissons Ratio (y) = 0.45028 0.41434
# Poissons Ratio (z) = 0.12134 0.32107
#
# Static dielectric constant tensor:
#      x y z
#    x 3.650050 0.000000 0.000000 
#    y 0.000000 3.375140 0.000000 
#    z 0.000000 0.000000 3.697680 
# 
# 
# High freq. dielectric constant tensor:
#      x y z
#    x 1.753360 0.000000 0.000000 
#    y 0.000000 1.728790 0.000000 
#    z 0.000000 0.000000 1.765860 
# 
# From -- ./inp_files/17064.got.cif
#   From: 2010.03.12/outbox.cif.g09.slc.cpg/sg20_9_cif.got.tgz:17064.got - 2010.04.14 01:38:04.
