data_PCOD8158790
_publ_section_title
;
Structure prediction by ZEFSAII (Michael W. Deem and Ramdas Pophale) SiO2 
 PCOD8158790
Probable space group: C 2 2 21
;
_chemical_formula_sum "Si O2"
_cell_formula_units_Z 44
_cell_length_a 17.543850
_cell_length_b 14.203692
_cell_length_c 9.373176
_cell_angle_alpha 90.000000
_cell_angle_beta 90.000000
_cell_angle_gamma 90.000000
_cell_volume 2335.677750
_symmetry_space_group_name_H-M "C 2 2 21"
_symmetry_group_IT_number 20
_symmetry_cell_setting 'orthorhombic'
loop_
_space_group_symop_operation_xyz
x,y,z
-x,-y,1/2+z
x,-y,-z
-x,y,1/2-z
1/2+x,1/2+y,z
1/2-x,1/2-y,1/2+z
1/2+x,1/2-y,-z
1/2-x,1/2+y,1/2-z
loop_
_atom_site_type_symbol
_atom_site_label
_atom_site_fract_x
_atom_site_fract_y
_atom_site_fract_z
Si Si1 0.098497 0.107827 0.479770
Si Si2 0.954295 0.161741 0.603811
Si Si3 0.226658 0.933753 0.733068
Si Si4 0.186700 0.278412 0.902866
Si Si5 0.769925 0.145859 0.829385
Si Si6 0.650265 0.500000 0.000000
O O1 0.153256 0.115307 0.342792
O O2 0.143249 0.152393 0.614748
O O3 0.016875 0.161865 0.474031
O O4 0.076240 0.000000 0.500000
O O5 0.903465 0.255887 0.590540
O O6 0.000000 0.154896 0.750000
O O7 0.899921 0.070025 0.595433
O O8 0.299467 0.867952 0.701218
O O9 0.251014 0.035501 0.671888
O O10 0.205359 0.938208 0.898900
O O11 0.232389 0.190986 0.828645
O O12 0.214491 0.297810 0.063515
#
# Coordination Sequence:
#
# PCOD8158790 Si02
#       6
#     8   8   8   8   8   4
#     4   9  17  34  55  77 118 143 175 242 305 348
#     4  12  21  33  55  89 117 149 191 241 305 363
#     4  10  22  38  57  86 119 158 197 242 293 350
#     4  11  21  35  59  85 115 156 198 237 289 357
#     4  10  20  38  56  87 114 154 199 240 292 355
#     4  12  22  34  58  88 122 158 188 238 310 364
#
# _framework density 18.838215999999999
#
# number of rings (size 3 to 8) (size 9 to 14) (size 15 to 20)
#    0.000    1.455    4.545    3.818    0.000    0.000 
#    0.000    0.000    0.000    0.000   23.636    0.000 
#    0.000    0.000    0.000    0.000    0.000    0.000 
#
# Total GULP energy -272638.971447 kJ/mol
# GULP energy per Si atom -12392.680520 kJ/mol
# Density = 1.879534 g / cm^3
# Si number density = 18.838216 Si / 1000 Ang^3
#
#
#
# Elastic Constant Matrix: (Units=GPa)
#
#
# Indices 1 2 3 4 5 6 
#
# 1 108.3864 64.4769 45.3753 0.0000 0.0000 0.0000
# 2 64.4769 89.5058 28.0585 0.0000 0.0000 0.0000
# 3 45.3753 28.0585 90.0991 0.0000 0.0000 0.0000
# 4 0.0000 0.0000 0.0000 32.9639 0.0000 0.0000
# 5 0.0000 0.0000 0.0000 0.0000 27.1497 0.0000
# 6 0.0000 0.0000 0.0000 0.0000 0.0000 42.0333
#
#
#
# Elastic Compliance Matrix: (Units=1/GPa)
#
#
# Indices 1 2 3 4 5 6 
#
# 1 0.018467 -0.011511 -0.005715 0.000000 0.000000 0.000000
# 2 -0.011511 0.019557 -0.000293 0.000000 0.000000 0.000000
# 3 -0.005715 -0.000293 0.014069 0.000000 0.000000 0.000000
# 4 0.000000 0.000000 0.000000 0.030336 0.000000 0.000000
# 5 0.000000 0.000000 0.000000 0.000000 0.036833 0.000000
# 6 0.000000 0.000000 0.000000 0.000000 0.000000 0.023791
#
#
# Mechanical properties :
#
#
# Convention : Reuss Voigt Hill
#
# Bulk Modulus (GPa) = 58.64193 62.64585 60.64389
# Shear Modulus (GPa) = 27.20726 30.43476 28.82101
#
# Velocity S-wave (km/s) = 3.80446 4.02380 3.91567
# Velocity P-wave (km/s) = 7.10601 7.41045 7.25983
#
# Compressibility (1/GPa) = 0.01705265
#
# Stress axis : x y z
#
# Youngs Moduli (GPa) = 54.15173 51.13389 71.08075
#
# Poissons Ratio (x) = 0.58860 0.40625
# Poissons Ratio (y) = 0.62334 0.02083
# Poissons Ratio (z) = 0.30949 0.01499
#
# Static dielectric constant tensor:
#      x y z
#    x 3.529440 0.000000 0.000000 
#    y 0.000000 3.476490 0.000000 
#    z 0.000000 0.000000 3.504220 
# 
# 
# High freq. dielectric constant tensor:
#      x y z
#    x 1.709050 0.000000 0.000000 
#    y 0.000000 1.715300 0.000000 
#    z 0.000000 0.000000 1.738360 
# 
# From -- ./inp_files/9263.got.cif
#   From: 2010.03.12/outbox.cif.g09.slc.cpg/sg20_5_cif.got.tgz:9263.got - 2010.04.14 01:38:04.
