data_PCOD8158172
_publ_section_title
;
Structure prediction by ZEFSAII (Michael W. Deem and Ramdas Pophale) SiO2 
 PCOD8158172
Probable space group: C 2 2 21
;
_chemical_formula_sum "Si O2"
_cell_formula_units_Z 40
_cell_length_a 8.958643
_cell_length_b 16.929054
_cell_length_c 13.505567
_cell_angle_alpha 90.000000
_cell_angle_beta 90.000000
_cell_angle_gamma 90.000000
_cell_volume 2048.272539
_symmetry_space_group_name_H-M "C 2 2 21"
_symmetry_group_IT_number 20
_symmetry_cell_setting 'orthorhombic'
loop_
_space_group_symop_operation_xyz
x,y,z
-x,-y,1/2+z
x,-y,-z
-x,y,1/2-z
1/2+x,1/2+y,z
1/2-x,1/2-y,1/2+z
1/2+x,1/2-y,-z
1/2-x,1/2+y,1/2-z
loop_
_atom_site_type_symbol
_atom_site_label
_atom_site_fract_x
_atom_site_fract_y
_atom_site_fract_z
Si Si1 0.232939 0.152287 0.378634
Si Si2 0.270443 0.033117 0.775014
Si Si3 0.405636 0.184979 0.845882
Si Si4 0.000000 0.939971 0.750000
Si Si5 0.634953 0.925619 0.057640
Si Si6 0.000000 0.588235 0.250000
O O1 0.190010 0.244049 0.391306
O O2 0.093353 0.113260 0.324298
O O3 0.241431 0.115037 0.487422
O O4 0.389967 0.141805 0.317925
O O5 0.398683 0.972753 0.815281
O O6 0.112837 0.997519 0.808489
O O7 0.283294 0.119722 0.818401
O O8 0.286087 0.039179 0.655370
O O9 0.500000 0.212438 0.750000
O O10 0.515352 0.143811 0.924232
O O11 0.562181 0.000000 0.000000
#
# Coordination Sequence:
#
# PCOD8158172 Si02
#       6
#     8   8   8   4   8   4
#     4  11  22  39  61  93 123 158 202 261 303 355
#     4  10  19  39  64  86 115 165 202 241 306 372
#     4  10  21  40  60  86 122 159 195 248 311 365
#     4  10  20  34  66  90 118 154 204 248 298 358
#     4  11  19  39  64  83 119 161 207 243 299 369
#     4  10  18  36  66  82 112 168 202 228 312 374
#
# _framework density 19.528651
#
# number of rings (size 3 to 8) (size 9 to 14) (size 15 to 20)
#    0.000    1.600    8.000    0.000    0.000    0.800 
#   10.800    2.000    8.800    0.000    0.000    0.000 
#    0.000    0.000    0.000    0.000    0.000    0.000 
#
# Total GULP energy -247820.388864 kJ/mol
# GULP energy per Si atom -12391.019443 kJ/mol
# Density = 1.948420 g / cm^3
# Si number density = 19.528651 Si / 1000 Ang^3
#
#
#
# Elastic Constant Matrix: (Units=GPa)
#
#
# Indices 1 2 3 4 5 6 
#
# 1 127.5568 57.3758 34.1868 0.0000 0.0000 0.0000
# 2 57.3758 136.4142 40.1513 0.0000 0.0000 0.0000
# 3 34.1868 40.1513 85.4973 0.0000 0.0000 0.0000
# 4 0.0000 0.0000 0.0000 21.5773 0.0000 0.0000
# 5 0.0000 0.0000 0.0000 0.0000 14.7012 0.0000
# 6 0.0000 0.0000 0.0000 0.0000 0.0000 29.0314
#
#
#
# Elastic Compliance Matrix: (Units=1/GPa)
#
#
# Indices 1 2 3 4 5 6 
#
# 1 0.010064 -0.003537 -0.002363 0.000000 0.000000 0.000000
# 2 -0.003537 0.009750 -0.003164 0.000000 0.000000 0.000000
# 3 -0.002363 -0.003164 0.014127 0.000000 0.000000 0.000000
# 4 0.000000 0.000000 0.000000 0.046345 0.000000 0.000000
# 5 0.000000 0.000000 0.000000 0.000000 0.068022 0.000000
# 6 0.000000 0.000000 0.000000 0.000000 0.000000 0.034445
#
#
# Mechanical properties :
#
#
# Convention : Reuss Voigt Hill
#
# Bulk Modulus (GPa) = 63.24414 68.09957 65.67185
# Shear Modulus (GPa) = 24.25383 27.57894 25.91639
#
# Velocity S-wave (km/s) = 3.52797 3.76204 3.64688
# Velocity P-wave (km/s) = 7.00365 7.33607 7.17178
#
# Compressibility (1/GPa) = 0.01581174
#
# Stress axis : x y z
#
# Youngs Moduli (GPa) = 99.36289 102.56602 70.78590
#
# Poissons Ratio (x) = 0.36282 0.16726
# Poissons Ratio (y) = 0.35149 0.22398
# Poissons Ratio (z) = 0.23479 0.32454
#
# Static dielectric constant tensor:
#      x y z
#    x 3.609020 0.000000 0.000000 
#    y 0.000000 3.709120 0.000000 
#    z 0.000000 0.000000 3.461530 
# 
# 
# High freq. dielectric constant tensor:
#      x y z
#    x 1.751980 0.000000 0.000000 
#    y 0.000000 1.775880 0.000000 
#    z 0.000000 0.000000 1.735450 
# 
# From -- ./inp_files/12779.got.cif
#   From: 2010.03.12/outbox.cif.g09.slc.cpg/sg20_7_cif.got.tgz:12779.got - 2010.04.14 01:38:04.
