data_PCOD8158531
_publ_section_title
;
Structure prediction by ZEFSAII (Michael W. Deem and Ramdas Pophale) SiO2 
 PCOD8158531
Probable space group: C 2 2 21
;
_chemical_formula_sum "Si O2"
_cell_formula_units_Z 64
_cell_length_a 11.679066
_cell_length_b 11.011381
_cell_length_c 24.205826
_cell_angle_alpha 90.000000
_cell_angle_beta 90.000000
_cell_angle_gamma 90.000000
_cell_volume 3112.933259
_symmetry_space_group_name_H-M "C 2 2 21"
_symmetry_group_IT_number 20
_symmetry_cell_setting 'orthorhombic'
loop_
_space_group_symop_operation_xyz
x,y,z
-x,-y,1/2+z
x,-y,-z
-x,y,1/2-z
1/2+x,1/2+y,z
1/2-x,1/2-y,1/2+z
1/2+x,1/2-y,-z
1/2-x,1/2+y,1/2-z
loop_
_atom_site_type_symbol
_atom_site_label
_atom_site_fract_x
_atom_site_fract_y
_atom_site_fract_z
Si Si1 0.931280 0.664564 0.660762
Si Si2 0.934374 0.560056 0.195202
Si Si3 0.344805 0.309111 0.851013
Si Si4 0.233262 0.630695 0.935177
Si Si5 0.426776 0.454545 0.199783
Si Si6 0.719424 0.860462 0.260859
Si Si7 0.318668 0.154360 0.443691
Si Si8 0.039900 0.230376 0.614315
O O1 0.835419 0.687861 0.615242
O O2 0.881999 0.688368 0.721652
O O3 0.983141 0.529330 0.660101
O O4 0.026849 0.762701 0.647546
O O5 0.817911 0.490120 0.212784
O O6 0.902160 0.667430 0.153251
O O7 0.000000 0.608581 0.250000
O O8 0.350332 0.449593 0.833707
O O9 0.263899 0.239566 0.807917
O O10 0.286525 0.287728 0.910100
O O11 0.199394 0.489478 0.937192
O O12 0.366575 0.666385 0.925887
O O13 0.193279 0.692442 0.992491
O O14 0.500000 0.512802 0.250000
O O15 0.336426 0.363983 0.227647
O O16 0.503419 0.376600 0.156327
O O17 0.438188 0.209190 0.421101
#
# Coordination Sequence:
#
# PCOD8158531 Si02
#       8
#     8   8   8   8   8   8   8   8
#     4  10  19  42  64  93 126 179 219 267 337 408
#     4   9  20  35  64  95 129 168 212 264 331 404
#     4  11  23  40  63  95 137 173 216 278 338 397
#     4  11  24  45  69  95 123 179 229 279 342 396
#     4  12  24  36  60  99 138 173 217 268 339 415
#     4  10  21  38  63  93 136 176 214 266 340 410
#     4  11  25  45  68  91 136 176 226 289 334 405
#     4  12  23  41  69  99 128 173 229 274 338 413
#
# _framework density 20.559387000000001
#
# number of rings (size 3 to 8) (size 9 to 14) (size 15 to 20)
#    0.000    1.250    3.750    3.000    5.250    1.000 
#    0.000    0.000    0.000    3.000    0.000    0.000 
#    0.000    0.000    0.000    0.000    0.000    0.000 
#
# Total GULP energy -396652.631211 kJ/mol
# GULP energy per Si atom -12395.394725 kJ/mol
# Density = 2.051259 g / cm^3
# Si number density = 20.559387 Si / 1000 Ang^3
#
#
#
# Elastic Constant Matrix: (Units=GPa)
#
#
# Indices 1 2 3 4 5 6 
#
# 1 75.9328 5.5230 18.7160 0.0000 0.0000 0.0000
# 2 5.5230 57.7744 21.1653 0.0000 0.0000 0.0000
# 3 18.7160 21.1653 101.0140 0.0000 0.0000 0.0000
# 4 0.0000 0.0000 0.0000 27.3615 0.0000 0.0000
# 5 0.0000 0.0000 0.0000 0.0000 35.0157 0.0000
# 6 0.0000 0.0000 0.0000 0.0000 0.0000 21.2006
#
#
#
# Elastic Compliance Matrix: (Units=1/GPa)
#
#
# Indices 1 2 3 4 5 6 
#
# 1 0.013809 -0.000415 -0.002472 0.000000 0.000000 0.000000
# 2 -0.000415 0.018760 -0.003854 0.000000 0.000000 0.000000
# 3 -0.002472 -0.003854 0.011165 0.000000 0.000000 0.000000
# 4 0.000000 0.000000 0.000000 0.036548 0.000000 0.000000
# 5 0.000000 0.000000 0.000000 0.000000 0.028559 0.000000
# 6 0.000000 0.000000 0.000000 0.000000 0.000000 0.047168
#
#
# Mechanical properties :
#
#
# Convention : Reuss Voigt Hill
#
# Bulk Modulus (GPa) = 33.05376 36.16997 34.61186
# Shear Modulus (GPa) = 27.84368 29.33670 28.59019
#
# Velocity S-wave (km/s) = 3.68408 3.78156 3.73314
# Velocity P-wave (km/s) = 5.84882 6.05789 5.95428
#
# Compressibility (1/GPa) = 0.03025375
#
# Stress axis : x y z
#
# Youngs Moduli (GPa) = 72.41697 53.30426 89.56491
#
# Poissons Ratio (x) = 0.02210 0.22137
# Poissons Ratio (y) = 0.03002 0.34518
# Poissons Ratio (z) = 0.17899 0.20543
#
# Static dielectric constant tensor:
#      x y z
#    x 3.611160 0.000000 0.000000 
#    y 0.000000 3.621070 0.000000 
#    z 0.000000 0.000000 3.968730 
# 
# 
# High freq. dielectric constant tensor:
#      x y z
#    x 1.799060 0.000000 0.000000 
#    y 0.000000 1.794630 0.000000 
#    z 0.000000 0.000000 1.807160 
# 
# From -- ./inp_files/29159.got.cif
#   From: 2010.03.12/outbox.cif.g09.slc.cpg/sg20_15_cif.got.tgz:29159.got - 2010.04.14 01:38:04.
