data_PCOD8158146
_publ_section_title
;
Structure prediction by ZEFSAII (Michael W. Deem and Ramdas Pophale) SiO2 
 PCOD8158146
Probable space group: C 2 2 21
;
_chemical_formula_sum "Si O2"
_cell_formula_units_Z 64
_cell_length_a 9.458916
_cell_length_b 19.653022
_cell_length_c 17.823019
_cell_angle_alpha 90.000000
_cell_angle_beta 90.000000
_cell_angle_gamma 90.000000
_cell_volume 3313.233006
_symmetry_space_group_name_H-M "C 2 2 21"
_symmetry_group_IT_number 20
_symmetry_cell_setting 'orthorhombic'
loop_
_space_group_symop_operation_xyz
x,y,z
-x,-y,1/2+z
x,-y,-z
-x,y,1/2-z
1/2+x,1/2+y,z
1/2-x,1/2-y,1/2+z
1/2+x,1/2-y,-z
1/2-x,1/2+y,1/2-z
loop_
_atom_site_type_symbol
_atom_site_label
_atom_site_fract_x
_atom_site_fract_y
_atom_site_fract_z
Si Si1 0.350416 0.495595 0.215845
Si Si2 0.819403 0.206386 0.468569
Si Si3 0.636536 0.660322 0.703252
Si Si4 0.095101 0.181034 0.531241
Si Si5 0.350818 0.094108 0.211794
Si Si6 0.059054 0.050250 0.435831
Si Si7 0.736889 0.061652 0.446435
Si Si8 0.850753 0.780902 0.705490
O O1 0.500000 0.518047 0.250000
O O2 0.323791 0.415664 0.226378
O O3 0.215890 0.525594 0.257208
O O4 0.345419 0.527336 0.133178
O O5 0.715570 0.266384 0.487545
O O6 0.750973 0.133141 0.490938
O O7 0.875913 0.208230 0.382917
O O8 0.947626 0.220613 0.524723
O O9 0.500000 0.686073 0.750000
O O10 0.603539 0.653625 0.615230
O O11 0.767696 0.710299 0.720234
O O12 0.098240 0.124776 0.465751
O O13 0.500000 0.109875 0.250000
O O14 0.368496 0.078552 0.122659
O O15 0.248211 0.157101 0.231893
O O16 0.892828 0.042068 0.415338
O O17 0.104504 0.000000 0.500000
O O18 0.680110 0.000000 0.500000
O O19 0.000000 0.781173 0.750000
#
# Coordination Sequence:
#
# PCOD8158146 Si02
#       8
#     8   8   8   8   8   8   8   8
#     4  11  21  37  62  91 119 156 204 242 298 368
#     4   9  21  37  59  86 116 152 195 245 298 353
#     4  10  22  38  60  88 121 152 197 252 301 355
#     4  10  20  38  55  84 120 149 197 247 290 358
#     4  11  23  39  60  89 125 158 201 256 301 357
#     4  10  18  35  63  88 112 155 202 244 290 353
#     4   9  19  37  62  86 116 157 203 248 297 361
#     4  10  22  41  62  87 119 159 204 246 295 369
#
# _framework density 19.316481
#
# number of rings (size 3 to 8) (size 9 to 14) (size 15 to 20)
#    0.000    2.000    2.500    0.750    3.500    1.500 
#    6.750    3.125    0.000    0.000    0.000    0.000 
#    0.000    0.000    0.000    0.000    0.000    0.000 
#
# Total GULP energy -396632.472922 kJ/mol
# GULP energy per Si atom -12394.764779 kJ/mol
# Density = 1.927252 g / cm^3
# Si number density = 19.316481 Si / 1000 Ang^3
#
#
#
# Elastic Constant Matrix: (Units=GPa)
#
#
# Indices 1 2 3 4 5 6 
#
# 1 107.6232 54.6623 44.1849 0.0000 0.0000 0.0000
# 2 54.6623 98.1614 41.1333 0.0000 0.0000 0.0000
# 3 44.1849 41.1333 59.8621 0.0000 0.0000 0.0000
# 4 0.0000 0.0000 0.0000 27.7099 0.0000 0.0000
# 5 0.0000 0.0000 0.0000 0.0000 27.4642 0.0000
# 6 0.0000 0.0000 0.0000 0.0000 0.0000 26.2160
#
#
#
# Elastic Compliance Matrix: (Units=1/GPa)
#
#
# Indices 1 2 3 4 5 6 
#
# 1 0.015024 -0.005223 -0.007500 0.000000 0.000000 0.000000
# 2 -0.005223 0.016123 -0.007223 0.000000 0.000000 0.000000
# 3 -0.007500 -0.007223 0.027204 0.000000 0.000000 0.000000
# 4 0.000000 0.000000 0.000000 0.036088 0.000000 0.000000
# 5 0.000000 0.000000 0.000000 0.000000 0.036411 0.000000
# 6 0.000000 0.000000 0.000000 0.000000 0.000000 0.038145
#
#
# Mechanical properties :
#
#
# Convention : Reuss Voigt Hill
#
# Bulk Modulus (GPa) = 54.17796 60.62307 57.40052
# Shear Modulus (GPa) = 23.25149 24.65579 23.95364
#
# Velocity S-wave (km/s) = 3.47322 3.57657 3.52527
# Velocity P-wave (km/s) = 6.64776 6.96477 6.80811
#
# Compressibility (1/GPa) = 0.01845769
#
# Stress axis : x y z
#
# Youngs Moduli (GPa) = 66.56101 62.02435 36.75910
#
# Poissons Ratio (x) = 0.32398 0.27570
# Poissons Ratio (y) = 0.34767 0.26551
# Poissons Ratio (z) = 0.49921 0.44800
#
# Static dielectric constant tensor:
#      x y z
#    x 3.314030 0.000000 0.000000 
#    y 0.000000 3.650580 0.000000 
#    z 0.000000 0.000000 3.366570 
# 
# 
# High freq. dielectric constant tensor:
#      x y z
#    x 1.726210 0.000000 0.000000 
#    y 0.000000 1.766960 0.000000 
#    z 0.000000 0.000000 1.752640 
# 
# From -- ./inp_files/23930.got.cif
#   From: 2010.03.12/outbox.cif.g09.slc.cpg/sg20_12_cif.got.tgz:23930.got - 2010.04.14 01:38:04.
