data_PCOD8158057
_publ_section_title
;
Structure prediction by ZEFSAII (Michael W. Deem and Ramdas Pophale) SiO2 
 PCOD8158057
Probable space group: C 2 2 21
;
_chemical_formula_sum "Si O2"
_cell_formula_units_Z 36
_cell_length_a 8.899682
_cell_length_b 11.448129
_cell_length_c 17.191794
_cell_angle_alpha 90.000000
_cell_angle_beta 90.000000
_cell_angle_gamma 90.000000
_cell_volume 1751.580905
_symmetry_space_group_name_H-M "C 2 2 21"
_symmetry_group_IT_number 20
_symmetry_cell_setting 'orthorhombic'
loop_
_space_group_symop_operation_xyz
x,y,z
-x,-y,1/2+z
x,-y,-z
-x,y,1/2-z
1/2+x,1/2+y,z
1/2-x,1/2-y,1/2+z
1/2+x,1/2-y,-z
1/2-x,1/2+y,1/2-z
loop_
_atom_site_type_symbol
_atom_site_label
_atom_site_fract_x
_atom_site_fract_y
_atom_site_fract_z
Si Si1 0.442009 0.000000 0.000000
Si Si2 0.431040 0.305138 0.834416
Si Si3 0.272262 0.368841 0.403962
Si Si4 0.651881 0.798220 0.041040
Si Si5 0.910210 0.961718 0.087520
O O1 0.335265 0.980094 0.075938
O O2 0.549032 0.886944 0.990485
O O3 0.500000 0.314126 0.750000
O O4 0.300799 0.206804 0.834372
O O5 0.557726 0.274425 0.897096
O O6 0.360361 0.429546 0.859206
O O7 0.270527 0.290313 0.481923
O O8 0.436829 0.407606 0.377172
O O9 0.778363 0.867248 0.089340
O O10 0.946034 0.000000 0.000000
#
# Coordination Sequence:
#
# PCOD8158057 Si02
#       5
#     4   8   8   8   8
#     4  10  18  30  54  86 114 148 190 246 286 354
#     4  11  25  40  57  89 130 159 198 260 316 357
#     4  11  20  36  61  88 117 156 207 248 300 366
#     4  11  20  36  61  88 117 156 207 248 300 366
#     4  12  20  37  65  94 115 160 209 253 295 367
#
# _framework density 20.552862000000001
#
# number of rings (size 3 to 8) (size 9 to 14) (size 15 to 20)
#    0.000    0.889    6.667    1.333    0.000    1.778 
#    0.000    0.000    0.000    0.000    0.000    0.000 
#    0.000    0.000    0.000    0.000    0.000    0.000 
#
# Total GULP energy -223221.517045 kJ/mol
# GULP energy per Si atom -12401.195391 kJ/mol
# Density = 2.050608 g / cm^3
# Si number density = 20.552862 Si / 1000 Ang^3
#
#
#
# Elastic Constant Matrix: (Units=GPa)
#
#
# Indices 1 2 3 4 5 6 
#
# 1 93.0962 18.3310 -11.5348 0.0000 0.0000 0.0000
# 2 18.3310 74.1482 17.6587 0.0000 0.0000 0.0000
# 3 -11.5348 17.6587 43.9839 0.0000 0.0000 0.0000
# 4 0.0000 0.0000 0.0000 19.9655 0.0000 0.0000
# 5 0.0000 0.0000 0.0000 0.0000 12.6243 0.0000
# 6 0.0000 0.0000 0.0000 0.0000 0.0000 26.9318
#
#
#
# Elastic Compliance Matrix: (Units=1/GPa)
#
#
# Indices 1 2 3 4 5 6 
#
# 1 0.012164 -0.004165 0.004862 0.000000 0.000000 0.000000
# 2 -0.004165 0.016339 -0.007652 0.000000 0.000000 0.000000
# 3 0.004862 -0.007652 0.027083 0.000000 0.000000 0.000000
# 4 0.000000 0.000000 0.000000 0.050086 0.000000 0.000000
# 5 0.000000 0.000000 0.000000 0.000000 0.079212 0.000000
# 6 0.000000 0.000000 0.000000 0.000000 0.000000 0.037131
#
#
# Mechanical properties :
#
#
# Convention : Reuss Voigt Hill
#
# Bulk Modulus (GPa) = 23.99469 28.90424 26.44947
# Shear Modulus (GPa) = 20.01466 24.35588 22.18527
#
# Velocity S-wave (km/s) = 3.12398 3.44617 3.28902
# Velocity P-wave (km/s) = 4.97115 5.47071 5.22690
#
# Compressibility (1/GPa) = 0.04167588
#
# Stress axis : x y z
#
# Youngs Moduli (GPa) = 82.20859 61.20478 36.92370
#
# Poissons Ratio (x) = 0.25493 -0.17954
# Poissons Ratio (y) = 0.34242 0.28254
# Poissons Ratio (z) = -0.39973 0.46834
#
# Static dielectric constant tensor:
#      x y z
#    x 3.972000 0.000000 0.000000 
#    y 0.000000 4.060570 0.000000 
#    z 0.000000 0.000000 3.284200 
# 
# 
# High freq. dielectric constant tensor:
#      x y z
#    x 1.822310 0.000000 0.000000 
#    y 0.000000 1.822480 0.000000 
#    z 0.000000 0.000000 1.744900 
# 
# From -- ./inp_files/26428.got.cif
#   From: 2010.03.12/outbox.cif.g09.slc.cpg/sg20_14_cif.got.tgz:26428.got - 2010.04.14 01:38:04.
