data_PCOD8158083
_publ_section_title
;
Structure prediction by ZEFSAII (Michael W. Deem and Ramdas Pophale) SiO2 
 PCOD8158083
Probable space group: C 2 2 21
;
_chemical_formula_sum "Si O2"
_cell_formula_units_Z 64
_cell_length_a 11.748876
_cell_length_b 22.008433
_cell_length_c 12.953580
_cell_angle_alpha 90.000000
_cell_angle_beta 90.000000
_cell_angle_gamma 90.000000
_cell_volume 3349.463532
_symmetry_space_group_name_H-M "C 2 2 21"
_symmetry_group_IT_number 20
_symmetry_cell_setting 'orthorhombic'
loop_
_space_group_symop_operation_xyz
x,y,z
-x,-y,1/2+z
x,-y,-z
-x,y,1/2-z
1/2+x,1/2+y,z
1/2-x,1/2-y,1/2+z
1/2+x,1/2-y,-z
1/2-x,1/2+y,1/2-z
loop_
_atom_site_type_symbol
_atom_site_label
_atom_site_fract_x
_atom_site_fract_y
_atom_site_fract_z
Si Si1 0.125760 0.352461 0.797443
Si Si2 0.876452 0.433912 0.042850
Si Si3 0.317958 0.539353 0.678028
Si Si4 0.789499 0.902021 0.633077
Si Si5 0.558270 0.624288 0.962143
Si Si6 0.822716 0.123354 0.862350
Si Si7 0.376907 0.714242 0.702063
Si Si8 0.123518 0.427290 0.003375
O O1 0.231000 0.362467 0.720698
O O2 0.148692 0.283065 0.829984
O O3 0.136313 0.400462 0.889087
O O4 0.000000 0.361067 0.750000
O O5 0.811140 0.437228 0.152455
O O6 0.899610 0.500000 0.000000
O O7 0.799379 0.399156 0.960833
O O8 0.002417 0.405936 0.051673
O O9 0.318337 0.466993 0.682329
O O10 0.403001 0.559442 0.586077
O O11 0.357791 0.567648 0.786463
O O12 0.906847 0.874246 0.584086
O O13 0.423403 0.633305 0.946175
O O14 0.630484 0.676375 0.903426
O O15 0.797830 0.183524 0.791649
O O16 0.711305 0.106166 0.923476
O O17 0.500000 0.706296 0.750000
O O18 0.143824 0.500000 0.000000
#
# Coordination Sequence:
#
# PCOD8158083 Si02
#       8
#     8   8   8   8   8   8   8   8
#     4  11  21  36  56  78 108 146 190 227 274 337
#     4   8  16  30  48  77 113 139 175 218 269 329
#     4   9  17  32  55  80 109 142 181 221 273 335
#     4  10  18  32  55  83 102 143 186 225 272 327
#     4   9  18  35  57  78 107 142 186 229 264 323
#     4  10  20  36  54  80 114 146 185 229 274 328
#     4   8  18  36  57  78 102 145 190 226 269 322
#     4  11  22  34  51  86 119 146 177 228 294 337
#
# _framework density 19.107538999999999
#
# number of rings (size 3 to 8) (size 9 to 14) (size 15 to 20)
#    0.000    2.500    1.250    3.000    0.000    2.500 
#    0.000    1.875    0.000    0.000    9.750    0.000 
#    0.000    0.000    0.000    0.000    0.000    0.000 
#
# Total GULP energy -396492.680923 kJ/mol
# GULP energy per Si atom -12390.396279 kJ/mol
# Density = 1.906405 g / cm^3
# Si number density = 19.107539 Si / 1000 Ang^3
#
#
#
# Elastic Constant Matrix: (Units=GPa)
#
#
# Indices 1 2 3 4 5 6 
#
# 1 56.2470 16.0073 17.7773 0.0000 0.0000 0.0000
# 2 16.0073 105.6582 33.8017 0.0000 0.0000 0.0000
# 3 17.7773 33.8017 70.9762 0.0000 0.0000 0.0000
# 4 0.0000 0.0000 0.0000 19.1868 0.0000 0.0000
# 5 0.0000 0.0000 0.0000 0.0000 50.8398 0.0000
# 6 0.0000 0.0000 0.0000 0.0000 0.0000 23.9728
#
#
#
# Elastic Compliance Matrix: (Units=1/GPa)
#
#
# Indices 1 2 3 4 5 6 
#
# 1 0.019547 -0.001646 -0.004112 0.000000 0.000000 0.000000
# 2 -0.001646 0.011304 -0.004971 0.000000 0.000000 0.000000
# 3 -0.004112 -0.004971 0.017487 0.000000 0.000000 0.000000
# 4 0.000000 0.000000 0.000000 0.052119 0.000000 0.000000
# 5 0.000000 0.000000 0.000000 0.000000 0.019670 0.000000
# 6 0.000000 0.000000 0.000000 0.000000 0.000000 0.041714
#
#
# Mechanical properties :
#
#
# Convention : Reuss Voigt Hill
#
# Bulk Modulus (GPa) = 37.20330 40.89491 39.04910
# Shear Modulus (GPa) = 26.00663 29.81953 27.91308
#
# Velocity S-wave (km/s) = 3.69327 3.95475 3.82624
# Velocity P-wave (km/s) = 6.14001 6.50403 6.32464
#
# Compressibility (1/GPa) = 0.02687934
#
# Stress axis : x y z
#
# Youngs Moduli (GPa) = 51.15936 88.46254 57.18639
#
# Poissons Ratio (x) = 0.14560 0.23515
# Poissons Ratio (y) = 0.08420 0.28429
# Poissons Ratio (z) = 0.21037 0.43977
#
# Static dielectric constant tensor:
#      x y z
#    x 3.624410 0.000000 0.000000 
#    y 0.000000 3.432040 0.000000 
#    z 0.000000 0.000000 3.453230 
# 
# 
# High freq. dielectric constant tensor:
#      x y z
#    x 1.734520 0.000000 0.000000 
#    y 0.000000 1.726690 0.000000 
#    z 0.000000 0.000000 1.728640 
# 
# From -- ./inp_files/14500.got.cif
#   From: 2010.03.12/outbox.cif.g09.slc.cpg/sg20_8_cif.got.tgz:14500.got - 2010.04.14 01:38:04.
