data_PCOD8158048
_publ_section_title
;
Structure prediction by ZEFSAII (Michael W. Deem and Ramdas Pophale) SiO2 
 PCOD8158048
Probable space group: C 2 2 21
;
_chemical_formula_sum "Si O2"
_cell_formula_units_Z 64
_cell_length_a 18.028788
_cell_length_b 10.680956
_cell_length_c 16.661691
_cell_angle_alpha 90.000000
_cell_angle_beta 90.000000
_cell_angle_gamma 90.000000
_cell_volume 3208.453385
_symmetry_space_group_name_H-M "C 2 2 21"
_symmetry_group_IT_number 20
_symmetry_cell_setting 'orthorhombic'
loop_
_space_group_symop_operation_xyz
x,y,z
-x,-y,1/2+z
x,-y,-z
-x,y,1/2-z
1/2+x,1/2+y,z
1/2-x,1/2-y,1/2+z
1/2+x,1/2-y,-z
1/2-x,1/2+y,1/2-z
loop_
_atom_site_type_symbol
_atom_site_label
_atom_site_fract_x
_atom_site_fract_y
_atom_site_fract_z
Si Si1 0.462848 0.562882 0.122165
Si Si2 0.176559 0.870153 0.711614
Si Si3 0.372086 0.750660 0.460568
Si Si4 0.750261 0.236293 0.574577
Si Si5 0.514990 0.683975 0.544869
Si Si6 0.281308 0.540135 0.377550
Si Si7 0.863242 0.371697 0.964146
Si Si8 0.561982 0.773150 0.196732
O O1 0.382370 0.547932 0.162686
O O2 0.492641 0.421606 0.113066
O O3 0.520897 0.641832 0.174944
O O4 0.451310 0.627965 0.036599
O O5 0.241953 0.820482 0.653704
O O6 0.213155 0.953690 0.781229
O O7 0.133833 0.749582 0.748232
O O8 0.301625 0.808379 0.508045
O O9 0.433161 0.735319 0.529170
O O10 0.347630 0.618659 0.419295
O O11 0.407696 0.834897 0.387102
O O12 0.669630 0.211384 0.537086
O O13 0.788939 0.102529 0.593447
O O14 0.569439 0.794711 0.575777
O O15 0.201757 0.598625 0.400839
O O16 0.896449 0.500000 0.000000
O O17 0.500000 0.851099 0.250000
#
# Coordination Sequence:
#
# PCOD8158048 Si02
#       8
#     8   8   8   8   8   8   8   8
#     4   9  18  28  49  83 111 128 168 229 288 327
#     4  10  18  32  49  75 111 141 180 226 278 333
#     4   9  18  30  53  80 108 137 179 236 276 332
#     4  10  19  32  51  78 104 146 187 225 274 335
#     4  10  18  29  55  82 109 133 173 230 286 319
#     4   9  20  32  53  73 105 141 191 227 272 339
#     4   9  18  35  53  74 103 144 190 222 265 344
#     4   8  16  29  48  77 113 131 172 222 277 337
#
# _framework density 19.947306000000001
#
# number of rings (size 3 to 8) (size 9 to 14) (size 15 to 20)
#    0.000    2.750    1.250    1.125    8.750    1.000 
#    0.000    0.000    0.000    7.500    0.000    0.000 
#    0.000    0.000    0.000    0.000    0.000    0.000 
#
# Total GULP energy -396462.785979 kJ/mol
# GULP energy per Si atom -12389.462062 kJ/mol
# Density = 1.990191 g / cm^3
# Si number density = 19.947306 Si / 1000 Ang^3
#
#
#
# Elastic Constant Matrix: (Units=GPa)
#
#
# Indices 1 2 3 4 5 6 
#
# 1 77.0861 16.1281 26.7370 0.0000 0.0000 0.0000
# 2 16.1281 16.0941 2.7262 0.0000 0.0000 0.0000
# 3 26.7370 2.7262 90.2381 0.0000 0.0000 0.0000
# 4 0.0000 0.0000 0.0000 18.9365 0.0000 0.0000
# 5 0.0000 0.0000 0.0000 0.0000 42.8830 0.0000
# 6 0.0000 0.0000 0.0000 0.0000 0.0000 19.6856
#
#
#
# Elastic Compliance Matrix: (Units=1/GPa)
#
#
# Indices 1 2 3 4 5 6 
#
# 1 0.018347 -0.017555 -0.004906 0.000000 0.000000 0.000000
# 2 -0.017555 0.079251 0.002807 0.000000 0.000000 0.000000
# 3 -0.004906 0.002807 0.012451 0.000000 0.000000 0.000000
# 4 0.000000 0.000000 0.000000 0.052808 0.000000 0.000000
# 5 0.000000 0.000000 0.000000 0.000000 0.023319 0.000000
# 6 0.000000 0.000000 0.000000 0.000000 0.000000 0.050799
#
#
# Mechanical properties :
#
#
# Convention : Reuss Voigt Hill
#
# Bulk Modulus (GPa) = 14.13593 30.51121 22.32357
# Shear Modulus (GPa) = 16.67436 25.48949 21.08193
#
# Velocity S-wave (km/s) = 2.89437 3.57857 3.25450
# Velocity P-wave (km/s) = 4.27456 5.69245 5.03368
#
# Compressibility (1/GPa) = 0.07074171
#
# Stress axis : x y z
#
# Youngs Moduli (GPa) = 54.50525 12.61814 80.31797
#
# Poissons Ratio (x) = 0.22151 0.39402
# Poissons Ratio (y) = 0.95682 -0.22546
# Poissons Ratio (z) = 0.26739 -0.03542
#
# Static dielectric constant tensor:
#      x y z
#    x 3.629390 0.000000 0.000000 
#    y 0.000000 3.041490 0.000000 
#    z 0.000000 0.000000 3.964030 
# 
# 
# High freq. dielectric constant tensor:
#      x y z
#    x 1.782810 0.000000 0.000000 
#    y 0.000000 1.708020 0.000000 
#    z 0.000000 0.000000 1.780230 
# 
# From -- ./inp_files/25355.got.cif
#   From: 2010.03.12/outbox.cif.g09.slc.cpg/sg20_13_cif.got.tgz:25355.got - 2010.04.14 01:38:04.
