data_PCOD8158875
_publ_section_title
;
Structure prediction by ZEFSAII (Michael W. Deem and Ramdas Pophale) SiO2 
 PCOD8158875
Probable space group: C 2 2 21
;
_chemical_formula_sum "Si O2"
_cell_formula_units_Z 40
_cell_length_a 18.333759
_cell_length_b 7.190754
_cell_length_c 15.417551
_cell_angle_alpha 90.000000
_cell_angle_beta 90.000000
_cell_angle_gamma 90.000000
_cell_volume 2032.550494
_symmetry_space_group_name_H-M "C 2 2 21"
_symmetry_group_IT_number 20
_symmetry_cell_setting 'orthorhombic'
loop_
_space_group_symop_operation_xyz
x,y,z
-x,-y,1/2+z
x,-y,-z
-x,y,1/2-z
1/2+x,1/2+y,z
1/2-x,1/2-y,1/2+z
1/2+x,1/2-y,-z
1/2-x,1/2+y,1/2-z
loop_
_atom_site_type_symbol
_atom_site_label
_atom_site_fract_x
_atom_site_fract_y
_atom_site_fract_z
Si Si1 0.394595 0.187825 0.845894
Si Si2 0.085788 0.801623 0.468662
Si Si3 0.323551 0.439991 0.181817
Si Si4 0.830668 0.585205 0.286944
Si Si5 0.484580 0.081406 0.343122
O O1 0.379303 0.388118 0.802040
O O2 0.343745 0.031947 0.801369
O O3 0.478869 0.123996 0.835440
O O4 0.380290 0.191437 0.949513
O O5 0.153235 0.827979 0.403626
O O6 0.019013 0.694100 0.422941
O O7 0.053862 0.000000 0.500000
O O8 0.242575 0.519265 0.166065
O O9 0.324643 0.303494 0.264023
O O10 0.897594 0.557604 0.354592
O O11 0.500000 0.184950 0.250000
#
# Coordination Sequence:
#
# PCOD8158875 Si02
#       5
#     8   8   8   8   8
#     4  10  21  39  63  89 121 168 206 253 318 372
#     4  10  21  39  63  91 121 171 209 253 319 384
#     4  11  21  39  64  91 125 162 211 255 317 379
#     4  11  22  39  62  96 125 160 210 269 306 378
#     4  10  20  39  61  91 124 156 211 264 303 369
#
# _framework density 19.679707000000001
#
# number of rings (size 3 to 8) (size 9 to 14) (size 15 to 20)
#    0.000    1.600    6.000    0.600    0.000    0.000 
#   21.600    6.000    0.000    4.800    0.000    0.000 
#    0.000    0.000    0.000    0.000    0.000    0.000 
#
# Total GULP energy -247850.918717 kJ/mol
# GULP energy per Si atom -12392.545936 kJ/mol
# Density = 1.963491 g / cm^3
# Si number density = 19.679707 Si / 1000 Ang^3
#
#
#
# Elastic Constant Matrix: (Units=GPa)
#
#
# Indices 1 2 3 4 5 6 
#
# 1 154.4853 59.2073 39.1102 0.0000 0.0000 0.0000
# 2 59.2073 96.2381 39.8491 0.0000 0.0000 0.0000
# 3 39.1102 39.8491 76.0947 0.0000 0.0000 0.0000
# 4 0.0000 0.0000 0.0000 32.3567 0.0000 0.0000
# 5 0.0000 0.0000 0.0000 0.0000 25.0011 0.0000
# 6 0.0000 0.0000 0.0000 0.0000 0.0000 29.1149
#
#
#
# Elastic Compliance Matrix: (Units=1/GPa)
#
#
# Indices 1 2 3 4 5 6 
#
# 1 0.008735 -0.004488 -0.002139 0.000000 0.000000 0.000000
# 2 -0.004488 0.015574 -0.005849 0.000000 0.000000 0.000000
# 3 -0.002139 -0.005849 0.017304 0.000000 0.000000 0.000000
# 4 0.000000 0.000000 0.000000 0.030906 0.000000 0.000000
# 5 0.000000 0.000000 0.000000 0.000000 0.039998 0.000000
# 6 0.000000 0.000000 0.000000 0.000000 0.000000 0.034347
#
#
# Mechanical properties :
#
#
# Convention : Reuss Voigt Hill
#
# Bulk Modulus (GPa) = 60.02283 67.01680 63.51982
# Shear Modulus (GPa) = 28.18989 29.87131 29.03060
#
# Velocity S-wave (km/s) = 3.78886 3.90022 3.84494
# Velocity P-wave (km/s) = 7.05030 7.37631 7.21514
#
# Compressibility (1/GPa) = 0.01666033
#
# Stress axis : x y z
#
# Youngs Moduli (GPa) = 114.48597 64.21017 57.79036
#
# Poissons Ratio (x) = 0.28818 0.12362
# Poissons Ratio (y) = 0.51381 0.33802
# Poissons Ratio (z) = 0.24490 0.37556
#
# Static dielectric constant tensor:
#      x y z
#    x 3.583360 0.000000 0.000000 
#    y 0.000000 3.858290 0.000000 
#    z 0.000000 0.000000 3.579010 
# 
# 
# High freq. dielectric constant tensor:
#      x y z
#    x 1.751450 0.000000 0.000000 
#    y 0.000000 1.776060 0.000000 
#    z 0.000000 0.000000 1.749540 
# 
# From -- ./inp_files/21150.got.cif
#   From: 2010.03.12/outbox.cif.g09.slc.cpg/sg20_11_cif.got.tgz:21150.got - 2010.04.14 01:38:04.
