data_PCOD8158594
_publ_section_title
;
Structure prediction by ZEFSAII (Michael W. Deem and Ramdas Pophale) SiO2 
 PCOD8158594
Probable space group: C 2 2 21
;
_chemical_formula_sum "Si O2"
_cell_formula_units_Z 64
_cell_length_a 14.141628
_cell_length_b 9.224679
_cell_length_c 23.411105
_cell_angle_alpha 90.000000
_cell_angle_beta 90.000000
_cell_angle_gamma 90.000000
_cell_volume 3054.024974
_symmetry_space_group_name_H-M "C 2 2 21"
_symmetry_group_IT_number 20
_symmetry_cell_setting 'orthorhombic'
loop_
_space_group_symop_operation_xyz
x,y,z
-x,-y,1/2+z
x,-y,-z
-x,y,1/2-z
1/2+x,1/2+y,z
1/2-x,1/2-y,1/2+z
1/2+x,1/2-y,-z
1/2-x,1/2+y,1/2-z
loop_
_atom_site_type_symbol
_atom_site_label
_atom_site_fract_x
_atom_site_fract_y
_atom_site_fract_z
Si Si1 0.557247 0.330733 0.098869
Si Si2 0.063571 0.378356 0.803967
Si Si3 0.428272 0.084227 0.868420
Si Si4 0.941267 0.825612 0.601866
Si Si5 0.225807 0.792836 0.820961
Si Si6 0.190422 0.169870 0.000181
Si Si7 0.297078 0.941690 0.234121
Si Si8 0.860778 0.685994 0.075344
O O1 0.581463 0.270941 0.161746
O O2 0.541266 0.502810 0.101928
O O3 0.461026 0.266737 0.070746
O O4 0.649643 0.281780 0.061397
O O5 0.157919 0.453278 0.781886
O O6 0.000000 0.337949 0.750000
O O7 0.015658 0.485185 0.849381
O O8 0.460742 0.236485 0.896059
O O9 0.370552 0.123991 0.811410
O O10 0.372037 0.989654 0.916402
O O11 0.879699 0.770804 0.655854
O O12 0.885806 0.774895 0.545855
O O13 0.251301 0.690183 0.767472
O O14 0.306641 0.760988 0.867592
O O15 0.224072 0.960502 0.801080
O O16 0.295968 0.223073 0.019363
O O17 0.192901 0.000000 0.000000
#
# Coordination Sequence:
#
# PCOD8158594 Si02
#       8
#     8   8   8   8   8   8   8   8
#     4  10  21  38  65  91 121 161 204 258 312 370
#     4   9  18  36  57  85 122 165 203 242 301 374
#     4   9  18  36  59  85 112 162 201 246 303 368
#     4  10  20  37  60  87 122 155 205 262 310 359
#     4  10  21  35  55  84 123 162 202 255 304 365
#     4   9  20  39  63  85 118 157 197 251 312 370
#     4  10  20  34  55  83 125 163 204 252 303 366
#     4   9  20  39  62  83 117 157 200 247 313 371
#
# _framework density 20.955952
#
# number of rings (size 3 to 8) (size 9 to 14) (size 15 to 20)
#    0.000    2.500    1.250    0.750    1.750    2.000 
#    2.250    1.875    8.250    3.000    0.000    0.000 
#    0.000    0.000    0.000    0.000    0.000    0.000 
#
# Total GULP energy -396540.372932 kJ/mol
# GULP energy per Si atom -12391.886654 kJ/mol
# Density = 2.090826 g / cm^3
# Si number density = 20.955952 Si / 1000 Ang^3
#
#
#
# Elastic Constant Matrix: (Units=GPa)
#
#
# Indices 1 2 3 4 5 6 
#
# 1 67.7646 14.7222 24.1074 0.0000 0.0000 0.0000
# 2 14.7222 62.3347 27.1662 0.0000 0.0000 0.0000
# 3 24.1074 27.1662 74.7335 0.0000 0.0000 0.0000
# 4 0.0000 0.0000 0.0000 27.9087 0.0000 0.0000
# 5 0.0000 0.0000 0.0000 0.0000 23.8947 0.0000
# 6 0.0000 0.0000 0.0000 0.0000 0.0000 24.6690
#
#
#
# Elastic Compliance Matrix: (Units=1/GPa)
#
#
# Indices 1 2 3 4 5 6 
#
# 1 0.016860 -0.001915 -0.004743 0.000000 0.000000 0.000000
# 2 -0.001915 0.019280 -0.006391 0.000000 0.000000 0.000000
# 3 -0.004743 -0.006391 0.017234 0.000000 0.000000 0.000000
# 4 0.000000 0.000000 0.000000 0.035831 0.000000 0.000000
# 5 0.000000 0.000000 0.000000 0.000000 0.041850 0.000000
# 6 0.000000 0.000000 0.000000 0.000000 0.000000 0.040537
#
#
# Mechanical properties :
#
#
# Convention : Reuss Voigt Hill
#
# Bulk Modulus (GPa) = 36.66065 37.42492 37.04279
# Shear Modulus (GPa) = 24.18018 24.55028 24.36523
#
# Velocity S-wave (km/s) = 3.40053 3.42646 3.41352
# Velocity P-wave (km/s) = 5.74023 5.79239 5.76637
#
# Compressibility (1/GPa) = 0.02727720
#
# Stress axis : x y z
#
# Youngs Moduli (GPa) = 59.31118 51.86762 58.02570
#
# Poissons Ratio (x) = 0.09934 0.27519
# Poissons Ratio (y) = 0.11359 0.37082
# Poissons Ratio (z) = 0.28129 0.33146
#
# Static dielectric constant tensor:
#      x y z
#    x 3.810500 0.000000 0.000000 
#    y 0.000000 3.556490 0.000000 
#    z 0.000000 0.000000 4.264460 
# 
# 
# High freq. dielectric constant tensor:
#      x y z
#    x 1.811750 0.000000 0.000000 
#    y 0.000000 1.801680 0.000000 
#    z 0.000000 0.000000 1.824340 
# 
# From -- ./inp_files/29336.got.cif
#   From: 2010.03.12/outbox.cif.g09.slc.cpg/sg20_15_cif.got.tgz:29336.got - 2010.04.14 01:38:04.
