data_PCOD8158506
_publ_section_title
;
Structure prediction by ZEFSAII (Michael W. Deem and Ramdas Pophale) SiO2 
 PCOD8158506
Probable space group: C 2 2 21
;
_chemical_formula_sum "Si O2"
_cell_formula_units_Z 48
_cell_length_a 17.625125
_cell_length_b 9.809239
_cell_length_c 13.282292
_cell_angle_alpha 90.000000
_cell_angle_beta 90.000000
_cell_angle_gamma 90.000000
_cell_volume 2296.363025
_symmetry_space_group_name_H-M "C 2 2 21"
_symmetry_group_IT_number 20
_symmetry_cell_setting 'orthorhombic'
loop_
_space_group_symop_operation_xyz
x,y,z
-x,-y,1/2+z
x,-y,-z
-x,y,1/2-z
1/2+x,1/2+y,z
1/2-x,1/2-y,1/2+z
1/2+x,1/2-y,-z
1/2-x,1/2+y,1/2-z
loop_
_atom_site_type_symbol
_atom_site_label
_atom_site_fract_x
_atom_site_fract_y
_atom_site_fract_z
Si Si1 0.180998 0.298022 0.883720
Si Si2 0.653244 0.977188 0.265048
Si Si3 0.372347 0.225799 0.597568
Si Si4 0.678791 0.503498 0.816535
Si Si5 0.465317 0.797198 0.144686
Si Si6 0.341933 0.413327 0.898217
O O1 0.133862 0.395772 0.808028
O O2 0.152976 0.145674 0.863748
O O3 0.270959 0.316776 0.870734
O O4 0.167827 0.333048 0.999782
O O5 0.666227 0.845058 0.194270
O O6 0.729627 0.009592 0.326583
O O7 0.582578 0.938457 0.338731
O O8 0.360666 0.386854 0.616408
O O9 0.459963 0.181534 0.577860
O O10 0.650383 0.508376 0.700446
O O11 0.500000 0.741585 0.250000
O O12 0.414660 0.683105 0.090611
O O13 0.331750 0.500000 0.000000
#
# Coordination Sequence:
#
# PCOD8158506 Si02
#       6
#     8   8   8   8   8   8
#     4  11  22  37  67 101 124 171 229 276 322 397
#     4  10  19  39  66  86 132 174 218 262 337 391
#     4  11  22  39  68  92 133 176 224 270 333 398
#     4  11  20  38  64  99 128 167 222 280 317 390
#     4  10  20  42  67  86 132 183 211 267 344 385
#     4  11  22  38  66  95 128 172 223 271 330 397
#
# _framework density 20.902618
#
# number of rings (size 3 to 8) (size 9 to 14) (size 15 to 20)
#    0.000    1.333    5.000    4.000    0.000    1.333 
#    0.000    0.000   47.667    0.000    0.000    0.000 
#    0.000    0.000    0.000    0.000    0.000    0.000 
#
# Total GULP energy -297493.707745 kJ/mol
# GULP energy per Si atom -12395.571156 kJ/mol
# Density = 2.085504 g / cm^3
# Si number density = 20.902618 Si / 1000 Ang^3
#
#
#
# Elastic Constant Matrix: (Units=GPa)
#
#
# Indices 1 2 3 4 5 6 
#
# 1 100.4998 28.9617 25.5691 0.0000 0.0000 0.0000
# 2 28.9617 102.7554 13.1674 0.0000 0.0000 0.0000
# 3 25.5691 13.1674 54.9016 0.0000 0.0000 0.0000
# 4 0.0000 0.0000 0.0000 27.5103 0.0000 0.0000
# 5 0.0000 0.0000 0.0000 0.0000 21.4239 0.0000
# 6 0.0000 0.0000 0.0000 0.0000 0.0000 28.8971
#
#
#
# Elastic Compliance Matrix: (Units=1/GPa)
#
#
# Indices 1 2 3 4 5 6 
#
# 1 0.011996 -0.002750 -0.004928 0.000000 0.000000 0.000000
# 2 -0.002750 0.010671 -0.001279 0.000000 0.000000 0.000000
# 3 -0.004928 -0.001279 0.020816 0.000000 0.000000 0.000000
# 4 0.000000 0.000000 0.000000 0.036350 0.000000 0.000000
# 5 0.000000 0.000000 0.000000 0.000000 0.046677 0.000000
# 6 0.000000 0.000000 0.000000 0.000000 0.000000 0.034606
#
#
# Mechanical properties :
#
#
# Convention : Reuss Voigt Hill
#
# Bulk Modulus (GPa) = 39.10638 43.72812 41.41725
# Shear Modulus (GPa) = 26.65941 28.26348 27.46145
#
# Velocity S-wave (km/s) = 3.57516 3.68115 3.62854
# Velocity P-wave (km/s) = 5.98263 6.24765 6.11658
#
# Compressibility (1/GPa) = 0.02557127
#
# Stress axis : x y z
#
# Youngs Moduli (GPa) = 83.35871 93.71443 48.04009
#
# Poissons Ratio (x) = 0.25769 0.23672
# Poissons Ratio (y) = 0.22922 0.06142
# Poissons Ratio (z) = 0.41075 0.11982
#
# Static dielectric constant tensor:
#      x y z
#    x 3.967800 0.000000 0.000000 
#    y 0.000000 3.725370 0.000000 
#    z 0.000000 0.000000 3.691970 
# 
# 
# High freq. dielectric constant tensor:
#      x y z
#    x 1.810090 0.000000 0.000000 
#    y 0.000000 1.811850 0.000000 
#    z 0.000000 0.000000 1.808410 
# 
# From -- ./inp_files/18884.got.cif
#   From: 2010.03.12/outbox.cif.g09.slc.cpg/sg20_10_cif.got.tgz:18884.got - 2010.04.14 01:38:04.
