data_PCOD8158785
_publ_section_title
;
Structure prediction by ZEFSAII (Michael W. Deem and Ramdas Pophale) SiO2 
 PCOD8158785
Probable space group: C 2 2 21
;
_chemical_formula_sum "Si O2"
_cell_formula_units_Z 56
_cell_length_a 14.446174
_cell_length_b 39.014828
_cell_length_c 5.214279
_cell_angle_alpha 90.000000
_cell_angle_beta 90.000000
_cell_angle_gamma 90.000000
_cell_volume 2938.845827
_symmetry_space_group_name_H-M "C 2 2 21"
_symmetry_group_IT_number 20
_symmetry_cell_setting 'orthorhombic'
loop_
_space_group_symop_operation_xyz
x,y,z
-x,-y,1/2+z
x,-y,-z
-x,y,1/2-z
1/2+x,1/2+y,z
1/2-x,1/2-y,1/2+z
1/2+x,1/2-y,-z
1/2-x,1/2+y,1/2-z
loop_
_atom_site_type_symbol
_atom_site_label
_atom_site_fract_x
_atom_site_fract_y
_atom_site_fract_z
Si Si1 0.222991 0.106820 0.667803
Si Si2 0.896548 0.170902 0.859604
Si Si3 0.692430 0.744884 0.644828
Si Si4 0.134158 0.081627 0.140046
Si Si5 0.000000 0.135614 0.250000
Si Si6 0.500000 0.477813 0.750000
Si Si7 0.889364 0.648271 0.740757
Si Si8 0.605579 0.185846 0.258498
O O1 0.175317 0.143123 0.749260
O O2 0.191389 0.093343 0.391497
O O3 0.334355 0.113035 0.680693
O O4 0.199454 0.079218 0.889716
O O5 0.856483 0.208543 0.827491
O O6 0.000000 0.167840 0.750000
O O7 0.916989 0.160096 0.152223
O O8 0.727791 0.750194 0.355772
O O9 0.616486 0.773808 0.699096
O O10 0.090837 0.044650 0.192017
O O11 0.052951 0.108889 0.061150
O O12 0.522919 0.500000 0.500000
O O13 0.854609 0.674555 0.517198
O O14 0.000000 0.641713 0.750000
O O15 0.851202 0.664302 0.006501
O O16 0.500000 0.176087 0.250000
#
# Coordination Sequence:
#
# PCOD8158785 Si02
#       8
#     8   8   8   8   4   4   8   8
#     4  11  20  35  56  83 113 145 183 233 283 325
#     4  11  22  35  55  75 103 137 182 226 283 353
#     4  12  26  38  50  70  97 132 180 237 288 343
#     4  10  21  35  57  84 121 148 186 225 265 310
#     4   9  20  36  52  80 106 138 176 222 276 328
#     4  11  22  38  60  88 128 172 198 212 252 318
#     4  10  21  37  60  78 106 142 186 233 296 352
#     4  10  20  38  52  70  95 134 177 233 296 355
#
# _framework density 19.055099999999999
#
# number of rings (size 3 to 8) (size 9 to 14) (size 15 to 20)
#    0.000    1.429    1.429    4.714    2.000    1.143 
#    3.857    0.000    0.000    0.000    0.000    0.000 
#    0.000   11.429    0.000    0.000    0.000    0.000 
#
# Total GULP energy -346910.146720 kJ/mol
# GULP energy per Si atom -12389.648097 kJ/mol
# Density = 1.901173 g / cm^3
# Si number density = 19.055100 Si / 1000 Ang^3
#
#
#
# Elastic Constant Matrix: (Units=GPa)
#
#
# Indices 1 2 3 4 5 6 
#
# 1 60.7277 31.3500 24.1203 0.0000 0.0000 0.0000
# 2 31.3500 76.9153 29.7485 0.0000 0.0000 0.0000
# 3 24.1203 29.7485 114.3209 0.0000 0.0000 0.0000
# 4 0.0000 0.0000 0.0000 26.1808 0.0000 0.0000
# 5 0.0000 0.0000 0.0000 0.0000 21.4855 0.0000
# 6 0.0000 0.0000 0.0000 0.0000 0.0000 6.9361
#
#
#
# Elastic Compliance Matrix: (Units=1/GPa)
#
#
# Indices 1 2 3 4 5 6 
#
# 1 0.021482 -0.007787 -0.002506 0.000000 0.000000 0.000000
# 2 -0.007787 0.017279 -0.002853 0.000000 0.000000 0.000000
# 3 -0.002506 -0.002853 0.010019 0.000000 0.000000 0.000000
# 4 0.000000 0.000000 0.000000 0.038196 0.000000 0.000000
# 5 0.000000 0.000000 0.000000 0.000000 0.046543 0.000000
# 6 0.000000 0.000000 0.000000 0.000000 0.000000 0.144173
#
#
# Mechanical properties :
#
#
# Convention : Reuss Voigt Hill
#
# Bulk Modulus (GPa) = 44.47016 46.93350 45.70183
# Shear Modulus (GPa) = 16.05242 22.03682 19.04462
#
# Velocity S-wave (km/s) = 2.90560 3.40439 3.16484
# Velocity P-wave (km/s) = 5.88600 6.33538 6.11482
#
# Compressibility (1/GPa) = 0.02248699
#
# Stress axis : x y z
#
# Youngs Moduli (GPa) = 46.55028 57.87490 99.81438
#
# Poissons Ratio (x) = 0.45065 0.25016
# Poissons Ratio (y) = 0.36247 0.28481
# Poissons Ratio (z) = 0.11667 0.16514
#
# Static dielectric constant tensor:
#      x y z
#    x 3.717070 0.000000 0.000000 
#    y 0.000000 3.213120 0.000000 
#    z 0.000000 0.000000 3.977820 
# 
# 
# High freq. dielectric constant tensor:
#      x y z
#    x 1.733760 0.000000 0.000000 
#    y 0.000000 1.704330 0.000000 
#    z 0.000000 0.000000 1.759340 
# 
# From -- ./inp_files/2253.got.cif
#   From: 2010.03.12/outbox.cif.g09.slc.cpg/sg20_2_cif.got.tgz:2253.got - 2010.04.14 01:38:04.
