data_PCOD8158060
_publ_section_title
;
Structure prediction by ZEFSAII (Michael W. Deem and Ramdas Pophale) SiO2 
 PCOD8158060
Probable space group: C 2 2 21
;
_chemical_formula_sum "Si O2"
_cell_formula_units_Z 64
_cell_length_a 23.940192
_cell_length_b 17.467853
_cell_length_c 8.590057
_cell_angle_alpha 90.000000
_cell_angle_beta 90.000000
_cell_angle_gamma 90.000000
_cell_volume 3592.222289
_symmetry_space_group_name_H-M "C 2 2 21"
_symmetry_group_IT_number 20
_symmetry_cell_setting 'orthorhombic'
loop_
_space_group_symop_operation_xyz
x,y,z
-x,-y,1/2+z
x,-y,-z
-x,y,1/2-z
1/2+x,1/2+y,z
1/2-x,1/2-y,1/2+z
1/2+x,1/2-y,-z
1/2-x,1/2+y,1/2-z
loop_
_atom_site_type_symbol
_atom_site_label
_atom_site_fract_x
_atom_site_fract_y
_atom_site_fract_z
Si Si1 0.252056 0.383554 0.824117
Si Si2 0.783281 0.155188 0.850344
Si Si3 0.821434 0.236485 0.333221
Si Si4 0.063966 0.631691 0.312710
Si Si5 0.622649 0.137788 0.641981
Si Si6 0.440679 0.022341 0.678793
Si Si7 0.269801 0.965034 0.154216
Si Si8 0.150582 0.266073 0.833900
O O1 0.299327 0.348201 0.709668
O O2 0.226000 0.465709 0.778732
O O3 0.199387 0.328120 0.832600
O O4 0.286104 0.389417 0.986478
O O5 0.731443 0.211330 0.865372
O O6 0.775046 0.094916 0.713587
O O7 0.837885 0.202809 0.800376
O O8 0.857255 0.277154 0.193869
O O9 0.855972 0.229613 0.494077
O O10 0.078972 0.644206 0.496496
O O11 0.088123 0.547778 0.271992
O O12 0.092141 0.696717 0.209996
O O13 0.000000 0.632556 0.250000
O O14 0.594503 0.099596 0.794817
O O15 0.673839 0.080384 0.605003
O O16 0.500000 0.041074 0.750000
O O17 0.445774 0.000000 0.500000
O O18 0.243495 0.000000 0.000000
#
# Coordination Sequence:
#
# PCOD8158060 Si02
#       8
#     8   8   8   8   8   8   8   8
#     4  10  18  31  49  72 102 131 164 203 247 309
#     4   9  19  31  47  71  99 131 162 201 249 305
#     4   9  19  31  49  73  97 129 166 204 249 306
#     4  11  22  35  50  70  97 133 179 224 260 300
#     4  11  21  34  49  70  98 135 173 208 258 304
#     4  11  21  33  47  65  91 125 169 216 254 289
#     4  11  20  30  47  71 100 130 163 199 243 303
#     4  10  18  33  50  68  98 132 166 205 256 302
#
# _framework density 17.816269999999999
#
# number of rings (size 3 to 8) (size 9 to 14) (size 15 to 20)
#    0.000    1.750    0.000    6.750    0.000    6.000 
#    0.000    0.000    0.000    0.000    0.000    0.000 
#    0.000   13.000    0.000    0.000    0.000    0.250 
#
# Total GULP energy -396424.459853 kJ/mol
# GULP energy per Si atom -12388.264370 kJ/mol
# Density = 1.777572 g / cm^3
# Si number density = 17.816270 Si / 1000 Ang^3
#
#
#
# Elastic Constant Matrix: (Units=GPa)
#
#
# Indices 1 2 3 4 5 6 
#
# 1 53.2354 27.2111 25.1963 0.0000 0.0000 0.0000
# 2 27.2111 43.0863 6.3769 0.0000 0.0000 0.0000
# 3 25.1963 6.3769 84.4786 0.0000 0.0000 0.0000
# 4 0.0000 0.0000 0.0000 22.6074 0.0000 0.0000
# 5 0.0000 0.0000 0.0000 0.0000 25.5304 0.0000
# 6 0.0000 0.0000 0.0000 0.0000 0.0000 21.8850
#
#
#
# Elastic Compliance Matrix: (Units=1/GPa)
#
#
# Indices 1 2 3 4 5 6 
#
# 1 0.032588 -0.019359 -0.008258 0.000000 0.000000 0.000000
# 2 -0.019359 0.034971 0.003134 0.000000 0.000000 0.000000
# 3 -0.008258 0.003134 0.014064 0.000000 0.000000 0.000000
# 4 0.000000 0.000000 0.000000 0.044233 0.000000 0.000000
# 5 0.000000 0.000000 0.000000 0.000000 0.039169 0.000000
# 6 0.000000 0.000000 0.000000 0.000000 0.000000 0.045693
#
#
# Mechanical properties :
#
#
# Convention : Reuss Voigt Hill
#
# Bulk Modulus (GPa) = 30.62099 33.15208 31.88654
# Shear Modulus (GPa) = 18.47937 22.13895 20.30916
#
# Velocity S-wave (km/s) = 3.22408 3.52891 3.37994
# Velocity P-wave (km/s) = 5.57530 5.93738 5.75919
#
# Compressibility (1/GPa) = 0.03265734
#
# Stress axis : x y z
#
# Youngs Moduli (GPa) = 30.68571 28.59471 71.10420
#
# Poissons Ratio (x) = 0.55356 0.58721
# Poissons Ratio (y) = 0.59404 -0.22285
# Poissons Ratio (z) = 0.25342 -0.08962
#
# Static dielectric constant tensor:
#      x y z
#    x 3.019690 0.000000 0.000000 
#    y 0.000000 3.349200 0.000000 
#    z 0.000000 0.000000 3.647800 
# 
# 
# High freq. dielectric constant tensor:
#      x y z
#    x 1.643440 0.000000 0.000000 
#    y 0.000000 1.672590 0.000000 
#    z 0.000000 0.000000 1.712020 
# 
# From -- ./inp_files/10869.got.cif
#   From: 2010.03.12/outbox.cif.g09.slc.cpg/sg20_6_cif.got.tgz:10869.got - 2010.04.14 01:38:04.
