data_PCOD8158607
_publ_section_title
;
Structure prediction by ZEFSAII (Michael W. Deem and Ramdas Pophale) SiO2 
 PCOD8158607
Probable space group: C 2 2 21
;
_chemical_formula_sum "Si O2"
_cell_formula_units_Z 52
_cell_length_a 17.281302
_cell_length_b 19.806919
_cell_length_c 7.436069
_cell_angle_alpha 90.000000
_cell_angle_beta 90.000000
_cell_angle_gamma 90.000000
_cell_volume 2545.287217
_symmetry_space_group_name_H-M "C 2 2 21"
_symmetry_group_IT_number 20
_symmetry_cell_setting 'orthorhombic'
loop_
_space_group_symop_operation_xyz
x,y,z
-x,-y,1/2+z
x,-y,-z
-x,y,1/2-z
1/2+x,1/2+y,z
1/2-x,1/2-y,1/2+z
1/2+x,1/2-y,-z
1/2-x,1/2+y,1/2-z
loop_
_atom_site_type_symbol
_atom_site_label
_atom_site_fract_x
_atom_site_fract_y
_atom_site_fract_z
Si Si1 0.894109 0.072102 0.020002
Si Si2 0.764130 0.052952 0.735745
Si Si3 0.000000 0.284242 0.250000
Si Si4 0.280313 0.770331 0.922845
Si Si5 0.335818 0.172441 0.705373
Si Si6 0.207903 0.908251 0.847299
Si Si7 0.559296 0.710660 0.598180
O O1 0.870951 0.091073 0.227264
O O2 0.815362 0.063502 0.910135
O O3 0.945124 0.130211 0.931369
O O4 0.939186 0.000000 0.000000
O O5 0.685696 0.093880 0.775755
O O6 0.809894 0.082712 0.560377
O O7 0.741571 0.974064 0.710812
O O8 0.928165 0.328400 0.323935
O O9 0.033676 0.240413 0.409381
O O10 0.210856 0.715198 0.945958
O O11 0.254193 0.838289 0.815871
O O12 0.356122 0.735365 0.834149
O O13 0.305731 0.787516 0.122036
O O14 0.500000 0.733289 0.750000
#
# Coordination Sequence:
#
# PCOD8158607 Si02
#       7
#     8   8   4   8   8   8   8
#     4  10  20  37  57  82 114 148 191 232 276 336
#     4   9  18  33  57  86 110 147 187 229 279 334
#     4  10  24  38  54  88 120 144 182 246 286 330
#     4  10  20  34  59  85 106 149 192 229 282 338
#     4  10  20  35  58  84 112 148 191 231 287 337
#     4   9  18  32  56  87 113 139 188 239 273 329
#     4  11  24  39  56  82 116 151 189 237 283 333
#
# _framework density 20.429915999999999
#
# number of rings (size 3 to 8) (size 9 to 14) (size 15 to 20)
#    0.000    2.154    1.538    1.846    2.154    1.231 
#    1.385    0.000    1.692    0.000    8.000    0.000 
#    0.000    0.000    0.000    0.000    0.000    0.000 
#
# Total GULP energy -322146.483772 kJ/mol
# GULP energy per Si atom -12390.249376 kJ/mol
# Density = 2.038342 g / cm^3
# Si number density = 20.429916 Si / 1000 Ang^3
#
#
#
# Elastic Constant Matrix: (Units=GPa)
#
#
# Indices 1 2 3 4 5 6 
#
# 1 67.8830 2.2121 2.7289 0.0000 0.0000 0.0000
# 2 2.2121 92.5536 3.3106 0.0000 0.0000 0.0000
# 3 2.7289 3.3106 49.4344 0.0000 0.0000 0.0000
# 4 0.0000 0.0000 0.0000 20.8138 0.0000 0.0000
# 5 0.0000 0.0000 0.0000 0.0000 22.7439 0.0000
# 6 0.0000 0.0000 0.0000 0.0000 0.0000 23.3098
#
#
#
# Elastic Compliance Matrix: (Units=1/GPa)
#
#
# Indices 1 2 3 4 5 6 
#
# 1 0.014774 -0.000325 -0.000794 0.000000 0.000000 0.000000
# 2 -0.000325 0.010838 -0.000708 0.000000 0.000000 0.000000
# 3 -0.000794 -0.000708 0.020320 0.000000 0.000000 0.000000
# 4 0.000000 0.000000 0.000000 0.048045 0.000000 0.000000
# 5 0.000000 0.000000 0.000000 0.000000 0.043968 0.000000
# 6 0.000000 0.000000 0.000000 0.000000 0.000000 0.042900
#
#
# Mechanical properties :
#
#
# Convention : Reuss Voigt Hill
#
# Bulk Modulus (GPa) = 23.65259 25.15268 24.40263
# Shear Modulus (GPa) = 25.17745 26.81479 25.99612
#
# Velocity S-wave (km/s) = 3.51434 3.62681 3.57102
# Velocity P-wave (km/s) = 5.29811 5.46596 5.38269
#
# Compressibility (1/GPa) = 0.04227867
#
# Stress axis : x y z
#
# Youngs Moduli (GPa) = 67.68780 92.27110 49.21247
#
# Poissons Ratio (x) = 0.02996 0.03906
# Poissons Ratio (y) = 0.02198 0.03484
# Poissons Ratio (z) = 0.05373 0.06532
#
# Static dielectric constant tensor:
#      x y z
#    x 3.620050 0.000000 0.000000 
#    y 0.000000 4.186440 0.000000 
#    z 0.000000 0.000000 3.813050 
# 
# 
# High freq. dielectric constant tensor:
#      x y z
#    x 1.755720 0.000000 0.000000 
#    y 0.000000 1.808060 0.000000 
#    z 0.000000 0.000000 1.810090 
# 
# From -- ./inp_files/8654.got.cif
#   From: 2010.03.12/outbox.cif.g09.slc.cpg/sg20_5_cif.got.tgz:8654.got - 2010.04.14 01:38:04.
