data_PCOD8158373
_publ_section_title
;
Structure prediction by ZEFSAII (Michael W. Deem and Ramdas Pophale) SiO2 
 PCOD8158373
Probable space group: C 2 2 21
;
_chemical_formula_sum "Si O2"
_cell_formula_units_Z 60
_cell_length_a 11.481765
_cell_length_b 14.787248
_cell_length_c 16.932962
_cell_angle_alpha 90.000000
_cell_angle_beta 90.000000
_cell_angle_gamma 90.000000
_cell_volume 2874.941051
_symmetry_space_group_name_H-M "C 2 2 21"
_symmetry_group_IT_number 20
_symmetry_cell_setting 'orthorhombic'
loop_
_space_group_symop_operation_xyz
x,y,z
-x,-y,1/2+z
x,-y,-z
-x,y,1/2-z
1/2+x,1/2+y,z
1/2-x,1/2-y,1/2+z
1/2+x,1/2-y,-z
1/2-x,1/2+y,1/2-z
loop_
_atom_site_type_symbol
_atom_site_label
_atom_site_fract_x
_atom_site_fract_y
_atom_site_fract_z
Si Si1 0.501026 0.755336 0.631139
Si Si2 0.745781 0.944060 0.237574
Si Si3 0.291979 0.863235 0.688648
Si Si4 0.477184 0.273959 0.550937
Si Si5 0.610733 0.205904 0.691917
Si Si6 0.159970 0.902474 0.534484
Si Si7 0.500000 0.601224 0.750000
Si Si8 0.744885 0.707661 0.610099
O O1 0.422972 0.825673 0.679735
O O2 0.465761 0.760305 0.539084
O O3 0.478602 0.657405 0.669522
O O4 0.640578 0.770696 0.646410
O O5 0.681757 0.888849 0.307469
O O6 0.884781 0.959220 0.242971
O O7 0.718659 0.879511 0.161797
O O8 0.695592 0.045687 0.240385
O O9 0.201274 0.786065 0.719219
O O10 0.248795 0.901843 0.605652
O O11 0.569991 0.214074 0.601213
O O12 0.526740 0.376268 0.557339
O O13 0.354154 0.272146 0.595081
O O14 0.500000 0.207522 0.750000
O O15 0.197410 0.826500 0.472913
O O16 0.159381 0.000000 0.500000
#
# Coordination Sequence:
#
# PCOD8158373 Si02
#       8
#     8   8   8   8   8   8   4   8
#     4  10  21  38  63  93 125 164 212 254 324 382
#     4  11  22  39  64  90 127 168 214 266 318 380
#     4  11  22  38  65  93 123 170 213 266 316 389
#     4  10  21  37  66  89 125 172 207 260 327 377
#     4  11  23  41  61  93 132 169 214 261 323 388
#     4  10  19  35  60  94 120 155 222 264 311 383
#     4  10  22  40  60  90 130 162 204 268 320 380
#     4  10  19  36  62  89 125 170 205 262 316 381
#
# _framework density 20.869992
#
# number of rings (size 3 to 8) (size 9 to 14) (size 15 to 20)
#    0.000    1.600    5.333    0.000    0.933    0.000 
#    1.200    0.000    0.000    4.000    0.000    0.000 
#    0.000    0.000    0.000    0.000    0.000    0.000 
#
# Total GULP energy -371720.648183 kJ/mol
# GULP energy per Si atom -12390.688273 kJ/mol
# Density = 2.082249 g / cm^3
# Si number density = 20.869992 Si / 1000 Ang^3
#
#
#
# Elastic Constant Matrix: (Units=GPa)
#
#
# Indices 1 2 3 4 5 6 
#
# 1 124.4745 50.9779 4.9466 0.0000 0.0000 0.0000
# 2 50.9779 98.7909 -8.4116 0.0000 0.0000 0.0000
# 3 4.9466 -8.4116 38.1489 0.0000 0.0000 0.0000
# 4 0.0000 0.0000 0.0000 21.9006 0.0000 0.0000
# 5 0.0000 0.0000 0.0000 0.0000 33.8761 0.0000
# 6 0.0000 0.0000 0.0000 0.0000 0.0000 27.5355
#
#
#
# Elastic Compliance Matrix: (Units=1/GPa)
#
#
# Indices 1 2 3 4 5 6 
#
# 1 0.010431 -0.005603 -0.002588 0.000000 0.000000 0.000000
# 2 -0.005603 0.013326 0.003665 0.000000 0.000000 0.000000
# 3 -0.002588 0.003665 0.027357 0.000000 0.000000 0.000000
# 4 0.000000 0.000000 0.000000 0.045661 0.000000 0.000000
# 5 0.000000 0.000000 0.000000 0.000000 0.029519 0.000000
# 6 0.000000 0.000000 0.000000 0.000000 0.000000 0.036317
#
#
# Mechanical properties :
#
#
# Convention : Reuss Voigt Hill
#
# Bulk Modulus (GPa) = 23.77496 39.60446 31.68971
# Shear Modulus (GPa) = 26.92748 30.92254 28.92501
#
# Velocity S-wave (km/s) = 3.59590 3.85343 3.72689
# Velocity P-wave (km/s) = 5.35325 6.23029 5.80835
#
# Compressibility (1/GPa) = 0.04206105
#
# Stress axis : x y z
#
# Youngs Moduli (GPa) = 95.86483 75.04266 36.55407
#
# Poissons Ratio (x) = 0.42047 0.09460
# Poissons Ratio (y) = 0.53714 -0.13396
# Poissons Ratio (z) = 0.24810 -0.27502
#
# Static dielectric constant tensor:
#      x y z
#    x 4.345990 0.000000 0.000000 
#    y 0.000000 3.579180 0.000000 
#    z 0.000000 0.000000 3.830900 
# 
# 
# High freq. dielectric constant tensor:
#      x y z
#    x 1.832940 0.000000 0.000000 
#    y 0.000000 1.784950 0.000000 
#    z 0.000000 0.000000 1.823480 
# 
# From -- ./inp_files/27328.got.cif
#   From: 2010.03.12/outbox.cif.g09.slc.cpg/sg20_14_cif.got.tgz:27328.got - 2010.04.14 01:38:04.
