data_PCOD8158964
_publ_section_title
;
Structure prediction by ZEFSAII (Michael W. Deem and Ramdas Pophale) SiO2 
 PCOD8158964
Probable space group: C 2 2 21
;
_chemical_formula_sum "Si O2"
_cell_formula_units_Z 36
_cell_length_a 25.674238
_cell_length_b 13.316367
_cell_length_c 4.963741
_cell_angle_alpha 90.000000
_cell_angle_beta 90.000000
_cell_angle_gamma 90.000000
_cell_volume 1697.041377
_symmetry_space_group_name_H-M "C 2 2 21"
_symmetry_group_IT_number 20
_symmetry_cell_setting 'orthorhombic'
loop_
_space_group_symop_operation_xyz
x,y,z
-x,-y,1/2+z
x,-y,-z
-x,y,1/2-z
1/2+x,1/2+y,z
1/2-x,1/2-y,1/2+z
1/2+x,1/2-y,-z
1/2-x,1/2+y,1/2-z
loop_
_atom_site_type_symbol
_atom_site_label
_atom_site_fract_x
_atom_site_fract_y
_atom_site_fract_z
Si Si1 0.941018 0.787059 0.654094
Si Si2 0.615283 0.207754 0.343914
Si Si3 0.535093 0.500000 0.000000
Si Si4 0.234587 0.500000 0.000000
Si Si5 0.724752 0.708228 0.613647
Si Si6 0.840250 0.500000 0.000000
O O1 0.924731 0.714148 0.407594
O O2 0.000000 0.766753 0.750000
O O3 0.930664 0.902616 0.569323
O O4 0.904537 0.771065 0.906212
O O5 0.669505 0.259898 0.259616
O O6 0.621733 0.092927 0.435968
O O7 0.500000 0.466526 0.250000
O O8 0.272286 0.596601 0.012451
O O9 0.197077 0.516221 0.750267
O O10 0.735738 0.783692 0.365471
#
# Coordination Sequence:
#
# PCOD8158964 Si02
#       6
#     8   8   4   4   8   4
#     4  11  24  43  68  98 136 172 224 282 335 398
#     4  12  24  42  68  99 132 178 230 273 337 402
#     4  10  20  40  68  94 126 174 208 262 354 408
#     4  12  22  42  67  95 138 179 224 277 342 398
#     4  12  23  41  64  99 133 174 223 278 326 400
#     4  12  24  42  69  93 130 189 226 267 344 414
#
# _framework density 21.213391000000001
#
# number of rings (size 3 to 8) (size 9 to 14) (size 15 to 20)
#    0.000    0.444    4.444    6.000    0.000    1.778 
#    0.000    2.222    0.000    1.333    0.000    0.000 
#    0.000    0.000    0.000    0.000    0.000    0.000 
#
# Total GULP energy -223223.203193 kJ/mol
# GULP energy per Si atom -12401.289066 kJ/mol
# Density = 2.116511 g / cm^3
# Si number density = 21.213391 Si / 1000 Ang^3
#
#
#
# Elastic Constant Matrix: (Units=GPa)
#
#
# Indices 1 2 3 4 5 6 
#
# 1 86.0607 71.5561 41.8373 0.0000 0.0000 0.0000
# 2 71.5561 99.8166 32.5996 0.0000 0.0000 0.0000
# 3 41.8373 32.5996 141.3688 0.0000 0.0000 0.0000
# 4 0.0000 0.0000 0.0000 33.0601 0.0000 0.0000
# 5 0.0000 0.0000 0.0000 0.0000 45.6268 0.0000
# 6 0.0000 0.0000 0.0000 0.0000 0.0000 -338.1326
#
#
#
# Elastic Compliance Matrix: (Units=1/GPa)
#
#
# Indices 1 2 3 4 5 6 
#
# 1 0.031099 -0.020860 -0.004393 0.000000 0.000000 0.000000
# 2 -0.020860 0.024826 0.000448 0.000000 0.000000 0.000000
# 3 -0.004393 0.000448 0.008271 0.000000 0.000000 0.000000
# 4 0.000000 0.000000 0.000000 0.030248 0.000000 0.000000
# 5 0.000000 0.000000 0.000000 0.000000 0.021917 0.000000
# 6 0.000000 0.000000 0.000000 0.000000 0.000000 -0.002957
#
#
# Mechanical properties :
#
#
# Convention : Reuss Voigt Hill
#
# Bulk Modulus (GPa) = 68.55680 68.80355 68.68017
# Shear Modulus (GPa) = 29.78421 -39.80559 -5.01069
#
# Velocity S-wave (km/s) = 3.75110 -4.33649 -1.53856
# Velocity P-wave (km/s) = 7.15184 2.72598 5.41202
#
# Compressibility (1/GPa) = 0.01458644
#
# Stress axis : x y z
#
# Youngs Moduli (GPa) = 32.15495 40.28104 120.91156
#
# Poissons Ratio (x) = 0.84024 0.53122
# Poissons Ratio (y) = 0.67074 -0.05423
# Poissons Ratio (z) = 0.14127 -0.01807
#
# Static dielectric constant tensor:
#      x y z
#    x 3.862770 0.000000 0.000000 
#    y 0.000000 4.203380 0.000000 
#    z 0.000000 0.000000 4.630790 
# 
# 
# High freq. dielectric constant tensor:
#      x y z
#    x 1.813430 0.000000 0.000000 
#    y 0.000000 1.837260 0.000000 
#    z 0.000000 0.000000 1.858310 
# 
# From -- ./inp_files/3585.got.cif
#   From: 2010.03.12/outbox.cif.g09.slc.cpg/sg20_2_cif.got.tgz:3585.got - 2010.04.14 01:38:04.
