data_PCOD8158042
_publ_section_title
;
Structure prediction by ZEFSAII (Michael W. Deem and Ramdas Pophale) SiO2 
 PCOD8158042
Probable space group: C 2 2 21
;
_chemical_formula_sum "Si O2"
_cell_formula_units_Z 56
_cell_length_a 16.985541
_cell_length_b 21.331412
_cell_length_c 8.848480
_cell_angle_alpha 90.000000
_cell_angle_beta 90.000000
_cell_angle_gamma 90.000000
_cell_volume 3206.030587
_symmetry_space_group_name_H-M "C 2 2 21"
_symmetry_group_IT_number 20
_symmetry_cell_setting 'orthorhombic'
loop_
_space_group_symop_operation_xyz
x,y,z
-x,-y,1/2+z
x,-y,-z
-x,y,1/2-z
1/2+x,1/2+y,z
1/2-x,1/2-y,1/2+z
1/2+x,1/2-y,-z
1/2-x,1/2+y,1/2-z
loop_
_atom_site_type_symbol
_atom_site_label
_atom_site_fract_x
_atom_site_fract_y
_atom_site_fract_z
Si Si1 0.139235 0.696648 0.113863
Si Si2 0.672049 0.819501 0.550879
Si Si3 0.987786 0.705803 0.927548
Si Si4 0.794235 0.824544 0.030430
Si Si5 0.038866 0.938873 0.092162
Si Si6 0.047065 0.844726 0.596224
Si Si7 0.320992 0.656770 0.633137
O O1 0.147158 0.664344 0.277799
O O2 0.148406 0.772051 0.113989
O O3 0.206627 0.660670 0.022043
O O4 0.057543 0.678348 0.031383
O O5 0.593043 0.831339 0.455241
O O6 0.700287 0.748923 0.552701
O O7 0.744446 0.857375 0.473209
O O8 0.979549 0.778660 0.975537
O O9 0.000000 0.699897 0.750000
O O10 0.804366 0.858057 0.191419
O O11 0.857126 0.844602 0.898959
O O12 0.112815 0.892549 0.088219
O O13 0.000000 0.959203 0.250000
O O14 0.968655 0.902002 0.013227
O O15 0.064375 0.000000 0.000000
O O16 0.000000 0.856436 0.750000
#
# Coordination Sequence:
#
# PCOD8158042 Si02
#       7
#     8   8   8   8   8   8   8
#     4  10  18  29  49  76 106 135 175 211 261 333
#     4   9  19  28  47  74 100 136 173 212 255 330
#     4  10  18  29  47  73 108 141 172 205 256 325
#     4   9  18  30  47  71  99 139 172 208 268 329
#     4  12  24  39  55  74  99 141 193 236 267 307
#     4  10  20  32  51  71 100 139 180 220 269 312
#     4  10  19  34  50  69 105 136 176 221 276 314
#
# _framework density 17.467081
#
# number of rings (size 3 to 8) (size 9 to 14) (size 15 to 20)
#    0.000    2.000    2.857    1.714    2.000    3.429 
#    0.000    0.000    0.000    0.000    0.000    0.000 
#    0.000    8.000    0.000    0.000    0.000    0.143 
#
# Total GULP energy -346894.357765 kJ/mol
# GULP energy per Si atom -12389.084206 kJ/mol
# Density = 1.742733 g / cm^3
# Si number density = 17.467081 Si / 1000 Ang^3
#
#
#
# Elastic Constant Matrix: (Units=GPa)
#
#
# Indices 1 2 3 4 5 6 
#
# 1 115.0081 20.8926 40.7989 0.0000 0.0000 0.0000
# 2 20.8926 37.8832 21.2271 0.0000 0.0000 0.0000
# 3 40.7989 21.2271 86.7819 0.0000 0.0000 0.0000
# 4 0.0000 0.0000 0.0000 15.4617 0.0000 0.0000
# 5 0.0000 0.0000 0.0000 0.0000 38.1934 0.0000
# 6 0.0000 0.0000 0.0000 0.0000 0.0000 5.8032
#
#
#
# Elastic Compliance Matrix: (Units=1/GPa)
#
#
# Indices 1 2 3 4 5 6 
#
# 1 0.010848 -0.003621 -0.004214 0.000000 0.000000 0.000000
# 2 -0.003621 0.031798 -0.006075 0.000000 0.000000 0.000000
# 3 -0.004214 -0.006075 0.014990 0.000000 0.000000 0.000000
# 4 0.000000 0.000000 0.000000 0.064676 0.000000 0.000000
# 5 0.000000 0.000000 0.000000 0.000000 0.026183 0.000000
# 6 0.000000 0.000000 0.000000 0.000000 0.000000 0.172319
#
#
# Mechanical properties :
#
#
# Convention : Reuss Voigt Hill
#
# Bulk Modulus (GPa) = 33.54039 45.05671 39.29855
# Shear Modulus (GPa) = 13.94412 22.34197 18.14304
#
# Velocity S-wave (km/s) = 2.82850 3.58032 3.22638
# Velocity P-wave (km/s) = 5.46909 6.55307 6.03547
#
# Compressibility (1/GPa) = 0.02981480
#
# Stress axis : x y z
#
# Youngs Moduli (GPa) = 92.18419 31.44817 66.70926
#
# Poissons Ratio (x) = 0.11388 0.28112
# Poissons Ratio (y) = 0.33383 0.40529
# Poissons Ratio (z) = 0.38848 0.19106
#
# Static dielectric constant tensor:
#      x y z
#    x 3.465920 0.000000 0.000000 
#    y 0.000000 2.685420 0.000000 
#    z 0.000000 0.000000 3.537670 
# 
# 
# High freq. dielectric constant tensor:
#      x y z
#    x 1.691330 0.000000 0.000000 
#    y 0.000000 1.594480 0.000000 
#    z 0.000000 0.000000 1.690270 
# 
# From -- ./inp_files/8717.got.cif
#   From: 2010.03.12/outbox.cif.g09.slc.cpg/sg20_5_cif.got.tgz:8717.got - 2010.04.14 01:38:04.
