data_PCOD8158396
_publ_section_title
;
Structure prediction by ZEFSAII (Michael W. Deem and Ramdas Pophale) SiO2 
 PCOD8158396
Probable space group: C 2 2 21
;
_chemical_formula_sum "Si O2"
_cell_formula_units_Z 56
_cell_length_a 15.158980
_cell_length_b 18.912110
_cell_length_c 10.277655
_cell_angle_alpha 90.000000
_cell_angle_beta 90.000000
_cell_angle_gamma 90.000000
_cell_volume 2946.483412
_symmetry_space_group_name_H-M "C 2 2 21"
_symmetry_group_IT_number 20
_symmetry_cell_setting 'orthorhombic'
loop_
_space_group_symop_operation_xyz
x,y,z
-x,-y,1/2+z
x,-y,-z
-x,y,1/2-z
1/2+x,1/2+y,z
1/2-x,1/2-y,1/2+z
1/2+x,1/2-y,-z
1/2-x,1/2+y,1/2-z
loop_
_atom_site_type_symbol
_atom_site_label
_atom_site_fract_x
_atom_site_fract_y
_atom_site_fract_z
Si Si1 0.103441 0.782773 0.263122
Si Si2 0.856426 0.774880 0.939097
Si Si3 0.097131 0.521602 0.242026
Si Si4 0.196458 0.500000 0.500000
Si Si5 0.810058 0.651268 0.359224
Si Si6 0.133677 0.622423 0.855925
Si Si7 0.252236 0.637643 0.620570
Si Si8 0.500000 0.233288 0.750000
O O1 0.130937 0.799514 0.412057
O O2 0.130488 0.702859 0.228518
O O3 0.150546 0.833090 0.155325
O O4 0.000000 0.794124 0.250000
O O5 0.792941 0.827496 0.857075
O O6 0.811377 0.697128 0.942020
O O7 0.950058 0.778243 0.862442
O O8 0.128082 0.498834 0.382914
O O9 0.174059 0.572871 0.192462
O O10 0.086324 0.454203 0.144464
O O11 0.000000 0.557660 0.250000
O O12 0.256776 0.570854 0.519738
O O13 0.837642 0.651525 0.507249
O O14 0.216063 0.613508 0.760192
O O15 0.071450 0.684793 0.814668
#
# Coordination Sequence:
#
# PCOD8158396 Si02
#       8
#     8   8   8   4   8   8   8   4
#     4  11  21  37  58  88 116 154 200 249 293 347
#     4  10  21  38  58  89 122 154 201 240 297 360
#     4  11  23  35  58  87 121 157 193 240 295 361
#     4  10  22  40  56  82 114 158 202 234 302 364
#     4  11  22  35  57  88 124 155 192 237 297 363
#     4  10  19  36  56  85 119 157 192 238 299 352
#     4   9  20  37  59  79 117 157 191 246 298 356
#     4  10  20  36  62  84 118 162 198 242 290 350
#
# _framework density 19.005706
#
# number of rings (size 3 to 8) (size 9 to 14) (size 15 to 20)
#    0.000    1.714    2.143    2.571    2.000    0.000 
#    2.571    0.000    0.000    3.429    0.000    0.000 
#    0.000    0.000    0.000    0.000    0.000    0.000 
#
# Total GULP energy -347015.993530 kJ/mol
# GULP energy per Si atom -12393.428340 kJ/mol
# Density = 1.896245 g / cm^3
# Si number density = 19.005706 Si / 1000 Ang^3
#
#
#
# Elastic Constant Matrix: (Units=GPa)
#
#
# Indices 1 2 3 4 5 6 
#
# 1 80.3427 13.3905 29.1221 0.0000 0.0000 0.0000
# 2 13.3905 41.4079 19.6511 0.0000 0.0000 0.0000
# 3 29.1221 19.6511 54.2392 0.0000 0.0000 0.0000
# 4 0.0000 0.0000 0.0000 35.6931 0.0000 0.0000
# 5 0.0000 0.0000 0.0000 0.0000 19.0262 0.0000
# 6 0.0000 0.0000 0.0000 0.0000 0.0000 24.6160
#
#
#
# Elastic Compliance Matrix: (Units=1/GPa)
#
#
# Indices 1 2 3 4 5 6 
#
# 1 0.015511 -0.001284 -0.007863 0.000000 0.000000 0.000000
# 2 -0.001284 0.029271 -0.009915 0.000000 0.000000 0.000000
# 3 -0.007863 -0.009915 0.026251 0.000000 0.000000 0.000000
# 4 0.000000 0.000000 0.000000 0.028017 0.000000 0.000000
# 5 0.000000 0.000000 0.000000 0.000000 0.052559 0.000000
# 6 0.000000 0.000000 0.000000 0.000000 0.000000 0.040624
#
#
# Mechanical properties :
#
#
# Convention : Reuss Voigt Hill
#
# Bulk Modulus (GPa) = 30.38810 33.36856 31.87833
# Shear Modulus (GPa) = 20.71885 23.45547 22.08716
#
# Velocity S-wave (km/s) = 3.30531 3.51683 3.41271
# Velocity P-wave (km/s) = 5.53086 5.83832 5.68667
#
# Compressibility (1/GPa) = 0.03290762
#
# Stress axis : x y z
#
# Youngs Moduli (GPa) = 64.47134 34.16367 38.09407
#
# Poissons Ratio (x) = 0.04388 0.29952
# Poissons Ratio (y) = 0.08281 0.37771
# Poissons Ratio (z) = 0.50692 0.33874
#
# Static dielectric constant tensor:
#      x y z
#    x 3.352660 0.000000 0.000000 
#    y 0.000000 3.562000 0.000000 
#    z 0.000000 0.000000 3.602050 
# 
# 
# High freq. dielectric constant tensor:
#      x y z
#    x 1.726220 0.000000 0.000000 
#    y 0.000000 1.721010 0.000000 
#    z 0.000000 0.000000 1.751020 
# 
# From -- ./inp_files/8782.got.cif
#   From: 2010.03.12/outbox.cif.g09.slc.cpg/sg20_5_cif.got.tgz:8782.got - 2010.04.14 01:38:04.
