data_PCOD8158753
_publ_section_title
;
Structure prediction by ZEFSAII (Michael W. Deem and Ramdas Pophale) SiO2 
 PCOD8158753
Probable space group: C 2 2 21
;
_chemical_formula_sum "Si O2"
_cell_formula_units_Z 48
_cell_length_a 16.435126
_cell_length_b 9.857041
_cell_length_c 15.879982
_cell_angle_alpha 90.000000
_cell_angle_beta 90.000000
_cell_angle_gamma 90.000000
_cell_volume 2572.584252
_symmetry_space_group_name_H-M "C 2 2 21"
_symmetry_group_IT_number 20
_symmetry_cell_setting 'orthorhombic'
loop_
_space_group_symop_operation_xyz
x,y,z
-x,-y,1/2+z
x,-y,-z
-x,y,1/2-z
1/2+x,1/2+y,z
1/2-x,1/2-y,1/2+z
1/2+x,1/2-y,-z
1/2-x,1/2+y,1/2-z
loop_
_atom_site_type_symbol
_atom_site_label
_atom_site_fract_x
_atom_site_fract_y
_atom_site_fract_z
Si Si1 0.653643 0.310048 0.145091
Si Si2 0.034109 0.612987 0.560080
Si Si3 0.423609 0.025288 0.309182
Si Si4 0.087039 0.081103 0.206933
Si Si5 0.162243 0.688440 0.697471
Si Si6 0.562871 0.645404 0.018771
O O1 0.622628 0.163276 0.170954
O O2 0.607205 0.422053 0.201815
O O3 0.748256 0.327815 0.161799
O O4 0.638314 0.336147 0.045719
O O5 0.074555 0.500000 0.500000
O O6 0.100996 0.673628 0.620597
O O7 0.956495 0.546836 0.606912
O O8 0.002398 0.736457 0.501832
O O9 0.500000 0.057575 0.250000
O O10 0.358098 0.926762 0.265743
O O11 0.152683 0.161617 0.263063
O O12 0.091225 0.151356 0.115389
O O13 0.000000 0.103613 0.250000
O O14 0.520583 0.500000 0.000000
#
# Coordination Sequence:
#
# PCOD8158753 Si02
#       6
#     8   8   8   8   8   8
#     4  11  23  36  59  89 127 148 196 252 305 337
#     4  11  20  38  65  84 115 159 206 243 289 360
#     4  10  20  37  60  87 114 157 203 238 290 361
#     4  11  20  39  65  82 116 162 202 236 293 365
#     4  11  22  38  60  90 119 155 197 251 301 350
#     4  10  21  37  61  85 116 161 198 237 296 359
#
# _framework density 18.658280999999999
#
# number of rings (size 3 to 8) (size 9 to 14) (size 15 to 20)
#    0.000    1.333    5.000    2.000    0.000    2.000 
#    0.000    0.000    3.667    0.000    0.000    0.000 
#    0.000    0.000    0.000    0.000    0.000    0.000 
#
# Total GULP energy -297595.802848 kJ/mol
# GULP energy per Si atom -12399.825119 kJ/mol
# Density = 1.861581 g / cm^3
# Si number density = 18.658281 Si / 1000 Ang^3
#
#
#
# Elastic Constant Matrix: (Units=GPa)
#
#
# Indices 1 2 3 4 5 6 
#
# 1 88.6062 46.8901 39.6689 0.0000 0.0000 0.0000
# 2 46.8901 122.0998 44.1728 0.0000 0.0000 0.0000
# 3 39.6689 44.1728 103.1665 0.0000 0.0000 0.0000
# 4 0.0000 0.0000 0.0000 31.1656 0.0000 0.0000
# 5 0.0000 0.0000 0.0000 0.0000 26.6194 0.0000
# 6 0.0000 0.0000 0.0000 0.0000 0.0000 24.1874
#
#
#
# Elastic Compliance Matrix: (Units=1/GPa)
#
#
# Indices 1 2 3 4 5 6 
#
# 1 0.015459 -0.004480 -0.004026 0.000000 0.000000 0.000000
# 2 -0.004480 0.010990 -0.002983 0.000000 0.000000 0.000000
# 3 -0.004026 -0.002983 0.012518 0.000000 0.000000 0.000000
# 4 0.000000 0.000000 0.000000 0.032087 0.000000 0.000000
# 5 0.000000 0.000000 0.000000 0.000000 0.037567 0.000000
# 6 0.000000 0.000000 0.000000 0.000000 0.000000 0.041344
#
#
# Mechanical properties :
#
#
# Convention : Reuss Voigt Hill
#
# Bulk Modulus (GPa) = 62.54228 63.92620 63.23424
# Shear Modulus (GPa) = 28.04702 28.60386 28.32544
#
# Velocity S-wave (km/s) = 3.88131 3.91965 3.90053
# Velocity P-wave (km/s) = 7.32658 7.40411 7.36544
#
# Compressibility (1/GPa) = 0.01598918
#
# Stress axis : x y z
#
# Youngs Moduli (GPa) = 64.68603 90.99443 79.88367
#
# Poissons Ratio (x) = 0.40769 0.32161
# Poissons Ratio (y) = 0.28982 0.23827
# Poissons Ratio (z) = 0.26042 0.27141
#
# Static dielectric constant tensor:
#      x y z
#    x 3.169790 0.000000 0.000000 
#    y 0.000000 3.743290 0.000000 
#    z 0.000000 0.000000 3.576750 
# 
# 
# High freq. dielectric constant tensor:
#      x y z
#    x 1.696490 0.000000 0.000000 
#    y 0.000000 1.749080 0.000000 
#    z 0.000000 0.000000 1.730440 
# 
# From -- ./inp_files/21292.got.cif
#   From: 2010.03.12/outbox.cif.g09.slc.cpg/sg20_11_cif.got.tgz:21292.got - 2010.04.14 01:38:04.
