data_PCOD8158589
_publ_section_title
;
Structure prediction by ZEFSAII (Michael W. Deem and Ramdas Pophale) SiO2 
 PCOD8158589
Probable space group: C 2 2 21
;
_chemical_formula_sum "Si O2"
_cell_formula_units_Z 64
_cell_length_a 22.018118
_cell_length_b 9.455525
_cell_length_c 15.838226
_cell_angle_alpha 90.000000
_cell_angle_beta 90.000000
_cell_angle_gamma 90.000000
_cell_volume 3297.405651
_symmetry_space_group_name_H-M "C 2 2 21"
_symmetry_group_IT_number 20
_symmetry_cell_setting 'orthorhombic'
loop_
_space_group_symop_operation_xyz
x,y,z
-x,-y,1/2+z
x,-y,-z
-x,y,1/2-z
1/2+x,1/2+y,z
1/2-x,1/2-y,1/2+z
1/2+x,1/2-y,-z
1/2-x,1/2+y,1/2-z
loop_
_atom_site_type_symbol
_atom_site_label
_atom_site_fract_x
_atom_site_fract_y
_atom_site_fract_z
Si Si1 0.669772 0.341507 0.316686
Si Si2 0.727254 0.342887 0.865109
Si Si3 0.450475 0.163996 0.821279
Si Si4 0.549525 0.163996 0.321279
Si Si5 0.367464 0.665925 0.500000
Si Si6 0.330228 0.341507 0.816686
Si Si7 0.772746 0.842887 0.365110
Si Si8 0.010259 0.337171 0.000000
O O1 0.713942 0.256416 0.380423
O O2 0.607166 0.260458 0.302732
O O3 0.657179 0.500000 0.351161
O O4 0.706315 0.349217 0.230439
O O5 0.706315 0.349217 0.769561
O O6 0.745595 0.500000 0.896566
O O7 0.670719 0.285362 0.918703
O O8 0.500000 0.202446 0.750000
O O9 0.392834 0.260459 0.802732
O O10 0.472779 0.199556 0.915735
O O11 0.431787 0.000000 0.813495
O O12 0.500000 0.202446 0.250000
O O13 0.527221 0.199556 0.415735
O O14 0.381744 0.500000 0.500000
O O15 0.329280 0.714638 0.581296
O O16 0.430171 0.745239 0.500000
O O17 0.286058 0.256416 0.880423
O O18 0.029893 0.500000 0.000000
#
# Coordination Sequence:
#
# PCOD8158589 Si02
#       8
#     8   8   8   8   8   8   8   8
#     4  10  20  34  54  79 105 136 175 216 259 308
#     4   9  19  35  54  77 105 136 170 212 263 316
#     4  10  21  37  56  77 106 144 178 213 262 314
#     4  10  21  37  56  77 106 144 178 213 262 314
#     4  10  20  35  56  79 103 134 172 216 265 310
#     4  10  20  34  54  79 105 136 175 216 259 308
#     4   9  19  35  54  77 105 136 170 212 263 316
#     4  10  22  37  54  79 107 138 178 218 259 314
#
# _framework density 19.409196999999999
#
# number of rings (size 3 to 8) (size 9 to 14) (size 15 to 20)
#    0.000    2.250    0.000    2.250    0.000    4.500 
#    0.000    5.000    0.000    0.000    0.000    0.000 
#    0.000    0.000    0.000    0.000    0.000    0.000 
#
# Total GULP energy -396759.338577 kJ/mol
# GULP energy per Si atom -12398.729331 kJ/mol
# Density = 1.936502 g / cm^3
# Si number density = 19.409197 Si / 1000 Ang^3
#
#
#
# Elastic Constant Matrix: (Units=GPa)
#
#
# Indices 1 2 3 4 5 6 
#
# 1 117.4736 80.2311 6.3050 0.0000 0.0000 0.0000
# 2 80.2311 113.5513 16.2803 0.0000 0.0000 0.0000
# 3 6.3050 16.2803 60.5047 0.0000 0.0000 0.0000
# 4 0.0000 0.0000 0.0000 3.8544 0.0000 0.0000
# 5 0.0000 0.0000 0.0000 0.0000 4.9126 0.0000
# 6 0.0000 0.0000 0.0000 0.0000 0.0000 46.1094
#
#
#
# Elastic Compliance Matrix: (Units=1/GPa)
#
#
# Indices 1 2 3 4 5 6 
#
# 1 0.016578 -0.011926 0.001481 0.000000 0.000000 0.000000
# 2 -0.011926 0.017739 -0.003530 0.000000 0.000000 0.000000
# 3 0.001481 -0.003530 0.017323 0.000000 0.000000 0.000000
# 4 0.000000 0.000000 0.000000 0.259442 0.000000 0.000000
# 5 0.000000 0.000000 0.000000 0.000000 0.203557 0.000000
# 6 0.000000 0.000000 0.000000 0.000000 0.000000 0.021688
#
#
# Mechanical properties :
#
#
# Convention : Reuss Voigt Hill
#
# Bulk Modulus (GPa) = 42.21064 55.24026 48.72545
# Shear Modulus (GPa) = 8.73861 23.55617 16.14739
#
# Velocity S-wave (km/s) = 2.12417 3.48754 2.88748
# Velocity P-wave (km/s) = 5.27362 6.68879 6.02291
#
# Compressibility (1/GPa) = 0.02369071
#
# Stress axis : x y z
#
# Youngs Moduli (GPa) = 60.32081 56.37271 57.72605
#
# Poissons Ratio (x) = 0.67229 -0.08552
# Poissons Ratio (y) = 0.71937 0.20380
# Poissons Ratio (z) = -0.08936 0.19902
#
# Static dielectric constant tensor:
#      x y z
#    x 3.414300 0.000000 0.000000 
#    y 0.000000 3.825770 0.000000 
#    z 0.000000 0.000000 3.703110 
# 
# 
# High freq. dielectric constant tensor:
#      x y z
#    x 1.757960 0.000000 0.000000 
#    y 0.000000 1.757660 0.000000 
#    z 0.000000 0.000000 1.753080 
# 
# From -- ./inp_files/23934.got.cif
#   From: 2010.03.12/outbox.cif.g09.slc.cpg/sg20_12_cif.got.tgz:23934.got - 2010.04.14 01:38:04.
