data_PCOD8158893
_publ_section_title
;
Structure prediction by ZEFSAII (Michael W. Deem and Ramdas Pophale) SiO2 
 PCOD8158893
Probable space group: C 2 2 21
;
_chemical_formula_sum "Si O2"
_cell_formula_units_Z 48
_cell_length_a 21.122080
_cell_length_b 8.755654
_cell_length_c 12.580354
_cell_angle_alpha 90.000000
_cell_angle_beta 90.000000
_cell_angle_gamma 90.000000
_cell_volume 2326.580781
_symmetry_space_group_name_H-M "C 2 2 21"
_symmetry_group_IT_number 20
_symmetry_cell_setting 'orthorhombic'
loop_
_space_group_symop_operation_xyz
x,y,z
-x,-y,1/2+z
x,-y,-z
-x,y,1/2-z
1/2+x,1/2+y,z
1/2-x,1/2-y,1/2+z
1/2+x,1/2-y,-z
1/2-x,1/2+y,1/2-z
loop_
_atom_site_type_symbol
_atom_site_label
_atom_site_fract_x
_atom_site_fract_y
_atom_site_fract_z
Si Si1 0.810733 0.183309 0.815917
Si Si2 0.412022 0.599289 0.392777
Si Si3 0.936221 0.797761 0.300410
Si Si4 0.362824 0.180273 0.983792
Si Si5 0.186506 0.829124 0.727436
Si Si6 0.993261 0.320815 0.499797
O O1 0.873780 0.253918 0.761510
O O2 0.754201 0.255702 0.749432
O O3 0.805684 0.001307 0.813785
O O4 0.813089 0.234741 0.938981
O O5 0.396773 0.500000 0.500000
O O6 0.438489 0.481327 0.305156
O O7 0.349535 0.674735 0.341001
O O8 0.465468 0.731829 0.397932
O O9 0.939148 0.728765 0.417388
O O10 0.000000 0.730644 0.250000
O O11 0.348685 0.227755 0.862345
O O12 0.434284 0.233780 0.015759
O O13 0.354765 0.000000 0.000000
O O14 0.991521 0.500000 0.500000
#
# Coordination Sequence:
#
# PCOD8158893 Si02
#       6
#     8   8   8   8   8   8
#     4  11  24  42  65  92 128 170 217 268 324 393
#     4   9  22  40  65  92 126 163 213 262 319 392
#     4  10  20  39  64  89 119 166 209 260 315 385
#     4  11  24  41  62  93 133 169 218 272 324 397
#     4  11  25  42  65  96 127 176 217 264 336 391
#     4  10  22  38  61  96 128 164 208 273 330 374
#
# _framework density 20.631133999999999
#
# number of rings (size 3 to 8) (size 9 to 14) (size 15 to 20)
#    0.000    1.667    1.667    1.500    4.667    8.667 
#    0.000    0.000    0.000    0.000    0.000    0.000 
#    0.000    0.000    0.000    0.000    0.000    0.000 
#
# Total GULP energy -297400.996611 kJ/mol
# GULP energy per Si atom -12391.708192 kJ/mol
# Density = 2.058418 g / cm^3
# Si number density = 20.631134 Si / 1000 Ang^3
#
#
#
# Elastic Constant Matrix: (Units=GPa)
#
#
# Indices 1 2 3 4 5 6 
#
# 1 113.0824 50.1239 45.3879 0.0000 0.0000 0.0000
# 2 50.1239 99.5765 35.9167 0.0000 0.0000 0.0000
# 3 45.3879 35.9167 86.6503 0.0000 0.0000 0.0000
# 4 0.0000 0.0000 0.0000 27.5450 0.0000 0.0000
# 5 0.0000 0.0000 0.0000 0.0000 35.2245 0.0000
# 6 0.0000 0.0000 0.0000 0.0000 0.0000 28.4419
#
#
#
# Elastic Compliance Matrix: (Units=1/GPa)
#
#
# Indices 1 2 3 4 5 6 
#
# 1 0.012865 -0.004756 -0.004767 0.000000 0.000000 0.000000
# 2 -0.004756 0.013566 -0.003132 0.000000 0.000000 0.000000
# 3 -0.004767 -0.003132 0.015336 0.000000 0.000000 0.000000
# 4 0.000000 0.000000 0.000000 0.036304 0.000000 0.000000
# 5 0.000000 0.000000 0.000000 0.000000 0.028389 0.000000
# 6 0.000000 0.000000 0.000000 0.000000 0.000000 0.035159
#
#
# Mechanical properties :
#
#
# Convention : Reuss Voigt Hill
#
# Bulk Modulus (GPa) = 60.76685 62.46288 61.61487
# Shear Modulus (GPa) = 28.99964 29.43433 29.21699
#
# Velocity S-wave (km/s) = 3.75323 3.78126 3.76727
# Velocity P-wave (km/s) = 6.94984 7.02892 6.98949
#
# Compressibility (1/GPa) = 0.01645634
#
# Stress axis : x y z
#
# Youngs Moduli (GPa) = 77.73213 73.71175 65.20654
#
# Poissons Ratio (x) = 0.35059 0.31085
# Poissons Ratio (y) = 0.36971 0.20422
# Poissons Ratio (z) = 0.37056 0.23086
#
# Static dielectric constant tensor:
#      x y z
#    x 3.895830 0.000000 0.000000 
#    y 0.000000 3.918420 0.000000 
#    z 0.000000 0.000000 3.860350 
# 
# 
# High freq. dielectric constant tensor:
#      x y z
#    x 1.805130 0.000000 0.000000 
#    y 0.000000 1.808420 0.000000 
#    z 0.000000 0.000000 1.809250 
# 
# From -- ./inp_files/16632.got.cif
#   From: 2010.03.12/outbox.cif.g09.slc.cpg/sg20_9_cif.got.tgz:16632.got - 2010.04.14 01:38:04.
