data_PCOD8158902
_publ_section_title
;
Structure prediction by ZEFSAII (Michael W. Deem and Ramdas Pophale) SiO2 
 PCOD8158902
Probable space group: C 2 2 21
;
_chemical_formula_sum "Si O2"
_cell_formula_units_Z 64
_cell_length_a 16.838764
_cell_length_b 16.875802
_cell_length_c 10.894809
_cell_angle_alpha 90.000000
_cell_angle_beta 90.000000
_cell_angle_gamma 90.000000
_cell_volume 3095.952240
_symmetry_space_group_name_H-M "C 2 2 21"
_symmetry_group_IT_number 20
_symmetry_cell_setting 'orthorhombic'
loop_
_space_group_symop_operation_xyz
x,y,z
-x,-y,1/2+z
x,-y,-z
-x,y,1/2-z
1/2+x,1/2+y,z
1/2-x,1/2-y,1/2+z
1/2+x,1/2-y,-z
1/2-x,1/2+y,1/2-z
loop_
_atom_site_type_symbol
_atom_site_label
_atom_site_fract_x
_atom_site_fract_y
_atom_site_fract_z
Si Si1 0.331293 0.847229 0.645326
Si Si2 0.480612 0.055825 0.384645
Si Si3 0.831169 0.089243 0.209223
Si Si4 0.736935 0.410144 0.972338
Si Si5 0.558092 0.661936 0.475288
Si Si6 0.115527 0.321484 0.586427
Si Si7 0.392323 0.316232 0.415021
Si Si8 0.918291 0.068857 0.794307
O O1 0.388582 0.920455 0.612842
O O2 0.243248 0.883118 0.622950
O O3 0.345215 0.812709 0.780803
O O4 0.353267 0.770308 0.564230
O O5 0.500000 0.016517 0.250000
O O6 0.530930 0.135927 0.399583
O O7 0.500298 0.000000 0.500000
O O8 0.804195 0.114020 0.344251
O O9 0.909865 0.135787 0.159787
O O10 0.846624 0.994439 0.217826
O O11 0.822859 0.371571 0.994087
O O12 0.753298 0.500000 0.000000
O O13 0.675637 0.380973 0.071681
O O14 0.604645 0.739401 0.517914
O O15 0.463189 0.676196 0.484417
O O16 0.580304 0.588587 0.562237
O O17 0.418095 0.345681 0.278857
O O18 0.000000 0.025794 0.750000
#
# Coordination Sequence:
#
# PCOD8158902 Si02
#       8
#     8   8   8   8   8   8   8   8
#     4  10  21  40  66  88 122 169 215 258 318 390
#     4  10  21  39  66  93 124 167 219 271 323 388
#     4  11  24  39  58  96 127 162 205 265 319 376
#     4  11  23  38  59  88 128 166 203 258 320 383
#     4  11  22  37  65  90 119 161 210 268 309 378
#     4  10  20  39  65  90 118 163 220 261 310 388
#     4  11  21  39  65  89 120 169 211 252 315 393
#     4  10  22  37  62  88 122 161 208 252 315 378
#
# _framework density 20.672153999999999
#
# number of rings (size 3 to 8) (size 9 to 14) (size 15 to 20)
#    0.000    1.500    3.750    1.500    1.750    1.000 
#    0.000    1.250    0.000    0.000    0.000    0.000 
#    0.000    0.000    0.000    0.000    0.000    0.000 
#
# Total GULP energy -396458.346699 kJ/mol
# GULP energy per Si atom -12389.323334 kJ/mol
# Density = 2.062510 g / cm^3
# Si number density = 20.672154 Si / 1000 Ang^3
#
#
#
# Elastic Constant Matrix: (Units=GPa)
#
#
# Indices 1 2 3 4 5 6 
#
# 1 116.6079 40.9498 13.2913 0.0000 0.0000 0.0000
# 2 40.9498 94.6830 22.3626 0.0000 0.0000 0.0000
# 3 13.2913 22.3626 50.9947 0.0000 0.0000 0.0000
# 4 0.0000 0.0000 0.0000 21.7615 0.0000 0.0000
# 5 0.0000 0.0000 0.0000 0.0000 21.0205 0.0000
# 6 0.0000 0.0000 0.0000 0.0000 0.0000 14.2623
#
#
#
# Elastic Compliance Matrix: (Units=1/GPa)
#
#
# Indices 1 2 3 4 5 6 
#
# 1 0.010141 -0.004196 -0.000803 0.000000 0.000000 0.000000
# 2 -0.004196 0.013518 -0.004834 0.000000 0.000000 0.000000
# 3 -0.000803 -0.004834 0.021939 0.000000 0.000000 0.000000
# 4 0.000000 0.000000 0.000000 0.045953 0.000000 0.000000
# 5 0.000000 0.000000 0.000000 0.000000 0.047573 0.000000
# 6 0.000000 0.000000 0.000000 0.000000 0.000000 0.070115
#
#
# Mechanical properties :
#
#
# Convention : Reuss Voigt Hill
#
# Bulk Modulus (GPa) = 38.56374 46.16590 42.36482
# Shear Modulus (GPa) = 21.04823 23.78764 22.41793
#
# Velocity S-wave (km/s) = 3.19437 3.39589 3.29667
# Velocity P-wave (km/s) = 5.68338 6.14467 5.91852
#
# Compressibility (1/GPa) = 0.02593109
#
# Stress axis : x y z
#
# Youngs Moduli (GPa) = 98.61079 73.97430 45.58050
#
# Poissons Ratio (x) = 0.31041 0.03660
# Poissons Ratio (y) = 0.41379 0.22036
# Poissons Ratio (z) = 0.07918 0.35762
#
# Static dielectric constant tensor:
#      x y z
#    x 3.956030 0.000000 0.000000 
#    y 0.000000 3.533260 0.000000 
#    z 0.000000 0.000000 3.548880 
# 
# 
# High freq. dielectric constant tensor:
#      x y z
#    x 1.820570 0.000000 0.000000 
#    y 0.000000 1.802910 0.000000 
#    z 0.000000 0.000000 1.786810 
# 
# From -- ./inp_files/15350.got.cif
#   From: 2010.03.12/outbox.cif.g09.slc.cpg/sg20_8_cif.got.tgz:15350.got - 2010.04.14 01:38:04.
