data_PCOD8158778
_publ_section_title
;
Structure prediction by ZEFSAII (Michael W. Deem and Ramdas Pophale) SiO2 
 PCOD8158778
Probable space group: C 2 2 21
;
_chemical_formula_sum "Si O2"
_cell_formula_units_Z 48
_cell_length_a 28.120938
_cell_length_b 8.690572
_cell_length_c 10.046347
_cell_angle_alpha 90.000000
_cell_angle_beta 90.000000
_cell_angle_gamma 90.000000
_cell_volume 2455.196970
_symmetry_space_group_name_H-M "C 2 2 21"
_symmetry_group_IT_number 20
_symmetry_cell_setting 'orthorhombic'
loop_
_space_group_symop_operation_xyz
x,y,z
-x,-y,1/2+z
x,-y,-z
-x,y,1/2-z
1/2+x,1/2+y,z
1/2-x,1/2-y,1/2+z
1/2+x,1/2-y,-z
1/2-x,1/2+y,1/2-z
loop_
_atom_site_type_symbol
_atom_site_label
_atom_site_fract_x
_atom_site_fract_y
_atom_site_fract_z
Si Si1 0.949186 0.645653 0.406694
Si Si2 0.348751 0.816019 0.988925
Si Si3 0.292874 0.334874 0.241643
Si Si4 0.691179 0.302639 0.748631
Si Si5 0.946625 0.360634 0.897723
Si Si6 0.357453 0.319836 0.482628
O O1 0.944469 0.500000 0.500000
O O2 0.940770 0.587422 0.255789
O O3 0.911277 0.769190 0.455868
O O4 0.002147 0.722560 0.417531
O O5 0.345162 0.741375 0.133095
O O6 0.307729 0.746083 0.895722
O O7 0.400209 0.759282 0.932698
O O8 0.343329 0.000000 0.000000
O O9 0.297488 0.517801 0.238513
O O10 0.238480 0.296417 0.270556
O O11 0.324983 0.265878 0.359785
O O12 0.665431 0.249250 0.884308
O O13 0.945089 0.500000 0.000000
O O14 0.358363 0.500000 0.500000
#
# Coordination Sequence:
#
# PCOD8158778 Si02
#       6
#     8   8   8   8   8   8
#     4  10  20  37  65  88 116 155 199 242 293 353
#     4  11  22  38  60  88 121 155 196 245 296 352
#     4  11  22  42  60  87 118 159 198 248 298 355
#     4  11  24  38  62  86 120 155 201 246 298 355
#     4   9  20  37  60  91 121 149 194 248 295 345
#     4  10  23  40  58  85 121 154 192 244 298 351
#
# _framework density 19.550367000000001
#
# number of rings (size 3 to 8) (size 9 to 14) (size 15 to 20)
#    0.000    1.667    1.667    2.500    4.667    2.667 
#    0.000    1.667    0.000    0.000    0.000    0.000 
#    0.000    0.000    0.000    0.000    0.000    0.000 
#
# Total GULP energy -297527.719509 kJ/mol
# GULP energy per Si atom -12396.988313 kJ/mol
# Density = 1.950587 g / cm^3
# Si number density = 19.550367 Si / 1000 Ang^3
#
#
#
# Elastic Constant Matrix: (Units=GPa)
#
#
# Indices 1 2 3 4 5 6 
#
# 1 133.0675 22.5774 51.5385 0.0000 0.0000 0.0000
# 2 22.5774 45.9010 34.1102 0.0000 0.0000 0.0000
# 3 51.5385 34.1102 134.6794 0.0000 0.0000 0.0000
# 4 0.0000 0.0000 0.0000 29.3459 0.0000 0.0000
# 5 0.0000 0.0000 0.0000 0.0000 34.8492 0.0000
# 6 0.0000 0.0000 0.0000 0.0000 0.0000 13.7722
#
#
#
# Elastic Compliance Matrix: (Units=1/GPa)
#
#
# Indices 1 2 3 4 5 6 
#
# 1 0.009016 -0.002305 -0.002867 0.000000 0.000000 0.000000
# 2 -0.002305 0.027426 -0.006064 0.000000 0.000000 0.000000
# 3 -0.002867 -0.006064 0.010058 0.000000 0.000000 0.000000
# 4 0.000000 0.000000 0.000000 0.034076 0.000000 0.000000
# 5 0.000000 0.000000 0.000000 0.000000 0.028695 0.000000
# 6 0.000000 0.000000 0.000000 0.000000 0.000000 0.072610
#
#
# Mechanical properties :
#
#
# Convention : Reuss Voigt Hill
#
# Bulk Modulus (GPa) = 41.61585 58.89999 50.25792
# Shear Modulus (GPa) = 23.54463 29.28824 26.41644
#
# Velocity S-wave (km/s) = 3.47408 3.87472 3.67985
# Velocity P-wave (km/s) = 6.11759 7.08595 6.61950
#
# Compressibility (1/GPa) = 0.02402931
#
# Stress axis : x y z
#
# Youngs Moduli (GPa) = 110.91055 36.46160 99.42405
#
# Poissons Ratio (x) = 0.08403 0.28501
# Poissons Ratio (y) = 0.25560 0.60294
# Poissons Ratio (z) = 0.31794 0.22111
#
# Static dielectric constant tensor:
#      x y z
#    x 4.109840 0.000000 0.000000 
#    y 0.000000 3.212990 0.000000 
#    z 0.000000 0.000000 3.918230 
# 
# 
# High freq. dielectric constant tensor:
#      x y z
#    x 1.782270 0.000000 0.000000 
#    y 0.000000 1.727360 0.000000 
#    z 0.000000 0.000000 1.785810 
# 
# From -- ./inp_files/11440.got.cif
#   From: 2010.03.12/outbox.cif.g09.slc.cpg/sg20_6_cif.got.tgz:11440.got - 2010.04.14 01:38:04.
