data_PCOD8158737
_publ_section_title
;
Structure prediction by ZEFSAII (Michael W. Deem and Ramdas Pophale) SiO2 
 PCOD8158737
Probable space group: C 2 2 21
;
_chemical_formula_sum "Si O2"
_cell_formula_units_Z 64
_cell_length_a 31.966245
_cell_length_b 11.277837
_cell_length_c 8.794073
_cell_angle_alpha 90.000000
_cell_angle_beta 90.000000
_cell_angle_gamma 90.000000
_cell_volume 3170.352142
_symmetry_space_group_name_H-M "C 2 2 21"
_symmetry_group_IT_number 20
_symmetry_cell_setting 'orthorhombic'
loop_
_space_group_symop_operation_xyz
x,y,z
-x,-y,1/2+z
x,-y,-z
-x,y,1/2-z
1/2+x,1/2+y,z
1/2-x,1/2-y,1/2+z
1/2+x,1/2-y,-z
1/2-x,1/2+y,1/2-z
loop_
_atom_site_type_symbol
_atom_site_label
_atom_site_fract_x
_atom_site_fract_y
_atom_site_fract_z
Si Si1 0.058974 0.365519 0.992340
Si Si2 0.597678 0.507127 0.166910
Si Si3 0.395695 0.245383 0.249692
Si Si4 0.464935 0.868457 0.941445
Si Si5 0.308289 0.514873 0.335080
Si Si6 0.545200 0.712758 0.278026
Si Si7 0.741993 0.372337 0.580087
Si Si8 0.802437 0.759327 0.198791
O O1 0.097990 0.287419 0.927837
O O2 0.014248 0.354999 0.900714
O O3 0.073992 0.500000 0.000000
O O4 0.051703 0.320236 0.161825
O O5 0.595577 0.385622 0.263472
O O6 0.644392 0.553451 0.136924
O O7 0.577283 0.605644 0.271527
O O8 0.575529 0.500000 0.000000
O O9 0.432703 0.158909 0.192916
O O10 0.350274 0.211456 0.178544
O O11 0.450228 0.768560 0.058127
O O12 0.456218 0.000000 0.000000
O O13 0.285376 0.500000 0.500000
O O14 0.289287 0.612365 0.222141
O O15 0.306189 0.391073 0.254019
O O16 0.500000 0.654983 0.250000
O O17 0.752138 0.500000 0.500000
O O18 0.782500 0.320523 0.667118
O O19 0.723421 0.273201 0.461281
#
# Coordination Sequence:
#
# PCOD8158737 Si02
#       8
#     8   8   8   8   8   8   8   8
#     4  10  20  38  62  81 114 165 205 244 298 363
#     4  10  20  37  57  86 119 149 198 242 292 361
#     4  11  22  37  60  88 117 152 201 252 301 354
#     4  10  22  39  57  85 120 158 203 247 299 356
#     4   9  19  36  64  87 111 158 196 238 302 365
#     4  10  21  36  56  85 118 155 198 242 295 354
#     4  10  21  40  62  87 124 155 198 248 308 376
#     4  10  22  38  59  90 118 154 202 249 303 377
#
# _framework density 20.187034000000001
#
# number of rings (size 3 to 8) (size 9 to 14) (size 15 to 20)
#    0.000    2.000    1.250    1.875    1.750    4.000 
#    0.000    3.125    0.000    0.000    0.000    0.000 
#    0.000    0.000    0.000    0.000    0.000    0.000 
#
# Total GULP energy -396444.016294 kJ/mol
# GULP energy per Si atom -12388.875509 kJ/mol
# Density = 2.014109 g / cm^3
# Si number density = 20.187034 Si / 1000 Ang^3
#
#
#
# Elastic Constant Matrix: (Units=GPa)
#
#
# Indices 1 2 3 4 5 6 
#
# 1 89.0547 51.7684 36.6872 0.0000 0.0000 0.0000
# 2 51.7684 84.6866 14.2678 0.0000 0.0000 0.0000
# 3 36.6872 14.2678 71.8291 0.0000 0.0000 0.0000
# 4 0.0000 0.0000 0.0000 21.6160 0.0000 0.0000
# 5 0.0000 0.0000 0.0000 0.0000 25.7696 0.0000
# 6 0.0000 0.0000 0.0000 0.0000 0.0000 14.4075
#
#
#
# Elastic Compliance Matrix: (Units=1/GPa)
#
#
# Indices 1 2 3 4 5 6 
#
# 1 0.021671 -0.011777 -0.008729 0.000000 0.000000 0.000000
# 2 -0.011777 0.018617 0.002317 0.000000 0.000000 0.000000
# 3 -0.008729 0.002317 0.017920 0.000000 0.000000 0.000000
# 4 0.000000 0.000000 0.000000 0.046262 0.000000 0.000000
# 5 0.000000 0.000000 0.000000 0.000000 0.038805 0.000000
# 6 0.000000 0.000000 0.000000 0.000000 0.000000 0.069408
#
#
# Mechanical properties :
#
#
# Convention : Reuss Voigt Hill
#
# Bulk Modulus (GPa) = 45.80808 50.11301 47.96055
# Shear Modulus (GPa) = 19.50540 21.88174 20.69357
#
# Velocity S-wave (km/s) = 3.11180 3.29591 3.20518
# Velocity P-wave (km/s) = 5.97095 6.27394 6.12432
#
# Compressibility (1/GPa) = 0.02183021
#
# Stress axis : x y z
#
# Youngs Moduli (GPa) = 46.14415 53.71452 55.80265
#
# Poissons Ratio (x) = 0.63258 0.48713
# Poissons Ratio (y) = 0.54343 -0.12930
# Poissons Ratio (z) = 0.40281 -0.12446
#
# Static dielectric constant tensor:
#      x y z
#    x 3.914130 0.000000 0.000000 
#    y 0.000000 3.636610 0.000000 
#    z 0.000000 0.000000 3.763230 
# 
# 
# High freq. dielectric constant tensor:
#      x y z
#    x 1.773410 0.000000 0.000000 
#    y 0.000000 1.782680 0.000000 
#    z 0.000000 0.000000 1.798520 
# 
# From -- ./inp_files/11605.got.cif
#   From: 2010.03.12/outbox.cif.g09.slc.cpg/sg20_6_cif.got.tgz:11605.got - 2010.04.14 01:38:04.
