data_PCOD8158208
_publ_section_title
;
Structure prediction by ZEFSAII (Michael W. Deem and Ramdas Pophale) SiO2 
 PCOD8158208
Probable space group: C 2 2 21
;
_chemical_formula_sum "Si O2"
_cell_formula_units_Z 64
_cell_length_a 15.592267
_cell_length_b 16.881902
_cell_length_c 12.038998
_cell_angle_alpha 90.000000
_cell_angle_beta 90.000000
_cell_angle_gamma 90.000000
_cell_volume 3168.990813
_symmetry_space_group_name_H-M "C 2 2 21"
_symmetry_group_IT_number 20
_symmetry_cell_setting 'orthorhombic'
loop_
_space_group_symop_operation_xyz
x,y,z
-x,-y,1/2+z
x,-y,-z
-x,y,1/2-z
1/2+x,1/2+y,z
1/2-x,1/2-y,1/2+z
1/2+x,1/2-y,-z
1/2-x,1/2+y,1/2-z
loop_
_atom_site_type_symbol
_atom_site_label
_atom_site_fract_x
_atom_site_fract_y
_atom_site_fract_z
Si Si1 0.802283 0.790345 0.340180
Si Si2 0.597089 0.485390 0.729570
Si Si3 0.737395 0.458739 0.114599
Si Si4 0.019120 0.560306 0.408954
Si Si5 0.131868 0.146861 0.613015
Si Si6 0.215815 0.864729 0.615682
Si Si7 0.360598 0.035106 0.278015
Si Si8 0.014640 0.731944 0.119743
O O1 0.769068 0.865769 0.409597
O O2 0.817584 0.812100 0.212594
O O3 0.727202 0.725203 0.343436
O O4 0.889309 0.762640 0.400336
O O5 0.500000 0.461884 0.750000
O O6 0.646277 0.505729 0.844370
O O7 0.597726 0.560703 0.647742
O O8 0.636754 0.406871 0.675512
O O9 0.804032 0.467323 0.218679
O O10 0.766163 0.500000 0.000000
O O11 0.057066 0.500000 0.500000
O O12 0.939831 0.508810 0.356538
O O13 0.992176 0.648689 0.448425
O O14 0.095211 0.582122 0.323341
O O15 0.200350 0.134772 0.515681
O O16 0.052053 0.202034 0.574911
O O17 0.303384 0.909492 0.644759
O O18 0.000000 0.716602 0.250000
#
# Coordination Sequence:
#
# PCOD8158208 Si02
#       8
#     8   8   8   8   8   8   8   8
#     4  10  21  39  58  93 124 163 213 271 314 381
#     4  10  22  40  61  91 126 164 209 271 319 388
#     4  10  22  38  63  86 121 170 215 262 319 392
#     4  11  21  36  66  91 121 166 212 266 324 391
#     4  10  21  37  66  90 121 166 221 260 314 393
#     4  11  22  38  64  94 130 170 207 264 331 383
#     4  10  21  40  58  90 124 161 208 264 320 381
#     4  10  18  39  63  87 122 161 213 266 317 377
#
# _framework density 20.195703999999999
#
# number of rings (size 3 to 8) (size 9 to 14) (size 15 to 20)
#    0.000    1.750    2.500    3.375    0.000    9.000 
#    0.000    0.000    2.750    0.000    0.000    0.000 
#    0.000    0.000    0.000    0.000    0.000    0.000 
#
# Total GULP energy -396610.053755 kJ/mol
# GULP energy per Si atom -12394.064180 kJ/mol
# Density = 2.014974 g / cm^3
# Si number density = 20.195704 Si / 1000 Ang^3
#
#
#
# Elastic Constant Matrix: (Units=GPa)
#
#
# Indices 1 2 3 4 5 6 
#
# 1 110.3181 45.8158 36.3723 0.0000 0.0000 0.0000
# 2 45.8158 137.5496 38.3231 0.0000 0.0000 0.0000
# 3 36.3723 38.3231 78.1576 0.0000 0.0000 0.0000
# 4 0.0000 0.0000 0.0000 23.7205 0.0000 0.0000
# 5 0.0000 0.0000 0.0000 0.0000 25.5186 0.0000
# 6 0.0000 0.0000 0.0000 0.0000 0.0000 30.5767
#
#
#
# Elastic Compliance Matrix: (Units=1/GPa)
#
#
# Indices 1 2 3 4 5 6 
#
# 1 0.011521 -0.002715 -0.004030 0.000000 0.000000 0.000000
# 2 -0.002715 0.009060 -0.003179 0.000000 0.000000 0.000000
# 3 -0.004030 -0.003179 0.016229 0.000000 0.000000 0.000000
# 4 0.000000 0.000000 0.000000 0.042158 0.000000 0.000000
# 5 0.000000 0.000000 0.000000 0.000000 0.039187 0.000000
# 6 0.000000 0.000000 0.000000 0.000000 0.000000 0.032705
#
#
# Mechanical properties :
#
#
# Convention : Reuss Voigt Hill
#
# Bulk Modulus (GPa) = 58.95600 63.00530 60.98065
# Shear Modulus (GPa) = 28.35082 29.66410 29.00746
#
# Velocity S-wave (km/s) = 3.75080 3.83669 3.79399
# Velocity P-wave (km/s) = 6.92920 7.13387 7.03228
#
# Compressibility (1/GPa) = 0.01696180
#
# Stress axis : x y z
#
# Youngs Moduli (GPa) = 86.79867 110.37504 61.61740
#
# Poissons Ratio (x) = 0.29961 0.24835
# Poissons Ratio (y) = 0.23562 0.19589
# Poissons Ratio (z) = 0.34984 0.35090
#
# Static dielectric constant tensor:
#      x y z
#    x 3.832220 0.000000 0.000000 
#    y 0.000000 3.782100 0.000000 
#    z 0.000000 0.000000 3.447410 
# 
# 
# High freq. dielectric constant tensor:
#      x y z
#    x 1.797040 0.000000 0.000000 
#    y 0.000000 1.787120 0.000000 
#    z 0.000000 0.000000 1.761600 
# 
# From -- ./inp_files/15332.got.cif
#   From: 2010.03.12/outbox.cif.g09.slc.cpg/sg20_8_cif.got.tgz:15332.got - 2010.04.14 01:38:04.
