data_PCOD8158538
_publ_section_title
;
Structure prediction by ZEFSAII (Michael W. Deem and Ramdas Pophale) SiO2 
 PCOD8158538
Probable space group: C 2 2 21
;
_chemical_formula_sum "Si O2"
_cell_formula_units_Z 56
_cell_length_a 13.725666
_cell_length_b 5.524246
_cell_length_c 33.339851
_cell_angle_alpha 90.000000
_cell_angle_beta 90.000000
_cell_angle_gamma 90.000000
_cell_volume 2527.959379
_symmetry_space_group_name_H-M "C 2 2 21"
_symmetry_group_IT_number 20
_symmetry_cell_setting 'orthorhombic'
loop_
_space_group_symop_operation_xyz
x,y,z
-x,-y,1/2+z
x,-y,-z
-x,y,1/2-z
1/2+x,1/2+y,z
1/2-x,1/2-y,1/2+z
1/2+x,1/2-y,-z
1/2-x,1/2+y,1/2-z
loop_
_atom_site_type_symbol
_atom_site_label
_atom_site_fract_x
_atom_site_fract_y
_atom_site_fract_z
Si Si1 0.500025 0.750257 0.889795
Si Si2 0.898812 0.877525 0.840666
Si Si3 0.999940 0.750012 0.975950
Si Si4 0.148502 0.885651 0.917886
Si Si5 0.600925 0.876973 0.159397
Si Si6 0.750065 0.500547 0.726405
Si Si7 0.148580 0.614502 0.582104
O O1 0.419355 0.631766 0.861236
O O2 0.559691 0.575252 0.918324
O O3 0.580417 0.868391 0.861056
O O4 0.440554 0.925801 0.918301
O O5 0.841080 0.921414 0.800176
O O6 0.836855 0.722646 0.873160
O O7 0.999856 0.750322 0.829124
O O8 0.100706 0.700026 0.949839
O O9 0.899107 0.800135 0.949882
O O10 0.984855 0.500000 0.000000
O O11 0.015086 0.000000 0.000000
O O12 0.162882 0.777569 0.873137
O O13 0.250037 0.999655 0.932786
O O14 0.658624 0.920255 0.199918
O O15 0.722955 0.750543 0.749988
#
# Coordination Sequence:
#
# PCOD8158538 Si02
#       7
#     8   8   8   8   8   8   8
#     4  10  19  42  73 106 137 178 260 303 338 432
#     4  10  23  44  76 103 139 197 248 300 358 447
#     4  12  27  50  70 108 160 186 239 315 374 426
#     4  11  23  44  77 105 137 198 248 298 358 445
#     4  10  23  44  76 103 139 197 248 300 358 447
#     4  12  30  48  68 112 155 190 241 316 372 426
#     4  11  23  44  77 105 137 198 248 298 358 445
#
# _framework density 22.152256000000001
#
# number of rings (size 3 to 8) (size 9 to 14) (size 15 to 20)
#    0.000    1.143    4.286    2.571   10.000    1.143 
#    0.000    4.286    0.000    0.000    0.000    0.000 
#    0.000    0.000    0.000    0.000    0.000    0.000 
#
# Total GULP energy -346944.144210 kJ/mol
# GULP energy per Si atom -12390.862293 kJ/mol
# Density = 2.210184 g / cm^3
# Si number density = 22.152256 Si / 1000 Ang^3
#
#
#
# Elastic Constant Matrix: (Units=GPa)
#
#
# Indices 1 2 3 4 5 6 
#
# 1 123.8900 21.8029 57.3376 0.0000 0.0000 0.0000
# 2 21.8029 101.8978 35.9251 0.0000 0.0000 0.0000
# 3 57.3376 35.9251 114.2376 0.0000 0.0000 0.0000
# 4 0.0000 0.0000 0.0000 12.7297 0.0000 0.0000
# 5 0.0000 0.0000 0.0000 0.0000 23.5524 0.0000
# 6 0.0000 0.0000 0.0000 0.0000 0.0000 30.9714
#
#
#
# Elastic Compliance Matrix: (Units=1/GPa)
#
#
# Indices 1 2 3 4 5 6 
#
# 1 0.010531 -0.000438 -0.005148 0.000000 0.000000 0.000000
# 2 -0.000438 0.011056 -0.003257 0.000000 0.000000 0.000000
# 3 -0.005148 -0.003257 0.012362 0.000000 0.000000 0.000000
# 4 0.000000 0.000000 0.000000 0.078557 0.000000 0.000000
# 5 0.000000 0.000000 0.000000 0.000000 0.042458 0.000000
# 6 0.000000 0.000000 0.000000 0.000000 0.000000 0.032288
#
#
# Mechanical properties :
#
#
# Convention : Reuss Voigt Hill
#
# Bulk Modulus (GPa) = 61.49086 63.35071 62.42078
# Shear Modulus (GPa) = 23.76892 28.44803 26.10847
#
# Velocity S-wave (km/s) = 3.27919 3.58747 3.43679
# Velocity P-wave (km/s) = 6.49276 6.76904 6.63234
#
# Compressibility (1/GPa) = 0.01626258
#
# Stress axis : x y z
#
# Youngs Moduli (GPa) = 94.95447 90.45062 80.89498
#
# Poissons Ratio (x) = 0.03965 0.41645
# Poissons Ratio (y) = 0.04163 0.26345
# Poissons Ratio (z) = 0.48882 0.29457
#
# Static dielectric constant tensor:
#      x y z
#    x 3.855830 0.000000 0.000000 
#    y 0.000000 4.852120 0.000000 
#    z 0.000000 0.000000 3.943090 
# 
# 
# High freq. dielectric constant tensor:
#      x y z
#    x 1.868870 0.000000 0.000000 
#    y 0.000000 1.883780 0.000000 
#    z 0.000000 0.000000 1.868290 
# 
# From -- ./inp_files/30749.got.cif
#   From: 2010.03.12/outbox.cif.g09.slc.cpg/sg20_16_cif.got.tgz:30749.got - 2010.04.14 01:38:04.
