data_PCOD8158203
_publ_section_title
;
Structure prediction by ZEFSAII (Michael W. Deem and Ramdas Pophale) SiO2 
 PCOD8158203
Probable space group: C 2 2 21
;
_chemical_formula_sum "Si O2"
_cell_formula_units_Z 60
_cell_length_a 11.829934
_cell_length_b 20.980045
_cell_length_c 11.951793
_cell_angle_alpha 90.000000
_cell_angle_beta 90.000000
_cell_angle_gamma 90.000000
_cell_volume 2966.345954
_symmetry_space_group_name_H-M "C 2 2 21"
_symmetry_group_IT_number 20
_symmetry_cell_setting 'orthorhombic'
loop_
_space_group_symop_operation_xyz
x,y,z
-x,-y,1/2+z
x,-y,-z
-x,y,1/2-z
1/2+x,1/2+y,z
1/2-x,1/2-y,1/2+z
1/2+x,1/2-y,-z
1/2-x,1/2+y,1/2-z
loop_
_atom_site_type_symbol
_atom_site_label
_atom_site_fract_x
_atom_site_fract_y
_atom_site_fract_z
Si Si1 0.910211 0.103343 0.655714
Si Si2 0.017450 0.238424 0.913320
Si Si3 0.183471 0.666136 0.718563
Si Si4 0.673891 0.781984 0.724265
Si Si5 0.972779 0.337377 0.421872
Si Si6 0.426271 0.054531 0.411120
Si Si7 0.170035 0.428731 0.683061
Si Si8 0.677787 0.500000 0.000000
O O1 0.949402 0.165447 0.589638
O O2 0.789359 0.118552 0.711879
O O3 0.903277 0.049425 0.562299
O O4 0.000000 0.083030 0.750000
O O5 0.088544 0.282874 0.828461
O O6 0.885616 0.244730 0.878976
O O7 0.039683 0.263812 0.038608
O O8 0.216976 0.740573 0.737009
O O9 0.107636 0.644194 0.821307
O O10 0.105769 0.654510 0.609027
O O11 0.699745 0.853265 0.680500
O O12 0.932960 0.378524 0.526174
O O13 0.327623 0.052361 0.315682
O O14 0.548088 0.047985 0.355772
O O15 0.399826 0.000000 0.500000
O O16 0.253683 0.465819 0.600097
#
# Coordination Sequence:
#
# PCOD8158203 Si02
#       8
#     8   8   8   8   8   8   8   4
#     4  11  24  49  67  91 129 190 236 273 328 404
#     4  10  18  38  67  91 124 163 225 275 343 392
#     4  10  24  37  65  95 141 163 217 284 344 410
#     4  10  18  39  61  94 120 171 210 275 332 398
#     4  11  22  38  59 107 134 168 211 285 357 407
#     4  11  22  37  61  91 137 180 213 272 345 424
#     4  11  22  40  62  96 136 172 228 276 338 409
#     4  12  28  42  68  98 132 194 236 280 328 404
#
# _framework density 20.226906
#
# number of rings (size 3 to 8) (size 9 to 14) (size 15 to 20)
#    0.000    1.333    6.000    1.600    3.733    2.133 
#    0.000    2.667    0.000    0.000    0.000    0.000 
#    0.000    0.000    0.000    0.000    0.000    0.000 
#
# Total GULP energy -371714.263890 kJ/mol
# GULP energy per Si atom -12390.475463 kJ/mol
# Density = 2.018087 g / cm^3
# Si number density = 20.226906 Si / 1000 Ang^3
#
#
#
# Elastic Constant Matrix: (Units=GPa)
#
#
# Indices 1 2 3 4 5 6 
#
# 1 78.4092 49.4634 51.4614 0.0000 0.0000 0.0000
# 2 49.4634 119.3582 68.5012 0.0000 0.0000 0.0000
# 3 51.4614 68.5012 129.9340 0.0000 0.0000 0.0000
# 4 0.0000 0.0000 0.0000 44.8800 0.0000 0.0000
# 5 0.0000 0.0000 0.0000 0.0000 15.0008 0.0000
# 6 0.0000 0.0000 0.0000 0.0000 0.0000 14.1099
#
#
#
# Elastic Compliance Matrix: (Units=1/GPa)
#
#
# Indices 1 2 3 4 5 6 
#
# 1 0.019217 -0.005156 -0.004893 0.000000 0.000000 0.000000
# 2 -0.005156 0.013396 -0.005020 0.000000 0.000000 0.000000
# 3 -0.004893 -0.005020 0.012281 0.000000 0.000000 0.000000
# 4 0.000000 0.000000 0.000000 0.022282 0.000000 0.000000
# 5 0.000000 0.000000 0.000000 0.000000 0.066663 0.000000
# 6 0.000000 0.000000 0.000000 0.000000 0.000000 0.070872
#
#
# Mechanical properties :
#
#
# Convention : Reuss Voigt Hill
#
# Bulk Modulus (GPa) = 67.76953 74.06149 70.91551
# Shear Modulus (GPa) = 20.85347 25.34985 23.10166
#
# Velocity S-wave (km/s) = 3.21437 3.54400 3.38320
# Velocity P-wave (km/s) = 6.88139 7.31036 7.09912
#
# Compressibility (1/GPa) = 0.01475589
#
# Stress axis : x y z
#
# Youngs Moduli (GPa) = 52.03598 74.64903 81.42690
#
# Poissons Ratio (x) = 0.38487 0.39843
# Poissons Ratio (y) = 0.26828 0.40880
# Poissons Ratio (z) = 0.25462 0.37477
#
# Static dielectric constant tensor:
#      x y z
#    x 3.580430 0.000000 0.000000 
#    y 0.000000 3.700590 0.000000 
#    z 0.000000 0.000000 3.872180 
# 
# 
# High freq. dielectric constant tensor:
#      x y z
#    x 1.761730 0.000000 0.000000 
#    y 0.000000 1.787900 0.000000 
#    z 0.000000 0.000000 1.800520 
# 
# From -- ./inp_files/14370.got.cif
#   From: 2010.03.12/outbox.cif.g09.slc.cpg/sg20_8_cif.got.tgz:14370.got - 2010.04.14 01:38:04.
