data_PCOD8158601
_publ_section_title
;
Structure prediction by ZEFSAII (Michael W. Deem and Ramdas Pophale) SiO2 
 PCOD8158601
Probable space group: C 2 2 21
;
_chemical_formula_sum "Si O2"
_cell_formula_units_Z 64
_cell_length_a 8.710588
_cell_length_b 19.796124
_cell_length_c 19.732268
_cell_angle_alpha 90.000000
_cell_angle_beta 90.000000
_cell_angle_gamma 90.000000
_cell_volume 3402.551000
_symmetry_space_group_name_H-M "C 2 2 21"
_symmetry_group_IT_number 20
_symmetry_cell_setting 'orthorhombic'
loop_
_space_group_symop_operation_xyz
x,y,z
-x,-y,1/2+z
x,-y,-z
-x,y,1/2-z
1/2+x,1/2+y,z
1/2-x,1/2-y,1/2+z
1/2+x,1/2-y,-z
1/2-x,1/2+y,1/2-z
loop_
_atom_site_type_symbol
_atom_site_label
_atom_site_fract_x
_atom_site_fract_y
_atom_site_fract_z
Si Si1 0.822557 0.193296 0.407996
Si Si2 0.322503 0.081324 0.171440
Si Si3 0.679360 0.474026 0.426180
Si Si4 0.822503 0.418676 0.671440
Si Si5 0.321778 0.839348 0.451558
Si Si6 0.177443 0.193296 0.407996
Si Si7 0.321778 0.160652 0.951558
Si Si8 0.179360 0.025974 0.926180
O O1 0.723560 0.157454 0.349643
O O2 0.788530 0.273376 0.405747
O O3 0.778839 0.162686 0.480691
O O4 0.000000 0.177127 0.395089
O O5 0.500000 0.069040 0.154866
O O6 0.286333 0.071261 0.250000
O O7 0.220748 0.028712 0.130012
O O8 0.730619 0.500000 0.500000
O O9 0.720748 0.528712 0.369988
O O10 0.771343 0.405138 0.409420
O O11 0.500000 0.458641 0.423291
O O12 0.776440 0.342546 0.650357
O O13 0.221161 0.837314 0.519309
O O14 0.500000 0.842474 0.471907
O O15 0.211470 0.273376 0.405747
O O16 0.271342 0.094863 0.909420
O O17 0.230619 0.000000 0.000000
#
# Coordination Sequence:
#
# PCOD8158601 Si02
#       8
#     8   8   8   8   8   8   8   8
#     4  10  20  35  56  85 115 147 188 233 284 340
#     4  11  24  40  59  84 115 154 196 237 289 350
#     4  11  22  36  58  88 117 150 194 240 288 342
#     4  11  24  40  59  84 115 154 196 237 289 350
#     4  10  20  34  57  86 116 148 186 236 286 333
#     4  10  20  35  56  85 115 147 188 233 284 340
#     4  10  20  34  57  86 116 148 186 236 286 333
#     4  11  22  36  58  88 117 150 194 240 288 342
#
# _framework density 18.809415999999999
#
# number of rings (size 3 to 8) (size 9 to 14) (size 15 to 20)
#    0.000    1.500    2.500    3.000    0.000    6.000 
#    0.000    1.250    0.000    1.500    0.000    0.000 
#    0.000    0.000    0.000    0.000    0.000    0.000 
#
# Total GULP energy -396960.335341 kJ/mol
# GULP energy per Si atom -12405.010479 kJ/mol
# Density = 1.876661 g / cm^3
# Si number density = 18.809416 Si / 1000 Ang^3
#
#
#
# Elastic Constant Matrix: (Units=GPa)
#
#
# Indices 1 2 3 4 5 6 
#
# 1 51.8560 36.9521 29.5442 0.0000 0.0000 0.0000
# 2 36.9521 129.6523 42.1698 0.0000 0.0000 0.0000
# 3 29.5442 42.1698 79.0395 0.0000 0.0000 0.0000
# 4 0.0000 0.0000 0.0000 25.8276 0.0000 0.0000
# 5 0.0000 0.0000 0.0000 0.0000 25.4894 0.0000
# 6 0.0000 0.0000 0.0000 0.0000 0.0000 36.5251
#
#
#
# Elastic Compliance Matrix: (Units=1/GPa)
#
#
# Indices 1 2 3 4 5 6 
#
# 1 0.027306 -0.005400 -0.007326 0.000000 0.000000 0.000000
# 2 -0.005400 0.010400 -0.003530 0.000000 0.000000 0.000000
# 3 -0.007326 -0.003530 0.017274 0.000000 0.000000 0.000000
# 4 0.000000 0.000000 0.000000 0.038718 0.000000 0.000000
# 5 0.000000 0.000000 0.000000 0.000000 0.039232 0.000000
# 6 0.000000 0.000000 0.000000 0.000000 0.000000 0.027378
#
#
# Mechanical properties :
#
#
# Convention : Reuss Voigt Hill
#
# Bulk Modulus (GPa) = 44.50783 53.09778 48.80280
# Shear Modulus (GPa) = 24.96142 27.69389 26.32766
#
# Velocity S-wave (km/s) = 3.64685 3.84127 3.74532
# Velocity P-wave (km/s) = 6.43790 6.92564 6.68622
#
# Compressibility (1/GPa) = 0.02246796
#
# Stress axis : x y z
#
# Youngs Moduli (GPa) = 36.62248 96.15223 57.89126
#
# Poissons Ratio (x) = 0.51919 0.42409
# Poissons Ratio (y) = 0.19775 0.20438
# Poissons Ratio (z) = 0.26829 0.33946
#
# Static dielectric constant tensor:
#      x y z
#    x 3.497390 0.000000 0.000000 
#    y 0.000000 3.711890 0.000000 
#    z 0.000000 0.000000 3.160430 
# 
# 
# High freq. dielectric constant tensor:
#      x y z
#    x 1.746630 0.000000 0.000000 
#    y 0.000000 1.746630 0.000000 
#    z 0.000000 0.000000 1.692910 
# 
# From -- ./inp_files/26948.got.cif
#   From: 2010.03.12/outbox.cif.g09.slc.cpg/sg20_14_cif.got.tgz:26948.got - 2010.04.14 01:38:04.
