data_PCOD8158472
_publ_section_title
;
Structure prediction by ZEFSAII (Michael W. Deem and Ramdas Pophale) SiO2 
 PCOD8158472
Probable space group: C 2 2 21
;
_chemical_formula_sum "Si O2"
_cell_formula_units_Z 40
_cell_length_a 5.173436
_cell_length_b 25.417441
_cell_length_c 14.271054
_cell_angle_alpha 90.000000
_cell_angle_beta 90.000000
_cell_angle_gamma 90.000000
_cell_volume 1876.579443
_symmetry_space_group_name_H-M "C 2 2 21"
_symmetry_group_IT_number 20
_symmetry_cell_setting 'orthorhombic'
loop_
_space_group_symop_operation_xyz
x,y,z
-x,-y,1/2+z
x,-y,-z
-x,y,1/2-z
1/2+x,1/2+y,z
1/2-x,1/2-y,1/2+z
1/2+x,1/2-y,-z
1/2-x,1/2+y,1/2-z
loop_
_atom_site_type_symbol
_atom_site_label
_atom_site_fract_x
_atom_site_fract_y
_atom_site_fract_z
Si Si1 0.817607 0.791810 0.401634
Si Si2 0.820303 0.767420 0.621124
Si Si3 0.013819 0.500000 0.500000
Si Si4 0.241922 0.104480 0.980173
Si Si5 0.000000 0.144518 0.250000
Si Si6 0.223863 0.408665 0.909057
O O1 0.820648 0.781274 0.512359
O O2 0.580726 0.763439 0.350748
O O3 0.779114 0.855245 0.392149
O O4 0.076984 0.769708 0.353264
O O5 0.824427 0.820961 0.680350
O O6 0.837582 0.528671 0.420435
O O7 0.190513 0.455511 0.448220
O O8 0.473253 0.123352 0.051646
O O9 0.966966 0.107082 0.028969
O O10 0.207566 0.107070 0.302972
#
# Coordination Sequence:
#
# PCOD8158472 Si02
#       6
#     8   8   4   8   4   8
#     4  10  20  38  56  87 122 177 209 245 310 394
#     4  10  23  34  58  87 132 162 210 255 322 386
#     4   8  22  36  62  96 124 160 220 264 318 390
#     4  10  19  38  61  90 125 164 216 261 304 389
#     4  12  24  40  62 106 138 156 214 286 348 366
#     4  10  22  35  62  94 134 160 203 278 328 382
#
# _framework density 21.315379
#
# number of rings (size 3 to 8) (size 9 to 14) (size 15 to 20)
#    1.200    0.800    2.000    1.800    5.600    3.200 
#    0.000    0.000    0.000    0.000   10.400    0.000 
#    0.000    0.000    0.000    0.000    0.000    0.000 
#
# Total GULP energy -247770.683195 kJ/mol
# GULP energy per Si atom -12388.534160 kJ/mol
# Density = 2.126686 g / cm^3
# Si number density = 21.315379 Si / 1000 Ang^3
#
#
#
# Elastic Constant Matrix: (Units=GPa)
#
#
# Indices 1 2 3 4 5 6 
#
# 1 146.7278 45.9585 16.9907 0.0000 0.0000 0.0000
# 2 45.9585 146.9766 26.1511 0.0000 0.0000 0.0000
# 3 16.9907 26.1511 33.2379 0.0000 0.0000 0.0000
# 4 0.0000 0.0000 0.0000 34.8776 0.0000 0.0000
# 5 0.0000 0.0000 0.0000 0.0000 20.9295 0.0000
# 6 0.0000 0.0000 0.0000 0.0000 0.0000 33.0957
#
#
#
# Elastic Compliance Matrix: (Units=1/GPa)
#
#
# Indices 1 2 3 4 5 6 
#
# 1 0.007714 -0.001989 -0.002378 0.000000 0.000000 0.000000
# 2 -0.001989 0.008424 -0.005611 0.000000 0.000000 0.000000
# 3 -0.002378 -0.005611 0.035717 0.000000 0.000000 0.000000
# 4 0.000000 0.000000 0.000000 0.028672 0.000000 0.000000
# 5 0.000000 0.000000 0.000000 0.000000 0.047780 0.000000
# 6 0.000000 0.000000 0.000000 0.000000 0.000000 0.030215
#
#
# Mechanical properties :
#
#
# Convention : Reuss Voigt Hill
#
# Bulk Modulus (GPa) = 31.35029 56.12699 43.73864
# Shear Modulus (GPa) = 26.43953 33.63667 30.03810
#
# Velocity S-wave (km/s) = 3.52575 3.97677 3.75803
# Velocity P-wave (km/s) = 5.59592 6.89022 6.27652
#
# Compressibility (1/GPa) = 0.03189764
#
# Stress axis : x y z
#
# Youngs Moduli (GPa) = 129.63948 118.70696 27.99804
#
# Poissons Ratio (x) = 0.23609 0.06659
# Poissons Ratio (y) = 0.25783 0.15711
# Poissons Ratio (z) = 0.30833 0.66610
#
# Static dielectric constant tensor:
#      x y z
#    x 4.096870 0.000000 0.000000 
#    y 0.000000 4.090000 0.000000 
#    z 0.000000 0.000000 3.387230 
# 
# 
# High freq. dielectric constant tensor:
#      x y z
#    x 1.856700 0.000000 0.000000 
#    y 0.000000 1.838240 0.000000 
#    z 0.000000 0.000000 1.780340 
# 
# From -- ./inp_files/17870.got.cif
#   From: 2010.03.12/outbox.cif.g09.slc.cpg/sg20_9_cif.got.tgz:17870.got - 2010.04.14 01:38:04.
