data_PCOD8158131
_publ_section_title
;
Structure prediction by ZEFSAII (Michael W. Deem and Ramdas Pophale) SiO2 
 PCOD8158131
Probable space group: C 2 2 21
;
_chemical_formula_sum "Si O2"
_cell_formula_units_Z 36
_cell_length_a 15.285260
_cell_length_b 17.076767
_cell_length_c 7.466761
_cell_angle_alpha 90.000000
_cell_angle_beta 90.000000
_cell_angle_gamma 90.000000
_cell_volume 1948.995039
_symmetry_space_group_name_H-M "C 2 2 21"
_symmetry_group_IT_number 20
_symmetry_cell_setting 'orthorhombic'
loop_
_space_group_symop_operation_xyz
x,y,z
-x,-y,1/2+z
x,-y,-z
-x,y,1/2-z
1/2+x,1/2+y,z
1/2-x,1/2-y,1/2+z
1/2+x,1/2-y,-z
1/2-x,1/2+y,1/2-z
loop_
_atom_site_type_symbol
_atom_site_label
_atom_site_fract_x
_atom_site_fract_y
_atom_site_fract_z
Si Si1 0.294539 0.911228 0.012865
Si Si2 0.500000 0.708514 0.250000
Si Si3 0.718510 0.683250 0.670748
Si Si4 0.939010 0.710929 0.092958
Si Si5 0.688653 0.661625 0.274649
O O1 0.239144 0.886578 0.189834
O O2 0.378341 0.856559 0.988101
O O3 0.229163 0.905064 0.846676
O O4 0.327499 0.000000 0.000000
O O5 0.499815 0.760845 0.430007
O O6 0.584408 0.652698 0.261691
O O7 0.620154 0.719435 0.680141
O O8 0.729030 0.649040 0.471567
O O9 0.788698 0.751689 0.702691
O O10 0.000000 0.676969 0.250000
#
# Coordination Sequence:
#
# PCOD8158131 Si02
#       5
#     8   4   8   8   8
#     4  11  23  38  55  84 122 154 182 233 285 343
#     4  10  18  34  62  90 106 140 194 250 272 324
#     4  10  18  36  58  85 106 148 195 232 274 338
#     4  10  21  34  60  87 111 146 195 233 280 336
#     4  10  19  34  62  83 108 147 196 234 278 332
#
# _framework density 18.471057999999999
#
# number of rings (size 3 to 8) (size 9 to 14) (size 15 to 20)
#    0.000    1.778    6.667    1.333    3.111    0.889 
#    2.000    0.000   12.222    0.000    0.000    0.000 
#    0.000    0.000    0.000    0.000    0.000    0.000 
#
# Total GULP energy -223092.380818 kJ/mol
# GULP energy per Si atom -12394.021157 kJ/mol
# Density = 1.842902 g / cm^3
# Si number density = 18.471058 Si / 1000 Ang^3
#
#
#
# Elastic Constant Matrix: (Units=GPa)
#
#
# Indices 1 2 3 4 5 6 
#
# 1 65.5730 9.0090 48.9416 0.0000 0.0000 0.0000
# 2 9.0090 52.9092 27.4352 0.0000 0.0000 0.0000
# 3 48.9416 27.4352 143.5215 0.0000 0.0000 0.0000
# 4 0.0000 0.0000 0.0000 17.9064 0.0000 0.0000
# 5 0.0000 0.0000 0.0000 0.0000 35.3729 0.0000
# 6 0.0000 0.0000 0.0000 0.0000 0.0000 5.3276
#
#
#
# Elastic Compliance Matrix: (Units=1/GPa)
#
#
# Indices 1 2 3 4 5 6 
#
# 1 0.020458 0.000149 -0.007005 0.000000 0.000000 0.000000
# 2 0.000149 0.020981 -0.004061 0.000000 0.000000 0.000000
# 3 -0.007005 -0.004061 0.010133 0.000000 0.000000 0.000000
# 4 0.000000 0.000000 0.000000 0.055846 0.000000 0.000000
# 5 0.000000 0.000000 0.000000 0.000000 0.028270 0.000000
# 6 0.000000 0.000000 0.000000 0.000000 0.000000 0.187700
#
#
# Mechanical properties :
#
#
# Convention : Reuss Voigt Hill
#
# Bulk Modulus (GPa) = 33.62843 48.08615 40.85729
# Shear Modulus (GPa) = 14.07916 23.49591 18.78754
#
# Velocity S-wave (km/s) = 2.76384 3.57044 3.19271
# Velocity P-wave (km/s) = 5.33204 6.56408 5.97987
#
# Compressibility (1/GPa) = 0.02973674
#
# Stress axis : x y z
#
# Youngs Moduli (GPa) = 48.88112 47.66230 98.69148
#
# Poissons Ratio (x) = -0.00709 0.69130
# Poissons Ratio (y) = -0.00727 0.40083
# Poissons Ratio (z) = 0.34240 0.19358
#
# Static dielectric constant tensor:
#      x y z
#    x 3.508690 0.000000 0.000000 
#    y 0.000000 2.934020 0.000000 
#    z 0.000000 0.000000 3.741540 
# 
# 
# High freq. dielectric constant tensor:
#      x y z
#    x 1.719450 0.000000 0.000000 
#    y 0.000000 1.664830 0.000000 
#    z 0.000000 0.000000 1.740030 
# 
# From -- ./inp_files/8234.got.cif
#   From: 2010.03.12/outbox.cif.g09.slc.cpg/sg20_5_cif.got.tgz:8234.got - 2010.04.14 01:38:04.
