data_PCOD8158945
_publ_section_title
;
Structure prediction by ZEFSAII (Michael W. Deem and Ramdas Pophale) SiO2 
 PCOD8158945
Probable space group: C 2 2 21
;
_chemical_formula_sum "Si O2"
_cell_formula_units_Z 44
_cell_length_a 17.388583
_cell_length_b 6.522120
_cell_length_c 20.390982
_cell_angle_alpha 90.000000
_cell_angle_beta 90.000000
_cell_angle_gamma 90.000000
_cell_volume 2312.549934
_symmetry_space_group_name_H-M "C 2 2 21"
_symmetry_group_IT_number 20
_symmetry_cell_setting 'orthorhombic'
loop_
_space_group_symop_operation_xyz
x,y,z
-x,-y,1/2+z
x,-y,-z
-x,y,1/2-z
1/2+x,1/2+y,z
1/2-x,1/2-y,1/2+z
1/2+x,1/2-y,-z
1/2-x,1/2+y,1/2-z
loop_
_atom_site_type_symbol
_atom_site_label
_atom_site_fract_x
_atom_site_fract_y
_atom_site_fract_z
Si Si1 0.069583 0.062244 0.206305
Si Si2 0.661770 0.147184 0.705891
Si Si3 0.171860 0.307332 0.815021
Si Si4 0.983317 0.000000 0.500000
Si Si5 0.472899 0.807460 0.105726
Si Si6 0.910394 0.618629 0.438314
O O1 0.135925 0.167086 0.248790
O O2 0.000000 0.983342 0.250000
O O3 0.038355 0.222727 0.154001
O O4 0.104792 0.858886 0.176852
O O5 0.746295 0.198004 0.680515
O O6 0.606190 0.135200 0.642654
O O7 0.662220 0.937565 0.748245
O O8 0.154035 0.427620 0.882235
O O9 0.037834 0.860783 0.547490
O O10 0.927392 0.855915 0.456293
O O11 0.506422 0.019680 0.078623
O O12 0.874253 0.500000 0.500000
#
# Coordination Sequence:
#
# PCOD8158945 Si02
#       6
#     8   8   8   4   8   8
#     4  10  21  35  59  89 116 156 200 248 305 357
#     4  11  24  37  58  93 127 151 201 256 312 358
#     4  12  22  39  59  89 125 163 193 259 311 362
#     4  10  20  40  64  88 118 162 210 252 296 354
#     4  10  21  39  62  90 117 158 211 251 294 367
#     4  10  22  38  65  85 115 161 214 250 295 368
#
# _framework density 19.026615
#
# number of rings (size 3 to 8) (size 9 to 14) (size 15 to 20)
#    0.000    1.455    5.455    0.000    2.545    0.000 
#    1.636    0.000    6.000    0.000    0.000    0.000 
#    0.000    0.000    0.000    0.000    0.000    0.000 
#
# Total GULP energy -272687.556962 kJ/mol
# GULP energy per Si atom -12394.888953 kJ/mol
# Density = 1.898331 g / cm^3
# Si number density = 19.026615 Si / 1000 Ang^3
#
#
#
# Elastic Constant Matrix: (Units=GPa)
#
#
# Indices 1 2 3 4 5 6 
#
# 1 100.6155 49.2190 53.3753 0.0000 0.0000 0.0000
# 2 49.2190 81.5893 36.6667 0.0000 0.0000 0.0000
# 3 53.3753 36.6667 114.8414 0.0000 0.0000 0.0000
# 4 0.0000 0.0000 0.0000 33.1575 0.0000 0.0000
# 5 0.0000 0.0000 0.0000 0.0000 22.4602 0.0000
# 6 0.0000 0.0000 0.0000 0.0000 0.0000 6.5480
#
#
#
# Elastic Compliance Matrix: (Units=1/GPa)
#
#
# Indices 1 2 3 4 5 6 
#
# 1 0.016396 -0.007549 -0.005210 0.000000 0.000000 0.000000
# 2 -0.007549 0.017786 -0.002170 0.000000 0.000000 0.000000
# 3 -0.005210 -0.002170 0.011822 0.000000 0.000000 0.000000
# 4 0.000000 0.000000 0.000000 0.030159 0.000000 0.000000
# 5 0.000000 0.000000 0.000000 0.000000 0.044523 0.000000
# 6 0.000000 0.000000 0.000000 0.000000 0.000000 0.152718
#
#
# Mechanical properties :
#
#
# Convention : Reuss Voigt Hill
#
# Bulk Modulus (GPa) = 61.93867 63.95202 62.94535
# Shear Modulus (GPa) = 16.19991 22.95217 19.57604
#
# Velocity S-wave (km/s) = 2.92110 3.47698 3.21109
# Velocity P-wave (km/s) = 6.63336 7.05720 6.84856
#
# Compressibility (1/GPa) = 0.01614500
#
# Stress axis : x y z
#
# Youngs Moduli (GPa) = 60.99205 56.22447 84.58871
#
# Poissons Ratio (x) = 0.42446 0.44070
# Poissons Ratio (y) = 0.46045 0.18355
# Poissons Ratio (z) = 0.31776 0.12201
#
# Static dielectric constant tensor:
#      x y z
#    x 3.235690 0.000000 0.000000 
#    y 0.000000 3.455640 0.000000 
#    z 0.000000 0.000000 3.812380 
# 
# 
# High freq. dielectric constant tensor:
#      x y z
#    x 1.713310 0.000000 0.000000 
#    y 0.000000 1.746780 0.000000 
#    z 0.000000 0.000000 1.753740 
# 
# From -- ./inp_files/28324.got.cif
#   From: 2010.03.12/outbox.cif.g09.slc.cpg/sg20_15_cif.got.tgz:28324.got - 2010.04.14 01:38:04.
