data_PCOD8158709
_publ_section_title
;
Structure prediction by ZEFSAII (Michael W. Deem and Ramdas Pophale) SiO2 
 PCOD8158709
Probable space group: C 2 2 21
;
_chemical_formula_sum "Si O2"
_cell_formula_units_Z 64
_cell_length_a 14.313569
_cell_length_b 11.993584
_cell_length_c 17.320043
_cell_angle_alpha 90.000000
_cell_angle_beta 90.000000
_cell_angle_gamma 90.000000
_cell_volume 2973.348966
_symmetry_space_group_name_H-M "C 2 2 21"
_symmetry_group_IT_number 20
_symmetry_cell_setting 'orthorhombic'
loop_
_space_group_symop_operation_xyz
x,y,z
-x,-y,1/2+z
x,-y,-z
-x,y,1/2-z
1/2+x,1/2+y,z
1/2-x,1/2-y,1/2+z
1/2+x,1/2-y,-z
1/2-x,1/2+y,1/2-z
loop_
_atom_site_type_symbol
_atom_site_label
_atom_site_fract_x
_atom_site_fract_y
_atom_site_fract_z
Si Si1 0.148473 0.116451 0.698405
Si Si2 0.981212 0.239226 0.409003
Si Si3 0.093952 0.341001 0.782167
Si Si4 0.877450 0.783994 0.431064
Si Si5 0.178403 0.327360 0.373681
Si Si6 0.497268 0.487667 0.086552
Si Si7 0.750401 0.461321 0.800983
Si Si8 0.674669 0.768683 0.196065
O O1 0.106527 0.227618 0.734130
O O2 0.084067 0.073468 0.631414
O O3 0.252116 0.139962 0.665199
O O4 0.160596 0.025604 0.766108
O O5 0.919898 0.250761 0.486549
O O6 0.925974 0.300009 0.339111
O O7 0.082136 0.298457 0.418176
O O8 0.987566 0.111145 0.380867
O O9 0.084376 0.309077 0.871941
O O10 0.178156 0.426498 0.767421
O O11 0.000000 0.398629 0.750000
O O12 0.764294 0.781904 0.425910
O O13 0.910066 0.910486 0.410217
O O14 0.193271 0.460539 0.361825
O O15 0.176573 0.267002 0.289732
O O16 0.460005 0.500000 0.000000
O O17 0.708102 0.350433 0.839524
#
# Coordination Sequence:
#
# PCOD8158709 Si02
#       8
#     8   8   8   8   8   8   8   8
#     4  10  20  36  62  92 126 159 221 262 318 379
#     4  11  25  38  66  98 131 170 209 273 337 388
#     4  11  21  38  66  93 125 175 223 270 312 396
#     4  11  22  43  62  94 137 166 218 273 333 388
#     4  11  22  42  66  95 135 168 222 277 319 396
#     4  10  22  38  62  97 126 166 213 269 326 384
#     4  10  20  37  65  92 127 168 214 268 325 371
#     4  10  21  39  62  97 125 173 215 262 326 390
#
# _framework density 21.524550000000001
#
# number of rings (size 3 to 8) (size 9 to 14) (size 15 to 20)
#    0.000    1.500    5.000    1.875    0.000    4.000 
#    0.000    0.000    0.000    3.000    0.000    0.000 
#    0.000    0.000    0.000    0.000    0.000    0.000 
#
# Total GULP energy -396621.228490 kJ/mol
# GULP energy per Si atom -12394.413390 kJ/mol
# Density = 2.147556 g / cm^3
# Si number density = 21.524550 Si / 1000 Ang^3
#
#
#
# Elastic Constant Matrix: (Units=GPa)
#
#
# Indices 1 2 3 4 5 6 
#
# 1 151.9035 16.5724 62.7354 0.0000 0.0000 0.0000
# 2 16.5724 39.0867 21.3257 0.0000 0.0000 0.0000
# 3 62.7354 21.3257 90.3523 0.0000 0.0000 0.0000
# 4 0.0000 0.0000 0.0000 21.5295 0.0000 0.0000
# 5 0.0000 0.0000 0.0000 0.0000 41.8785 0.0000
# 6 0.0000 0.0000 0.0000 0.0000 0.0000 16.2466
#
#
#
# Elastic Compliance Matrix: (Units=1/GPa)
#
#
# Indices 1 2 3 4 5 6 
#
# 1 0.009238 -0.000479 -0.006301 0.000000 0.000000 0.000000
# 2 -0.000479 0.029391 -0.006605 0.000000 0.000000 0.000000
# 3 -0.006301 -0.006605 0.017002 0.000000 0.000000 0.000000
# 4 0.000000 0.000000 0.000000 0.046448 0.000000 0.000000
# 5 0.000000 0.000000 0.000000 0.000000 0.023879 0.000000
# 6 0.000000 0.000000 0.000000 0.000000 0.000000 0.061551
#
#
# Mechanical properties :
#
#
# Convention : Reuss Voigt Hill
#
# Bulk Modulus (GPa) = 34.64866 53.62327 44.13597
# Shear Modulus (GPa) = 22.33169 27.97819 25.15494
#
# Velocity S-wave (km/s) = 3.22452 3.60922 3.42228
# Velocity P-wave (km/s) = 5.47682 6.50656 6.01377
#
# Compressibility (1/GPa) = 0.02886114
#
# Stress axis : x y z
#
# Youngs Moduli (GPa) = 108.25221 34.02445 58.81748
#
# Poissons Ratio (x) = 0.01629 0.37061
# Poissons Ratio (y) = 0.05183 0.38846
# Poissons Ratio (z) = 0.68211 0.22472
#
# Static dielectric constant tensor:
#      x y z
#    x 4.172560 0.000000 0.000000 
#    y 0.000000 4.005190 0.000000 
#    z 0.000000 0.000000 3.625520 
# 
# 
# High freq. dielectric constant tensor:
#      x y z
#    x 1.858090 0.000000 0.000000 
#    y 0.000000 1.838250 0.000000 
#    z 0.000000 0.000000 1.818400 
# 
# From -- ./inp_files/24972.got.cif
#   From: 2010.03.12/outbox.cif.g09.slc.cpg/sg20_13_cif.got.tgz:24972.got - 2010.04.14 01:38:04.
