data_PCOD8158569
_publ_section_title
;
Structure prediction by ZEFSAII (Michael W. Deem and Ramdas Pophale) SiO2 
 PCOD8158569
Probable space group: C 2 2 21
;
_chemical_formula_sum "Si O2"
_cell_formula_units_Z 48
_cell_length_a 30.672586
_cell_length_b 5.023215
_cell_length_c 15.893418
_cell_angle_alpha 90.000000
_cell_angle_beta 90.000000
_cell_angle_gamma 90.000000
_cell_volume 2448.778284
_symmetry_space_group_name_H-M "C 2 2 21"
_symmetry_group_IT_number 20
_symmetry_cell_setting 'orthorhombic'
loop_
_space_group_symop_operation_xyz
x,y,z
-x,-y,1/2+z
x,-y,-z
-x,y,1/2-z
1/2+x,1/2+y,z
1/2-x,1/2-y,1/2+z
1/2+x,1/2-y,-z
1/2-x,1/2+y,1/2-z
loop_
_atom_site_type_symbol
_atom_site_label
_atom_site_fract_x
_atom_site_fract_y
_atom_site_fract_z
Si Si1 0.041587 0.901439 0.693112
Si Si2 0.269096 0.258191 0.055782
Si Si3 0.328429 0.241451 0.555552
Si Si4 0.934540 0.400893 0.905373
Si Si5 0.633421 0.399701 0.773048
Si Si6 0.156788 0.605172 0.321665
O O1 0.040479 0.608402 0.654072
O O2 0.082281 0.913651 0.755870
O O3 0.000000 0.958665 0.750000
O O4 0.044523 0.114027 0.616291
O O5 0.220392 0.333013 0.087902
O O6 0.298717 0.195620 0.135472
O O7 0.288521 0.500000 0.000000
O O8 0.267578 0.000000 0.000000
O O9 0.325894 0.500000 0.500000
O O10 0.360421 0.300692 0.632394
O O11 0.347784 0.000000 0.500000
O O12 0.882938 0.375141 0.887742
O O13 0.941808 0.500000 0.000000
O O14 0.651562 0.696543 0.757854
O O15 0.658751 0.197009 0.710874
#
# Coordination Sequence:
#
# PCOD8158569 Si02
#       6
#     8   8   8   8   8   8
#     4  10  21  38  57  79 111 142 174 222 272 320
#     4  10  20  33  51  77 109 143 175 213 262 308
#     4  10  21  37  54  74 105 142 181 221 257 306
#     4  10  20  35  57  83 110 140 174 216 268 324
#     4  10  21  36  55  78 103 140 180 217 272 318
#     4  10  20  33  54  81 108 137 172 217 265 322
#
# _framework density 19.601610000000001
#
# number of rings (size 3 to 8) (size 9 to 14) (size 15 to 20)
#    0.000    2.000    0.000    3.500    0.000    4.000 
#    0.000    2.500    0.000    0.000    0.000    0.000 
#    0.000    0.000    0.000    0.000    0.000    0.000 
#
# Total GULP energy -297593.001501 kJ/mol
# GULP energy per Si atom -12399.708396 kJ/mol
# Density = 1.955700 g / cm^3
# Si number density = 19.601610 Si / 1000 Ang^3
#
#
#
# Elastic Constant Matrix: (Units=GPa)
#
#
# Indices 1 2 3 4 5 6 
#
# 1 71.0730 27.9034 56.1902 0.0000 0.0000 0.0000
# 2 27.9034 102.3683 19.8191 0.0000 0.0000 0.0000
# 3 56.1902 19.8191 101.3793 0.0000 0.0000 0.0000
# 4 0.0000 0.0000 0.0000 34.3164 0.0000 0.0000
# 5 0.0000 0.0000 0.0000 0.0000 25.2535 0.0000
# 6 0.0000 0.0000 0.0000 0.0000 0.0000 21.6187
#
#
#
# Elastic Compliance Matrix: (Units=1/GPa)
#
#
# Indices 1 2 3 4 5 6 
#
# 1 0.027010 -0.004640 -0.014064 0.000000 0.000000 0.000000
# 2 -0.004640 0.010950 0.000431 0.000000 0.000000 0.000000
# 3 -0.014064 0.000431 0.017575 0.000000 0.000000 0.000000
# 4 0.000000 0.000000 0.000000 0.029141 0.000000 0.000000
# 5 0.000000 0.000000 0.000000 0.000000 0.039599 0.000000
# 6 0.000000 0.000000 0.000000 0.000000 0.000000 0.046256
#
#
# Mechanical properties :
#
#
# Convention : Reuss Voigt Hill
#
# Bulk Modulus (GPa) = 52.65917 53.62734 53.14325
# Shear Modulus (GPa) = 23.42966 27.63156 25.53061
#
# Velocity S-wave (km/s) = 3.46105 3.75861 3.61290
# Velocity P-wave (km/s) = 6.54942 6.80105 6.67642
#
# Compressibility (1/GPa) = 0.01899005
#
# Stress axis : x y z
#
# Youngs Moduli (GPa) = 37.02301 91.32522 56.90047
#
# Poissons Ratio (x) = 0.42371 0.80022
# Poissons Ratio (y) = 0.17177 -0.02452
# Poissons Ratio (z) = 0.52068 -0.03935
#
# Static dielectric constant tensor:
#      x y z
#    x 3.479270 0.000000 0.000000 
#    y 0.000000 3.913400 0.000000 
#    z 0.000000 0.000000 3.264360 
# 
# 
# High freq. dielectric constant tensor:
#      x y z
#    x 1.742420 0.000000 0.000000 
#    y 0.000000 1.789600 0.000000 
#    z 0.000000 0.000000 1.750840 
# 
# From -- ./inp_files/22160.got.cif
#   From: 2010.03.12/outbox.cif.g09.slc.cpg/sg20_12_cif.got.tgz:22160.got - 2010.04.14 01:38:04.
