data_PCOD8158517
_publ_section_title
;
Structure prediction by ZEFSAII (Michael W. Deem and Ramdas Pophale) SiO2 
 PCOD8158517
Probable space group: C 2 2 21
;
_chemical_formula_sum "Si O2"
_cell_formula_units_Z 52
_cell_length_a 7.465101
_cell_length_b 20.249709
_cell_length_c 14.875037
_cell_angle_alpha 90.000000
_cell_angle_beta 90.000000
_cell_angle_gamma 90.000000
_cell_volume 2248.601671
_symmetry_space_group_name_H-M "C 2 2 21"
_symmetry_group_IT_number 20
_symmetry_cell_setting 'orthorhombic'
loop_
_space_group_symop_operation_xyz
x,y,z
-x,-y,1/2+z
x,-y,-z
-x,y,1/2-z
1/2+x,1/2+y,z
1/2-x,1/2-y,1/2+z
1/2+x,1/2-y,-z
1/2-x,1/2+y,1/2-z
loop_
_atom_site_type_symbol
_atom_site_label
_atom_site_fract_x
_atom_site_fract_y
_atom_site_fract_z
Si Si1 0.618949 0.299612 0.947550
Si Si2 0.320157 0.073041 0.504048
Si Si3 0.816517 0.595359 0.704762
Si Si4 0.000000 0.002498 0.250000
Si Si5 0.792377 0.742079 0.730039
Si Si6 0.296628 0.198085 0.403882
Si Si7 0.078818 0.057826 0.056917
O O1 0.745124 0.265949 0.871679
O O2 0.414990 0.306059 0.917416
O O3 0.690673 0.374753 0.960095
O O4 0.624914 0.258021 0.038216
O O5 0.359054 0.105454 0.599999
O O6 0.387303 0.127212 0.429898
O O7 0.109776 0.064171 0.492706
O O8 0.413079 0.000000 0.500000
O O9 0.668131 0.540417 0.720042
O O10 0.746171 0.664939 0.743286
O O11 0.000000 0.571571 0.750000
O O12 0.058214 0.046341 0.164343
O O13 0.669093 0.783947 0.799316
O O14 0.000000 0.753572 0.750000
O O15 0.180657 0.000000 0.000000
#
# Coordination Sequence:
#
# PCOD8158517 Si02
#       7
#     8   8   8   4   8   8   8
#     4  10  21  38  61  87 125 165 220 269 326 396
#     4  10  19  40  65  91 131 174 213 277 346 391
#     4  11  23  41  67 100 133 177 228 280 340 399
#     4  12  24  42  72  98 140 176 228 274 336 414
#     4   9  20  37  59  90 121 166 218 268 327 393
#     4  10  21  36  63  87 122 167 214 266 326 393
#     4  10  22  38  63  96 129 175 216 278 336 392
#
# _framework density 23.125482999999999
#
# number of rings (size 3 to 8) (size 9 to 14) (size 15 to 20)
#    0.000    1.846    4.615    0.000    7.538    0.000 
#    0.000    2.308    0.000    0.000    0.000    0.000 
#    0.000    0.000    0.000    0.000    0.000    0.000 
#
# Total GULP energy -322266.031780 kJ/mol
# GULP energy per Si atom -12394.847376 kJ/mol
# Density = 2.307285 g / cm^3
# Si number density = 23.125483 Si / 1000 Ang^3
#
#
#
# Elastic Constant Matrix: (Units=GPa)
#
#
# Indices 1 2 3 4 5 6 
#
# 1 12.3703 10.2233 5.9252 0.0000 0.0000 0.0000
# 2 10.2233 174.6274 36.5350 0.0000 0.0000 0.0000
# 3 5.9252 36.5350 117.2448 0.0000 0.0000 0.0000
# 4 0.0000 0.0000 0.0000 39.3881 0.0000 0.0000
# 5 0.0000 0.0000 0.0000 0.0000 25.8246 0.0000
# 6 0.0000 0.0000 0.0000 0.0000 0.0000 -3.0830
#
#
#
# Elastic Compliance Matrix: (Units=1/GPa)
#
#
# Indices 1 2 3 4 5 6 
#
# 1 0.085903 -0.004408 -0.002968 0.000000 0.000000 0.000000
# 2 -0.004408 0.006352 -0.001757 0.000000 0.000000 0.000000
# 3 -0.002968 -0.001757 0.009227 0.000000 0.000000 0.000000
# 4 0.000000 0.000000 0.000000 0.025388 0.000000 0.000000
# 5 0.000000 0.000000 0.000000 0.000000 0.038723 0.000000
# 6 0.000000 0.000000 0.000000 0.000000 0.000000 -0.324356
#
#
# Mechanical properties :
#
#
# Convention : Reuss Voigt Hill
#
# Bulk Modulus (GPa) = 12.01677 45.51218 28.76447
# Shear Modulus (GPa) = -44.34232 29.19652 -7.57290
#
# Velocity S-wave (km/s) = -4.38364 3.55706 -1.81158
# Velocity P-wave (km/s) = 4.51820 6.04925 2.84424
#
# Compressibility (1/GPa) = 0.08321703
#
# Stress axis : x y z
#
# Youngs Moduli (GPa) = 11.64098 157.42924 108.38320
#
# Poissons Ratio (x) = 0.69398 0.32165
# Poissons Ratio (y) = 0.05132 0.19039
# Poissons Ratio (z) = 0.03455 0.27654
#
# Static dielectric constant tensor:
#      x y z
#    x 3.631660 0.000000 0.000000 
#    y 0.000000 4.988050 0.000000 
#    z 0.000000 0.000000 4.547660 
# 
# 
# High freq. dielectric constant tensor:
#      x y z
#    x 1.872080 0.000000 0.000000 
#    y 0.000000 1.931160 0.000000 
#    z 0.000000 0.000000 1.920510 
# 
# From -- ./inp_files/19106.got.cif
#   From: 2010.03.12/outbox.cif.g09.slc.cpg/sg20_10_cif.got.tgz:19106.got - 2010.04.14 01:38:04.
