data_PCOD8158582
_publ_section_title
;
Structure prediction by ZEFSAII (Michael W. Deem and Ramdas Pophale) SiO2 
 PCOD8158582
Probable space group: C 2 2 21
;
_chemical_formula_sum "Si O2"
_cell_formula_units_Z 36
_cell_length_a 5.741715
_cell_length_b 17.279086
_cell_length_c 18.974164
_cell_angle_alpha 90.000000
_cell_angle_beta 90.000000
_cell_angle_gamma 90.000000
_cell_volume 1882.456928
_symmetry_space_group_name_H-M "C 2 2 21"
_symmetry_group_IT_number 20
_symmetry_cell_setting 'orthorhombic'
loop_
_space_group_symop_operation_xyz
x,y,z
-x,-y,1/2+z
x,-y,-z
-x,y,1/2-z
1/2+x,1/2+y,z
1/2-x,1/2-y,1/2+z
1/2+x,1/2-y,-z
1/2-x,1/2+y,1/2-z
loop_
_atom_site_type_symbol
_atom_site_label
_atom_site_fract_x
_atom_site_fract_y
_atom_site_fract_z
Si Si1 0.417784 0.410147 0.900334
Si Si2 0.304337 0.859238 0.000622
Si Si3 0.105680 0.260672 0.900595
Si Si4 0.000000 0.294169 0.750000
Si Si5 0.885969 0.500000 0.500000
Si Si6 0.000000 0.882820 0.750000
O O1 0.630675 0.408666 0.953433
O O2 0.307562 0.324617 0.897807
O O3 0.251710 0.476878 0.929460
O O4 0.494921 0.434077 0.821240
O O5 0.405797 0.790176 0.953085
O O6 0.483500 0.923575 0.027255
O O7 0.194769 0.821247 0.070228
O O8 0.005788 0.244358 0.822129
O O9 0.248621 0.339072 0.746644
#
# Coordination Sequence:
#
# PCOD8158582 Si02
#       6
#     8   8   8   4   4   4
#     4  10  20  37  58  92 119 159 205 263 301 376
#     4  11  19  37  59  91 119 158 207 259 305 375
#     4  10  20  33  62  94 117 157 206 262 316 364
#     4  10  20  36  58  99 127 152 204 274 318 366
#     4  10  24  36  58  90 126 162 206 254 312 368
#     4  10  20  36  64  93 123 158 212 256 318 366
#
# _framework density 19.123944999999999
#
# number of rings (size 3 to 8) (size 9 to 14) (size 15 to 20)
#    0.000    1.778    4.444    0.667    0.000    0.000 
#    0.000    0.000    0.000    8.000    0.000    0.000 
#    0.000    0.000    0.000    0.000    0.000    0.000 
#
# Total GULP energy -222988.677486 kJ/mol
# GULP energy per Si atom -12388.259860 kJ/mol
# Density = 1.908042 g / cm^3
# Si number density = 19.123945 Si / 1000 Ang^3
#
#
#
# Elastic Constant Matrix: (Units=GPa)
#
#
# Indices 1 2 3 4 5 6 
#
# 1 110.3297 35.6589 57.1511 0.0000 0.0000 0.0000
# 2 35.6589 85.3494 73.4464 0.0000 0.0000 0.0000
# 3 57.1511 73.4464 186.6170 0.0000 0.0000 0.0000
# 4 0.0000 0.0000 0.0000 20.4280 0.0000 0.0000
# 5 0.0000 0.0000 0.0000 0.0000 -0.7697 0.0000
# 6 0.0000 0.0000 0.0000 0.0000 0.0000 36.7842
#
#
#
# Elastic Compliance Matrix: (Units=1/GPa)
#
#
# Indices 1 2 3 4 5 6 
#
# 1 0.011141 -0.002599 -0.002389 0.000000 0.000000 0.000000
# 2 -0.002599 0.018323 -0.006416 0.000000 0.000000 0.000000
# 3 -0.002389 -0.006416 0.008615 0.000000 0.000000 0.000000
# 4 0.000000 0.000000 0.000000 0.048952 0.000000 0.000000
# 5 0.000000 0.000000 0.000000 0.000000 -1.299289 0.000000
# 6 0.000000 0.000000 0.000000 0.000000 0.000000 0.027186
#
#
# Mechanical properties :
#
#
# Convention : Reuss Voigt Hill
#
# Bulk Modulus (GPa) = 65.47689 79.42322 72.45006
# Shear Modulus (GPa) = -4.32087 25.69114 10.68514
#
# Velocity S-wave (km/s) = -1.50476 3.66922 2.36631
# Velocity P-wave (km/s) = 5.59405 7.71828 6.74037
#
# Compressibility (1/GPa) = 0.01527256
#
# Stress axis : x y z
#
# Youngs Moduli (GPa) = 89.75614 54.57582 116.07414
#
# Poissons Ratio (x) = 0.14183 0.27732
# Poissons Ratio (y) = 0.23326 0.74467
# Poissons Ratio (z) = 0.21444 0.35013
#
# Static dielectric constant tensor:
#      x y z
#    x 3.824920 0.000000 0.000000 
#    y 0.000000 3.066810 0.000000 
#    z 0.000000 0.000000 3.551440 
# 
# 
# High freq. dielectric constant tensor:
#      x y z
#    x 1.762300 0.000000 0.000000 
#    y 0.000000 1.697880 0.000000 
#    z 0.000000 0.000000 1.755660 
# 
# From -- ./inp_files/21604.got.cif
#   From: 2010.03.12/outbox.cif.g09.slc.cpg/sg20_11_cif.got.tgz:21604.got - 2010.04.14 01:38:04.
