data_PCOD8158256
_publ_section_title
;
Structure prediction by ZEFSAII (Michael W. Deem and Ramdas Pophale) SiO2 
 PCOD8158256
Probable space group: C 2 2 21
;
_chemical_formula_sum "Si O2"
_cell_formula_units_Z 40
_cell_length_a 14.013805
_cell_length_b 33.158007
_cell_length_c 4.965400
_cell_angle_alpha 90.000000
_cell_angle_beta 90.000000
_cell_angle_gamma 90.000000
_cell_volume 2307.271645
_symmetry_space_group_name_H-M "C 2 2 21"
_symmetry_group_IT_number 20
_symmetry_cell_setting 'orthorhombic'
loop_
_space_group_symop_operation_xyz
x,y,z
-x,-y,1/2+z
x,-y,-z
-x,y,1/2-z
1/2+x,1/2+y,z
1/2-x,1/2-y,1/2+z
1/2+x,1/2-y,-z
1/2-x,1/2+y,1/2-z
loop_
_atom_site_type_symbol
_atom_site_label
_atom_site_fract_x
_atom_site_fract_y
_atom_site_fract_z
Si Si1 0.201763 0.164642 0.287887
Si Si2 0.387278 0.375031 0.291223
Si Si3 0.067594 0.957074 0.004407
Si Si4 0.607447 0.746656 0.234809
Si Si5 0.892239 0.300018 0.769095
O O1 0.164502 0.132538 0.506815
O O2 0.175371 0.211142 0.341181
O O3 0.317405 0.163378 0.281138
O O4 0.153991 0.156673 0.000141
O O5 0.500000 0.369268 0.250000
O O6 0.364498 0.419478 0.415680
O O7 0.000000 0.945985 0.750000
O O8 0.000000 0.965962 0.250000
O O9 0.125832 0.000000 0.000000
O O10 0.500000 0.729881 0.250000
O O11 0.624738 0.784498 0.429550
O O12 0.626131 0.762588 0.933455
O O13 0.000000 0.317296 0.750000
#
# Coordination Sequence:
#
# PCOD8158256 Si02
#       5
#     8   8   8   8   8
#     4  12  21  32  49  70  96 125 158 201 246 278
#     4  11  21  32  47  73 101 125 153 189 234 284
#     4   9  17  31  49  68  96 133 160 179 216 278
#     4  10  19  32  48  66  90 124 161 199 244 289
#     4  10  21  35  49  65  89 125 169 206 238 281
#
# _framework density 17.336493999999998
#
# number of rings (size 3 to 8) (size 9 to 14) (size 15 to 20)
#    0.000    1.600    0.000    7.800    0.000    1.600 
#    0.000    0.000    0.000    0.000    0.000    0.000 
#    0.000    3.200    0.000    2.800    0.000    0.000 
#
# Total GULP energy -247850.921780 kJ/mol
# GULP energy per Si atom -12392.546089 kJ/mol
# Density = 1.729704 g / cm^3
# Si number density = 17.336494 Si / 1000 Ang^3
#
#
#
# Elastic Constant Matrix: (Units=GPa)
#
#
# Indices 1 2 3 4 5 6 
#
# 1 102.9494 47.3495 27.7255 0.0000 0.0000 0.0000
# 2 47.3495 66.7761 13.9935 0.0000 0.0000 0.0000
# 3 27.7255 13.9935 85.7382 0.0000 0.0000 0.0000
# 4 0.0000 0.0000 0.0000 21.3725 0.0000 0.0000
# 5 0.0000 0.0000 0.0000 0.0000 18.7513 0.0000
# 6 0.0000 0.0000 0.0000 0.0000 0.0000 11.3335
#
#
#
# Elastic Compliance Matrix: (Units=1/GPa)
#
#
# Indices 1 2 3 4 5 6 
#
# 1 0.015256 -0.010130 -0.003280 0.000000 0.000000 0.000000
# 2 -0.010130 0.022233 -0.000353 0.000000 0.000000 0.000000
# 3 -0.003280 -0.000353 0.012782 0.000000 0.000000 0.000000
# 4 0.000000 0.000000 0.000000 0.046789 0.000000 0.000000
# 5 0.000000 0.000000 0.000000 0.000000 0.053330 0.000000
# 6 0.000000 0.000000 0.000000 0.000000 0.000000 0.088234
#
#
# Mechanical properties :
#
#
# Convention : Reuss Voigt Hill
#
# Bulk Modulus (GPa) = 43.96754 48.17785 46.07269
# Shear Modulus (GPa) = 18.26612 21.38448 19.82530
#
# Velocity S-wave (km/s) = 3.24948 3.51593 3.38532
# Velocity P-wave (km/s) = 6.28451 6.65826 6.47409
#
# Compressibility (1/GPa) = 0.02274405
#
# Stress axis : x y z
#
# Youngs Moduli (GPa) = 65.54736 44.97900 78.23714
#
# Poissons Ratio (x) = 0.45566 0.25662
# Poissons Ratio (y) = 0.66402 0.02759
# Poissons Ratio (z) = 0.21500 0.01586
#
# Static dielectric constant tensor:
#      x y z
#    x 3.225730 0.000000 0.000000 
#    y 0.000000 3.324900 0.000000 
#    z 0.000000 0.000000 3.388940 
# 
# 
# High freq. dielectric constant tensor:
#      x y z
#    x 1.638980 0.000000 0.000000 
#    y 0.000000 1.639890 0.000000 
#    z 0.000000 0.000000 1.697950 
# 
# From -- ./inp_files/2136.got.cif
#   From: 2010.03.12/outbox.cif.g09.slc.cpg/sg20_2_cif.got.tgz:2136.got - 2010.04.14 01:38:04.
