data_PCOD8158689
_publ_section_title
;
Structure prediction by ZEFSAII (Michael W. Deem and Ramdas Pophale) SiO2 
 PCOD8158689
Probable space group: C 2 2 21
;
_chemical_formula_sum "Si O2"
_cell_formula_units_Z 48
_cell_length_a 10.169924
_cell_length_b 24.836364
_cell_length_c 9.100433
_cell_angle_alpha 90.000000
_cell_angle_beta 90.000000
_cell_angle_gamma 90.000000
_cell_volume 2298.623171
_symmetry_space_group_name_H-M "C 2 2 21"
_symmetry_group_IT_number 20
_symmetry_cell_setting 'orthorhombic'
loop_
_space_group_symop_operation_xyz
x,y,z
-x,-y,1/2+z
x,-y,-z
-x,y,1/2-z
1/2+x,1/2+y,z
1/2-x,1/2-y,1/2+z
1/2+x,1/2-y,-z
1/2-x,1/2+y,1/2-z
loop_
_atom_site_type_symbol
_atom_site_label
_atom_site_fract_x
_atom_site_fract_y
_atom_site_fract_z
Si Si1 0.285300 0.386552 0.940449
Si Si2 0.629368 0.790698 0.446033
Si Si3 0.500000 0.974563 0.750000
Si Si4 0.798120 0.394425 0.878256
Si Si5 0.671577 0.210673 0.896915
Si Si6 0.029922 0.055166 0.081894
Si Si7 0.664697 0.000000 0.000000
O O1 0.248013 0.366826 0.775693
O O2 0.442419 0.392091 0.965000
O O3 0.247103 0.448532 0.957380
O O4 0.214049 0.349398 0.058059
O O5 0.650906 0.850162 0.508079
O O6 0.474223 0.775652 0.458936
O O7 0.674378 0.786743 0.278143
O O8 0.718280 0.750223 0.539512
O O9 0.415579 0.935858 0.854804
O O10 0.579972 0.014235 0.855637
O O11 0.678741 0.427472 0.950272
O O12 0.000000 0.042066 0.250000
O O13 0.995861 0.000000 0.000000
#
# Coordination Sequence:
#
# PCOD8158689 Si02
#       7
#     8   8   4   8   8   8   4
#     4  10  21  41  62  91 127 173 208 265 318 382
#     4  11  25  46  67 101 125 172 211 274 325 394
#     4  10  22  36  60  92 122 170 208 266 316 378
#     4  10  22  40  63  90 128 166 216 262 325 377
#     4  11  26  44  71  95 133 164 220 265 331 388
#     4  10  22  39  62  93 129 171 214 262 317 380
#     4  10  20  36  60  86 124 166 208 254 316 376
#
# _framework density 20.882065000000001
#
# number of rings (size 3 to 8) (size 9 to 14) (size 15 to 20)
#    0.000    1.667    0.833    3.000    3.500    6.000 
#    0.000    0.000    0.000    0.000    0.000    0.000 
#    0.000    0.000    0.000    0.000    0.000    0.000 
#
# Total GULP energy -297526.798532 kJ/mol
# GULP energy per Si atom -12396.949939 kJ/mol
# Density = 2.083454 g / cm^3
# Si number density = 20.882065 Si / 1000 Ang^3
#
#
#
# Elastic Constant Matrix: (Units=GPa)
#
#
# Indices 1 2 3 4 5 6 
#
# 1 130.3310 35.3774 50.7755 0.0000 0.0000 0.0000
# 2 35.3774 63.6490 45.5998 0.0000 0.0000 0.0000
# 3 50.7755 45.5998 101.0318 0.0000 0.0000 0.0000
# 4 0.0000 0.0000 0.0000 38.4961 0.0000 0.0000
# 5 0.0000 0.0000 0.0000 0.0000 31.8110 0.0000
# 6 0.0000 0.0000 0.0000 0.0000 0.0000 20.0905
#
#
#
# Elastic Compliance Matrix: (Units=1/GPa)
#
#
# Indices 1 2 3 4 5 6 
#
# 1 0.009881 -0.002859 -0.003675 0.000000 0.000000 0.000000
# 2 -0.002859 0.024046 -0.009416 0.000000 0.000000 0.000000
# 3 -0.003675 -0.009416 0.015995 0.000000 0.000000 0.000000
# 4 0.000000 0.000000 0.000000 0.025977 0.000000 0.000000
# 5 0.000000 0.000000 0.000000 0.000000 0.031436 0.000000
# 6 0.000000 0.000000 0.000000 0.000000 0.000000 0.049775
#
#
# Mechanical properties :
#
#
# Convention : Reuss Voigt Hill
#
# Bulk Modulus (GPa) = 55.49114 62.05746 58.77430
# Shear Modulus (GPa) = 25.63880 28.96346 27.30113
#
# Velocity S-wave (km/s) = 3.50779 3.72829 3.61972
# Velocity P-wave (km/s) = 6.56029 6.95098 6.75846
#
# Compressibility (1/GPa) = 0.01802089
#
# Stress axis : x y z
#
# Youngs Moduli (GPa) = 101.20780 41.58664 62.51930
#
# Poissons Ratio (x) = 0.11888 0.22979
# Poissons Ratio (y) = 0.28932 0.58870
# Poissons Ratio (z) = 0.37199 0.39160
#
# Static dielectric constant tensor:
#      x y z
#    x 4.235810 0.000000 0.000000 
#    y 0.000000 3.551490 0.000000 
#    z 0.000000 0.000000 3.936930 
# 
# 
# High freq. dielectric constant tensor:
#      x y z
#    x 1.841800 0.000000 0.000000 
#    y 0.000000 1.805210 0.000000 
#    z 0.000000 0.000000 1.817700 
# 
# From -- ./inp_files/7429.got.cif
#   From: 2010.03.12/outbox.cif.g09.slc.cpg/sg20_4_cif.got.tgz:7429.got - 2010.04.14 01:38:04.
