data_PCOD8158123
_publ_section_title
;
Structure prediction by ZEFSAII (Michael W. Deem and Ramdas Pophale) SiO2 
 PCOD8158123
Probable space group: C 2 2 21
;
_chemical_formula_sum "Si O2"
_cell_formula_units_Z 64
_cell_length_a 21.022969
_cell_length_b 18.054231
_cell_length_c 9.089388
_cell_angle_alpha 90.000000
_cell_angle_beta 90.000000
_cell_angle_gamma 90.000000
_cell_volume 3449.909379
_symmetry_space_group_name_H-M "C 2 2 21"
_symmetry_group_IT_number 20
_symmetry_cell_setting 'orthorhombic'
loop_
_space_group_symop_operation_xyz
x,y,z
-x,-y,1/2+z
x,-y,-z
-x,y,1/2-z
1/2+x,1/2+y,z
1/2-x,1/2-y,1/2+z
1/2+x,1/2-y,-z
1/2-x,1/2+y,1/2-z
loop_
_atom_site_type_symbol
_atom_site_label
_atom_site_fract_x
_atom_site_fract_y
_atom_site_fract_z
Si Si1 0.756157 0.344441 0.681522
Si Si2 0.058963 0.775595 0.550865
Si Si3 0.143725 0.770131 0.276246
Si Si4 0.842659 0.277878 0.249455
Si Si5 0.930317 0.082440 0.250247
Si Si6 0.083950 0.201992 0.018472
Si Si7 0.750485 0.886472 0.145846
Si Si8 0.303222 0.520335 0.326384
O O1 0.823324 0.307907 0.730740
O O2 0.704210 0.279043 0.664131
O O3 0.762931 0.390903 0.529329
O O4 0.732436 0.400825 0.808868
O O5 0.090058 0.758070 0.396264
O O6 0.090610 0.716979 0.663046
O O7 0.072855 0.858518 0.615609
O O8 0.984390 0.758499 0.538378
O O9 0.195040 0.826417 0.335929
O O10 0.103966 0.809544 0.148051
O O11 0.858540 0.249494 0.412958
O O12 0.811660 0.358163 0.266328
O O13 0.920053 0.122230 0.406468
O O14 0.873389 0.023058 0.248684
O O15 0.000000 0.043208 0.250000
O O16 0.766256 0.962966 0.223636
O O17 0.304960 0.500000 0.500000
#
# Coordination Sequence:
#
# PCOD8158123 Si02
#       8
#     8   8   8   8   8   8   8   8
#     4  11  22  38  55  78 117 155 181 244 294 334
#     4  10  19  33  60  84 114 146 182 234 280 345
#     4  11  21  34  57  87 115 141 189 241 294 334
#     4  10  19  36  58  82 109 149 189 228 300 334
#     4   9  19  39  58  77 118 160 188 226 279 337
#     4  10  18  34  58  85 114 145 186 229 284 341
#     4  11  23  35  57  81 114 153 192 242 281 340
#     4  12  24  37  57  83 111 156 203 234 278 339
#
# _framework density 18.551210999999999
#
# number of rings (size 3 to 8) (size 9 to 14) (size 15 to 20)
#    0.000    1.500    5.000    2.625    1.750    0.000 
#    0.000    5.000    0.000    0.000    0.000    5.250 
#    0.000    0.000    0.000    0.000    0.000    0.000 
#
# Total GULP energy -396580.027887 kJ/mol
# GULP energy per Si atom -12393.125871 kJ/mol
# Density = 1.850899 g / cm^3
# Si number density = 18.551211 Si / 1000 Ang^3
#
#
#
# Elastic Constant Matrix: (Units=GPa)
#
#
# Indices 1 2 3 4 5 6 
#
# 1 55.3953 18.3951 13.7456 0.0000 0.0000 0.0000
# 2 18.3951 57.8317 17.1120 0.0000 0.0000 0.0000
# 3 13.7456 17.1120 97.9378 0.0000 0.0000 0.0000
# 4 0.0000 0.0000 0.0000 21.8600 0.0000 0.0000
# 5 0.0000 0.0000 0.0000 0.0000 18.0928 0.0000
# 6 0.0000 0.0000 0.0000 0.0000 0.0000 25.3087
#
#
#
# Elastic Compliance Matrix: (Units=1/GPa)
#
#
# Indices 1 2 3 4 5 6 
#
# 1 0.020491 -0.005976 -0.001832 0.000000 0.000000 0.000000
# 2 -0.005976 0.019977 -0.002652 0.000000 0.000000 0.000000
# 3 -0.001832 -0.002652 0.010931 0.000000 0.000000 0.000000
# 4 0.000000 0.000000 0.000000 0.045746 0.000000 0.000000
# 5 0.000000 0.000000 0.000000 0.000000 0.055271 0.000000
# 6 0.000000 0.000000 0.000000 0.000000 0.000000 0.039512
#
#
# Mechanical properties :
#
#
# Convention : Reuss Voigt Hill
#
# Bulk Modulus (GPa) = 32.80805 34.40778 33.60792
# Shear Modulus (GPa) = 22.42095 23.84646 23.13370
#
# Velocity S-wave (km/s) = 3.48026 3.58919 3.53515
# Velocity P-wave (km/s) = 5.82006 5.98031 5.90073
#
# Compressibility (1/GPa) = 0.03048032
#
# Stress axis : x y z
#
# Youngs Moduli (GPa) = 48.80202 50.05769 91.48308
#
# Poissons Ratio (x) = 0.29913 0.16758
# Poissons Ratio (y) = 0.29163 0.24259
# Poissons Ratio (z) = 0.08940 0.13274
#
# Static dielectric constant tensor:
#      x y z
#    x 3.666330 0.000000 0.000000 
#    y 0.000000 3.094590 0.000000 
#    z 0.000000 0.000000 3.515080 
# 
# 
# High freq. dielectric constant tensor:
#      x y z
#    x 1.725080 0.000000 0.000000 
#    y 0.000000 1.671990 0.000000 
#    z 0.000000 0.000000 1.734700 
# 
# From -- ./inp_files/10339.got.cif
#   From: 2010.03.12/outbox.cif.g09.slc.cpg/sg20_6_cif.got.tgz:10339.got - 2010.04.14 01:38:04.
