data_PCOD8158398
_publ_section_title
;
Structure prediction by ZEFSAII (Michael W. Deem and Ramdas Pophale) SiO2 
 PCOD8158398
Probable space group: C 2 2 21
;
_chemical_formula_sum "Si O2"
_cell_formula_units_Z 64
_cell_length_a 30.805632
_cell_length_b 10.421715
_cell_length_c 9.875507
_cell_angle_alpha 90.000000
_cell_angle_beta 90.000000
_cell_angle_gamma 90.000000
_cell_volume 3170.507002
_symmetry_space_group_name_H-M "C 2 2 21"
_symmetry_group_IT_number 20
_symmetry_cell_setting 'orthorhombic'
loop_
_space_group_symop_operation_xyz
x,y,z
-x,-y,1/2+z
x,-y,-z
-x,y,1/2-z
1/2+x,1/2+y,z
1/2-x,1/2-y,1/2+z
1/2+x,1/2-y,-z
1/2-x,1/2+y,1/2-z
loop_
_atom_site_type_symbol
_atom_site_label
_atom_site_fract_x
_atom_site_fract_y
_atom_site_fract_z
Si Si1 0.282120 0.137476 0.057701
Si Si2 0.130649 0.765279 0.466528
Si Si3 0.948602 0.609541 0.100514
Si Si4 0.107130 0.851231 0.026322
Si Si5 0.952684 0.382645 0.592841
Si Si6 0.242945 0.723234 0.715396
Si Si7 0.827365 0.924591 0.248975
Si Si8 0.347239 0.711105 0.264526
O O1 0.333974 0.155274 0.069597
O O2 0.260251 0.150574 0.205413
O O3 0.261356 0.239634 0.948235
O O4 0.270115 0.000000 0.000000
O O5 0.083155 0.731013 0.411572
O O6 0.147422 0.893875 0.391354
O O7 0.125317 0.781058 0.627158
O O8 0.947627 0.562667 0.255499
O O9 0.997247 0.647468 0.056483
O O10 0.930599 0.500000 0.000000
O O11 0.069904 0.756935 0.081489
O O12 0.147655 0.852663 0.128642
O O13 0.120831 0.775430 0.890447
O O14 0.091133 0.000000 0.000000
O O15 0.934693 0.500000 0.500000
O O16 0.277179 0.615067 0.757738
O O17 0.193558 0.689396 0.766248
O O18 0.824896 0.073425 0.274575
#
# Coordination Sequence:
#
# PCOD8158398 Si02
#       8
#     8   8   8   8   8   8   8   8
#     4  10  20  35  53  78 112 143 186 239 286 339
#     4  10  20  35  56  81 113 149 194 233 296 352
#     4  10  21  39  65  88 120 156 192 243 307 357
#     4  10  21  40  62  86 123 164 199 242 302 359
#     4  10  22  41  65  93 121 153 200 249 299 363
#     4  10  20  34  56  80 108 151 197 238 286 346
#     4  10  19  36  57  79 117 157 199 243 298 354
#     4  10  21  34  55  85 115 155 198 243 294 358
#
# _framework density 20.186046000000001
#
# number of rings (size 3 to 8) (size 9 to 14) (size 15 to 20)
#    0.000    2.000    1.250    2.250    1.750    1.000 
#    0.000    4.375    0.000    0.000    0.000    0.000 
#    0.000    0.000    0.000    0.000    0.000    0.000 
#
# Total GULP energy -396497.549502 kJ/mol
# GULP energy per Si atom -12390.548422 kJ/mol
# Density = 2.014010 g / cm^3
# Si number density = 20.186046 Si / 1000 Ang^3
#
#
#
# Elastic Constant Matrix: (Units=GPa)
#
#
# Indices 1 2 3 4 5 6 
#
# 1 82.5403 26.6703 33.3640 0.0000 0.0000 0.0000
# 2 26.6703 61.8805 21.2935 0.0000 0.0000 0.0000
# 3 33.3640 21.2935 113.8797 0.0000 0.0000 0.0000
# 4 0.0000 0.0000 0.0000 31.0377 0.0000 0.0000
# 5 0.0000 0.0000 0.0000 0.0000 27.6929 0.0000
# 6 0.0000 0.0000 0.0000 0.0000 0.0000 20.2009
#
#
#
# Elastic Compliance Matrix: (Units=1/GPa)
#
#
# Indices 1 2 3 4 5 6 
#
# 1 0.015254 -0.005383 -0.003463 0.000000 0.000000 0.000000
# 2 -0.005383 0.019171 -0.002008 0.000000 0.000000 0.000000
# 3 -0.003463 -0.002008 0.010171 0.000000 0.000000 0.000000
# 4 0.000000 0.000000 0.000000 0.032219 0.000000 0.000000
# 5 0.000000 0.000000 0.000000 0.000000 0.036110 0.000000
# 6 0.000000 0.000000 0.000000 0.000000 0.000000 0.049503
#
#
# Mechanical properties :
#
#
# Convention : Reuss Voigt Hill
#
# Bulk Modulus (GPa) = 43.68719 46.77288 45.23004
# Shear Modulus (GPa) = 26.07362 27.58449 26.82905
#
# Velocity S-wave (km/s) = 3.59787 3.70065 3.64962
# Velocity P-wave (km/s) = 6.24090 6.44057 6.34152
#
# Compressibility (1/GPa) = 0.02289000
#
# Stress axis : x y z
#
# Youngs Moduli (GPa) = 65.55537 52.16193 98.31843
#
# Poissons Ratio (x) = 0.28079 0.34044
# Poissons Ratio (y) = 0.35289 0.19738
# Poissons Ratio (z) = 0.22699 0.10472
#
# Static dielectric constant tensor:
#      x y z
#    x 3.681920 0.000000 0.000000 
#    y 0.000000 3.481240 0.000000 
#    z 0.000000 0.000000 4.088440 
# 
# 
# High freq. dielectric constant tensor:
#      x y z
#    x 1.781860 0.000000 0.000000 
#    y 0.000000 1.760630 0.000000 
#    z 0.000000 0.000000 1.804610 
# 
# From -- ./inp_files/11625.got.cif
#   From: 2010.03.12/outbox.cif.g09.slc.cpg/sg20_6_cif.got.tgz:11625.got - 2010.04.14 01:38:04.
