data_PCOD8158640
_publ_section_title
;
Structure prediction by ZEFSAII (Michael W. Deem and Ramdas Pophale) SiO2 
 PCOD8158640
Probable space group: C 2 2 21
;
_chemical_formula_sum "Si O2"
_cell_formula_units_Z 60
_cell_length_a 12.412447
_cell_length_b 22.052203
_cell_length_c 11.301044
_cell_angle_alpha 90.000000
_cell_angle_beta 90.000000
_cell_angle_gamma 90.000000
_cell_volume 3093.342117
_symmetry_space_group_name_H-M "C 2 2 21"
_symmetry_group_IT_number 20
_symmetry_cell_setting 'orthorhombic'
loop_
_space_group_symop_operation_xyz
x,y,z
-x,-y,1/2+z
x,-y,-z
-x,y,1/2-z
1/2+x,1/2+y,z
1/2-x,1/2-y,1/2+z
1/2+x,1/2-y,-z
1/2-x,1/2+y,1/2-z
loop_
_atom_site_type_symbol
_atom_site_label
_atom_site_fract_x
_atom_site_fract_y
_atom_site_fract_z
Si Si1 0.797429 0.868157 0.254391
Si Si2 0.402849 0.433851 0.464740
Si Si3 0.689107 0.671078 0.098784
Si Si4 0.218414 0.827729 0.626866
Si Si5 0.348896 0.432334 0.028087
Si Si6 0.428207 0.782625 0.517702
Si Si7 0.500000 0.718988 0.750000
Si Si8 0.639723 0.196100 0.587683
O O1 0.831999 0.916125 0.352492
O O2 0.776320 0.903529 0.132486
O O3 0.687070 0.833118 0.291081
O O4 0.891270 0.819196 0.238481
O O5 0.362661 0.500000 0.500000
O O6 0.384543 0.387832 0.573771
O O7 0.527981 0.434584 0.428213
O O8 0.727792 0.672355 0.232655
O O9 0.621483 0.729860 0.062558
O O10 0.795447 0.666586 0.020027
O O11 0.159653 0.889355 0.586698
O O12 0.336098 0.827048 0.566357
O O13 0.151227 0.768970 0.587476
O O14 0.306776 0.500000 0.000000
O O15 0.493460 0.757681 0.630720
O O16 0.513428 0.818379 0.433794
#
# Coordination Sequence:
#
# PCOD8158640 Si02
#       8
#     8   8   8   8   8   8   4   8
#     4  11  20  38  59  87 121 157 201 246 303 365
#     4  10  20  35  59  84 117 157 197 242 293 371
#     4  10  21  38  54  93 121 151 197 246 304 352
#     4  11  23  37  58  86 126 152 190 259 292 365
#     4  11  24  38  57  85 119 168 203 244 309 366
#     4  11  22  37  61  90 121 160 200 238 312 367
#     4  12  16  36  62  88 126 166 184 248 296 382
#     4  10  22  36  61  91 116 160 197 250 304 367
#
# _framework density 19.396497
#
# number of rings (size 3 to 8) (size 9 to 14) (size 15 to 20)
#    0.000    1.333    5.333    2.400    5.600    2.133 
#    0.000    0.000    0.000    3.200    3.467    0.000 
#    0.000    0.000    0.000    0.000    0.000    0.000 
#
# Total GULP energy -372010.477494 kJ/mol
# GULP energy per Si atom -12400.349250 kJ/mol
# Density = 1.935235 g / cm^3
# Si number density = 19.396497 Si / 1000 Ang^3
#
#
#
# Elastic Constant Matrix: (Units=GPa)
#
#
# Indices 1 2 3 4 5 6 
#
# 1 81.2063 17.4447 26.1227 0.0000 0.0000 0.0000
# 2 17.4447 93.4312 39.9476 0.0000 0.0000 0.0000
# 3 26.1227 39.9476 87.5373 0.0000 0.0000 0.0000
# 4 0.0000 0.0000 0.0000 23.4282 0.0000 0.0000
# 5 0.0000 0.0000 0.0000 0.0000 31.0453 0.0000
# 6 0.0000 0.0000 0.0000 0.0000 0.0000 14.5421
#
#
#
# Elastic Compliance Matrix: (Units=1/GPa)
#
#
# Indices 1 2 3 4 5 6 
#
# 1 0.013698 -0.001006 -0.003629 0.000000 0.000000 0.000000
# 2 -0.001006 0.013372 -0.005802 0.000000 0.000000 0.000000
# 3 -0.003629 -0.005802 0.015154 0.000000 0.000000 0.000000
# 4 0.000000 0.000000 0.000000 0.042684 0.000000 0.000000
# 5 0.000000 0.000000 0.000000 0.000000 0.032211 0.000000
# 6 0.000000 0.000000 0.000000 0.000000 0.000000 0.068766
#
#
# Mechanical properties :
#
#
# Convention : Reuss Voigt Hill
#
# Bulk Modulus (GPa) = 46.83733 47.68942 47.26338
# Shear Modulus (GPa) = 23.37827 25.71376 24.54601
#
# Velocity S-wave (km/s) = 3.47548 3.64495 3.56123
# Velocity P-wave (km/s) = 6.34863 6.50801 6.42881
#
# Compressibility (1/GPa) = 0.02135049
#
# Stress axis : x y z
#
# Youngs Moduli (GPa) = 73.00507 74.78549 65.98835
#
# Poissons Ratio (x) = 0.07524 0.23944
# Poissons Ratio (y) = 0.07345 0.38286
# Poissons Ratio (z) = 0.26490 0.43390
#
# Static dielectric constant tensor:
#      x y z
#    x 3.496180 0.000000 0.000000 
#    y 0.000000 3.524320 0.000000 
#    z 0.000000 0.000000 3.715400 
# 
# 
# High freq. dielectric constant tensor:
#      x y z
#    x 1.740660 0.000000 0.000000 
#    y 0.000000 1.732610 0.000000 
#    z 0.000000 0.000000 1.766690 
# 
# From -- ./inp_files/14396.got.cif
#   From: 2010.03.12/outbox.cif.g09.slc.cpg/sg20_8_cif.got.tgz:14396.got - 2010.04.14 01:38:04.
