data_PCOD8158713
_publ_section_title
;
Structure prediction by ZEFSAII (Michael W. Deem and Ramdas Pophale) SiO2 
 PCOD8158713
Probable space group: C 2 2 21
;
_chemical_formula_sum "Si O2"
_cell_formula_units_Z 52
_cell_length_a 5.231525
_cell_length_b 28.723973
_cell_length_c 15.999434
_cell_angle_alpha 90.000000
_cell_angle_beta 90.000000
_cell_angle_gamma 90.000000
_cell_volume 2404.237873
_symmetry_space_group_name_H-M "C 2 2 21"
_symmetry_group_IT_number 20
_symmetry_cell_setting 'orthorhombic'
loop_
_space_group_symop_operation_xyz
x,y,z
-x,-y,1/2+z
x,-y,-z
-x,y,1/2-z
1/2+x,1/2+y,z
1/2-x,1/2-y,1/2+z
1/2+x,1/2-y,-z
1/2-x,1/2+y,1/2-z
loop_
_atom_site_type_symbol
_atom_site_label
_atom_site_fract_x
_atom_site_fract_y
_atom_site_fract_z
Si Si1 0.000000 0.850741 0.750000
Si Si2 0.245046 0.347040 0.437896
Si Si3 0.842495 0.250155 0.553796
Si Si4 0.241430 0.483920 0.197273
Si Si5 0.874578 0.332223 0.877754
Si Si6 0.730340 0.404891 0.435268
Si Si7 0.225913 0.414350 0.873370
O O1 0.782098 0.818565 0.706907
O O2 0.938410 0.884363 0.827209
O O3 0.260946 0.296176 0.392948
O O4 0.284059 0.332906 0.535799
O O5 0.474836 0.378778 0.405232
O O6 0.974536 0.371631 0.421113
O O7 0.111665 0.237416 0.508624
O O8 0.890971 0.295115 0.613544
O O9 0.500000 0.480116 0.250000
O O10 0.252016 0.451830 0.116429
O O11 0.186818 0.536058 0.168389
O O12 0.000000 0.466334 0.250000
O O13 0.966296 0.385188 0.863824
O O14 0.697932 0.420693 0.530458
#
# Coordination Sequence:
#
# PCOD8158713 Si02
#       7
#     4   8   8   8   8   8   8
#     4  12  20  38  60  94 142 176 206 274 344 404
#     4  10  20  40  63  97 127 171 222 271 318 381
#     4  10  20  36  63  96 126 169 218 269 323 394
#     4  12  26  44  67  96 129 177 224 277 338 396
#     4  10  22  35  63  95 139 169 220 261 339 405
#     4  11  23  42  69  97 128 173 227 276 323 396
#     4  11  23  41  62  98 136 174 215 274 343 404
#
# _framework density 21.628475000000002
#
# number of rings (size 3 to 8) (size 9 to 14) (size 15 to 20)
#    0.000    1.231    2.308    5.538    2.154    0.000 
#    0.000    3.077    1.692    1.846    0.000    0.000 
#    0.000    0.000    0.000    0.000    0.000    0.000 
#
# Total GULP energy -322240.150436 kJ/mol
# GULP energy per Si atom -12393.851940 kJ/mol
# Density = 2.157925 g / cm^3
# Si number density = 21.628475 Si / 1000 Ang^3
#
#
#
# Elastic Constant Matrix: (Units=GPa)
#
#
# Indices 1 2 3 4 5 6 
#
# 1 131.3810 38.1687 33.0135 0.0000 0.0000 0.0000
# 2 38.1687 85.1649 44.5271 0.0000 0.0000 0.0000
# 3 33.0135 44.5271 80.0376 0.0000 0.0000 0.0000
# 4 0.0000 0.0000 0.0000 -67.9563 0.0000 0.0000
# 5 0.0000 0.0000 0.0000 0.0000 30.0742 0.0000
# 6 0.0000 0.0000 0.0000 0.0000 0.0000 60.6584
#
#
#
# Elastic Compliance Matrix: (Units=1/GPa)
#
#
# Indices 1 2 3 4 5 6 
#
# 1 0.008987 -0.002947 -0.002068 0.000000 0.000000 0.000000
# 2 -0.002947 0.017524 -0.008534 0.000000 0.000000 0.000000
# 3 -0.002068 -0.008534 0.018095 0.000000 0.000000 0.000000
# 4 0.000000 0.000000 0.000000 -0.014715 0.000000 0.000000
# 5 0.000000 0.000000 0.000000 0.000000 0.033251 0.000000
# 6 0.000000 0.000000 0.000000 0.000000 0.000000 0.016486
#
#
# Mechanical properties :
#
#
# Convention : Reuss Voigt Hill
#
# Bulk Modulus (GPa) = 57.11133 58.66691 57.88912
# Shear Modulus (GPa) = 44.42059 16.61354 30.51707
#
# Velocity S-wave (km/s) = 4.53681 2.77453 3.76036
# Velocity P-wave (km/s) = 7.34210 6.11946 6.75848
#
# Compressibility (1/GPa) = 0.01750966
#
# Stress axis : x y z
#
# Youngs Moduli (GPa) = 111.27080 57.06342 55.26531
#
# Poissons Ratio (x) = 0.16815 0.11427
# Poissons Ratio (y) = 0.32789 0.47162
# Poissons Ratio (z) = 0.23006 0.48697
#
# Static dielectric constant tensor:
#      x y z
#    x 4.417110 0.000000 0.000000 
#    y 0.000000 4.123640 0.000000 
#    z 0.000000 0.000000 3.614390 
# 
# 
# High freq. dielectric constant tensor:
#      x y z
#    x 1.864100 0.000000 0.000000 
#    y 0.000000 1.857710 0.000000 
#    z 0.000000 0.000000 1.822260 
# 
# From -- ./inp_files/22886.got.cif
#   From: 2010.03.12/outbox.cif.g09.slc.cpg/sg20_12_cif.got.tgz:22886.got - 2010.04.14 01:38:04.
