data_PCOD8158425
_publ_section_title
;
Structure prediction by ZEFSAII (Michael W. Deem and Ramdas Pophale) SiO2 
 PCOD8158425
Probable space group: C 2 2 21
;
_chemical_formula_sum "Si O2"
_cell_formula_units_Z 44
_cell_length_a 13.106976
_cell_length_b 13.167383
_cell_length_c 12.228333
_cell_angle_alpha 90.000000
_cell_angle_beta 90.000000
_cell_angle_gamma 90.000000
_cell_volume 2110.421629
_symmetry_space_group_name_H-M "C 2 2 21"
_symmetry_group_IT_number 20
_symmetry_cell_setting 'orthorhombic'
loop_
_space_group_symop_operation_xyz
x,y,z
-x,-y,1/2+z
x,-y,-z
-x,y,1/2-z
1/2+x,1/2+y,z
1/2-x,1/2-y,1/2+z
1/2+x,1/2-y,-z
1/2-x,1/2+y,1/2-z
loop_
_atom_site_type_symbol
_atom_site_label
_atom_site_fract_x
_atom_site_fract_y
_atom_site_fract_z
Si Si1 0.195914 0.609615 0.538066
Si Si2 0.111489 0.447121 0.252319
Si Si3 0.000000 0.210523 0.750000
Si Si4 0.309286 0.840587 0.801062
Si Si5 0.071143 0.888503 0.039436
Si Si6 0.904945 0.756164 0.670898
O O1 0.160858 0.500000 0.500000
O O2 0.125339 0.630948 0.643439
O O3 0.175552 0.679213 0.431922
O O4 0.312231 0.609089 0.579365
O O5 0.189079 0.541434 0.259299
O O6 0.120963 0.365441 0.152898
O O7 0.000000 0.497631 0.250000
O O8 0.897273 0.277729 0.740970
O O9 0.001009 0.141553 0.641225
O O10 0.194814 0.806983 0.773079
O O11 0.063477 0.805681 0.943665
O O12 0.035986 0.000000 0.000000
O O13 0.000000 0.772039 0.750000
#
# Coordination Sequence:
#
# PCOD8158425 Si02
#       6
#     8   8   4   8   8   8
#     4   8  17  36  62  83 126 175 211 248 320 390
#     4  10  19  36  63  94 130 172 214 261 317 387
#     4  12  24  38  66  96 134 164 220 274 332 384
#     4  10  21  39  62  99 132 166 217 273 325 382
#     4  10  23  43  62  94 125 177 218 268 332 388
#     4  10  23  41  69  94 128 176 224 258 324 403
#
# _framework density 20.848915999999999
#
# number of rings (size 3 to 8) (size 9 to 14) (size 15 to 20)
#    0.000    2.182    0.909    2.182    6.364    0.000 
#    0.000    0.909    0.000    0.000    0.000    0.000 
#    0.000    0.000    0.000    0.000    0.000    0.000 
#
# Total GULP energy -272539.671917 kJ/mol
# GULP energy per Si atom -12388.166905 kJ/mol
# Density = 2.080146 g / cm^3
# Si number density = 20.848916 Si / 1000 Ang^3
#
#
#
# Elastic Constant Matrix: (Units=GPa)
#
#
# Indices 1 2 3 4 5 6 
#
# 1 105.2076 42.8138 36.3068 0.0000 0.0000 0.0000
# 2 42.8138 123.4115 51.3411 0.0000 0.0000 0.0000
# 3 36.3068 51.3411 83.7113 0.0000 0.0000 0.0000
# 4 0.0000 0.0000 0.0000 30.6025 0.0000 0.0000
# 5 0.0000 0.0000 0.0000 0.0000 34.3459 0.0000
# 6 0.0000 0.0000 0.0000 0.0000 0.0000 29.8892
#
#
#
# Elastic Compliance Matrix: (Units=1/GPa)
#
#
# Indices 1 2 3 4 5 6 
#
# 1 0.011783 -0.002634 -0.003495 0.000000 0.000000 0.000000
# 2 -0.002634 0.011467 -0.005891 0.000000 0.000000 0.000000
# 3 -0.003495 -0.005891 0.017075 0.000000 0.000000 0.000000
# 4 0.000000 0.000000 0.000000 0.032677 0.000000 0.000000
# 5 0.000000 0.000000 0.000000 0.000000 0.029116 0.000000
# 6 0.000000 0.000000 0.000000 0.000000 0.000000 0.033457
#
#
# Mechanical properties :
#
#
# Convention : Reuss Voigt Hill
#
# Bulk Modulus (GPa) = 61.40386 63.69487 62.54936
# Shear Modulus (GPa) = 30.29532 31.09212 30.69372
#
# Velocity S-wave (km/s) = 3.81608 3.86593 3.84109
# Velocity P-wave (km/s) = 6.99517 7.10945 7.05254
#
# Compressibility (1/GPa) = 0.01628562
#
# Stress axis : x y z
#
# Youngs Moduli (GPa) = 84.86836 87.20458 58.56661
#
# Poissons Ratio (x) = 0.22967 0.20470
# Poissons Ratio (y) = 0.22352 0.34500
# Poissons Ratio (z) = 0.29663 0.51370
#
# Static dielectric constant tensor:
#      x y z
#    x 3.667320 0.000000 0.000000 
#    y 0.000000 3.809980 0.000000 
#    z 0.000000 0.000000 4.034520 
# 
# 
# High freq. dielectric constant tensor:
#      x y z
#    x 1.813230 0.000000 0.000000 
#    y 0.000000 1.814310 0.000000 
#    z 0.000000 0.000000 1.799800 
# 
# From -- ./inp_files/20603.got.cif
#   From: 2010.03.12/outbox.cif.g09.slc.cpg/sg20_11_cif.got.tgz:20603.got - 2010.04.14 01:38:04.
