data_PCOD8158702
_publ_section_title
;
Structure prediction by ZEFSAII (Michael W. Deem and Ramdas Pophale) SiO2 
 PCOD8158702
Probable space group: C 2 2 21
;
_chemical_formula_sum "Si O2"
_cell_formula_units_Z 48
_cell_length_a 15.646656
_cell_length_b 9.024922
_cell_length_c 16.190880
_cell_angle_alpha 90.000000
_cell_angle_beta 90.000000
_cell_angle_gamma 90.000000
_cell_volume 2286.311736
_symmetry_space_group_name_H-M "C 2 2 21"
_symmetry_group_IT_number 20
_symmetry_cell_setting 'orthorhombic'
loop_
_space_group_symop_operation_xyz
x,y,z
-x,-y,1/2+z
x,-y,-z
-x,y,1/2-z
1/2+x,1/2+y,z
1/2-x,1/2-y,1/2+z
1/2+x,1/2-y,-z
1/2-x,1/2+y,1/2-z
loop_
_atom_site_type_symbol
_atom_site_label
_atom_site_fract_x
_atom_site_fract_y
_atom_site_fract_z
Si Si1 0.876771 0.506757 0.593738
Si Si2 0.463761 0.836890 0.157967
Si Si3 0.128386 0.933986 0.590829
Si Si4 0.809320 0.489886 0.907168
Si Si5 0.723022 0.682538 0.668607
Si Si6 0.714095 0.745863 0.857385
O O1 0.846834 0.500000 0.500000
O O2 0.970512 0.574830 0.600274
O O3 0.812409 0.607625 0.646050
O O4 0.874295 0.335348 0.627251
O O5 0.500000 0.826162 0.250000
O O6 0.449296 0.670824 0.121896
O O7 0.376583 0.933045 0.155797
O O8 0.214461 0.837498 0.591547
O O9 0.109389 0.000000 0.500000
O O10 0.143717 0.069252 0.655408
O O11 0.793755 0.319836 0.890604
O O12 0.718981 0.579252 0.894613
O O13 0.844197 0.500000 0.000000
O O14 0.731025 0.742913 0.760390
#
# Coordination Sequence:
#
# PCOD8158702 Si02
#       6
#     8   8   8   8   8   8
#     4  11  22  39  60  87 121 156 198 255 301 342
#     4  11  23  41  60  85 120 161 201 247 299 354
#     4  10  21  40  61  84 119 166 202 237 296 370
#     4  11  21  37  61  89 117 156 200 240 297 370
#     4  11  20  37  62  89 118 154 198 248 298 356
#     4  10  20  36  61  90 116 153 198 247 302 360
#
# _framework density 20.994510999999999
#
# number of rings (size 3 to 8) (size 9 to 14) (size 15 to 20)
#    0.000    1.333    0.000   10.500    0.000    0.000 
#    0.000    8.333    0.000    0.000    0.000    0.000 
#    0.000    0.000    0.000    0.000    0.000    0.000 
#
# Total GULP energy -297497.755033 kJ/mol
# GULP energy per Si atom -12395.739793 kJ/mol
# Density = 2.094673 g / cm^3
# Si number density = 20.994511 Si / 1000 Ang^3
#
#
#
# Elastic Constant Matrix: (Units=GPa)
#
#
# Indices 1 2 3 4 5 6 
#
# 1 66.4639 47.8843 15.9395 0.0000 0.0000 0.0000
# 2 47.8843 130.7971 8.6955 0.0000 0.0000 0.0000
# 3 15.9395 8.6955 93.8159 0.0000 0.0000 0.0000
# 4 0.0000 0.0000 0.0000 43.6209 0.0000 0.0000
# 5 0.0000 0.0000 0.0000 0.0000 4.9398 0.0000
# 6 0.0000 0.0000 0.0000 0.0000 0.0000 44.1522
#
#
#
# Elastic Compliance Matrix: (Units=1/GPa)
#
#
# Indices 1 2 3 4 5 6 
#
# 1 0.021192 -0.007565 -0.002899 0.000000 0.000000 0.000000
# 2 -0.007565 0.010394 0.000322 0.000000 0.000000 0.000000
# 3 -0.002899 0.000322 0.011122 0.000000 0.000000 0.000000
# 4 0.000000 0.000000 0.000000 0.022925 0.000000 0.000000
# 5 0.000000 0.000000 0.000000 0.000000 0.202437 0.000000
# 6 0.000000 0.000000 0.000000 0.000000 0.000000 0.022649
#
#
# Mechanical properties :
#
#
# Convention : Reuss Voigt Hill
#
# Bulk Modulus (GPa) = 44.59930 48.45726 46.52828
# Shear Modulus (GPa) = 15.69972 33.11309 24.40641
#
# Velocity S-wave (km/s) = 2.73756 3.97574 3.41326
# Velocity P-wave (km/s) = 5.59301 6.64879 6.14362
#
# Compressibility (1/GPa) = 0.02242188
#
# Stress axis : x y z
#
# Youngs Moduli (GPa) = 47.18842 96.21215 89.91251
#
# Poissons Ratio (x) = 0.72789 0.26068
# Poissons Ratio (y) = 0.35700 -0.02895
# Poissons Ratio (z) = 0.13681 -0.03098
#
# Static dielectric constant tensor:
#      x y z
#    x 3.641150 0.000000 0.000000 
#    y 0.000000 4.335610 0.000000 
#    z 0.000000 0.000000 3.768190 
# 
# 
# High freq. dielectric constant tensor:
#      x y z
#    x 1.783240 0.000000 0.000000 
#    y 0.000000 1.841280 0.000000 
#    z 0.000000 0.000000 1.835850 
# 
# From -- ./inp_files/18864.got.cif
#   From: 2010.03.12/outbox.cif.g09.slc.cpg/sg20_10_cif.got.tgz:18864.got - 2010.04.14 01:38:04.
