data_PCOD8158243
_publ_section_title
;
Structure prediction by ZEFSAII (Michael W. Deem and Ramdas Pophale) SiO2 
 PCOD8158243
Probable space group: C 2 2 21
;
_chemical_formula_sum "Si O2"
_cell_formula_units_Z 60
_cell_length_a 28.186564
_cell_length_b 25.792585
_cell_length_c 5.375428
_cell_angle_alpha 90.000000
_cell_angle_beta 90.000000
_cell_angle_gamma 90.000000
_cell_volume 3907.959527
_symmetry_space_group_name_H-M "C 2 2 21"
_symmetry_group_IT_number 20
_symmetry_cell_setting 'orthorhombic'
loop_
_space_group_symop_operation_xyz
x,y,z
-x,-y,1/2+z
x,-y,-z
-x,y,1/2-z
1/2+x,1/2+y,z
1/2-x,1/2-y,1/2+z
1/2+x,1/2-y,-z
1/2-x,1/2+y,1/2-z
loop_
_atom_site_type_symbol
_atom_site_label
_atom_site_fract_x
_atom_site_fract_y
_atom_site_fract_z
Si Si1 0.090074 0.942183 0.523614
Si Si2 0.062367 0.134352 0.857376
Si Si3 0.292484 0.201012 0.695014
Si Si4 0.608066 0.242498 0.734806
Si Si5 0.856087 0.146124 0.268327
Si Si6 0.000000 0.092888 0.250000
Si Si7 0.745277 0.682739 0.192532
Si Si8 0.553698 0.746459 0.744417
O O1 0.064236 0.920689 0.280119
O O2 0.132015 0.902079 0.587750
O O3 0.046696 0.942853 0.720044
O O4 0.111150 0.000000 0.500000
O O5 0.055592 0.184817 0.685108
O O6 0.113696 0.139412 0.983863
O O7 0.015101 0.132083 0.029067
O O8 0.349479 0.202603 0.707957
O O9 0.270988 0.258134 0.688957
O O10 0.276130 0.171639 0.441992
O O11 0.274844 0.170824 0.941738
O O12 0.629676 0.298267 0.654970
O O13 0.579513 0.224442 0.487067
O O14 0.576225 0.243515 0.983287
O O15 0.799921 0.144479 0.316443
O O16 0.500000 0.767162 0.750000
#
# Coordination Sequence:
#
# PCOD8158243 Si02
#       8
#     8   8   8   8   8   4   8   8
#     4  11  22  33  46  58  78 104 140 183 229 269
#     4  10  21  33  46  58  80 103 142 182 221 270
#     4   9  17  28  45  65  84 103 126 162 207 259
#     4  10  19  31  44  64  86 108 137 174 209 254
#     4   9  20  31  44  62  79 103 131 170 224 268
#     4  10  22  32  44  60  72 104 140 188 226 272
#     4   9  17  28  46  65  83 102 127 157 212 272
#     4  11  20  29  46  61  86 114 145 171 210 253
#
# _framework density 15.35328
#
# number of rings (size 3 to 8) (size 9 to 14) (size 15 to 20)
#    0.000    2.133    1.333    2.400    7.467    4.800 
#    0.000    0.000    0.000    0.000    0.000    0.000 
#    0.000    0.000    0.000    0.000    0.000    0.000 
#
# Total GULP energy -371713.856616 kJ/mol
# GULP energy per Si atom -12390.461887 kJ/mol
# Density = 1.531834 g / cm^3
# Si number density = 15.353280 Si / 1000 Ang^3
#
#
#
# Elastic Constant Matrix: (Units=GPa)
#
#
# Indices 1 2 3 4 5 6 
#
# 1 108.1653 29.2308 38.5192 0.0000 0.0000 0.0000
# 2 29.2308 25.0655 9.6771 0.0000 0.0000 0.0000
# 3 38.5192 9.6771 91.5487 0.0000 0.0000 0.0000
# 4 0.0000 0.0000 0.0000 10.4085 0.0000 0.0000
# 5 0.0000 0.0000 0.0000 0.0000 24.8629 0.0000
# 6 0.0000 0.0000 0.0000 0.0000 0.0000 16.5313
#
#
#
# Elastic Compliance Matrix: (Units=1/GPa)
#
#
# Indices 1 2 3 4 5 6 
#
# 1 0.015237 -0.015944 -0.004725 0.000000 0.000000 0.000000
# 2 -0.015944 0.058278 0.000548 0.000000 0.000000 0.000000
# 3 -0.004725 0.000548 0.012853 0.000000 0.000000 0.000000
# 4 0.000000 0.000000 0.000000 0.096075 0.000000 0.000000
# 5 0.000000 0.000000 0.000000 0.000000 0.040221 0.000000
# 6 0.000000 0.000000 0.000000 0.000000 0.000000 0.060491
#
#
# Mechanical properties :
#
#
# Convention : Reuss Voigt Hill
#
# Bulk Modulus (GPa) = 21.68020 42.18153 31.93086
# Shear Modulus (GPa) = 14.75914 20.18404 17.47159
#
# Velocity S-wave (km/s) = 3.10385 3.62973 3.37704
# Velocity P-wave (km/s) = 5.19584 6.71567 6.00404
#
# Compressibility (1/GPa) = 0.04612504
#
# Stress axis : x y z
#
# Youngs Moduli (GPa) = 65.63064 17.15916 77.80023
#
# Poissons Ratio (x) = 0.27359 0.36764
# Poissons Ratio (y) = 1.04644 -0.04266
# Poissons Ratio (z) = 0.31014 -0.00941
#
# Static dielectric constant tensor:
#      x y z
#    x 3.022830 0.000000 0.000000 
#    y 0.000000 2.383280 0.000000 
#    z 0.000000 0.000000 3.150720 
# 
# 
# High freq. dielectric constant tensor:
#      x y z
#    x 1.587930 0.000000 0.000000 
#    y 0.000000 1.501710 0.000000 
#    z 0.000000 0.000000 1.608630 
# 
# From -- ./inp_files/3938.got.cif
#   From: 2010.03.12/outbox.cif.g09.slc.cpg/sg20_2_cif.got.tgz:3938.got - 2010.04.14 01:38:04.
