data_PCOD8158951
_publ_section_title
;
Structure prediction by ZEFSAII (Michael W. Deem and Ramdas Pophale) SiO2 
 PCOD8158951
Probable space group: C 2 2 21
;
_chemical_formula_sum "Si O2"
_cell_formula_units_Z 56
_cell_length_a 16.540843
_cell_length_b 7.682660
_cell_length_c 21.925532
_cell_angle_alpha 90.000000
_cell_angle_beta 90.000000
_cell_angle_gamma 90.000000
_cell_volume 2786.245583
_symmetry_space_group_name_H-M "C 2 2 21"
_symmetry_group_IT_number 20
_symmetry_cell_setting 'orthorhombic'
loop_
_space_group_symop_operation_xyz
x,y,z
-x,-y,1/2+z
x,-y,-z
-x,y,1/2-z
1/2+x,1/2+y,z
1/2-x,1/2-y,1/2+z
1/2+x,1/2-y,-z
1/2-x,1/2+y,1/2-z
loop_
_atom_site_type_symbol
_atom_site_label
_atom_site_fract_x
_atom_site_fract_y
_atom_site_fract_z
Si Si1 0.241031 0.924714 0.412238
Si Si2 0.561740 0.230057 0.304489
Si Si3 0.684028 0.039807 0.434569
Si Si4 0.381048 0.000000 0.500000
Si Si5 0.388268 0.500000 0.000000
Si Si6 0.688165 0.918875 0.309943
Si Si7 0.477563 0.191226 0.060800
Si Si8 0.188685 0.972106 0.712075
O O1 0.203871 0.732222 0.410661
O O2 0.326021 0.915751 0.447248
O O3 0.173670 0.048742 0.444680
O O4 0.252020 0.993348 0.343393
O O5 0.500000 0.209979 0.250000
O O6 0.513778 0.249387 0.368535
O O7 0.610896 0.407725 0.295400
O O8 0.616923 0.058120 0.302251
O O9 0.586154 0.030651 0.441606
O O10 0.725873 0.000000 0.500000
O O11 0.712456 0.906302 0.382063
O O12 0.435470 0.857519 0.533936
O O13 0.444994 0.659552 0.983853
O O14 0.660778 0.729205 0.286713
O O15 0.767289 0.984032 0.274895
#
# Coordination Sequence:
#
# PCOD8158951 Si02
#       8
#     8   8   8   4   4   8   8   8
#     4  10  22  39  64  93 130 168 226 263 324 396
#     4  11  25  46  65  98 134 171 221 278 335 402
#     4  10  20  40  66  92 127 174 220 262 329 409
#     4  11  24  36  60  99 124 174 206 279 320 382
#     4   9  18  38  64  83 120 172 202 253 330 392
#     4  11  24  40  72  97 128 178 221 279 329 396
#     4  10  21  40  60  92 132 160 211 268 333 387
#     4  12  22  44  70  98 131 175 227 274 336 395
#
# _framework density 20.098731000000001
#
# number of rings (size 3 to 8) (size 9 to 14) (size 15 to 20)
#    0.000    1.429    6.429    0.000    8.000    0.571 
#    1.286    1.429    0.000    0.000    0.000    0.000 
#    0.000    0.000    0.000    0.000    0.000    0.000 
#
# Total GULP energy -347094.520678 kJ/mol
# GULP energy per Si atom -12396.232881 kJ/mol
# Density = 2.005299 g / cm^3
# Si number density = 20.098731 Si / 1000 Ang^3
#
#
#
# Elastic Constant Matrix: (Units=GPa)
#
#
# Indices 1 2 3 4 5 6 
#
# 1 97.7800 31.7141 45.0937 0.0000 0.0000 0.0000
# 2 31.7141 109.8197 37.0625 0.0000 0.0000 0.0000
# 3 45.0937 37.0625 139.8797 0.0000 0.0000 0.0000
# 4 0.0000 0.0000 0.0000 30.9185 0.0000 0.0000
# 5 0.0000 0.0000 0.0000 0.0000 30.1347 0.0000
# 6 0.0000 0.0000 0.0000 0.0000 0.0000 15.6249
#
#
#
# Elastic Compliance Matrix: (Units=1/GPa)
#
#
# Indices 1 2 3 4 5 6 
#
# 1 0.012605 -0.002491 -0.003403 0.000000 0.000000 0.000000
# 2 -0.002491 0.010492 -0.001977 0.000000 0.000000 0.000000
# 3 -0.003403 -0.001977 0.008770 0.000000 0.000000 0.000000
# 4 0.000000 0.000000 0.000000 0.032343 0.000000 0.000000
# 5 0.000000 0.000000 0.000000 0.000000 0.033184 0.000000
# 6 0.000000 0.000000 0.000000 0.000000 0.000000 0.064001
#
#
# Mechanical properties :
#
#
# Convention : Reuss Voigt Hill
#
# Bulk Modulus (GPa) = 62.02018 63.91332 62.96675
# Shear Modulus (GPa) = 27.39532 30.90956 29.15244
#
# Velocity S-wave (km/s) = 3.69594 3.92584 3.81262
# Velocity P-wave (km/s) = 7.00985 7.24005 7.12588
#
# Compressibility (1/GPa) = 0.01612378
#
# Stress axis : x y z
#
# Youngs Moduli (GPa) = 79.33596 95.30622 114.02597
#
# Poissons Ratio (x) = 0.23745 0.38806
# Poissons Ratio (y) = 0.19766 0.22542
# Poissons Ratio (z) = 0.27000 0.18841
#
# Static dielectric constant tensor:
#      x y z
#    x 3.467420 0.000000 0.000000 
#    y 0.000000 3.577740 0.000000 
#    z 0.000000 0.000000 4.136710 
# 
# 
# High freq. dielectric constant tensor:
#      x y z
#    x 1.755360 0.000000 0.000000 
#    y 0.000000 1.780340 0.000000 
#    z 0.000000 0.000000 1.809840 
# 
# From -- ./inp_files/27594.got.cif
#   From: 2010.03.12/outbox.cif.g09.slc.cpg/sg20_14_cif.got.tgz:27594.got - 2010.04.14 01:38:04.
