data_PCOD8158969
_publ_section_title
;
Structure prediction by ZEFSAII (Michael W. Deem and Ramdas Pophale) SiO2 
 PCOD8158969
Probable space group: C 2 2 21
;
_chemical_formula_sum "Si O2"
_cell_formula_units_Z 60
_cell_length_a 16.224392
_cell_length_b 9.055870
_cell_length_c 18.313410
_cell_angle_alpha 90.000000
_cell_angle_beta 90.000000
_cell_angle_gamma 90.000000
_cell_volume 2690.715799
_symmetry_space_group_name_H-M "C 2 2 21"
_symmetry_group_IT_number 20
_symmetry_cell_setting 'orthorhombic'
loop_
_space_group_symop_operation_xyz
x,y,z
-x,-y,1/2+z
x,-y,-z
-x,y,1/2-z
1/2+x,1/2+y,z
1/2-x,1/2-y,1/2+z
1/2+x,1/2-y,-z
1/2-x,1/2+y,1/2-z
loop_
_atom_site_type_symbol
_atom_site_label
_atom_site_fract_x
_atom_site_fract_y
_atom_site_fract_z
Si Si1 0.935227 0.767780 0.092734
Si Si2 0.812828 0.605504 0.693622
Si Si3 0.024709 0.000000 0.000000
Si Si4 0.469495 0.957219 0.674582
Si Si5 0.124741 0.992969 0.299035
Si Si6 0.399553 0.190257 0.838965
Si Si7 0.197820 0.471617 0.577917
Si Si8 0.362644 0.589039 0.361554
O O1 0.928966 0.862335 0.167262
O O2 0.847695 0.687655 0.079698
O O3 0.003958 0.642768 0.106638
O O4 0.965360 0.864473 0.023783
O O5 0.870714 0.466861 0.672055
O O6 0.720122 0.548429 0.688782
O O7 0.834729 0.655074 0.774988
O O8 0.838830 0.737776 0.639199
O O9 0.079031 0.051294 0.069761
O O10 0.500000 0.881680 0.750000
O O11 0.509071 0.123888 0.674263
O O12 0.098831 0.134097 0.348913
O O13 0.099675 0.026822 0.214785
O O14 0.366288 0.104731 0.909646
O O15 0.238245 0.500000 0.500000
O O16 0.273090 0.486514 0.633769
#
# Coordination Sequence:
#
# PCOD8158969 Si02
#       8
#     8   8   4   8   8   8   8   8
#     4  11  27  45  68 101 136 182 236 288 332 422
#     4  10  20  40  69 101 133 167 229 286 337 407
#     4  12  30  46  64  98 146 186 234 278 350 420
#     4   9  21  40  65  98 136 171 220 279 346 402
#     4  11  23  41  75 102 132 172 236 297 333 400
#     4   9  21  38  64  99 135 175 217 276 346 404
#     4  11  22  43  70  96 139 186 222 278 356 418
#     4  11  24  44  68 101 141 180 228 288 353 407
#
# _framework density 22.298901000000001
#
# number of rings (size 3 to 8) (size 9 to 14) (size 15 to 20)
#    0.000    1.600    3.333    0.000    5.600    2.133 
#    0.000    0.000    0.000    0.000    0.000    0.000 
#    0.000    0.000    0.000    0.000    0.000    0.000 
#
# Total GULP energy -371778.250639 kJ/mol
# GULP energy per Si atom -12392.608355 kJ/mol
# Density = 2.224815 g / cm^3
# Si number density = 22.298901 Si / 1000 Ang^3
#
#
#
# Elastic Constant Matrix: (Units=GPa)
#
#
# Indices 1 2 3 4 5 6 
#
# 1 67.0236 19.4403 18.1272 0.0000 0.0000 0.0000
# 2 19.4403 106.9050 35.2505 0.0000 0.0000 0.0000
# 3 18.1272 35.2505 83.3182 0.0000 0.0000 0.0000
# 4 0.0000 0.0000 0.0000 33.9845 0.0000 0.0000
# 5 0.0000 0.0000 0.0000 0.0000 29.1687 0.0000
# 6 0.0000 0.0000 0.0000 0.0000 0.0000 25.9055
#
#
#
# Elastic Compliance Matrix: (Units=1/GPa)
#
#
# Indices 1 2 3 4 5 6 
#
# 1 0.016241 -0.002078 -0.002654 0.000000 0.000000 0.000000
# 2 -0.002078 0.011137 -0.004260 0.000000 0.000000 0.000000
# 3 -0.002654 -0.004260 0.014382 0.000000 0.000000 0.000000
# 4 0.000000 0.000000 0.000000 0.029425 0.000000 0.000000
# 5 0.000000 0.000000 0.000000 0.000000 0.034283 0.000000
# 6 0.000000 0.000000 0.000000 0.000000 0.000000 0.038602
#
#
# Mechanical properties :
#
#
# Convention : Reuss Voigt Hill
#
# Bulk Modulus (GPa) = 42.06049 44.76476 43.41262
# Shear Modulus (GPa) = 29.41553 30.10700 29.76127
#
# Velocity S-wave (km/s) = 3.63595 3.67843 3.65725
# Velocity P-wave (km/s) = 6.04400 6.17735 6.11104
#
# Compressibility (1/GPa) = 0.02377528
#
# Stress axis : x y z
#
# Youngs Moduli (GPa) = 61.57359 89.79459 69.53232
#
# Poissons Ratio (x) = 0.18660 0.18455
# Poissons Ratio (y) = 0.12796 0.29618
# Poissons Ratio (z) = 0.16343 0.38248
#
# Static dielectric constant tensor:
#      x y z
#    x 3.901240 0.000000 0.000000 
#    y 0.000000 4.090580 0.000000 
#    z 0.000000 0.000000 3.874670 
# 
# 
# High freq. dielectric constant tensor:
#      x y z
#    x 1.882560 0.000000 0.000000 
#    y 0.000000 1.877140 0.000000 
#    z 0.000000 0.000000 1.864170 
# 
# From -- ./inp_files/25276.got.cif
#   From: 2010.03.12/outbox.cif.g09.slc.cpg/sg20_13_cif.got.tgz:25276.got - 2010.04.14 01:38:04.
