data_PCOD8158544
_publ_section_title
;
Structure prediction by ZEFSAII (Michael W. Deem and Ramdas Pophale) SiO2 
 PCOD8158544
Probable space group: C 2 2 21
;
_chemical_formula_sum "Si O2"
_cell_formula_units_Z 40
_cell_length_a 10.815636
_cell_length_b 14.196702
_cell_length_c 12.077045
_cell_angle_alpha 90.000000
_cell_angle_beta 90.000000
_cell_angle_gamma 90.000000
_cell_volume 1854.386314
_symmetry_space_group_name_H-M "C 2 2 21"
_symmetry_group_IT_number 20
_symmetry_cell_setting 'orthorhombic'
loop_
_space_group_symop_operation_xyz
x,y,z
-x,-y,1/2+z
x,-y,-z
-x,y,1/2-z
1/2+x,1/2+y,z
1/2-x,1/2-y,1/2+z
1/2+x,1/2-y,-z
1/2-x,1/2+y,1/2-z
loop_
_atom_site_type_symbol
_atom_site_label
_atom_site_fract_x
_atom_site_fract_y
_atom_site_fract_z
Si Si1 0.166015 0.438368 0.277176
Si Si2 0.192845 0.420222 0.910964
Si Si3 0.451461 0.159504 0.596976
Si Si4 0.063234 0.939146 0.144947
Si Si5 0.464115 0.634032 0.079300
O O1 0.155387 0.538822 0.210388
O O2 0.164800 0.359402 0.179356
O O3 0.289132 0.431533 0.350173
O O4 0.054298 0.418317 0.363682
O O5 0.317575 0.360190 0.900831
O O6 0.225631 0.500000 0.000000
O O7 0.083383 0.357536 0.967463
O O8 0.489391 0.265563 0.620676
O O9 0.000000 0.890767 0.250000
O O10 0.026080 0.049185 0.146473
O O11 0.005848 0.880316 0.046154
#
# Coordination Sequence:
#
# PCOD8158544 Si02
#       5
#     8   8   8   8   8
#     4  10  22  41  66  93 136 178 215 268 339 415
#     4  10  19  44  68  88 138 180 209 274 343 393
#     4  10  24  41  66 103 133 174 225 283 333 390
#     4  11  21  42  70  98 127 175 226 265 342 403
#     4  11  23  41  71 101 129 176 226 287 322 402
#
# _framework density 21.570478000000001
#
# number of rings (size 3 to 8) (size 9 to 14) (size 15 to 20)
#    0.000    1.600    4.000    1.200    5.600    0.000 
#   18.000    0.000   13.200    0.000    0.000    0.000 
#    0.000    0.000    0.000    0.000    0.000    0.000 
#
# Total GULP energy -247766.475340 kJ/mol
# GULP energy per Si atom -12388.323767 kJ/mol
# Density = 2.152138 g / cm^3
# Si number density = 21.570478 Si / 1000 Ang^3
#
#
#
# Elastic Constant Matrix: (Units=GPa)
#
#
# Indices 1 2 3 4 5 6 
#
# 1 124.4678 34.6000 47.3685 0.0000 0.0000 0.0000
# 2 34.6000 75.2892 26.4765 0.0000 0.0000 0.0000
# 3 47.3685 26.4765 91.1790 0.0000 0.0000 0.0000
# 4 0.0000 0.0000 0.0000 -48.8220 0.0000 0.0000
# 5 0.0000 0.0000 0.0000 0.0000 40.3730 0.0000
# 6 0.0000 0.0000 0.0000 0.0000 0.0000 25.9938
#
#
#
# Elastic Compliance Matrix: (Units=1/GPa)
#
#
# Indices 1 2 3 4 5 6 
#
# 1 0.010703 -0.003300 -0.004602 0.000000 0.000000 0.000000
# 2 -0.003300 0.015810 -0.002876 0.000000 0.000000 0.000000
# 3 -0.004602 -0.002876 0.014193 0.000000 0.000000 0.000000
# 4 0.000000 0.000000 0.000000 -0.020483 0.000000 0.000000
# 5 0.000000 0.000000 0.000000 0.000000 0.024769 0.000000
# 6 0.000000 0.000000 0.000000 0.000000 0.000000 0.038471
#
#
# Mechanical properties :
#
#
# Convention : Reuss Voigt Hill
#
# Bulk Modulus (GPa) = 52.22116 56.42510 54.32313
# Shear Modulus (GPa) = 44.88144 15.67503 30.27823
#
# Velocity S-wave (km/s) = 4.56640 2.69864 3.75065
# Velocity P-wave (km/s) = 7.21560 5.99379 6.63289
#
# Compressibility (1/GPa) = 0.01914933
#
# Stress axis : x y z
#
# Youngs Moduli (GPa) = 93.43164 63.24964 70.45494
#
# Poissons Ratio (x) = 0.20874 0.32423
# Poissons Ratio (y) = 0.30836 0.20266
# Poissons Ratio (z) = 0.42997 0.18193
#
# Static dielectric constant tensor:
#      x y z
#    x 3.974310 0.000000 0.000000 
#    y 0.000000 3.710380 0.000000 
#    z 0.000000 0.000000 4.137860 
# 
# 
# High freq. dielectric constant tensor:
#      x y z
#    x 1.846460 0.000000 0.000000 
#    y 0.000000 1.820440 0.000000 
#    z 0.000000 0.000000 1.855010 
# 
# From -- ./inp_files/13892.got.cif
#   From: 2010.03.12/outbox.cif.g09.slc.cpg/sg20_7_cif.got.tgz:13892.got - 2010.04.14 01:38:04.
