data_PCOD8158734
_publ_section_title
;
Structure prediction by ZEFSAII (Michael W. Deem and Ramdas Pophale) SiO2 
 PCOD8158734
Probable space group: C 2 2 21
;
_chemical_formula_sum "Si O2"
_cell_formula_units_Z 36
_cell_length_a 10.587885
_cell_length_b 9.102370
_cell_length_c 20.274615
_cell_angle_alpha 90.000000
_cell_angle_beta 90.000000
_cell_angle_gamma 90.000000
_cell_volume 1953.962914
_symmetry_space_group_name_H-M "C 2 2 21"
_symmetry_group_IT_number 20
_symmetry_cell_setting 'orthorhombic'
loop_
_space_group_symop_operation_xyz
x,y,z
-x,-y,1/2+z
x,-y,-z
-x,y,1/2-z
1/2+x,1/2+y,z
1/2-x,1/2-y,1/2+z
1/2+x,1/2-y,-z
1/2-x,1/2+y,1/2-z
loop_
_atom_site_type_symbol
_atom_site_label
_atom_site_fract_x
_atom_site_fract_y
_atom_site_fract_z
Si Si1 0.534521 0.319361 0.609596
Si Si2 0.131939 0.031155 0.716632
Si Si3 0.768438 0.175625 0.325879
Si Si4 0.075319 0.000000 0.000000
Si Si5 0.684092 0.960181 0.430002
O O1 0.612060 0.440386 0.649792
O O2 0.404679 0.278493 0.645771
O O3 0.511788 0.379857 0.535717
O O4 0.617951 0.173990 0.605908
O O5 0.218183 0.937781 0.765982
O O6 0.000000 0.072755 0.750000
O O7 0.202546 0.179697 0.699872
O O8 0.681268 0.101286 0.382009
O O9 0.167405 0.921865 0.054553
O O10 0.616129 0.000000 0.500000
#
# Coordination Sequence:
#
# PCOD8158734 Si02
#       5
#     8   8   8   4   8
#     4  10  20  37  56  80 113 148 184 233 278 332
#     4  10  22  37  61  82 113 149 185 233 285 330
#     4  10  21  39  55  87 111 147 190 233 280 336
#     4   8  20  34  54  76 116 144 186 228 278 330
#     4   9  20  38  54  80 118 145 185 238 275 329
#
# _framework density 18.424097
#
# number of rings (size 3 to 8) (size 9 to 14) (size 15 to 20)
#    0.667    1.778    0.000    1.333    3.111    1.778 
#    4.000    0.000    0.000    0.000    0.000    0.000 
#    0.000    0.000    0.000    0.000    0.000    0.000 
#
# Total GULP energy -223158.930079 kJ/mol
# GULP energy per Si atom -12397.718338 kJ/mol
# Density = 1.838216 g / cm^3
# Si number density = 18.424097 Si / 1000 Ang^3
#
#
#
# Elastic Constant Matrix: (Units=GPa)
#
#
# Indices 1 2 3 4 5 6 
#
# 1 68.2487 75.5488 43.1855 0.0000 0.0000 0.0000
# 2 75.5488 152.2136 76.0150 0.0000 0.0000 0.0000
# 3 43.1855 76.0150 104.5281 0.0000 0.0000 0.0000
# 4 0.0000 0.0000 0.0000 28.1697 0.0000 0.0000
# 5 0.0000 0.0000 0.0000 0.0000 16.1763 0.0000
# 6 0.0000 0.0000 0.0000 0.0000 0.0000 37.3640
#
#
#
# Elastic Compliance Matrix: (Units=1/GPa)
#
#
# Indices 1 2 3 4 5 6 
#
# 1 0.032999 -0.015028 -0.002705 0.000000 0.000000 0.000000
# 2 -0.015028 0.017160 -0.006270 0.000000 0.000000 0.000000
# 3 -0.002705 -0.006270 0.015244 0.000000 0.000000 0.000000
# 4 0.000000 0.000000 0.000000 0.035499 0.000000 0.000000
# 5 0.000000 0.000000 0.000000 0.000000 0.061819 0.000000
# 6 0.000000 0.000000 0.000000 0.000000 0.000000 0.026764
#
#
# Mechanical properties :
#
#
# Convention : Reuss Voigt Hill
#
# Bulk Modulus (GPa) = 57.48095 79.38768 68.43432
# Shear Modulus (GPa) = 20.55163 25.02474 22.78819
#
# Velocity S-wave (km/s) = 3.34350 3.68946 3.52073
# Velocity P-wave (km/s) = 6.79498 7.83148 7.33157
#
# Compressibility (1/GPa) = 0.01739707
#
# Stress axis : x y z
#
# Youngs Moduli (GPa) = 30.30397 58.27566 65.59823
#
# Poissons Ratio (x) = 0.87574 0.17745
# Poissons Ratio (y) = 0.45540 0.41132
# Poissons Ratio (z) = 0.08197 0.36541
#
# Static dielectric constant tensor:
#      x y z
#    x 3.244890 0.000000 0.000000 
#    y 0.000000 3.089080 0.000000 
#    z 0.000000 0.000000 3.602910 
# 
# 
# High freq. dielectric constant tensor:
#      x y z
#    x 1.699230 0.000000 0.000000 
#    y 0.000000 1.703390 0.000000 
#    z 0.000000 0.000000 1.732380 
# 
# From -- ./inp_files/26387.got.cif
#   From: 2010.03.12/outbox.cif.g09.slc.cpg/sg20_14_cif.got.tgz:26387.got - 2010.04.14 01:38:04.
