data_PCOD8158779
_publ_section_title
;
Structure prediction by ZEFSAII (Michael W. Deem and Ramdas Pophale) SiO2 
 PCOD8158779
Probable space group: C 2 2 21
;
_chemical_formula_sum "Si O2"
_cell_formula_units_Z 64
_cell_length_a 17.691192
_cell_length_b 12.396947
_cell_length_c 14.274811
_cell_angle_alpha 90.000000
_cell_angle_beta 90.000000
_cell_angle_gamma 90.000000
_cell_volume 3130.705435
_symmetry_space_group_name_H-M "C 2 2 21"
_symmetry_group_IT_number 20
_symmetry_cell_setting 'orthorhombic'
loop_
_space_group_symop_operation_xyz
x,y,z
-x,-y,1/2+z
x,-y,-z
-x,y,1/2-z
1/2+x,1/2+y,z
1/2-x,1/2-y,1/2+z
1/2+x,1/2-y,-z
1/2-x,1/2+y,1/2-z
loop_
_atom_site_type_symbol
_atom_site_label
_atom_site_fract_x
_atom_site_fract_y
_atom_site_fract_z
Si Si1 0.322855 0.202638 0.615394
Si Si2 0.667936 0.661622 0.823164
Si Si3 0.521443 0.683353 0.143396
Si Si4 0.249390 0.338607 0.930331
Si Si5 0.169298 0.319632 0.661840
Si Si6 0.590550 0.703963 0.510411
Si Si7 0.484582 0.568442 0.641060
Si Si8 0.719699 0.009964 0.769785
O O1 0.396917 0.273508 0.617980
O O2 0.309972 0.144890 0.515135
O O3 0.253820 0.282288 0.636946
O O4 0.330115 0.109613 0.693652
O O5 0.731371 0.720767 0.886435
O O6 0.637646 0.744917 0.745110
O O7 0.595834 0.624140 0.884438
O O8 0.703262 0.555026 0.775652
O O9 0.500000 0.708410 0.250000
O O10 0.518758 0.557666 0.118742
O O11 0.461908 0.742907 0.075015
O O12 0.241582 0.431527 0.854279
O O13 0.334001 0.348821 0.968495
O O14 0.113807 0.308041 0.572828
O O15 0.171150 0.444613 0.692784
O O16 0.550266 0.616918 0.577044
O O17 0.500000 0.588675 0.750000
#
# Coordination Sequence:
#
# PCOD8158779 Si02
#       8
#     8   8   8   8   8   8   8   8
#     4  10  21  41  61  90 131 164 213 266 321 388
#     4  10  20  37  65  92 133 163 207 271 319 383
#     4  11  26  38  65  93 136 169 208 264 332 395
#     4  10  23  39  67  97 124 171 218 268 321 388
#     4   9  20  38  63  95 120 163 217 265 315 375
#     4  11  23  40  62  93 139 163 209 269 325 388
#     4  11  22  37  63 102 128 165 209 264 337 392
#     4  10  21  37  71  91 122 167 226 265 319 377
#
# _framework density 20.442675999999999
#
# number of rings (size 3 to 8) (size 9 to 14) (size 15 to 20)
#    0.000    1.750    1.250    2.250    8.750    3.000 
#    0.000    5.000   11.000    0.000    0.000    0.000 
#    0.000    0.000    0.000    0.000    0.000    0.000 
#
# Total GULP energy -396814.100154 kJ/mol
# GULP energy per Si atom -12400.440630 kJ/mol
# Density = 2.039615 g / cm^3
# Si number density = 20.442676 Si / 1000 Ang^3
#
#
#
# Elastic Constant Matrix: (Units=GPa)
#
#
# Indices 1 2 3 4 5 6 
#
# 1 126.1837 49.6086 62.8980 0.0000 0.0000 0.0000
# 2 49.6086 92.3236 51.2287 0.0000 0.0000 0.0000
# 3 62.8980 51.2287 110.4881 0.0000 0.0000 0.0000
# 4 0.0000 0.0000 0.0000 28.6287 0.0000 0.0000
# 5 0.0000 0.0000 0.0000 0.0000 41.6931 0.0000
# 6 0.0000 0.0000 0.0000 0.0000 0.0000 21.2272
#
#
#
# Elastic Compliance Matrix: (Units=1/GPa)
#
#
# Indices 1 2 3 4 5 6 
#
# 1 0.011865 -0.003538 -0.005114 0.000000 0.000000 0.000000
# 2 -0.003538 0.015638 -0.005237 0.000000 0.000000 0.000000
# 3 -0.005114 -0.005237 0.014390 0.000000 0.000000 0.000000
# 4 0.000000 0.000000 0.000000 0.034930 0.000000 0.000000
# 5 0.000000 0.000000 0.000000 0.000000 0.023985 0.000000
# 6 0.000000 0.000000 0.000000 0.000000 0.000000 0.047109
#
#
# Mechanical properties :
#
#
# Convention : Reuss Voigt Hill
#
# Bulk Modulus (GPa) = 70.84162 72.94068 71.89115
# Shear Modulus (GPa) = 27.71611 29.32713 28.52162
#
# Velocity S-wave (km/s) = 3.68611 3.79172 3.73929
# Velocity P-wave (km/s) = 7.26949 7.41132 7.34075
#
# Compressibility (1/GPa) = 0.01411599
#
# Stress axis : x y z
#
# Youngs Moduli (GPa) = 84.28134 63.94583 69.49166
#
# Poissons Ratio (x) = 0.22622 0.35539
# Poissons Ratio (y) = 0.29816 0.36392
# Poissons Ratio (z) = 0.43103 0.33488
#
# Static dielectric constant tensor:
#      x y z
#    x 3.603580 0.000000 0.000000 
#    y 0.000000 3.591980 0.000000 
#    z 0.000000 0.000000 4.133770 
# 
# 
# High freq. dielectric constant tensor:
#      x y z
#    x 1.787710 0.000000 0.000000 
#    y 0.000000 1.782540 0.000000 
#    z 0.000000 0.000000 1.818800 
# 
# From -- ./inp_files/21488.got.cif
#   From: 2010.03.12/outbox.cif.g09.slc.cpg/sg20_11_cif.got.tgz:21488.got - 2010.04.14 01:38:04.
