data_PCOD8158575
_publ_section_title
;
Structure prediction by ZEFSAII (Michael W. Deem and Ramdas Pophale) SiO2 
 PCOD8158575
Probable space group: C 2 2 21
;
_chemical_formula_sum "Si O2"
_cell_formula_units_Z 48
_cell_length_a 22.568386
_cell_length_b 11.474931
_cell_length_c 9.053642
_cell_angle_alpha 90.000000
_cell_angle_beta 90.000000
_cell_angle_gamma 90.000000
_cell_volume 2344.627754
_symmetry_space_group_name_H-M "C 2 2 21"
_symmetry_group_IT_number 20
_symmetry_cell_setting 'orthorhombic'
loop_
_space_group_symop_operation_xyz
x,y,z
-x,-y,1/2+z
x,-y,-z
-x,y,1/2-z
1/2+x,1/2+y,z
1/2-x,1/2-y,1/2+z
1/2+x,1/2-y,-z
1/2-x,1/2+y,1/2-z
loop_
_atom_site_type_symbol
_atom_site_label
_atom_site_fract_x
_atom_site_fract_y
_atom_site_fract_z
Si Si1 0.564407 0.743038 0.194796
Si Si2 0.659466 0.929787 0.139301
Si Si3 0.248301 0.909123 0.778830
Si Si4 0.394117 0.380137 0.422171
Si Si5 0.777440 0.245468 0.533317
Si Si6 0.876428 0.976295 0.827756
O O1 0.500000 0.779065 0.250000
O O2 0.605018 0.858124 0.208736
O O3 0.592974 0.647777 0.303216
O O4 0.559274 0.688940 0.027555
O O5 0.712380 0.846174 0.087074
O O6 0.691404 0.018265 0.253436
O O7 0.633185 0.000000 0.000000
O O8 0.253331 0.862721 0.947824
O O9 0.239956 0.798020 0.667929
O O10 0.188848 0.983222 0.748216
O O11 0.374322 0.500000 0.500000
O O12 0.340172 0.292434 0.401801
O O13 0.414672 0.420977 0.256884
O O14 0.873147 0.000000 0.000000
#
# Coordination Sequence:
#
# PCOD8158575 Si02
#       6
#     8   8   8   8   8   8
#     4  10  21  41  65  84 119 164 213 258 305 374
#     4   9  19  38  60  87 116 164 205 246 314 370
#     4  11  21  34  57  89 125 162 203 251 311 384
#     4   9  18  36  56  83 117 164 201 246 319 360
#     4  10  20  33  55  83 122 163 197 244 307 373
#     4  11  22  35  58  94 129 157 205 266 316 377
#
# _framework density 20.472332999999999
#
# number of rings (size 3 to 8) (size 9 to 14) (size 15 to 20)
#    0.000    2.000    5.000    1.500    4.667    2.000 
#    0.000    0.000    3.667    0.000    0.000    0.000 
#    0.000    0.000    0.000    0.000    0.000    0.000 
#
# Total GULP energy -297318.077153 kJ/mol
# GULP energy per Si atom -12388.253215 kJ/mol
# Density = 2.042574 g / cm^3
# Si number density = 20.472333 Si / 1000 Ang^3
#
#
#
# Elastic Constant Matrix: (Units=GPa)
#
#
# Indices 1 2 3 4 5 6 
#
# 1 80.8502 27.2991 25.9517 0.0000 0.0000 0.0000
# 2 27.2991 85.0208 30.3700 0.0000 0.0000 0.0000
# 3 25.9517 30.3700 92.6879 0.0000 0.0000 0.0000
# 4 0.0000 0.0000 0.0000 29.5913 0.0000 0.0000
# 5 0.0000 0.0000 0.0000 0.0000 19.9736 0.0000
# 6 0.0000 0.0000 0.0000 0.0000 0.0000 18.8101
#
#
#
# Elastic Compliance Matrix: (Units=1/GPa)
#
#
# Indices 1 2 3 4 5 6 
#
# 1 0.014518 -0.003635 -0.002874 0.000000 0.000000 0.000000
# 2 -0.003635 0.014231 -0.003645 0.000000 0.000000 0.000000
# 3 -0.002874 -0.003645 0.012788 0.000000 0.000000 0.000000
# 4 0.000000 0.000000 0.000000 0.033794 0.000000 0.000000
# 5 0.000000 0.000000 0.000000 0.000000 0.050066 0.000000
# 6 0.000000 0.000000 0.000000 0.000000 0.000000 0.053163
#
#
# Mechanical properties :
#
#
# Convention : Reuss Voigt Hill
#
# Bulk Modulus (GPa) = 47.10520 47.31116 47.20818
# Shear Modulus (GPa) = 24.27835 25.33755 24.80795
#
# Velocity S-wave (km/s) = 3.44744 3.52184 3.48484
# Velocity P-wave (km/s) = 6.23744 6.30062 6.26911
#
# Compressibility (1/GPa) = 0.02122908
#
# Stress axis : x y z
#
# Youngs Moduli (GPa) = 68.87797 70.26873 78.19872
#
# Poissons Ratio (x) = 0.25543 0.22474
# Poissons Ratio (y) = 0.25038 0.28505
# Poissons Ratio (z) = 0.19795 0.25614
#
# Static dielectric constant tensor:
#      x y z
#    x 3.238180 0.000000 0.000000 
#    y 0.000000 3.998440 0.000000 
#    z 0.000000 0.000000 4.010440 
# 
# 
# High freq. dielectric constant tensor:
#      x y z
#    x 1.748950 0.000000 0.000000 
#    y 0.000000 1.809750 0.000000 
#    z 0.000000 0.000000 1.799490 
# 
# From -- ./inp_files/10662.got.cif
#   From: 2010.03.12/outbox.cif.g09.slc.cpg/sg20_6_cif.got.tgz:10662.got - 2010.04.14 01:38:04.
