data_PCOD8158946
_publ_section_title
;
Structure prediction by ZEFSAII (Michael W. Deem and Ramdas Pophale) SiO2 
 PCOD8158946
Probable space group: C 2 2 21
;
_chemical_formula_sum "Si O2"
_cell_formula_units_Z 64
_cell_length_a 15.975752
_cell_length_b 9.069987
_cell_length_c 22.464545
_cell_angle_alpha 90.000000
_cell_angle_beta 90.000000
_cell_angle_gamma 90.000000
_cell_volume 3255.109492
_symmetry_space_group_name_H-M "C 2 2 21"
_symmetry_group_IT_number 20
_symmetry_cell_setting 'orthorhombic'
loop_
_space_group_symop_operation_xyz
x,y,z
-x,-y,1/2+z
x,-y,-z
-x,y,1/2-z
1/2+x,1/2+y,z
1/2-x,1/2-y,1/2+z
1/2+x,1/2-y,-z
1/2-x,1/2+y,1/2-z
loop_
_atom_site_type_symbol
_atom_site_label
_atom_site_fract_x
_atom_site_fract_y
_atom_site_fract_z
Si Si1 0.881838 0.039092 0.645336
Si Si2 0.790123 0.091754 0.060422
Si Si3 0.795298 0.483683 0.682934
Si Si4 0.767183 0.573130 0.942810
Si Si5 0.455993 0.537412 0.933430
Si Si6 0.265772 0.684253 0.294911
Si Si7 0.458035 0.164536 0.312231
Si Si8 0.384570 0.157552 0.110587
O O1 0.799667 0.078164 0.608938
O O2 0.906139 0.183609 0.681804
O O3 0.963888 0.003861 0.606762
O O4 0.851383 0.899671 0.684614
O O5 0.730422 0.041224 0.114250
O O6 0.785577 0.259866 0.041126
O O7 0.884071 0.075953 0.085320
O O8 0.771320 0.000000 0.000000
O O9 0.752911 0.367967 0.727958
O O10 0.780484 0.643490 0.709326
O O11 0.894786 0.469943 0.684785
O O12 0.852034 0.478085 0.929902
O O13 0.723362 0.500000 0.000000
O O14 0.407202 0.695310 0.927324
O O15 0.485137 0.500000 0.000000
O O16 0.186861 0.672483 0.339220
O O17 0.500000 0.180953 0.250000
O O18 0.526464 0.121221 0.360824
#
# Coordination Sequence:
#
# PCOD8158946 Si02
#       8
#     8   8   8   8   8   8   8   8
#     4  10  23  39  63  98 126 171 214 271 322 389
#     4  11  24  41  66  94 130 174 216 267 328 390
#     4  12  24  43  66  98 128 173 218 276 327 398
#     4  11  22  39  65  93 128 167 222 263 324 386
#     4  10  20  40  64  93 133 174 216 262 326 386
#     4  11  24  40  67  96 129 166 224 266 333 392
#     4  11  22  41  66  92 131 168 211 267 339 386
#     4  10  22  40  64  93 128 169 214 272 321 393
#
# _framework density 19.661397000000001
#
# number of rings (size 3 to 8) (size 9 to 14) (size 15 to 20)
#    0.000    1.250    3.750    2.625    3.500    1.000 
#    0.000    1.250    0.000    0.000    0.000    0.000 
#    0.000    0.000    0.000    0.000    0.000    0.000 
#
# Total GULP energy -396444.687902 kJ/mol
# GULP energy per Si atom -12388.896497 kJ/mol
# Density = 1.961665 g / cm^3
# Si number density = 19.661397 Si / 1000 Ang^3
#
#
#
# Elastic Constant Matrix: (Units=GPa)
#
#
# Indices 1 2 3 4 5 6 
#
# 1 126.5973 5.5851 31.0948 0.0000 0.0000 0.0000
# 2 5.5851 515.0711 169.9555 0.0000 0.0000 0.0000
# 3 31.0948 169.9555 152.4428 0.0000 0.0000 0.0000
# 4 0.0000 0.0000 0.0000 33.8686 0.0000 0.0000
# 5 0.0000 0.0000 0.0000 0.0000 1.1891 0.0000
# 6 0.0000 0.0000 0.0000 0.0000 0.0000 33.8947
#
#
#
# Elastic Compliance Matrix: (Units=1/GPa)
#
#
# Indices 1 2 3 4 5 6 
#
# 1 0.008499 0.000759 -0.002580 0.000000 0.000000 0.000000
# 2 0.000759 0.003139 -0.003655 0.000000 0.000000 0.000000
# 3 -0.002580 -0.003655 0.011161 0.000000 0.000000 0.000000
# 4 0.000000 0.000000 0.000000 0.029526 0.000000 0.000000
# 5 0.000000 0.000000 0.000000 0.000000 0.841007 0.000000
# 6 0.000000 0.000000 0.000000 0.000000 0.000000 0.029503
#
#
# Mechanical properties :
#
#
# Convention : Reuss Voigt Hill
#
# Bulk Modulus (GPa) = 84.40238 134.15357 109.27797
# Shear Modulus (GPa) = 5.33200 52.95554 29.14377
#
# Velocity S-wave (km/s) = 1.64857 5.19540 3.85422
# Velocity P-wave (km/s) = 6.82971 10.21615 8.68949
#
# Compressibility (1/GPa) = 0.01184801
#
# Stress axis : x y z
#
# Youngs Moduli (GPa) = 117.65707 318.55806 89.60119
#
# Poissons Ratio (x) = -0.24184 0.23117
# Poissons Ratio (y) = -0.08932 0.32746
# Poissons Ratio (z) = 0.30356 1.16421
#
# Static dielectric constant tensor:
#      x y z
#    x 3.674900 0.000000 0.000000 
#    y 0.000000 3.739600 0.000000 
#    z 0.000000 0.000000 3.661430 
# 
# 
# High freq. dielectric constant tensor:
#      x y z
#    x 1.772900 0.000000 0.000000 
#    y 0.000000 1.768810 0.000000 
#    z 0.000000 0.000000 1.775840 
# 
# From -- ./inp_files/29382.got.cif
#   From: 2010.03.12/outbox.cif.g09.slc.cpg/sg20_15_cif.got.tgz:29382.got - 2010.04.14 01:38:04.
