data_PCOD8158386
_publ_section_title
;
Structure prediction by ZEFSAII (Michael W. Deem and Ramdas Pophale) SiO2 
 PCOD8158386
Probable space group: C 2 2 21
;
_chemical_formula_sum "Si O2"
_cell_formula_units_Z 36
_cell_length_a 8.431457
_cell_length_b 12.681642
_cell_length_c 15.696726
_cell_angle_alpha 90.000000
_cell_angle_beta 90.000000
_cell_angle_gamma 90.000000
_cell_volume 1678.368020
_symmetry_space_group_name_H-M "C 2 2 21"
_symmetry_group_IT_number 20
_symmetry_cell_setting 'orthorhombic'
loop_
_space_group_symop_operation_xyz
x,y,z
-x,-y,1/2+z
x,-y,-z
-x,y,1/2-z
1/2+x,1/2+y,z
1/2-x,1/2-y,1/2+z
1/2+x,1/2-y,-z
1/2-x,1/2+y,1/2-z
loop_
_atom_site_type_symbol
_atom_site_label
_atom_site_fract_x
_atom_site_fract_y
_atom_site_fract_z
Si Si1 0.426526 0.779965 0.604385
Si Si2 0.055552 0.069642 0.660114
Si Si3 0.393082 0.986951 0.399323
Si Si4 0.639105 0.500000 0.000000
Si Si5 0.368864 0.172235 0.951439
O O1 0.512307 0.694210 0.663282
O O2 0.444227 0.899200 0.639057
O O3 0.505686 0.767487 0.510764
O O4 0.237216 0.756642 0.599379
O O5 0.000000 0.020253 0.750000
O O6 0.967553 0.008487 0.584281
O O7 0.243195 0.057954 0.650621
O O8 0.537417 0.095283 0.614121
O O9 0.355869 0.000000 0.500000
O O10 0.750688 0.602203 0.009723
#
# Coordination Sequence:
#
# PCOD8158386 Si02
#       5
#     8   8   8   4   8
#     4  10  20  36  60  91 121 160 204 253 319 367
#     4  11  24  42  60  93 131 164 216 265 311 380
#     4  10  19  40  63  90 121 164 204 256 317 368
#     4  10  20  40  66  90 122 170 204 264 316 370
#     4  10  19  35  66  96 117 160 213 251 311 388
#
# _framework density 21.449407000000001
#
# number of rings (size 3 to 8) (size 9 to 14) (size 15 to 20)
#    0.000    1.778    4.444    2.667    3.111    0.000 
#    4.000    4.444    0.000    0.000    0.000    0.000 
#    0.000    0.000    0.000    0.000    0.000    0.000 
#
# Total GULP energy -223154.012395 kJ/mol
# GULP energy per Si atom -12397.445133 kJ/mol
# Density = 2.140059 g / cm^3
# Si number density = 21.449407 Si / 1000 Ang^3
#
#
#
# Elastic Constant Matrix: (Units=GPa)
#
#
# Indices 1 2 3 4 5 6 
#
# 1 107.4988 41.0908 18.4518 0.0000 0.0000 0.0000
# 2 41.0908 70.0902 24.8856 0.0000 0.0000 0.0000
# 3 18.4518 24.8856 76.3059 0.0000 0.0000 0.0000
# 4 0.0000 0.0000 0.0000 17.5026 0.0000 0.0000
# 5 0.0000 0.0000 0.0000 0.0000 10.7861 0.0000
# 6 0.0000 0.0000 0.0000 0.0000 0.0000 41.8729
#
#
#
# Elastic Compliance Matrix: (Units=1/GPa)
#
#
# Indices 1 2 3 4 5 6 
#
# 1 0.012021 -0.006803 -0.000688 0.000000 0.000000 0.000000
# 2 -0.006803 0.019986 -0.004873 0.000000 0.000000 0.000000
# 3 -0.000688 -0.004873 0.014861 0.000000 0.000000 0.000000
# 4 0.000000 0.000000 0.000000 0.057134 0.000000 0.000000
# 5 0.000000 0.000000 0.000000 0.000000 0.092712 0.000000
# 6 0.000000 0.000000 0.000000 0.000000 0.000000 0.023882
#
#
# Mechanical properties :
#
#
# Convention : Reuss Voigt Hill
#
# Bulk Modulus (GPa) = 45.16848 46.97236 46.07042
# Shear Modulus (GPa) = 19.78606 25.33010 22.55808
#
# Velocity S-wave (km/s) = 3.04049 3.44018 3.24649
# Velocity P-wave (km/s) = 5.78186 6.14219 5.96475
#
# Compressibility (1/GPa) = 0.02213933
#
# Stress axis : x y z
#
# Youngs Moduli (GPa) = 83.18799 50.03562 67.29138
#
# Poissons Ratio (x) = 0.34039 0.04631
# Poissons Ratio (y) = 0.56593 0.32790
# Poissons Ratio (z) = 0.05725 0.24382
#
# Static dielectric constant tensor:
#      x y z
#    x 4.124720 0.000000 0.000000 
#    y 0.000000 4.041870 0.000000 
#    z 0.000000 0.000000 3.326080 
# 
# 
# High freq. dielectric constant tensor:
#      x y z
#    x 1.858580 0.000000 0.000000 
#    y 0.000000 1.848400 0.000000 
#    z 0.000000 0.000000 1.783520 
# 
# From -- ./inp_files/18435.got.cif
#   From: 2010.03.12/outbox.cif.g09.slc.cpg/sg20_10_cif.got.tgz:18435.got - 2010.04.14 01:38:04.
