data_PCOD8158321
_publ_section_title
;
Structure prediction by ZEFSAII (Michael W. Deem and Ramdas Pophale) SiO2 
 PCOD8158321
Probable space group: C 2 2 21
;
_chemical_formula_sum "Si O2"
_cell_formula_units_Z 52
_cell_length_a 19.868276
_cell_length_b 8.719717
_cell_length_c 14.647072
_cell_angle_alpha 90.000000
_cell_angle_beta 90.000000
_cell_angle_gamma 90.000000
_cell_volume 2537.542886
_symmetry_space_group_name_H-M "C 2 2 21"
_symmetry_group_IT_number 20
_symmetry_cell_setting 'orthorhombic'
loop_
_space_group_symop_operation_xyz
x,y,z
-x,-y,1/2+z
x,-y,-z
-x,y,1/2-z
1/2+x,1/2+y,z
1/2-x,1/2-y,1/2+z
1/2+x,1/2-y,-z
1/2-x,1/2+y,1/2-z
loop_
_atom_site_type_symbol
_atom_site_label
_atom_site_fract_x
_atom_site_fract_y
_atom_site_fract_z
Si Si1 0.821811 0.180541 0.500431
Si Si2 0.966963 0.140600 0.565939
Si Si3 0.000000 0.990599 0.750000
Si Si4 0.108276 0.775261 0.447531
Si Si5 0.253845 0.784663 0.176155
Si Si6 0.276407 0.860322 0.849825
Si Si7 0.121321 0.103195 0.360479
O O1 0.900732 0.217368 0.519777
O O2 0.780761 0.263310 0.580908
O O3 0.787622 0.222002 0.403033
O O4 0.812005 0.000000 0.500000
O O5 0.958635 0.087079 0.671879
O O6 0.029012 0.260351 0.569080
O O7 0.990638 0.000000 0.500000
O O8 0.054701 0.883364 0.701327
O O9 0.156525 0.640430 0.412358
O O10 0.117715 0.781839 0.555093
O O11 0.130703 0.929647 0.394421
O O12 0.206332 0.743076 0.261543
O O13 0.316731 0.671587 0.196796
O O14 0.266757 0.964617 0.178444
#
# Coordination Sequence:
#
# PCOD8158321 Si02
#       7
#     8   8   4   8   8   8   8
#     4   9  21  36  56  87 119 151 196 245 294 348
#     4  10  19  34  56  90 120 148 200 248 294 343
#     4  10  20  32  60  90 118 154 200 252 290 352
#     4  10  19  37  58  90 115 154 198 252 296 356
#     4  11  23  38  60  89 117 161 199 249 299 353
#     4  11  23  39  59  90 122 157 203 246 300 357
#     4  10  20  35  60  89 117 153 200 248 300 349
#
# _framework density 20.492263000000001
#
# number of rings (size 3 to 8) (size 9 to 14) (size 15 to 20)
#    0.000    1.846    4.615    0.923   10.769    0.000 
#    0.000    0.000    3.385    0.000    8.000    0.000 
#    0.000    0.000    0.000    0.000    0.000    0.000 
#
# Total GULP energy -322099.351486 kJ/mol
# GULP energy per Si atom -12388.436596 kJ/mol
# Density = 2.044562 g / cm^3
# Si number density = 20.492263 Si / 1000 Ang^3
#
#
#
# Elastic Constant Matrix: (Units=GPa)
#
#
# Indices 1 2 3 4 5 6 
#
# 1 116.8983 19.0270 10.7996 0.0000 0.0000 0.0000
# 2 19.0270 34.5572 13.1993 0.0000 0.0000 0.0000
# 3 10.7996 13.1993 91.9663 0.0000 0.0000 0.0000
# 4 0.0000 0.0000 0.0000 23.1126 0.0000 0.0000
# 5 0.0000 0.0000 0.0000 0.0000 39.5539 0.0000
# 6 0.0000 0.0000 0.0000 0.0000 0.0000 24.3044
#
#
#
# Elastic Compliance Matrix: (Units=1/GPa)
#
#
# Indices 1 2 3 4 5 6 
#
# 1 0.009409 -0.005035 -0.000382 0.000000 0.000000 0.000000
# 2 -0.005035 0.033310 -0.004190 0.000000 0.000000 0.000000
# 3 -0.000382 -0.004190 0.011520 0.000000 0.000000 0.000000
# 4 0.000000 0.000000 0.000000 0.043267 0.000000 0.000000
# 5 0.000000 0.000000 0.000000 0.000000 0.025282 0.000000
# 6 0.000000 0.000000 0.000000 0.000000 0.000000 0.041145
#
#
# Mechanical properties :
#
#
# Convention : Reuss Voigt Hill
#
# Bulk Modulus (GPa) = 28.55041 36.60818 32.57930
# Shear Modulus (GPa) = 25.66470 30.75391 28.20930
#
# Velocity S-wave (km/s) = 3.54278 3.87816 3.71426
# Velocity P-wave (km/s) = 5.54054 6.16090 5.85894
#
# Compressibility (1/GPa) = 0.03502577
#
# Stress axis : x y z
#
# Youngs Moduli (GPa) = 106.27866 30.02124 86.80754
#
# Poissons Ratio (x) = 0.15115 0.03319
# Poissons Ratio (y) = 0.53507 0.36368
# Poissons Ratio (z) = 0.04063 0.12577
#
# Static dielectric constant tensor:
#      x y z
#    x 3.900200 0.000000 0.000000 
#    y 0.000000 3.079700 0.000000 
#    z 0.000000 0.000000 4.100700 
# 
# 
# High freq. dielectric constant tensor:
#      x y z
#    x 1.807720 0.000000 0.000000 
#    y 0.000000 1.738380 0.000000 
#    z 0.000000 0.000000 1.826180 
# 
# From -- ./inp_files/21697.got.cif
#   From: 2010.03.12/outbox.cif.g09.slc.cpg/sg20_11_cif.got.tgz:21697.got - 2010.04.14 01:38:04.
