data_PCOD8158181
_publ_section_title
;
Structure prediction by ZEFSAII (Michael W. Deem and Ramdas Pophale) SiO2 
 PCOD8158181
Probable space group: C 2 2 21
;
_chemical_formula_sum "Si O2"
_cell_formula_units_Z 44
_cell_length_a 9.280044
_cell_length_b 10.349000
_cell_length_c 20.251772
_cell_angle_alpha 90.000000
_cell_angle_beta 90.000000
_cell_angle_gamma 90.000000
_cell_volume 1944.963482
_symmetry_space_group_name_H-M "C 2 2 21"
_symmetry_group_IT_number 20
_symmetry_cell_setting 'orthorhombic'
loop_
_space_group_symop_operation_xyz
x,y,z
-x,-y,1/2+z
x,-y,-z
-x,y,1/2-z
1/2+x,1/2+y,z
1/2-x,1/2-y,1/2+z
1/2+x,1/2-y,-z
1/2-x,1/2+y,1/2-z
loop_
_atom_site_type_symbol
_atom_site_label
_atom_site_fract_x
_atom_site_fract_y
_atom_site_fract_z
Si Si1 0.294791 0.805358 0.619086
Si Si2 0.524413 0.668346 0.141397
Si Si3 0.248455 0.952300 0.172441
Si Si4 0.306882 0.346945 0.514897
Si Si5 0.956037 0.446472 0.931572
Si Si6 0.000000 0.381333 0.250000
O O1 0.319736 0.691682 0.672894
O O2 0.319889 0.746710 0.546570
O O3 0.422307 0.911146 0.622579
O O4 0.142282 0.875288 0.632925
O O5 0.620781 0.556229 0.175378
O O6 0.578437 0.703414 0.068518
O O7 0.535986 0.794287 0.186483
O O8 0.358366 0.969152 0.234358
O O9 0.345185 0.954513 0.104926
O O10 0.333781 0.500000 0.500000
O O11 0.147750 0.327418 0.547187
O O12 0.023744 0.500000 0.000000
#
# Coordination Sequence:
#
# PCOD8158181 Si02
#       6
#     8   8   8   8   8   4
#     4  11  20  36  63  91 126 158 196 262 325 356
#     4  10  22  40  64  93 123 167 211 258 311 379
#     4  10  22  45  61  86 127 159 209 258 308 371
#     4  10  18  37  64  89 129 161 200 260 326 376
#     4  10  20  37  58  92 123 160 205 249 310 386
#     4  10  24  40  68  84 124 176 206 258 310 370
#
# _framework density 22.622533000000001
#
# number of rings (size 3 to 8) (size 9 to 14) (size 15 to 20)
#    0.000    1.818    5.455    1.091    2.545    3.636 
#    3.273    3.636    0.000    0.000    0.000    0.000 
#    0.000    0.000    0.000    0.000    0.000    0.000 
#
# Total GULP energy -272574.669827 kJ/mol
# GULP energy per Si atom -12389.757719 kJ/mol
# Density = 2.257104 g / cm^3
# Si number density = 22.622533 Si / 1000 Ang^3
#
#
#
# Elastic Constant Matrix: (Units=GPa)
#
#
# Indices 1 2 3 4 5 6 
#
# 1 87.2101 28.3512 -12.3959 0.0000 0.0000 0.0000
# 2 28.3512 51.0765 -6.6606 0.0000 0.0000 0.0000
# 3 -12.3959 -6.6606 36.0793 0.0000 0.0000 0.0000
# 4 0.0000 0.0000 0.0000 25.8660 0.0000 0.0000
# 5 0.0000 0.0000 0.0000 0.0000 37.5845 0.0000
# 6 0.0000 0.0000 0.0000 0.0000 0.0000 29.6066
#
#
#
# Elastic Compliance Matrix: (Units=1/GPa)
#
#
# Indices 1 2 3 4 5 6 
#
# 1 0.014425 -0.007542 0.003564 0.000000 0.000000 0.000000
# 2 -0.007542 0.024005 0.001840 0.000000 0.000000 0.000000
# 3 0.003564 0.001840 0.029281 0.000000 0.000000 0.000000
# 4 0.000000 0.000000 0.000000 0.038661 0.000000 0.000000
# 5 0.000000 0.000000 0.000000 0.000000 0.026607 0.000000
# 6 0.000000 0.000000 0.000000 0.000000 0.000000 0.033776
#
#
# Mechanical properties :
#
#
# Convention : Reuss Voigt Hill
#
# Bulk Modulus (GPa) = 15.76438 21.43949 18.60193
# Shear Modulus (GPa) = 26.01782 29.61615 27.81699
#
# Velocity S-wave (km/s) = 3.39497 3.62213 3.51039
# Velocity P-wave (km/s) = 4.72772 5.19526 4.96700
#
# Compressibility (1/GPa) = 0.06343416
#
# Stress axis : x y z
#
# Youngs Moduli (GPa) = 69.32404 41.65809 34.15203
#
# Poissons Ratio (x) = 0.31419 -0.12171
# Poissons Ratio (y) = 0.52286 -0.06285
# Poissons Ratio (z) = -0.24705 -0.07666
#
# Static dielectric constant tensor:
#      x y z
#    x 4.316100 0.000000 0.000000 
#    y 0.000000 3.777930 0.000000 
#    z 0.000000 0.000000 4.219170 
# 
# 
# High freq. dielectric constant tensor:
#      x y z
#    x 1.893830 0.000000 0.000000 
#    y 0.000000 1.864480 0.000000 
#    z 0.000000 0.000000 1.893020 
# 
# From -- ./inp_files/28665.got.cif
#   From: 2010.03.12/outbox.cif.g09.slc.cpg/sg20_15_cif.got.tgz:28665.got - 2010.04.14 01:38:04.
