data_PCOD8158298
_publ_section_title
;
Structure prediction by ZEFSAII (Michael W. Deem and Ramdas Pophale) SiO2 
 PCOD8158298
Probable space group: C 2 2 21
;
_chemical_formula_sum "Si O2"
_cell_formula_units_Z 60
_cell_length_a 15.810869
_cell_length_b 11.786579
_cell_length_c 16.517091
_cell_angle_alpha 90.000000
_cell_angle_beta 90.000000
_cell_angle_gamma 90.000000
_cell_volume 3078.059944
_symmetry_space_group_name_H-M "C 2 2 21"
_symmetry_group_IT_number 20
_symmetry_cell_setting 'orthorhombic'
loop_
_space_group_symop_operation_xyz
x,y,z
-x,-y,1/2+z
x,-y,-z
-x,y,1/2-z
1/2+x,1/2+y,z
1/2-x,1/2-y,1/2+z
1/2+x,1/2-y,-z
1/2-x,1/2+y,1/2-z
loop_
_atom_site_type_symbol
_atom_site_label
_atom_site_fract_x
_atom_site_fract_y
_atom_site_fract_z
Si Si1 0.405566 0.253043 0.851256
Si Si2 0.853134 0.025716 0.688001
Si Si3 0.281715 0.000000 0.500000
Si Si4 0.279829 0.906096 0.065788
Si Si5 0.599606 0.728485 0.174363
Si Si6 0.360104 0.512518 0.874573
Si Si7 0.028270 0.101723 0.940374
Si Si8 0.853860 0.268201 0.493421
O O1 0.364456 0.161778 0.911159
O O2 0.366323 0.230778 0.761653
O O3 0.504683 0.231375 0.844242
O O4 0.387168 0.380982 0.881233
O O5 0.898323 0.906509 0.674857
O O6 0.846044 0.054458 0.782851
O O7 0.761305 0.034214 0.645147
O O8 0.918782 0.108872 0.643243
O O9 0.225724 0.034289 0.577136
O O10 0.340243 0.894513 0.527489
O O11 0.213737 0.818088 0.029150
O O12 0.305193 0.000000 0.000000
O O13 0.658814 0.776693 0.103620
O O14 0.429731 0.591062 0.919205
O O15 0.051415 0.220252 0.986131
O O16 0.059046 0.000000 0.000000
#
# Coordination Sequence:
#
# PCOD8158298 Si02
#       8
#     8   8   4   8   8   8   8   8
#     4  10  21  36  62  92 118 156 212 257 302 367
#     4  10  19  33  61  92 119 159 200 259 317 365
#     4  12  26  38  54  92 126 162 200 260 320 362
#     4  11  21  39  61  95 127 163 204 262 315 374
#     4  10  19  38  62  85 119 163 206 250 303 377
#     4  11  21  36  59  91 124 150 210 263 308 364
#     4  11  18  35  64  91 115 155 206 257 298 368
#     4  11  22  38  58  88 124 162 198 248 315 369
#
# _framework density 19.492799000000002
#
# number of rings (size 3 to 8) (size 9 to 14) (size 15 to 20)
#    0.000    1.333    6.000    1.200    1.867    0.000 
#    1.200    0.000    0.000    0.000    6.933    0.000 
#    0.000    0.000    0.000    0.000    0.000    0.000 
#
# Total GULP energy -371890.056096 kJ/mol
# GULP energy per Si atom -12396.335203 kJ/mol
# Density = 1.944843 g / cm^3
# Si number density = 19.492799 Si / 1000 Ang^3
#
#
#
# Elastic Constant Matrix: (Units=GPa)
#
#
# Indices 1 2 3 4 5 6 
#
# 1 70.8922 47.7639 32.8170 0.0000 0.0000 0.0000
# 2 47.7639 95.4588 41.5482 0.0000 0.0000 0.0000
# 3 32.8170 41.5482 121.7608 0.0000 0.0000 0.0000
# 4 0.0000 0.0000 0.0000 23.0616 0.0000 0.0000
# 5 0.0000 0.0000 0.0000 0.0000 24.1314 0.0000
# 6 0.0000 0.0000 0.0000 0.0000 0.0000 29.3531
#
#
#
# Elastic Compliance Matrix: (Units=1/GPa)
#
#
# Indices 1 2 3 4 5 6 
#
# 1 0.021931 -0.009866 -0.002544 0.000000 0.000000 0.000000
# 2 -0.009866 0.016741 -0.003054 0.000000 0.000000 0.000000
# 3 -0.002544 -0.003054 0.009941 0.000000 0.000000 0.000000
# 4 0.000000 0.000000 0.000000 0.043362 0.000000 0.000000
# 5 0.000000 0.000000 0.000000 0.000000 0.041440 0.000000
# 6 0.000000 0.000000 0.000000 0.000000 0.000000 0.034068
#
#
# Mechanical properties :
#
#
# Convention : Reuss Voigt Hill
#
# Bulk Modulus (GPa) = 56.54452 59.15220 57.84836
# Shear Modulus (GPa) = 24.47317 26.37473 25.42395
#
# Velocity S-wave (km/s) = 3.54714 3.68237 3.61539
# Velocity P-wave (km/s) = 6.77106 6.96358 6.86799
#
# Compressibility (1/GPa) = 0.01768518
#
# Stress axis : x y z
#
# Youngs Moduli (GPa) = 45.59762 59.73236 100.59850
#
# Poissons Ratio (x) = 0.58932 0.25595
# Poissons Ratio (y) = 0.44987 0.30718
# Poissons Ratio (z) = 0.11601 0.18239
#
# Static dielectric constant tensor:
#      x y z
#    x 3.375590 0.000000 0.000000 
#    y 0.000000 3.381740 0.000000 
#    z 0.000000 0.000000 4.034990 
# 
# 
# High freq. dielectric constant tensor:
#      x y z
#    x 1.741900 0.000000 0.000000 
#    y 0.000000 1.724450 0.000000 
#    z 0.000000 0.000000 1.780580 
# 
# From -- ./inp_files/24943.got.cif
#   From: 2010.03.12/outbox.cif.g09.slc.cpg/sg20_13_cif.got.tgz:24943.got - 2010.04.14 01:38:04.
