data_PCOD8158789
_publ_section_title
;
Structure prediction by ZEFSAII (Michael W. Deem and Ramdas Pophale) SiO2 
 PCOD8158789
Probable space group: C 2 2 21
;
_chemical_formula_sum "Si O2"
_cell_formula_units_Z 64
_cell_length_a 6.163848
_cell_length_b 18.492228
_cell_length_c 28.026267
_cell_angle_alpha 90.000000
_cell_angle_beta 90.000000
_cell_angle_gamma 90.000000
_cell_volume 3194.525911
_symmetry_space_group_name_H-M "C 2 2 21"
_symmetry_group_IT_number 20
_symmetry_cell_setting 'orthorhombic'
loop_
_space_group_symop_operation_xyz
x,y,z
-x,-y,1/2+z
x,-y,-z
-x,y,1/2-z
1/2+x,1/2+y,z
1/2-x,1/2-y,1/2+z
1/2+x,1/2-y,-z
1/2-x,1/2+y,1/2-z
loop_
_atom_site_type_symbol
_atom_site_label
_atom_site_fract_x
_atom_site_fract_y
_atom_site_fract_z
Si Si1 0.380474 0.966228 0.127950
Si Si2 0.504125 0.555513 0.693736
Si Si3 0.041760 0.785113 0.063937
Si Si4 0.214569 0.171915 0.034538
Si Si5 0.284048 0.842651 0.365438
Si Si6 0.085459 0.219762 0.383053
Si Si7 0.232431 0.062498 0.366571
Si Si8 0.078195 0.021671 0.052923
O O1 0.549171 0.903459 0.118816
O O2 0.243376 0.947851 0.175369
O O3 0.509468 0.043361 0.133788
O O4 0.216377 0.963452 0.082918
O O5 0.500000 0.555910 0.750000
O O6 0.631760 0.628484 0.677335
O O7 0.623304 0.483431 0.675560
O O8 0.205578 0.768881 0.107100
O O9 0.943815 0.710069 0.043860
O O10 0.854346 0.834117 0.086310
O O11 0.153489 0.827093 0.020955
O O12 0.241689 0.089352 0.049976
O O13 0.019108 0.205493 0.065342
O O14 0.410935 0.767303 0.351904
O O15 0.169142 0.146658 0.356719
O O16 0.140639 0.039760 0.418322
O O17 0.006209 0.000000 0.000000
#
# Coordination Sequence:
#
# PCOD8158789 Si02
#       8
#     8   8   8   8   8   8   8   8
#     4  10  21  40  58  90 119 157 200 256 311 365
#     4  10  22  43  70  93 115 151 203 262 324 395
#     4  11  20  34  55  81 122 166 210 249 290 351
#     4  10  21  32  51  81 114 168 213 243 283 348
#     4  10  23  36  63  89 121 161 203 261 310 370
#     4  10  20  38  56  84 124 164 203 253 300 356
#     4   9  21  39  59  87 119 159 200 251 307 370
#     4  10  22  33  52  80 124 159 204 248 292 352
#
# _framework density 20.034269999999999
#
# number of rings (size 3 to 8) (size 9 to 14) (size 15 to 20)
#    0.000    2.000    1.250    1.500    7.000    3.500 
#    2.250    0.000    5.500    0.000    0.000    0.000 
#    0.000    0.000    0.000    0.000    0.000    0.000 
#
# Total GULP energy -396658.070903 kJ/mol
# GULP energy per Si atom -12395.564716 kJ/mol
# Density = 1.998867 g / cm^3
# Si number density = 20.034270 Si / 1000 Ang^3
#
#
#
# Elastic Constant Matrix: (Units=GPa)
#
#
# Indices 1 2 3 4 5 6 
#
# 1 98.6176 37.8494 40.3370 0.0000 0.0000 0.0000
# 2 37.8494 95.2453 44.0795 0.0000 0.0000 0.0000
# 3 40.3370 44.0795 122.2074 0.0000 0.0000 0.0000
# 4 0.0000 0.0000 0.0000 20.9766 0.0000 0.0000
# 5 0.0000 0.0000 0.0000 0.0000 18.3087 0.0000
# 6 0.0000 0.0000 0.0000 0.0000 0.0000 39.1698
#
#
#
# Elastic Compliance Matrix: (Units=1/GPa)
#
#
# Indices 1 2 3 4 5 6 
#
# 1 0.012745 -0.003743 -0.002857 0.000000 0.000000 0.000000
# 2 -0.003743 0.013702 -0.003707 0.000000 0.000000 0.000000
# 3 -0.002857 -0.003707 0.010463 0.000000 0.000000 0.000000
# 4 0.000000 0.000000 0.000000 0.047672 0.000000 0.000000
# 5 0.000000 0.000000 0.000000 0.000000 0.054619 0.000000
# 6 0.000000 0.000000 0.000000 0.000000 0.000000 0.025530
#
#
# Mechanical properties :
#
#
# Convention : Reuss Voigt Hill
#
# Bulk Modulus (GPa) = 61.36014 62.28914 61.82464
# Shear Modulus (GPa) = 26.20874 28.61131 27.41003
#
# Velocity S-wave (km/s) = 3.62082 3.78315 3.70287
# Velocity P-wave (km/s) = 6.94079 7.08814 7.01485
#
# Compressibility (1/GPa) = 0.01629723
#
# Stress axis : x y z
#
# Youngs Moduli (GPa) = 78.46139 72.98180 95.57640
#
# Poissons Ratio (x) = 0.27314 0.27305
# Poissons Ratio (y) = 0.29365 0.35429
# Poissons Ratio (z) = 0.22415 0.27054
#
# Static dielectric constant tensor:
#      x y z
#    x 3.836510 0.000000 0.000000 
#    y 0.000000 3.922670 0.000000 
#    z 0.000000 0.000000 3.187040 
# 
# 
# High freq. dielectric constant tensor:
#      x y z
#    x 1.792790 0.000000 0.000000 
#    y 0.000000 1.788540 0.000000 
#    z 0.000000 0.000000 1.738350 
# 
# From -- ./inp_files/30542.got.cif
#   From: 2010.03.12/outbox.cif.g09.slc.cpg/sg20_16_cif.got.tgz:30542.got - 2010.04.14 01:38:04.
