data_PCOD8158693
_publ_section_title
;
Structure prediction by ZEFSAII (Michael W. Deem and Ramdas Pophale) SiO2 
 PCOD8158693
Probable space group: C 2 2 21
;
_chemical_formula_sum "Si O2"
_cell_formula_units_Z 48
_cell_length_a 28.937956
_cell_length_b 8.604392
_cell_length_c 8.516750
_cell_angle_alpha 90.000000
_cell_angle_beta 90.000000
_cell_angle_gamma 90.000000
_cell_volume 2120.615537
_symmetry_space_group_name_H-M "C 2 2 21"
_symmetry_group_IT_number 20
_symmetry_cell_setting 'orthorhombic'
loop_
_space_group_symop_operation_xyz
x,y,z
-x,-y,1/2+z
x,-y,-z
-x,y,1/2-z
1/2+x,1/2+y,z
1/2-x,1/2-y,1/2+z
1/2+x,1/2-y,-z
1/2-x,1/2+y,1/2-z
loop_
_atom_site_type_symbol
_atom_site_label
_atom_site_fract_x
_atom_site_fract_y
_atom_site_fract_z
Si Si1 0.406008 0.165773 0.929096
Si Si2 0.985948 0.833482 0.069313
Si Si3 0.567532 0.833855 0.068322
Si Si4 0.154791 0.819821 0.010928
Si Si5 0.691452 0.811327 0.309370
Si Si6 0.779022 0.602765 0.346827
O O1 0.426145 0.173674 0.754139
O O2 0.350752 0.197535 0.933586
O O3 0.431958 0.293162 0.038494
O O4 0.417605 0.000000 0.000000
O O5 0.000000 0.827130 0.250000
O O6 0.014954 0.704646 0.974157
O O7 0.998099 0.000000 0.000000
O O8 0.599792 0.706934 0.978292
O O9 0.582084 0.000000 0.000000
O O10 0.171177 0.728237 0.858760
O O11 0.181768 0.738344 0.156101
O O12 0.167274 0.000000 0.000000
O O13 0.729467 0.684437 0.351046
O O14 0.712820 0.987702 0.302362
O O15 0.781965 0.500000 0.500000
#
# Coordination Sequence:
#
# PCOD8158693 Si02
#       6
#     8   8   8   8   8   8
#     4  11  24  42  64  96 132 175 229 284 347 415
#     4  12  26  45  68  97 134 178 230 289 353 418
#     4  11  22  42  67  93 128 172 224 281 344 415
#     4  10  20  36  60  88 120 163 217 274 337 407
#     4  10  22  39  61  91 130 174 221 278 343 421
#     4  10  21  38  59  89 127 170 221 278 347 418
#
# _framework density 22.634938999999999
#
# number of rings (size 3 to 8) (size 9 to 14) (size 15 to 20)
#    0.000    1.333    0.000    7.000    0.000    5.333 
#    0.000    1.667    0.000    0.000    0.000    0.000 
#    0.000    0.000    0.000    0.000    0.000    0.000 
#
# Total GULP energy -297583.326490 kJ/mol
# GULP energy per Si atom -12399.305270 kJ/mol
# Density = 2.258342 g / cm^3
# Si number density = 22.634939 Si / 1000 Ang^3
#
#
#
# Elastic Constant Matrix: (Units=GPa)
#
#
# Indices 1 2 3 4 5 6 
#
# 1 147.4811 59.9130 47.8002 0.0000 0.0000 0.0000
# 2 59.9130 137.4239 35.9176 0.0000 0.0000 0.0000
# 3 47.8002 35.9176 83.8271 0.0000 0.0000 0.0000
# 4 0.0000 0.0000 0.0000 25.6618 0.0000 0.0000
# 5 0.0000 0.0000 0.0000 0.0000 20.0001 0.0000
# 6 0.0000 0.0000 0.0000 0.0000 0.0000 12.9075
#
#
#
# Elastic Compliance Matrix: (Units=1/GPa)
#
#
# Indices 1 2 3 4 5 6 
#
# 1 0.009304 -0.003006 -0.004017 0.000000 0.000000 0.000000
# 2 -0.003006 0.009166 -0.002213 0.000000 0.000000 0.000000
# 3 -0.004017 -0.002213 0.015168 0.000000 0.000000 0.000000
# 4 0.000000 0.000000 0.000000 0.038968 0.000000 0.000000
# 5 0.000000 0.000000 0.000000 0.000000 0.050000 0.000000
# 6 0.000000 0.000000 0.000000 0.000000 0.000000 0.077474
#
#
# Mechanical properties :
#
#
# Convention : Reuss Voigt Hill
#
# Bulk Modulus (GPa) = 65.94175 72.88820 69.41498
# Shear Modulus (GPa) = 22.36052 26.72062 24.54057
#
# Velocity S-wave (km/s) = 3.14646 3.43957 3.29628
# Velocity P-wave (km/s) = 6.51124 6.93150 6.72466
#
# Compressibility (1/GPa) = 0.01516490
#
# Stress axis : x y z
#
# Youngs Moduli (GPa) = 107.48290 109.10100 65.92730
#
# Poissons Ratio (x) = 0.32799 0.26484
# Poissons Ratio (y) = 0.32312 0.14590
# Poissons Ratio (z) = 0.43178 0.24145
#
# Static dielectric constant tensor:
#      x y z
#    x 4.561490 0.000000 0.000000 
#    y 0.000000 4.185240 0.000000 
#    z 0.000000 0.000000 3.995830 
# 
# 
# High freq. dielectric constant tensor:
#      x y z
#    x 1.906960 0.000000 0.000000 
#    y 0.000000 1.899270 0.000000 
#    z 0.000000 0.000000 1.877020 
# 
# From -- ./inp_files/11423.got.cif
#   From: 2010.03.12/outbox.cif.g09.slc.cpg/sg20_6_cif.got.tgz:11423.got - 2010.04.14 01:38:04.
