data_PCOD8158282
_publ_section_title
;
Structure prediction by ZEFSAII (Michael W. Deem and Ramdas Pophale) SiO2 
 PCOD8158282
Probable space group: C 2 2 21
;
_chemical_formula_sum "Si O2"
_cell_formula_units_Z 48
_cell_length_a 8.980363
_cell_length_b 17.981614
_cell_length_c 15.899126
_cell_angle_alpha 90.000000
_cell_angle_beta 90.000000
_cell_angle_gamma 90.000000
_cell_volume 2567.413460
_symmetry_space_group_name_H-M "C 2 2 21"
_symmetry_group_IT_number 20
_symmetry_cell_setting 'orthorhombic'
loop_
_space_group_symop_operation_xyz
x,y,z
-x,-y,1/2+z
x,-y,-z
-x,y,1/2-z
1/2+x,1/2+y,z
1/2-x,1/2-y,1/2+z
1/2+x,1/2-y,-z
1/2-x,1/2+y,1/2-z
loop_
_atom_site_type_symbol
_atom_site_label
_atom_site_fract_x
_atom_site_fract_y
_atom_site_fract_z
Si Si1 0.642523 0.177672 0.486269
Si Si2 0.323191 0.961516 0.086276
Si Si3 0.987392 0.829428 0.505202
Si Si4 0.018508 0.411222 0.847106
Si Si5 0.325549 0.542917 0.083315
Si Si6 0.020251 0.080694 0.842731
O O1 0.609421 0.118611 0.560838
O O2 0.581843 0.255498 0.520016
O O3 0.560203 0.153393 0.400803
O O4 0.817765 0.184192 0.467512
O O5 0.183450 0.954761 0.147645
O O6 0.448548 0.008164 0.133722
O O7 0.266635 0.000000 0.000000
O O8 0.050647 0.895797 0.561654
O O9 0.000142 0.851704 0.407382
O O10 0.000000 0.390187 0.750000
O O11 0.191321 0.415168 0.870963
O O12 0.398062 0.483654 0.146050
O O13 0.268154 0.500000 0.000000
O O14 0.000000 0.114362 0.750000
#
# Coordination Sequence:
#
# PCOD8158282 Si02
#       6
#     8   8   8   8   8   8
#     4  10  20  36  55  75 104 140 179 215 256 315
#     4   9  18  35  54  74 102 139 174 208 257 315
#     4  10  21  36  56  77 104 142 180 214 257 316
#     4  11  21  33  54  81 108 135 171 221 266 306
#     4  10  19  33  54  79 103 136 178 214 255 314
#     4  10  19  33  55  80 106 132 167 218 268 312
#
# _framework density 18.695858999999999
#
# number of rings (size 3 to 8) (size 9 to 14) (size 15 to 20)
#    0.000    2.000    0.000    7.000    0.000    2.000 
#    0.000    0.000    0.000    1.000    0.000    0.000 
#    0.000    0.000    0.000    0.000    0.000    0.000 
#
# Total GULP energy -297681.467486 kJ/mol
# GULP energy per Si atom -12403.394479 kJ/mol
# Density = 1.865331 g / cm^3
# Si number density = 18.695859 Si / 1000 Ang^3
#
#
#
# Elastic Constant Matrix: (Units=GPa)
#
#
# Indices 1 2 3 4 5 6 
#
# 1 93.8219 19.8127 18.2770 0.0000 0.0000 0.0000
# 2 19.8127 75.4522 5.4088 0.0000 0.0000 0.0000
# 3 18.2770 5.4088 78.9457 0.0000 0.0000 0.0000
# 4 0.0000 0.0000 0.0000 15.0328 0.0000 0.0000
# 5 0.0000 0.0000 0.0000 0.0000 21.1123 0.0000
# 6 0.0000 0.0000 0.0000 0.0000 0.0000 31.7955
#
#
#
# Elastic Compliance Matrix: (Units=1/GPa)
#
#
# Indices 1 2 3 4 5 6 
#
# 1 0.011764 -0.002908 -0.002524 0.000000 0.000000 0.000000
# 2 -0.002908 0.014038 -0.000288 0.000000 0.000000 0.000000
# 3 -0.002524 -0.000288 0.013271 0.000000 0.000000 0.000000
# 4 0.000000 0.000000 0.000000 0.066521 0.000000 0.000000
# 5 0.000000 0.000000 0.000000 0.000000 0.047366 0.000000
# 6 0.000000 0.000000 0.000000 0.000000 0.000000 0.031451
#
#
# Mechanical properties :
#
#
# Convention : Reuss Voigt Hill
#
# Bulk Modulus (GPa) = 36.19102 37.24632 36.71867
# Shear Modulus (GPa) = 24.38266 27.23620 25.80943
#
# Velocity S-wave (km/s) = 3.61525 3.82095 3.71952
# Velocity P-wave (km/s) = 6.06849 6.27947 6.17488
#
# Compressibility (1/GPa) = 0.02763116
#
# Stress axis : x y z
#
# Youngs Moduli (GPa) = 85.00225 71.23642 75.35157
#
# Poissons Ratio (x) = 0.20717 0.19022
# Poissons Ratio (y) = 0.24720 0.02174
# Poissons Ratio (z) = 0.21458 0.02055
#
# Static dielectric constant tensor:
#      x y z
#    x 3.417510 0.000000 0.000000 
#    y 0.000000 3.416670 0.000000 
#    z 0.000000 0.000000 3.253160 
# 
# 
# High freq. dielectric constant tensor:
#      x y z
#    x 1.736360 0.000000 0.000000 
#    y 0.000000 1.721930 0.000000 
#    z 0.000000 0.000000 1.707490 
# 
# From -- ./inp_files/18873.got.cif
#   From: 2010.03.12/outbox.cif.g09.slc.cpg/sg20_10_cif.got.tgz:18873.got - 2010.04.14 01:38:04.
