data_PCOD8158136
_publ_section_title
;
Structure prediction by ZEFSAII (Michael W. Deem and Ramdas Pophale) SiO2 
 PCOD8158136
Probable space group: C 2 2 21
;
_chemical_formula_sum "Si O2"
_cell_formula_units_Z 64
_cell_length_a 14.905588
_cell_length_b 12.201814
_cell_length_c 14.376528
_cell_angle_alpha 90.000000
_cell_angle_beta 90.000000
_cell_angle_gamma 90.000000
_cell_volume 2614.734083
_symmetry_space_group_name_H-M "C 2 2 21"
_symmetry_group_IT_number 20
_symmetry_cell_setting 'orthorhombic'
loop_
_space_group_symop_operation_xyz
x,y,z
-x,-y,1/2+z
x,-y,-z
-x,y,1/2-z
1/2+x,1/2+y,z
1/2-x,1/2-y,1/2+z
1/2+x,1/2-y,-z
1/2-x,1/2+y,1/2-z
loop_
_atom_site_type_symbol
_atom_site_label
_atom_site_fract_x
_atom_site_fract_y
_atom_site_fract_z
Si Si1 0.416293 0.735394 0.316327
Si Si2 0.534034 0.124836 0.989533
Si Si3 0.759994 0.766543 0.826024
Si Si4 0.328886 0.510283 0.108864
Si Si5 0.028339 0.775864 0.151573
Si Si6 0.968129 0.009994 0.390006
Si Si7 0.168555 0.780766 0.344851
Si Si8 0.180015 0.374809 0.495676
O O1 0.500000 0.754529 0.250000
O O2 0.421461 0.822641 0.399307
O O3 0.326077 0.760548 0.259735
O O4 0.409687 0.612343 0.355994
O O5 0.573350 0.190335 0.079817
O O6 0.426592 0.131128 0.981369
O O7 0.566510 0.000000 0.000000
O O8 0.766800 0.889162 0.861622
O O9 0.664755 0.752969 0.768174
O O10 0.770363 0.681044 0.908747
O O11 0.430043 0.533784 0.145470
O O12 0.283871 0.399521 0.149402
O O13 0.329823 0.500000 0.000000
O O14 0.928691 0.801523 0.109060
O O15 0.000000 0.722264 0.250000
O O16 0.072734 0.897748 0.154755
O O17 0.962293 0.000000 0.500000
O O18 0.213032 0.686148 0.409419
O O19 0.213235 0.500000 0.500000
#
# Coordination Sequence:
#
# PCOD8158136 Si02
#       8
#     8   8   8   8   8   8   8   8
#     4  12  21  37  63  98 122 154 207 266 317 364
#     4  10  21  40  61  87 122 164 211 252 302 374
#     4  12  24  40  64  94 127 163 211 262 314 381
#     4  10  19  38  66  87 117 161 208 252 309 375
#     4  10  21  40  63  88 123 163 207 259 317 369
#     4  10  18  34  64  95 124 149 194 265 322 365
#     4  10  24  41  59  91 125 165 210 252 317 379
#     4  10  21  42  64  84 121 169 208 250 306 383
#
# _framework density 24.476676000000001
#
# number of rings (size 3 to 8) (size 9 to 14) (size 15 to 20)
#    0.000    1.500    5.000    0.375    3.500    0.500 
#    4.500    1.250    0.000    0.000    0.000    0.000 
#    0.000    0.000    0.000    0.000    0.000    0.000 
#
# Total GULP energy -396740.687261 kJ/mol
# GULP energy per Si atom -12398.146477 kJ/mol
# Density = 2.442097 g / cm^3
# Si number density = 24.476676 Si / 1000 Ang^3
#
#
#
# Elastic Constant Matrix: (Units=GPa)
#
#
# Indices 1 2 3 4 5 6 
#
# 1 17.7591 11.9417 -8.6499 0.0000 0.0000 0.0000
# 2 11.9417 215.5561 73.5568 0.0000 0.0000 0.0000
# 3 -8.6499 73.5568 137.3504 0.0000 0.0000 0.0000
# 4 0.0000 0.0000 0.0000 38.9386 0.0000 0.0000
# 5 0.0000 0.0000 0.0000 0.0000 31.6318 0.0000
# 6 0.0000 0.0000 0.0000 0.0000 0.0000 73.7173
#
#
#
# Elastic Compliance Matrix: (Units=1/GPa)
#
#
# Indices 1 2 3 4 5 6 
#
# 1 0.063877 -0.006010 0.007241 0.000000 0.000000 0.000000
# 2 -0.006010 0.006242 -0.003721 0.000000 0.000000 0.000000
# 3 0.007241 -0.003721 0.009730 0.000000 0.000000 0.000000
# 4 0.000000 0.000000 0.000000 0.025681 0.000000 0.000000
# 5 0.000000 0.000000 0.000000 0.000000 0.031614 0.000000
# 6 0.000000 0.000000 0.000000 0.000000 0.000000 0.013565
#
#
# Mechanical properties :
#
#
# Convention : Reuss Voigt Hill
#
# Bulk Modulus (GPa) = 13.35663 58.26253 35.80958
# Shear Modulus (GPa) = 27.67853 48.44534 38.06194
#
# Velocity S-wave (km/s) = 3.36640 4.45370 3.94766
# Velocity P-wave (km/s) = 4.53640 7.09240 5.95320
#
# Compressibility (1/GPa) = 0.07486920
#
# Stress axis : x y z
#
# Youngs Moduli (GPa) = 15.65503 160.20577 102.77909
#
# Poissons Ratio (x) = 0.96281 -0.74426
# Poissons Ratio (y) = 0.09408 0.38247
# Poissons Ratio (z) = -0.11336 0.59618
#
# Static dielectric constant tensor:
#      x y z
#    x 6.128780 0.000000 0.000000 
#    y 0.000000 4.799700 0.000000 
#    z 0.000000 0.000000 4.287690 
# 
# 
# High freq. dielectric constant tensor:
#      x y z
#    x 1.963010 0.000000 0.000000 
#    y 0.000000 1.976780 0.000000 
#    z 0.000000 0.000000 1.992070 
# 
# From -- ./inp_files/21478.got.cif
#   From: 2010.03.12/outbox.cif.g09.slc.cpg/sg20_11_cif.got.tgz:21478.got - 2010.04.14 01:38:04.
