data_PCOD8158421
_publ_section_title
;
Structure prediction by ZEFSAII (Michael W. Deem and Ramdas Pophale) SiO2 
 PCOD8158421
Probable space group: C 2 2 21
;
_chemical_formula_sum "Si O2"
_cell_formula_units_Z 48
_cell_length_a 8.724878
_cell_length_b 17.664051
_cell_length_c 13.401504
_cell_angle_alpha 90.000000
_cell_angle_beta 90.000000
_cell_angle_gamma 90.000000
_cell_volume 2065.395437
_symmetry_space_group_name_H-M "C 2 2 21"
_symmetry_group_IT_number 20
_symmetry_cell_setting 'orthorhombic'
loop_
_space_group_symop_operation_xyz
x,y,z
-x,-y,1/2+z
x,-y,-z
-x,y,1/2-z
1/2+x,1/2+y,z
1/2-x,1/2-y,1/2+z
1/2+x,1/2-y,-z
1/2-x,1/2+y,1/2-z
loop_
_atom_site_type_symbol
_atom_site_label
_atom_site_fract_x
_atom_site_fract_y
_atom_site_fract_z
Si Si1 0.341928 0.947723 0.217532
Si Si2 0.664121 0.896122 0.623887
Si Si3 0.061635 0.265411 0.859853
Si Si4 0.647129 0.335949 0.693432
Si Si5 0.404355 0.504570 0.149537
Si Si6 0.615969 0.388212 0.061450
O O1 0.500000 0.906567 0.250000
O O2 0.262556 0.972426 0.322122
O O3 0.233335 0.891861 0.155127
O O4 0.389992 0.018350 0.145443
O O5 0.523773 0.839954 0.595891
O O6 0.736477 0.868884 0.725983
O O7 0.793997 0.897728 0.540601
O O8 0.247710 0.275971 0.865037
O O9 0.031337 0.193367 0.931604
O O10 0.000000 0.245133 0.750000
O O11 0.500000 0.299200 0.750000
O O12 0.598633 0.405729 0.619689
O O13 0.500000 0.500097 0.250000
O O14 0.487130 0.454202 0.065528
#
# Coordination Sequence:
#
# PCOD8158421 Si02
#       6
#     8   8   8   8   8   8
#     4  10  19  36  62  88 116 156 200 243 303 377
#     4  10  21  38  59  84 121 164 197 241 304 363
#     4  10  21  39  60  85 123 164 197 239 302 372
#     4   9  18  35  61  85 112 157 202 233 292 377
#     4   8  16  33  57  84 112 147 192 238 289 355
#     4  11  22  37  60  90 120 152 201 262 300 330
#
# _framework density 23.240100000000002
#
# number of rings (size 3 to 8) (size 9 to 14) (size 15 to 20)
#    0.000    2.333    0.000    5.500    0.000    2.000 
#    0.000    5.000    0.000   16.000    0.000    0.000 
#    0.000    0.000    0.000    0.000    0.000    0.000 
#
# Total GULP energy -297446.771200 kJ/mol
# GULP energy per Si atom -12393.615467 kJ/mol
# Density = 2.318720 g / cm^3
# Si number density = 23.240100 Si / 1000 Ang^3
#
#
#
# Elastic Constant Matrix: (Units=GPa)
#
#
# Indices 1 2 3 4 5 6 
#
# 1 113.3806 37.0423 0.7467 0.0000 0.0000 0.0000
# 2 37.0423 108.2832 21.7344 0.0000 0.0000 0.0000
# 3 0.7467 21.7344 45.8044 0.0000 0.0000 0.0000
# 4 0.0000 0.0000 0.0000 21.1374 0.0000 0.0000
# 5 0.0000 0.0000 0.0000 0.0000 26.2255 0.0000
# 6 0.0000 0.0000 0.0000 0.0000 0.0000 32.7871
#
#
#
# Elastic Compliance Matrix: (Units=1/GPa)
#
#
# Indices 1 2 3 4 5 6 
#
# 1 0.010037 -0.003759 0.001620 0.000000 0.000000 0.000000
# 2 -0.003759 0.011615 -0.005450 0.000000 0.000000 0.000000
# 3 0.001620 -0.005450 0.024392 0.000000 0.000000 0.000000
# 4 0.000000 0.000000 0.000000 0.047309 0.000000 0.000000
# 5 0.000000 0.000000 0.000000 0.000000 0.038131 0.000000
# 6 0.000000 0.000000 0.000000 0.000000 0.000000 0.030500
#
#
# Mechanical properties :
#
#
# Convention : Reuss Voigt Hill
#
# Bulk Modulus (GPa) = 32.39817 42.94612 37.67214
# Shear Modulus (GPa) = 26.67379 29.89299 28.28339
#
# Velocity S-wave (km/s) = 3.39152 3.59035 3.49235
# Velocity P-wave (km/s) = 5.41363 5.97553 5.70151
#
# Compressibility (1/GPa) = 0.03086594
#
# Stress axis : x y z
#
# Youngs Moduli (GPa) = 99.62943 86.09730 40.99769
#
# Poissons Ratio (x) = 0.32362 -0.06641
# Poissons Ratio (y) = 0.37448 0.22344
# Poissons Ratio (z) = -0.16139 0.46923
#
# Static dielectric constant tensor:
#      x y z
#    x 5.150220 0.000000 0.000000 
#    y 0.000000 4.437030 0.000000 
#    z 0.000000 0.000000 3.820660 
# 
# 
# High freq. dielectric constant tensor:
#      x y z
#    x 1.924560 0.000000 0.000000 
#    y 0.000000 1.907260 0.000000 
#    z 0.000000 0.000000 1.889060 
# 
# From -- ./inp_files/18883.got.cif
#   From: 2010.03.12/outbox.cif.g09.slc.cpg/sg20_10_cif.got.tgz:18883.got - 2010.04.14 01:38:04.
