data_PCOD8158038
_publ_section_title
;
Structure prediction by ZEFSAII (Michael W. Deem and Ramdas Pophale) SiO2 
 PCOD8158038
Probable space group: C 2 2 21
;
_chemical_formula_sum "Si O2"
_cell_formula_units_Z 40
_cell_length_a 7.750238
_cell_length_b 24.185588
_cell_length_c 8.627985
_cell_angle_alpha 90.000000
_cell_angle_beta 90.000000
_cell_angle_gamma 90.000000
_cell_volume 1617.264565
_symmetry_space_group_name_H-M "C 2 2 21"
_symmetry_group_IT_number 20
_symmetry_cell_setting 'orthorhombic'
loop_
_space_group_symop_operation_xyz
x,y,z
-x,-y,1/2+z
x,-y,-z
-x,y,1/2-z
1/2+x,1/2+y,z
1/2-x,1/2-y,1/2+z
1/2+x,1/2-y,-z
1/2-x,1/2+y,1/2-z
loop_
_atom_site_type_symbol
_atom_site_label
_atom_site_fract_x
_atom_site_fract_y
_atom_site_fract_z
Si Si1 0.357571 0.667852 0.554986
Si Si2 0.839536 0.652806 0.646871
Si Si3 0.732993 0.941941 0.582663
Si Si4 0.457230 0.229907 0.073884
Si Si5 0.326850 0.941257 0.569008
O O1 0.308661 0.672480 0.735842
O O2 0.354999 0.604723 0.495125
O O3 0.536647 0.702943 0.538986
O O4 0.227401 0.704680 0.455552
O O5 0.749272 0.604900 0.544294
O O6 0.000000 0.628928 0.750000
O O7 0.901183 0.702621 0.539380
O O8 0.531125 0.928049 0.568236
O O9 0.769346 0.941648 0.765913
O O10 0.778413 0.000000 0.500000
O O11 0.500000 0.214639 0.250000
O O12 0.285395 0.000000 0.500000
#
# Coordination Sequence:
#
# PCOD8158038 Si02
#       5
#     8   8   8   8   8
#     4  11  22  37  59  87 121 156 198 244 293 355
#     4  10  19  32  49  77 115 150 189 237 290 347
#     4  10  19  32  55  84 117 153 197 247 298 345
#     4  11  22  38  57  85 118 159 197 241 293 346
#     4  10  18  28  51  80 118 153 188 246 303 343
#
# _framework density 24.733121000000001
#
# number of rings (size 3 to 8) (size 9 to 14) (size 15 to 20)
#    0.000    1.600    4.000    3.600    2.800    0.000 
#    0.000    2.000    0.000    0.000    0.000   19.600 
#    0.000    0.000    0.000    0.000    0.000    0.000 
#
# Total GULP energy -247902.388243 kJ/mol
# GULP energy per Si atom -12395.119412 kJ/mol
# Density = 2.467683 g / cm^3
# Si number density = 24.733121 Si / 1000 Ang^3
#
#
#
# Elastic Constant Matrix: (Units=GPa)
#
#
# Indices 1 2 3 4 5 6 
#
# 1 12.3742 13.6543 -1.7148 0.0000 0.0000 0.0000
# 2 13.6543 155.8428 59.3124 0.0000 0.0000 0.0000
# 3 -1.7148 59.3124 179.9914 0.0000 0.0000 0.0000
# 4 0.0000 0.0000 0.0000 34.8123 0.0000 0.0000
# 5 0.0000 0.0000 0.0000 0.0000 16.4285 0.0000
# 6 0.0000 0.0000 0.0000 0.0000 0.0000 -250.0083
#
#
#
# Elastic Compliance Matrix: (Units=1/GPa)
#
#
# Indices 1 2 3 4 5 6 
#
# 1 0.091959 -0.009594 0.004037 0.000000 0.000000 0.000000
# 2 -0.009594 0.008338 -0.002839 0.000000 0.000000 0.000000
# 3 0.004037 -0.002839 0.006530 0.000000 0.000000 0.000000
# 4 0.000000 0.000000 0.000000 0.028725 0.000000 0.000000
# 5 0.000000 0.000000 0.000000 0.000000 0.060870 0.000000
# 6 0.000000 0.000000 0.000000 0.000000 0.000000 -0.004000
#
#
# Mechanical properties :
#
#
# Convention : Reuss Voigt Hill
#
# Bulk Modulus (GPa) = 11.10665 54.52360 32.81513
# Shear Modulus (GPa) = 20.90090 -21.28973 -0.19441
#
# Velocity S-wave (km/s) = 2.91014 -2.93708 -0.28067
# Velocity P-wave (km/s) = 3.97394 3.25433 3.63200
#
# Compressibility (1/GPa) = 0.09003617
#
# Stress axis : x y z
#
# Youngs Moduli (GPa) = 10.87442 119.93633 153.14413
#
# Poissons Ratio (x) = 1.15063 -0.61832
# Poissons Ratio (y) = 0.10433 0.43477
# Poissons Ratio (z) = -0.04391 0.34049
#
# Static dielectric constant tensor:
#      x y z
#    x 4.327160 0.000000 0.000000 
#    y 0.000000 4.477640 0.000000 
#    z 0.000000 0.000000 5.395490 
# 
# 
# High freq. dielectric constant tensor:
#      x y z
#    x 1.957820 0.000000 0.000000 
#    y 0.000000 1.995830 0.000000 
#    z 0.000000 0.000000 2.004180 
# 
# From -- ./inp_files/7221.got.cif
#   From: 2010.03.12/outbox.cif.g09.slc.cpg/sg20_4_cif.got.tgz:7221.got - 2010.04.14 01:38:04.
