data_PCOD8158547
_publ_section_title
;
Structure prediction by ZEFSAII (Michael W. Deem and Ramdas Pophale) SiO2 
 PCOD8158547
Probable space group: C 2 2 21
;
_chemical_formula_sum "Si O2"
_cell_formula_units_Z 56
_cell_length_a 6.215793
_cell_length_b 23.328346
_cell_length_c 21.621333
_cell_angle_alpha 90.000000
_cell_angle_beta 90.000000
_cell_angle_gamma 90.000000
_cell_volume 3135.183441
_symmetry_space_group_name_H-M "C 2 2 21"
_symmetry_group_IT_number 20
_symmetry_cell_setting 'orthorhombic'
loop_
_space_group_symop_operation_xyz
x,y,z
-x,-y,1/2+z
x,-y,-z
-x,y,1/2-z
1/2+x,1/2+y,z
1/2-x,1/2-y,1/2+z
1/2+x,1/2-y,-z
1/2-x,1/2+y,1/2-z
loop_
_atom_site_type_symbol
_atom_site_label
_atom_site_fract_x
_atom_site_fract_y
_atom_site_fract_z
Si Si1 0.687454 0.775177 0.649319
Si Si2 0.005460 0.934875 0.048907
Si Si3 0.932355 0.773183 0.942324
Si Si4 0.739305 0.543411 0.428370
Si Si5 0.000000 0.198616 0.250000
Si Si6 0.571918 0.692807 0.924687
Si Si7 0.882144 0.500000 0.000000
Si Si8 0.299004 0.147979 0.352034
O O1 0.529088 0.721758 0.636951
O O2 0.545708 0.832916 0.662172
O O3 0.837937 0.782199 0.589488
O O4 0.836570 0.762618 0.709397
O O5 0.029826 0.874541 0.083263
O O6 0.847348 0.978716 0.086069
O O7 0.922770 0.927420 0.978125
O O8 0.242326 0.961502 0.046339
O O9 0.825449 0.710063 0.929699
O O10 0.763412 0.818375 0.914440
O O11 0.949370 0.783130 0.015124
O O12 0.767579 0.580480 0.366209
O O13 0.974334 0.541707 0.458324
O O14 0.859757 0.159433 0.204707
#
# Coordination Sequence:
#
# PCOD8158547 Si02
#       8
#     8   8   8   8   4   8   4   8
#     4  10  22  35  52  81 113 144 186 234 283 341
#     4   9  19  31  47  77 119 145 181 218 273 341
#     4  10  20  29  48  81 112 147 176 216 279 340
#     4   9  18  32  50  79 108 150 182 224 275 337
#     4  10  22  40  56  84 102 142 194 240 292 330
#     4  11  19  31  50  79 117 150 181 228 281 347
#     4   8  18  28  44  72 112 154 176 210 272 346
#     4  10  20  35  58  77 109 141 186 239 280 338
#
# _framework density 17.861795000000001
#
# number of rings (size 3 to 8) (size 9 to 14) (size 15 to 20)
#    0.000    2.571    2.857    0.429    2.000    3.429 
#    0.000    0.000    0.000    0.000   14.857    0.000 
#    0.000    0.000    0.000    0.000    0.000    0.000 
#
# Total GULP energy -346981.585063 kJ/mol
# GULP energy per Si atom -12392.199467 kJ/mol
# Density = 1.782114 g / cm^3
# Si number density = 17.861795 Si / 1000 Ang^3
#
#
#
# Elastic Constant Matrix: (Units=GPa)
#
#
# Indices 1 2 3 4 5 6 
#
# 1 101.9125 33.4722 30.3427 0.0000 0.0000 0.0000
# 2 33.4722 113.3761 30.6329 0.0000 0.0000 0.0000
# 3 30.3427 30.6329 75.0922 0.0000 0.0000 0.0000
# 4 0.0000 0.0000 0.0000 20.4418 0.0000 0.0000
# 5 0.0000 0.0000 0.0000 0.0000 29.0900 0.0000
# 6 0.0000 0.0000 0.0000 0.0000 0.0000 17.8474
#
#
#
# Elastic Compliance Matrix: (Units=1/GPa)
#
#
# Indices 1 2 3 4 5 6 
#
# 1 0.011731 -0.002453 -0.003740 0.000000 0.000000 0.000000
# 2 -0.002453 0.010426 -0.003262 0.000000 0.000000 0.000000
# 3 -0.003740 -0.003262 0.016159 0.000000 0.000000 0.000000
# 4 0.000000 0.000000 0.000000 0.048919 0.000000 0.000000
# 5 0.000000 0.000000 0.000000 0.000000 0.034376 0.000000
# 6 0.000000 0.000000 0.000000 0.000000 0.000000 0.056031
#
#
# Mechanical properties :
#
#
# Convention : Reuss Voigt Hill
#
# Bulk Modulus (GPa) = 51.52849 53.25294 52.39071
# Shear Modulus (GPa) = 24.62811 26.53803 25.58307
#
# Velocity S-wave (km/s) = 3.71727 3.85871 3.78865
# Velocity P-wave (km/s) = 6.88006 7.05206 6.96659
#
# Compressibility (1/GPa) = 0.01940674
#
# Stress axis : x y z
#
# Youngs Moduli (GPa) = 85.24094 95.91652 61.88622
#
# Poissons Ratio (x) = 0.23529 0.23143
# Poissons Ratio (y) = 0.20910 0.20186
# Poissons Ratio (z) = 0.31877 0.31286
#
# Static dielectric constant tensor:
#      x y z
#    x 3.578330 0.000000 0.000000 
#    y 0.000000 3.176670 0.000000 
#    z 0.000000 0.000000 3.059080 
# 
# 
# High freq. dielectric constant tensor:
#      x y z
#    x 1.712410 0.000000 0.000000 
#    y 0.000000 1.667170 0.000000 
#    z 0.000000 0.000000 1.653240 
# 
# From -- ./inp_files/28436.got.cif
#   From: 2010.03.12/outbox.cif.g09.slc.cpg/sg20_15_cif.got.tgz:28436.got - 2010.04.14 01:38:04.
