data_PCOD8158451
_publ_section_title
;
Structure prediction by ZEFSAII (Michael W. Deem and Ramdas Pophale) SiO2 
 PCOD8158451
Probable space group: C 2 2 21
;
_chemical_formula_sum "Si O2"
_cell_formula_units_Z 64
_cell_length_a 29.798365
_cell_length_b 17.623053
_cell_length_c 6.185518
_cell_angle_alpha 90.000000
_cell_angle_beta 90.000000
_cell_angle_gamma 90.000000
_cell_volume 3248.251576
_symmetry_space_group_name_H-M "C 2 2 21"
_symmetry_group_IT_number 20
_symmetry_cell_setting 'orthorhombic'
loop_
_space_group_symop_operation_xyz
x,y,z
-x,-y,1/2+z
x,-y,-z
-x,y,1/2-z
1/2+x,1/2+y,z
1/2-x,1/2-y,1/2+z
1/2+x,1/2-y,-z
1/2-x,1/2+y,1/2-z
loop_
_atom_site_type_symbol
_atom_site_label
_atom_site_fract_x
_atom_site_fract_y
_atom_site_fract_z
Si Si1 0.684554 0.826811 0.205296
Si Si2 0.819067 0.849383 0.728720
Si Si3 0.764936 0.575787 0.393918
Si Si4 0.650524 0.078726 0.399239
Si Si5 0.392053 0.811470 0.612558
Si Si6 0.900901 0.911248 0.467128
Si Si7 0.613955 0.321131 0.419745
Si Si8 0.948699 0.783049 0.694128
O O1 0.693979 0.737901 0.203112
O O2 0.674706 0.862511 0.438660
O O3 0.727227 0.864350 0.087901
O O4 0.640077 0.842574 0.070933
O O5 0.772876 0.895504 0.727907
O O6 0.851660 0.882353 0.543153
O O7 0.843763 0.856945 0.959117
O O8 0.745859 0.500000 0.500000
O O9 0.811064 0.557178 0.271727
O O10 0.606637 0.118458 0.285039
O O11 0.632934 0.000000 0.500000
O O12 0.370845 0.740398 0.741356
O O13 0.436598 0.782197 0.485590
O O14 0.907780 0.891377 0.213131
O O15 0.939513 0.866852 0.599277
O O16 0.907429 0.000000 0.500000
O O17 0.580453 0.277910 0.585945
O O18 0.000000 0.771269 0.750000
#
# Coordination Sequence:
#
# PCOD8158451 Si02
#       8
#     8   8   8   8   8   8   8   8
#     4  11  21  40  56  83 122 159 210 256 312 373
#     4  11  23  37  58  83 115 165 213 262 308 371
#     4  11  26  37  53  87 122 164 214 269 320 371
#     4  11  22  39  59  83 127 161 202 272 311 376
#     4  10  19  37  63  88 120 152 206 252 307 383
#     4  10  23  40  57  87 120 167 212 251 310 379
#     4  10  19  39  61  83 121 158 203 256 301 369
#     4  10  21  39  62  95 127 154 209 258 308 374
#
# _framework density 19.702908000000001
#
# number of rings (size 3 to 8) (size 9 to 14) (size 15 to 20)
#    0.000    1.500    6.250    0.000    3.500    5.000 
#    2.250    0.000    0.000    0.000    0.000    0.000 
#   52.500    0.000    0.000    0.000    0.000    0.000 
#
# Total GULP energy -396505.046190 kJ/mol
# GULP energy per Si atom -12390.782693 kJ/mol
# Density = 1.965806 g / cm^3
# Si number density = 19.702908 Si / 1000 Ang^3
#
#
#
# Elastic Constant Matrix: (Units=GPa)
#
#
# Indices 1 2 3 4 5 6 
#
# 1 85.3448 41.3483 27.5987 0.0000 0.0000 0.0000
# 2 41.3483 123.6229 35.0708 0.0000 0.0000 0.0000
# 3 27.5987 35.0708 90.4895 0.0000 0.0000 0.0000
# 4 0.0000 0.0000 0.0000 38.3013 0.0000 0.0000
# 5 0.0000 0.0000 0.0000 0.0000 19.8986 0.0000
# 6 0.0000 0.0000 0.0000 0.0000 0.0000 17.2116
#
#
#
# Elastic Compliance Matrix: (Units=1/GPa)
#
#
# Indices 1 2 3 4 5 6 
#
# 1 0.014622 -0.004073 -0.002881 0.000000 0.000000 0.000000
# 2 -0.004073 0.010223 -0.002720 0.000000 0.000000 0.000000
# 3 -0.002881 -0.002720 0.012984 0.000000 0.000000 0.000000
# 4 0.000000 0.000000 0.000000 0.026109 0.000000 0.000000
# 5 0.000000 0.000000 0.000000 0.000000 0.050255 0.000000
# 6 0.000000 0.000000 0.000000 0.000000 0.000000 0.058100
#
#
# Mechanical properties :
#
#
# Convention : Reuss Voigt Hill
#
# Bulk Modulus (GPa) = 54.11008 56.38810 55.24909
# Shear Modulus (GPa) = 25.27783 28.11160 26.69471
#
# Velocity S-wave (km/s) = 3.58571 3.78136 3.68484
# Velocity P-wave (km/s) = 6.68324 6.90987 6.79750
#
# Compressibility (1/GPa) = 0.01848085
#
# Stress axis : x y z
#
# Youngs Moduli (GPa) = 68.38850 97.81726 77.01914
#
# Poissons Ratio (x) = 0.39845 0.22189
# Poissons Ratio (y) = 0.27858 0.20948
# Poissons Ratio (z) = 0.19703 0.26604
#
# Static dielectric constant tensor:
#      x y z
#    x 3.179260 0.000000 0.000000 
#    y 0.000000 3.693950 0.000000 
#    z 0.000000 0.000000 4.041440 
# 
# 
# High freq. dielectric constant tensor:
#      x y z
#    x 1.719480 0.000000 0.000000 
#    y 0.000000 1.768620 0.000000 
#    z 0.000000 0.000000 1.789950 
# 
# From -- ./inp_files/2920.got.cif
#   From: 2010.03.12/outbox.cif.g09.slc.cpg/sg20_2_cif.got.tgz:2920.got - 2010.04.14 01:38:04.
