data_PCOD8158191
_publ_section_title
;
Structure prediction by ZEFSAII (Michael W. Deem and Ramdas Pophale) SiO2 
 PCOD8158191
Probable space group: C 2 2 21
;
_chemical_formula_sum "Si O2"
_cell_formula_units_Z 64
_cell_length_a 16.003611
_cell_length_b 11.205480
_cell_length_c 19.221744
_cell_angle_alpha 90.000000
_cell_angle_beta 90.000000
_cell_angle_gamma 90.000000
_cell_volume 3446.999657
_symmetry_space_group_name_H-M "C 2 2 21"
_symmetry_group_IT_number 20
_symmetry_cell_setting 'orthorhombic'
loop_
_space_group_symop_operation_xyz
x,y,z
-x,-y,1/2+z
x,-y,-z
-x,y,1/2-z
1/2+x,1/2+y,z
1/2-x,1/2-y,1/2+z
1/2+x,1/2-y,-z
1/2-x,1/2+y,1/2-z
loop_
_atom_site_type_symbol
_atom_site_label
_atom_site_fract_x
_atom_site_fract_y
_atom_site_fract_z
Si Si1 0.629752 0.779217 0.152864
Si Si2 0.271243 0.604532 0.590071
Si Si3 0.514329 0.592366 0.327504
Si Si4 0.136803 0.700397 0.687388
Si Si5 0.268074 0.161524 0.062858
Si Si6 0.545095 0.419663 0.067172
Si Si7 0.454669 0.177173 0.041546
Si Si8 0.508930 0.936012 0.396344
O O1 0.564827 0.670808 0.149436
O O2 0.655861 0.810880 0.231188
O O3 0.712540 0.746658 0.110773
O O4 0.585967 0.893987 0.117362
O O5 0.223660 0.684649 0.646771
O O6 0.229492 0.474048 0.590331
O O7 0.266773 0.667240 0.515146
O O8 0.368741 0.596129 0.609901
O O9 0.500000 0.542562 0.250000
O O10 0.598908 0.669762 0.331182
O O11 0.521404 0.482747 0.381308
O O12 0.068323 0.599299 0.668290
O O13 0.361839 0.211568 0.065707
O O14 0.511457 0.293232 0.042687
O O15 0.563683 0.500000 0.000000
O O16 0.493800 0.078134 0.093057
O O17 0.450295 0.127811 0.963332
#
# Coordination Sequence:
#
# PCOD8158191 Si02
#       8
#     8   8   8   8   8   8   8   8
#     4  10  20  36  63  87 117 156 201 245 295 364
#     4  11  19  36  64  86 114 153 207 245 287 359
#     4   9  19  37  58  83 116 154 195 234 289 359
#     4  10  19  36  63  88 112 160 206 238 291 364
#     4  11  19  37  57  91 115 151 199 253 292 343
#     4  12  22  37  60  90 115 156 196 247 301 356
#     4  11  22  35  62  89 119 149 200 255 301 343
#     4  10  18  38  60  89 114 154 202 248 296 361
#
# _framework density 18.566872
#
# number of rings (size 3 to 8) (size 9 to 14) (size 15 to 20)
#    0.000    1.500    5.000    4.125    0.000    0.000 
#    2.250    3.750    2.750    0.000    0.000    0.000 
#    0.000    0.000    0.000    0.000    0.000    0.000 
#
# Total GULP energy -396906.415806 kJ/mol
# GULP energy per Si atom -12403.325494 kJ/mol
# Density = 1.852461 g / cm^3
# Si number density = 18.566872 Si / 1000 Ang^3
#
#
#
# Elastic Constant Matrix: (Units=GPa)
#
#
# Indices 1 2 3 4 5 6 
#
# 1 110.6312 43.3000 50.5036 0.0000 0.0000 0.0000
# 2 43.3000 83.5600 40.7146 0.0000 0.0000 0.0000
# 3 50.5036 40.7146 104.4422 0.0000 0.0000 0.0000
# 4 0.0000 0.0000 0.0000 24.7823 0.0000 0.0000
# 5 0.0000 0.0000 0.0000 0.0000 30.9346 0.0000
# 6 0.0000 0.0000 0.0000 0.0000 0.0000 24.3530
#
#
#
# Elastic Compliance Matrix: (Units=1/GPa)
#
#
# Indices 1 2 3 4 5 6 
#
# 1 0.012825 -0.004474 -0.004458 0.000000 0.000000 0.000000
# 2 -0.004474 0.016334 -0.004204 0.000000 0.000000 0.000000
# 3 -0.004458 -0.004204 0.013369 0.000000 0.000000 0.000000
# 4 0.000000 0.000000 0.000000 0.040351 0.000000 0.000000
# 5 0.000000 0.000000 0.000000 0.000000 0.032326 0.000000
# 6 0.000000 0.000000 0.000000 0.000000 0.000000 0.041063
#
#
# Mechanical properties :
#
#
# Convention : Reuss Voigt Hill
#
# Bulk Modulus (GPa) = 61.51164 63.07441 62.29303
# Shear Modulus (GPa) = 26.60157 26.95499 26.77828
#
# Velocity S-wave (km/s) = 3.78927 3.81436 3.80183
# Velocity P-wave (km/s) = 7.23508 7.31056 7.27292
#
# Compressibility (1/GPa) = 0.01625708
#
# Stress axis : x y z
#
# Youngs Moduli (GPa) = 77.97308 61.22102 74.79956
#
# Poissons Ratio (x) = 0.27389 0.33342
# Poissons Ratio (y) = 0.34884 0.31447
# Poissons Ratio (z) = 0.34757 0.25739
#
# Static dielectric constant tensor:
#      x y z
#    x 3.325540 0.000000 0.000000 
#    y 0.000000 3.258840 0.000000 
#    z 0.000000 0.000000 3.423940 
# 
# 
# High freq. dielectric constant tensor:
#      x y z
#    x 1.714770 0.000000 0.000000 
#    y 0.000000 1.698050 0.000000 
#    z 0.000000 0.000000 1.719600 
# 
# From -- ./inp_files/24975.got.cif
#   From: 2010.03.12/outbox.cif.g09.slc.cpg/sg20_13_cif.got.tgz:24975.got - 2010.04.14 01:38:04.
