data_PCOD8158461
_publ_section_title
;
Structure prediction by ZEFSAII (Michael W. Deem and Ramdas Pophale) SiO2 
 PCOD8158461
Probable space group: C 2 2 21
;
_chemical_formula_sum "Si O2"
_cell_formula_units_Z 48
_cell_length_a 9.827803
_cell_length_b 16.327113
_cell_length_c 14.436185
_cell_angle_alpha 90.000000
_cell_angle_beta 90.000000
_cell_angle_gamma 90.000000
_cell_volume 2316.425194
_symmetry_space_group_name_H-M "C 2 2 21"
_symmetry_group_IT_number 20
_symmetry_cell_setting 'orthorhombic'
loop_
_space_group_symop_operation_xyz
x,y,z
-x,-y,1/2+z
x,-y,-z
-x,y,1/2-z
1/2+x,1/2+y,z
1/2-x,1/2-y,1/2+z
1/2+x,1/2-y,-z
1/2-x,1/2+y,1/2-z
loop_
_atom_site_type_symbol
_atom_site_label
_atom_site_fract_x
_atom_site_fract_y
_atom_site_fract_z
Si Si1 0.500000 0.625126 0.750000
Si Si2 0.055298 0.172445 0.552501
Si Si3 0.373577 0.094686 0.309190
Si Si4 0.010544 0.547836 0.589847
Si Si5 0.854342 0.691570 0.494058
Si Si6 0.780477 0.991541 0.321127
Si Si7 0.452966 0.500000 0.500000
O O1 0.524534 0.681868 0.661336
O O2 0.632099 0.568651 0.758699
O O3 0.203875 0.209007 0.532314
O O4 0.937864 0.224150 0.501922
O O5 0.049119 0.078022 0.519729
O O6 0.500000 0.129417 0.250000
O O7 0.336498 0.159080 0.388859
O O8 0.402967 0.006734 0.354988
O O9 0.251464 0.074697 0.237233
O O10 0.062885 0.500000 0.500000
O O11 0.144600 0.560134 0.652524
O O12 0.936858 0.631329 0.561596
O O13 0.860655 0.020315 0.411884
#
# Coordination Sequence:
#
# PCOD8158461 Si02
#       7
#     4   8   8   8   8   8   4
#     4  10  24  40  66  92 136 168 220 278 342 384
#     4  11  27  45  67  97 134 178 221 280 338 403
#     4   9  20  36  65  99 130 170 219 272 331 399
#     4   9  18  35  63  95 128 172 216 264 325 406
#     4  11  25  41  69  95 140 175 228 275 343 393
#     4  10  19  37  66  96 127 170 225 271 324 403
#     4  10  24  42  68  92 134 178 224 268 338 402
#
# _framework density 20.721584
#
# number of rings (size 3 to 8) (size 9 to 14) (size 15 to 20)
#    0.000    2.000    0.833    1.000   14.000    0.000 
#    0.000    0.000    0.000    0.000    0.000    0.000 
#    0.000    0.000    0.000    0.000    0.000    0.000 
#
# Total GULP energy -297597.842093 kJ/mol
# GULP energy per Si atom -12399.910087 kJ/mol
# Density = 2.067442 g / cm^3
# Si number density = 20.721584 Si / 1000 Ang^3
#
#
#
# Elastic Constant Matrix: (Units=GPa)
#
#
# Indices 1 2 3 4 5 6 
#
# 1 127.8286 46.0806 23.6685 0.0000 0.0000 0.0000
# 2 46.0806 84.6534 25.5039 0.0000 0.0000 0.0000
# 3 23.6685 25.5039 62.9182 0.0000 0.0000 0.0000
# 4 0.0000 0.0000 0.0000 24.2865 0.0000 0.0000
# 5 0.0000 0.0000 0.0000 0.0000 31.2880 0.0000
# 6 0.0000 0.0000 0.0000 0.0000 0.0000 21.1341
#
#
#
# Elastic Compliance Matrix: (Units=1/GPa)
#
#
# Indices 1 2 3 4 5 6 
#
# 1 0.009900 -0.004861 -0.001754 0.000000 0.000000 0.000000
# 2 -0.004861 0.015843 -0.004593 0.000000 0.000000 0.000000
# 3 -0.001754 -0.004593 0.018415 0.000000 0.000000 0.000000
# 4 0.000000 0.000000 0.000000 0.041175 0.000000 0.000000
# 5 0.000000 0.000000 0.000000 0.000000 0.031961 0.000000
# 6 0.000000 0.000000 0.000000 0.000000 0.000000 0.047317
#
#
# Mechanical properties :
#
#
# Convention : Reuss Voigt Hill
#
# Bulk Modulus (GPa) = 45.99354 51.76737 48.88046
# Shear Modulus (GPa) = 25.73685 27.35153 26.54419
#
# Velocity S-wave (km/s) = 3.52807 3.63706 3.58298
# Velocity P-wave (km/s) = 6.23222 6.53255 6.38415
#
# Compressibility (1/GPa) = 0.02174219
#
# Stress axis : x y z
#
# Youngs Moduli (GPa) = 101.01121 63.12113 54.30250
#
# Poissons Ratio (x) = 0.30680 0.09524
# Poissons Ratio (y) = 0.49097 0.24943
# Poissons Ratio (z) = 0.17716 0.28994
#
# Static dielectric constant tensor:
#      x y z
#    x 3.675050 0.000000 0.000000 
#    y 0.000000 3.381350 0.000000 
#    z 0.000000 0.000000 4.197930 
# 
# 
# High freq. dielectric constant tensor:
#      x y z
#    x 1.813460 0.000000 0.000000 
#    y 0.000000 1.780810 0.000000 
#    z 0.000000 0.000000 1.828740 
# 
# From -- ./inp_files/18931.got.cif
#   From: 2010.03.12/outbox.cif.g09.slc.cpg/sg20_10_cif.got.tgz:18931.got - 2010.04.14 01:38:04.
