data_PCOD8158084
_publ_section_title
;
Structure prediction by ZEFSAII (Michael W. Deem and Ramdas Pophale) SiO2 
 PCOD8158084
Probable space group: C 2 2 21
;
_chemical_formula_sum "Si O2"
_cell_formula_units_Z 40
_cell_length_a 19.083547
_cell_length_b 12.204045
_cell_length_c 7.571678
_cell_angle_alpha 90.000000
_cell_angle_beta 90.000000
_cell_angle_gamma 90.000000
_cell_volume 1763.417051
_symmetry_space_group_name_H-M "C 2 2 21"
_symmetry_group_IT_number 20
_symmetry_cell_setting 'orthorhombic'
loop_
_space_group_symop_operation_xyz
x,y,z
-x,-y,1/2+z
x,-y,-z
-x,y,1/2-z
1/2+x,1/2+y,z
1/2-x,1/2-y,1/2+z
1/2+x,1/2-y,-z
1/2-x,1/2+y,1/2-z
loop_
_atom_site_type_symbol
_atom_site_label
_atom_site_fract_x
_atom_site_fract_y
_atom_site_fract_z
Si Si1 0.902892 0.437415 0.752817
Si Si2 0.536288 0.738533 0.923154
Si Si3 0.743845 0.905096 0.884208
Si Si4 0.174174 0.779145 0.891470
Si Si5 0.581096 0.836466 0.386095
O O1 0.949920 0.367612 0.617395
O O2 0.828118 0.464258 0.668799
O O3 0.943066 0.549610 0.796773
O O4 0.887470 0.360030 0.921061
O O5 0.500000 0.680954 0.750000
O O6 0.609253 0.680329 0.981386
O O7 0.483513 0.749574 0.090217
O O8 0.786909 0.880493 0.703761
O O9 0.728932 0.793439 0.995166
O O10 0.783488 0.000000 0.000000
O O11 0.142675 0.712119 0.729628
#
# Coordination Sequence:
#
# PCOD8158084 Si02
#       5
#     8   8   8   8   8
#     4   9  19  33  52  85 124 169 197 255 325 385
#     4   9  20  33  53  88 128 163 205 259 320 387
#     4  11  22  41  58  85 131 169 219 260 312 385
#     4  11  22  36  59  86 122 174 213 259 321 378
#     4  10  18  32  55  87 123 158 205 256 320 380
#
# _framework density 22.683233000000001
#
# number of rings (size 3 to 8) (size 9 to 14) (size 15 to 20)
#    0.000    2.000    2.000    1.800    0.000    9.600 
#    0.000    0.000    0.000    0.000    0.000   25.200 
#    0.000    0.000    0.000    0.000    0.000    0.000 
#
# Total GULP energy -247788.001726 kJ/mol
# GULP energy per Si atom -12389.400086 kJ/mol
# Density = 2.263160 g / cm^3
# Si number density = 22.683233 Si / 1000 Ang^3
#
#
#
# Elastic Constant Matrix: (Units=GPa)
#
#
# Indices 1 2 3 4 5 6 
#
# 1 83.7561 24.2348 46.6365 0.0000 0.0000 0.0000
# 2 24.2348 33.0910 21.5289 0.0000 0.0000 0.0000
# 3 46.6365 21.5289 119.8484 0.0000 0.0000 0.0000
# 4 0.0000 0.0000 0.0000 39.3008 0.0000 0.0000
# 5 0.0000 0.0000 0.0000 0.0000 53.9279 0.0000
# 6 0.0000 0.0000 0.0000 0.0000 0.0000 6.5062
#
#
#
# Elastic Compliance Matrix: (Units=1/GPa)
#
#
# Indices 1 2 3 4 5 6 
#
# 1 0.017543 -0.009519 -0.005116 0.000000 0.000000 0.000000
# 2 -0.009519 0.039384 -0.003371 0.000000 0.000000 0.000000
# 3 -0.005116 -0.003371 0.010940 0.000000 0.000000 0.000000
# 4 0.000000 0.000000 0.000000 0.025445 0.000000 0.000000
# 5 0.000000 0.000000 0.000000 0.000000 0.018543 0.000000
# 6 0.000000 0.000000 0.000000 0.000000 0.000000 0.153700
#
#
# Mechanical properties :
#
#
# Convention : Reuss Voigt Hill
#
# Bulk Modulus (GPa) = 31.39233 46.83290 39.11261
# Shear Modulus (GPa) = 16.01613 29.56667 22.79140
#
# Velocity S-wave (km/s) = 2.66010 3.61426 3.17325
# Velocity P-wave (km/s) = 4.82745 6.17321 5.54133
#
# Compressibility (1/GPa) = 0.03185492
#
# Stress axis : x y z
#
# Youngs Moduli (GPa) = 57.00398 25.39104 91.40518
#
# Poissons Ratio (x) = 0.24170 0.46767
# Poissons Ratio (y) = 0.54262 0.30809
# Poissons Ratio (z) = 0.29166 0.08558
#
# Static dielectric constant tensor:
#      x y z
#    x 4.138070 0.000000 0.000000 
#    y 0.000000 3.413800 0.000000 
#    z 0.000000 0.000000 4.621140 
# 
# 
# High freq. dielectric constant tensor:
#      x y z
#    x 1.890980 0.000000 0.000000 
#    y 0.000000 1.814100 0.000000 
#    z 0.000000 0.000000 1.926100 
# 
# From -- ./inp_files/9121.got.cif
#   From: 2010.03.12/outbox.cif.g09.slc.cpg/sg20_5_cif.got.tgz:9121.got - 2010.04.14 01:38:04.
