data_PCOD8158600
_publ_section_title
;
Structure prediction by ZEFSAII (Michael W. Deem and Ramdas Pophale) SiO2 
 PCOD8158600
Probable space group: C 2 2 21
;
_chemical_formula_sum "Si O2"
_cell_formula_units_Z 44
_cell_length_a 15.069325
_cell_length_b 11.979780
_cell_length_c 12.380030
_cell_angle_alpha 90.000000
_cell_angle_beta 90.000000
_cell_angle_gamma 90.000000
_cell_volume 2234.932130
_symmetry_space_group_name_H-M "C 2 2 21"
_symmetry_group_IT_number 20
_symmetry_cell_setting 'orthorhombic'
loop_
_space_group_symop_operation_xyz
x,y,z
-x,-y,1/2+z
x,-y,-z
-x,y,1/2-z
1/2+x,1/2+y,z
1/2-x,1/2-y,1/2+z
1/2+x,1/2-y,-z
1/2-x,1/2+y,1/2-z
loop_
_atom_site_type_symbol
_atom_site_label
_atom_site_fract_x
_atom_site_fract_y
_atom_site_fract_z
Si Si1 0.026143 0.000000 0.500000
Si Si2 0.833984 0.158514 0.089265
Si Si3 0.261473 0.959179 0.774454
Si Si4 0.781993 0.242381 0.425238
Si Si5 0.641757 0.412821 0.084788
Si Si6 0.105777 0.646891 0.742671
O O1 0.080240 0.918168 0.576632
O O2 0.964932 0.928289 0.416197
O O3 0.863960 0.274140 0.144350
O O4 0.760748 0.091888 0.158188
O O5 0.796221 0.177434 0.968044
O O6 0.186456 0.054812 0.800842
O O7 0.356465 0.021650 0.774836
O O8 0.262609 0.858785 0.860129
O O9 0.830290 0.207527 0.538432
O O10 0.854902 0.305431 0.354207
O O11 0.684610 0.500000 0.000000
O O12 0.000000 0.640950 0.750000
#
# Coordination Sequence:
#
# PCOD8158600 Si02
#       6
#     4   8   8   8   8   8
#     4  10  20  34  56  92 116 142 198 256 294 342
#     4  11  22  36  63  90 117 156 208 251 304 361
#     4  10  21  39  61  82 124 161 195 245 313 366
#     4  10  20  40  62  86 117 162 200 245 309 365
#     4   8  17  35  57  76 113 149 187 231 307 346
#     4  11  23  38  63  92 118 162 210 247 302 377
#
# _framework density 19.6874
#
# number of rings (size 3 to 8) (size 9 to 14) (size 15 to 20)
#    0.545    1.455    1.818    2.182    2.545    0.000 
#    0.000    5.455    0.000    0.000    0.000    0.000 
#    0.000    0.000    0.000    0.000    0.000    0.000 
#
# Total GULP energy -272611.002444 kJ/mol
# GULP energy per Si atom -12391.409202 kJ/mol
# Density = 1.964259 g / cm^3
# Si number density = 19.687400 Si / 1000 Ang^3
#
#
#
# Elastic Constant Matrix: (Units=GPa)
#
#
# Indices 1 2 3 4 5 6 
#
# 1 129.5833 51.3422 46.2838 0.0000 0.0000 0.0000
# 2 51.3422 84.9170 38.1686 0.0000 0.0000 0.0000
# 3 46.2838 38.1686 84.5583 0.0000 0.0000 0.0000
# 4 0.0000 0.0000 0.0000 24.0488 0.0000 0.0000
# 5 0.0000 0.0000 0.0000 0.0000 26.9995 0.0000
# 6 0.0000 0.0000 0.0000 0.0000 0.0000 28.8800
#
#
#
# Elastic Compliance Matrix: (Units=1/GPa)
#
#
# Indices 1 2 3 4 5 6 
#
# 1 0.011043 -0.004968 -0.003802 0.000000 0.000000 0.000000
# 2 -0.004968 0.017009 -0.004958 0.000000 0.000000 0.000000
# 3 -0.003802 -0.004958 0.016145 0.000000 0.000000 0.000000
# 4 0.000000 0.000000 0.000000 0.041582 0.000000 0.000000
# 5 0.000000 0.000000 0.000000 0.000000 0.037038 0.000000
# 6 0.000000 0.000000 0.000000 0.000000 0.000000 0.034626
#
#
# Mechanical properties :
#
#
# Convention : Reuss Voigt Hill
#
# Bulk Modulus (GPa) = 59.73509 63.40531 61.57020
# Shear Modulus (GPa) = 26.24941 26.86993 26.55967
#
# Velocity S-wave (km/s) = 3.65541 3.69837 3.67695
# Velocity P-wave (km/s) = 6.94433 7.10726 7.02627
#
# Compressibility (1/GPa) = 0.01674058
#
# Stress axis : x y z
#
# Youngs Moduli (GPa) = 90.55106 58.79394 61.93711
#
# Poissons Ratio (x) = 0.29209 0.23550
# Poissons Ratio (y) = 0.44986 0.30709
# Poissons Ratio (z) = 0.34430 0.29151
#
# Static dielectric constant tensor:
#      x y z
#    x 3.376940 0.000000 0.000000 
#    y 0.000000 3.628890 0.000000 
#    z 0.000000 0.000000 3.472840 
# 
# 
# High freq. dielectric constant tensor:
#      x y z
#    x 1.751750 0.000000 0.000000 
#    y 0.000000 1.764340 0.000000 
#    z 0.000000 0.000000 1.759910 
# 
# From -- ./inp_files/20611.got.cif
#   From: 2010.03.12/outbox.cif.g09.slc.cpg/sg20_11_cif.got.tgz:20611.got - 2010.04.14 01:38:04.
