data_PCOD8158148
_publ_section_title
;
Structure prediction by ZEFSAII (Michael W. Deem and Ramdas Pophale) SiO2 
 PCOD8158148
Probable space group: C 2 2 21
;
_chemical_formula_sum "Si O2"
_cell_formula_units_Z 48
_cell_length_a 18.308832
_cell_length_b 9.917872
_cell_length_c 14.223360
_cell_angle_alpha 90.000000
_cell_angle_beta 90.000000
_cell_angle_gamma 90.000000
_cell_volume 2582.743879
_symmetry_space_group_name_H-M "C 2 2 21"
_symmetry_group_IT_number 20
_symmetry_cell_setting 'orthorhombic'
loop_
_space_group_symop_operation_xyz
x,y,z
-x,-y,1/2+z
x,-y,-z
-x,y,1/2-z
1/2+x,1/2+y,z
1/2-x,1/2-y,1/2+z
1/2+x,1/2-y,-z
1/2-x,1/2+y,1/2-z
loop_
_atom_site_type_symbol
_atom_site_label
_atom_site_fract_x
_atom_site_fract_y
_atom_site_fract_z
Si Si1 0.540490 0.293654 0.343077
Si Si2 0.685049 0.015164 0.753745
Si Si3 0.323759 0.299327 0.267267
Si Si4 0.585976 0.889940 0.080647
Si Si5 0.087877 0.139873 0.956396
Si Si6 0.562139 0.992982 0.391956
O O1 0.500000 0.340935 0.250000
O O2 0.625706 0.329622 0.325405
O O3 0.499371 0.365746 0.430626
O O4 0.530512 0.134854 0.357189
O O5 0.758725 0.095749 0.735829
O O6 0.649114 0.070563 0.848081
O O7 0.632218 0.050875 0.667283
O O8 0.702613 0.856085 0.762106
O O9 0.367232 0.319908 0.363987
O O10 0.504481 0.888003 0.126157
O O11 0.604725 0.745257 0.038570
O O12 0.581940 0.000000 0.000000
O O13 0.114084 0.000000 0.000000
O O14 0.587592 0.000000 0.500000
#
# Coordination Sequence:
#
# PCOD8158148 Si02
#       6
#     8   8   8   8   8   8
#     4   9  17  38  62  81 113 157 189 239 304 353
#     4  11  23  40  59  89 124 162 200 246 301 364
#     4  10  23  41  60  84 124 164 197 240 306 364
#     4  11  19  39  64  86 113 155 204 249 296 354
#     4  11  22  38  63  91 117 151 204 256 301 350
#     4  10  18  35  65  89 109 148 207 248 287 351
#
# _framework density 18.584886000000001
#
# number of rings (size 3 to 8) (size 9 to 14) (size 15 to 20)
#    0.000    1.667    5.000    2.500    2.333    0.667 
#    6.000    2.500    0.000    0.000    0.000    0.000 
#    0.000    0.000    0.000    0.000    0.000    0.000 
#
# Total GULP energy -297480.777855 kJ/mol
# GULP energy per Si atom -12395.032411 kJ/mol
# Density = 1.854259 g / cm^3
# Si number density = 18.584886 Si / 1000 Ang^3
#
#
#
# Elastic Constant Matrix: (Units=GPa)
#
#
# Indices 1 2 3 4 5 6 
#
# 1 106.0072 48.6481 27.2493 0.0000 0.0000 0.0000
# 2 48.6481 108.3260 22.3303 0.0000 0.0000 0.0000
# 3 27.2493 22.3303 44.4933 0.0000 0.0000 0.0000
# 4 0.0000 0.0000 0.0000 27.7541 0.0000 0.0000
# 5 0.0000 0.0000 0.0000 0.0000 41.6331 0.0000
# 6 0.0000 0.0000 0.0000 0.0000 0.0000 31.7288
#
#
#
# Elastic Compliance Matrix: (Units=1/GPa)
#
#
# Indices 1 2 3 4 5 6 
#
# 1 0.013033 -0.004693 -0.005627 0.000000 0.000000 0.000000
# 2 -0.004693 0.011987 -0.003142 0.000000 0.000000 0.000000
# 3 -0.005627 -0.003142 0.027498 0.000000 0.000000 0.000000
# 4 0.000000 0.000000 0.000000 0.036031 0.000000 0.000000
# 5 0.000000 0.000000 0.000000 0.000000 0.024019 0.000000
# 6 0.000000 0.000000 0.000000 0.000000 0.000000 0.031517
#
#
# Mechanical properties :
#
#
# Convention : Reuss Voigt Hill
#
# Bulk Modulus (GPa) = 39.07006 50.58689 44.82848
# Shear Modulus (GPa) = 27.84892 30.92978 29.38935
#
# Velocity S-wave (km/s) = 3.87521 4.08394 3.98094
# Velocity P-wave (km/s) = 6.41024 7.03680 6.73081
#
# Compressibility (1/GPa) = 0.02559504
#
# Stress axis : x y z
#
# Youngs Moduli (GPa) = 76.72540 83.42575 36.36634
#
# Poissons Ratio (x) = 0.39154 0.20462
# Poissons Ratio (y) = 0.36010 0.11425
# Poissons Ratio (z) = 0.43171 0.26209
#
# Static dielectric constant tensor:
#      x y z
#    x 3.596300 0.000000 0.000000 
#    y 0.000000 2.860340 0.000000 
#    z 0.000000 0.000000 3.731500 
# 
# 
# High freq. dielectric constant tensor:
#      x y z
#    x 1.717160 0.000000 0.000000 
#    y 0.000000 1.705730 0.000000 
#    z 0.000000 0.000000 1.727250 
# 
# From -- ./inp_files/18914.got.cif
#   From: 2010.03.12/outbox.cif.g09.slc.cpg/sg20_10_cif.got.tgz:18914.got - 2010.04.14 01:38:04.
