data_PCOD8158066
_publ_section_title
;
Structure prediction by ZEFSAII (Michael W. Deem and Ramdas Pophale) SiO2 
 PCOD8158066
Probable space group: C 2 2 21
;
_chemical_formula_sum "Si O2"
_cell_formula_units_Z 48
_cell_length_a 12.838391
_cell_length_b 13.150227
_cell_length_c 15.742038
_cell_angle_alpha 90.000000
_cell_angle_beta 90.000000
_cell_angle_gamma 90.000000
_cell_volume 2657.692950
_symmetry_space_group_name_H-M "C 2 2 21"
_symmetry_group_IT_number 20
_symmetry_cell_setting 'orthorhombic'
loop_
_space_group_symop_operation_xyz
x,y,z
-x,-y,1/2+z
x,-y,-z
-x,y,1/2-z
1/2+x,1/2+y,z
1/2-x,1/2-y,1/2+z
1/2+x,1/2-y,-z
1/2-x,1/2+y,1/2-z
loop_
_atom_site_type_symbol
_atom_site_label
_atom_site_fract_x
_atom_site_fract_y
_atom_site_fract_z
Si Si1 0.405685 0.355295 0.127696
Si Si2 0.637314 0.660102 0.821699
Si Si3 0.624852 0.882047 0.882081
Si Si4 0.091898 0.355696 0.550762
Si Si5 0.655915 0.930420 0.379903
Si Si6 0.500000 0.018808 0.750000
Si Si7 0.714532 0.500000 0.500000
O O1 0.363814 0.367506 0.222594
O O2 0.530422 0.367145 0.130210
O O3 0.368910 0.244151 0.098144
O O4 0.358989 0.434726 0.061346
O O5 0.664916 0.778532 0.837678
O O6 0.724637 0.586909 0.858590
O O7 0.533200 0.861207 0.949223
O O8 0.576611 0.950835 0.807591
O O9 0.716887 0.932579 0.935933
O O10 0.125482 0.351954 0.453391
O O11 0.144491 0.451803 0.595890
O O12 0.575776 0.907714 0.303405
#
# Coordination Sequence:
#
# PCOD8158066 Si02
#       7
#     8   8   8   8   8   4   4
#     4  10  22  37  52  75 107 143 179 216 261 324
#     4  10  20  36  56  75 105 147 180 208 263 329
#     4  10  19  34  56  80 108 143 176 215 268 327
#     4   9  19  35  53  76 104 134 172 213 260 318
#     4  10  18  31  56  81 102 131 175 222 261 306
#     4  10  18  32  54  80 106 136 176 222 264 316
#     4  12  22  34  56  86 110 134 180 236 270 298
#
# _framework density 18.060777999999999
#
# number of rings (size 3 to 8) (size 9 to 14) (size 15 to 20)
#    0.000    2.000    0.000    7.000    0.000    1.333 
#    0.000    0.000    0.000   14.000    0.000    0.000 
#    0.000    0.000    0.000    0.000    0.000    0.000 
#
# Total GULP energy -297522.698727 kJ/mol
# GULP energy per Si atom -12396.779114 kJ/mol
# Density = 1.801967 g / cm^3
# Si number density = 18.060778 Si / 1000 Ang^3
#
#
#
# Elastic Constant Matrix: (Units=GPa)
#
#
# Indices 1 2 3 4 5 6 
#
# 1 107.8227 54.0168 72.0605 0.0000 0.0000 0.0000
# 2 54.0168 73.4632 43.1475 0.0000 0.0000 0.0000
# 3 72.0605 43.1475 129.5184 0.0000 0.0000 0.0000
# 4 0.0000 0.0000 0.0000 25.9451 0.0000 0.0000
# 5 0.0000 0.0000 0.0000 0.0000 33.0966 0.0000
# 6 0.0000 0.0000 0.0000 0.0000 0.0000 4.1468
#
#
#
# Elastic Compliance Matrix: (Units=1/GPa)
#
#
# Indices 1 2 3 4 5 6 
#
# 1 0.019052 -0.009676 -0.007376 0.000000 0.000000 0.000000
# 2 -0.009676 0.021838 -0.001891 0.000000 0.000000 0.000000
# 3 -0.007376 -0.001891 0.012455 0.000000 0.000000 0.000000
# 4 0.000000 0.000000 0.000000 0.038543 0.000000 0.000000
# 5 0.000000 0.000000 0.000000 0.000000 0.030215 0.000000
# 6 0.000000 0.000000 0.000000 0.000000 0.000000 0.241152
#
#
# Mechanical properties :
#
#
# Convention : Reuss Voigt Hill
#
# Bulk Modulus (GPa) = 64.69686 72.13932 68.41809
# Shear Modulus (GPa) = 12.30632 22.07632 17.19132
#
# Velocity S-wave (km/s) = 2.61316 3.49998 3.08857
# Velocity P-wave (km/s) = 6.70853 7.50749 7.11923
#
# Compressibility (1/GPa) = 0.01545670
#
# Stress axis : x y z
#
# Youngs Moduli (GPa) = 52.48815 45.79165 80.28854
#
# Poissons Ratio (x) = 0.44309 0.59224
# Poissons Ratio (y) = 0.50789 0.15186
# Poissons Ratio (z) = 0.38718 0.08661
#
# Static dielectric constant tensor:
#      x y z
#    x 3.331390 0.000000 0.000000 
#    y 0.000000 3.223520 0.000000 
#    z 0.000000 0.000000 3.616640 
# 
# 
# High freq. dielectric constant tensor:
#      x y z
#    x 1.698100 0.000000 0.000000 
#    y 0.000000 1.685010 0.000000 
#    z 0.000000 0.000000 1.715650 
# 
# From -- ./inp_files/20696.got.cif
#   From: 2010.03.12/outbox.cif.g09.slc.cpg/sg20_11_cif.got.tgz:20696.got - 2010.04.14 01:38:04.
