data_PCOD8158617
_publ_section_title
;
Structure prediction by ZEFSAII (Michael W. Deem and Ramdas Pophale) SiO2 
 PCOD8158617
Probable space group: C 2 2 21
;
_chemical_formula_sum "Si O2"
_cell_formula_units_Z 48
_cell_length_a 14.241179
_cell_length_b 6.278800
_cell_length_c 26.015504
_cell_angle_alpha 90.000000
_cell_angle_beta 90.000000
_cell_angle_gamma 90.000000
_cell_volume 2326.241711
_symmetry_space_group_name_H-M "C 2 2 21"
_symmetry_group_IT_number 20
_symmetry_cell_setting 'orthorhombic'
loop_
_space_group_symop_operation_xyz
x,y,z
-x,-y,1/2+z
x,-y,-z
-x,y,1/2-z
1/2+x,1/2+y,z
1/2-x,1/2-y,1/2+z
1/2+x,1/2-y,-z
1/2-x,1/2+y,1/2-z
loop_
_atom_site_type_symbol
_atom_site_label
_atom_site_fract_x
_atom_site_fract_y
_atom_site_fract_z
Si Si1 0.715977 0.167516 0.350036
Si Si2 0.893114 0.071733 0.651694
Si Si3 0.335762 0.882209 0.052625
Si Si4 0.030607 0.688315 0.902716
Si Si5 0.208437 0.551683 0.094288
Si Si6 0.978779 0.401760 0.805564
O O1 0.729038 0.413428 0.366028
O O2 0.631919 0.148378 0.309611
O O3 0.812436 0.080535 0.323491
O O4 0.695044 0.033473 0.401200
O O5 0.841204 0.260897 0.623915
O O6 0.964437 0.177187 0.692305
O O7 0.953867 0.935966 0.610665
O O8 0.446247 0.830022 0.056982
O O9 0.277711 0.659317 0.052480
O O10 0.314011 0.000000 0.000000
O O11 0.125646 0.596341 0.929614
O O12 0.009902 0.564333 0.849642
O O13 0.000000 0.505709 0.750000
#
# Coordination Sequence:
#
# PCOD8158617 Si02
#       6
#     8   8   8   8   8   8
#     4   9  19  37  56  76 113 151 181 237 287 333
#     4   9  18  36  56  78 107 148 187 225 284 340
#     4  10  20  35  55  85 110 146 192 228 286 344
#     4   9  19  37  56  78 116 148 185 237 285 338
#     4   9  18  36  57  76 109 148 183 229 282 336
#     4  10  20  35  55  84 110 145 190 232 291 345
#
# _framework density 20.634143000000002
#
# number of rings (size 3 to 8) (size 9 to 14) (size 15 to 20)
#    0.000    2.667    0.000    1.000    0.000    1.333 
#   18.000    0.000    0.000    0.000    0.000    0.000 
#    0.000    0.000    0.000    0.000    0.000    0.000 
#
# Total GULP energy -297449.994610 kJ/mol
# GULP energy per Si atom -12393.749775 kJ/mol
# Density = 2.058718 g / cm^3
# Si number density = 20.634143 Si / 1000 Ang^3
#
#
#
# Elastic Constant Matrix: (Units=GPa)
#
#
# Indices 1 2 3 4 5 6 
#
# 1 105.7493 15.2574 10.4100 0.0000 0.0000 0.0000
# 2 15.2574 77.5095 -3.5789 0.0000 0.0000 0.0000
# 3 10.4100 -3.5789 38.3928 0.0000 0.0000 0.0000
# 4 0.0000 0.0000 0.0000 17.4888 0.0000 0.0000
# 5 0.0000 0.0000 0.0000 0.0000 14.4092 0.0000
# 6 0.0000 0.0000 0.0000 0.0000 0.0000 26.4780
#
#
#
# Elastic Compliance Matrix: (Units=1/GPa)
#
#
# Indices 1 2 3 4 5 6 
#
# 1 0.010049 -0.002113 -0.002922 0.000000 0.000000 0.000000
# 2 -0.002113 0.013402 0.001822 0.000000 0.000000 0.000000
# 3 -0.002922 0.001822 0.027009 0.000000 0.000000 0.000000
# 4 0.000000 0.000000 0.000000 0.057179 0.000000 0.000000
# 5 0.000000 0.000000 0.000000 0.000000 0.069400 0.000000
# 6 0.000000 0.000000 0.000000 0.000000 0.000000 0.037767
#
#
# Mechanical properties :
#
#
# Convention : Reuss Voigt Hill
#
# Bulk Modulus (GPa) = 22.70957 29.53651 26.12304
# Shear Modulus (GPa) = 21.19462 24.97940 23.08701
#
# Velocity S-wave (km/s) = 3.20841 3.48312 3.34859
# Velocity P-wave (km/s) = 4.97543 5.52464 5.25721
#
# Compressibility (1/GPa) = 0.04403430
#
# Stress axis : x y z
#
# Youngs Moduli (GPa) = 99.51446 74.61736 37.02522
#
# Poissons Ratio (x) = 0.15766 0.10817
# Poissons Ratio (y) = 0.21027 -0.06747
# Poissons Ratio (z) = 0.29075 -0.13597
#
# Static dielectric constant tensor:
#      x y z
#    x 4.437630 0.000000 0.000000 
#    y 0.000000 4.072770 0.000000 
#    z 0.000000 0.000000 3.153450 
# 
# 
# High freq. dielectric constant tensor:
#      x y z
#    x 1.833930 0.000000 0.000000 
#    y 0.000000 1.818440 0.000000 
#    z 0.000000 0.000000 1.748360 
# 
# From -- ./inp_files/29809.got.cif
#   From: 2010.03.12/outbox.cif.g09.slc.cpg/sg20_15_cif.got.tgz:29809.got - 2010.04.14 01:38:04.
