data_PCOD8158995
_publ_section_title
;
Structure prediction by ZEFSAII (Michael W. Deem and Ramdas Pophale) SiO2 
 PCOD8158995
Probable space group: C 2 2 21
;
_chemical_formula_sum "Si O2"
_cell_formula_units_Z 60
_cell_length_a 9.750086
_cell_length_b 10.361062
_cell_length_c 27.653138
_cell_angle_alpha 90.000000
_cell_angle_beta 90.000000
_cell_angle_gamma 90.000000
_cell_volume 2793.554444
_symmetry_space_group_name_H-M "C 2 2 21"
_symmetry_group_IT_number 20
_symmetry_cell_setting 'orthorhombic'
loop_
_space_group_symop_operation_xyz
x,y,z
-x,-y,1/2+z
x,-y,-z
-x,y,1/2-z
1/2+x,1/2+y,z
1/2-x,1/2-y,1/2+z
1/2+x,1/2-y,-z
1/2-x,1/2+y,1/2-z
loop_
_atom_site_type_symbol
_atom_site_label
_atom_site_fract_x
_atom_site_fract_y
_atom_site_fract_z
Si Si1 0.000000 0.256660 0.250000
Si Si2 0.186332 0.850202 0.013880
Si Si3 0.204973 0.864782 0.341015
Si Si4 0.549795 0.713389 0.447096
Si Si5 0.650393 0.507568 0.249206
Si Si6 0.774304 0.566239 0.153786
Si Si7 0.003974 0.377648 0.143503
Si Si8 0.970751 0.032966 0.594154
O O1 0.133805 0.163256 0.254383
O O2 0.004540 0.336350 0.200077
O O3 0.328185 0.773024 0.020717
O O4 0.096336 0.851679 0.063152
O O5 0.096905 0.770708 0.974521
O O6 0.217548 0.000000 0.000000
O O7 0.198541 0.712686 0.332084
O O8 0.338427 0.902134 0.372816
O O9 0.062302 0.907423 0.363914
O O10 0.235371 0.941663 0.291599
O O11 0.555154 0.771263 0.393072
O O12 0.566142 0.558613 0.439626
O O13 0.500000 0.440731 0.250000
O O14 0.731750 0.479818 0.199981
O O15 0.651174 0.556863 0.115371
O O16 0.915478 0.506055 0.134117
#
# Coordination Sequence:
#
# PCOD8158995 Si02
#       8
#     4   8   8   8   8   8   8   8
#     4  10  20  46  68  96 136 188 218 280 344 394
#     4  10  25  45  71 102 137 176 228 286 347 411
#     4  12  24  44  66 100 134 181 234 277 338 419
#     4  11  23  47  72 100 138 180 224 287 344 411
#     4  10  20  41  65  90 132 181 222 279 335 397
#     4  12  24  43  64  97 137 180 223 281 343 403
#     4  12  24  42  70 100 139 175 227 282 341 404
#     4  11  23  46  71  96 135 178 222 285 349 400
#
# _framework density 21.478013000000001
#
# number of rings (size 3 to 8) (size 9 to 14) (size 15 to 20)
#    0.400    0.533    5.333    1.600    1.867    1.067 
#    8.400    0.000    0.000    0.000    0.000    0.000 
#    0.000    0.000    0.000    0.000    0.000    0.000 
#
# Total GULP energy -371776.448087 kJ/mol
# GULP energy per Si atom -12392.548270 kJ/mol
# Density = 2.142913 g / cm^3
# Si number density = 21.478013 Si / 1000 Ang^3
#
#
#
# Elastic Constant Matrix: (Units=GPa)
#
#
# Indices 1 2 3 4 5 6 
#
# 1 115.9252 59.3002 32.0102 0.0000 0.0000 0.0000
# 2 59.3002 88.7957 28.6191 0.0000 0.0000 0.0000
# 3 32.0102 28.6191 102.5250 0.0000 0.0000 0.0000
# 4 0.0000 0.0000 0.0000 25.7270 0.0000 0.0000
# 5 0.0000 0.0000 0.0000 0.0000 30.7233 0.0000
# 6 0.0000 0.0000 0.0000 0.0000 0.0000 35.5447
#
#
#
# Elastic Compliance Matrix: (Units=1/GPa)
#
#
# Indices 1 2 3 4 5 6 
#
# 1 0.013416 -0.008362 -0.001855 0.000000 0.000000 0.000000
# 2 -0.008362 0.017587 -0.002299 0.000000 0.000000 0.000000
# 3 -0.001855 -0.002299 0.010974 0.000000 0.000000 0.000000
# 4 0.000000 0.000000 0.000000 0.038870 0.000000 0.000000
# 5 0.000000 0.000000 0.000000 0.000000 0.032549 0.000000
# 6 0.000000 0.000000 0.000000 0.000000 0.000000 0.028134
#
#
# Mechanical properties :
#
#
# Convention : Reuss Voigt Hill
#
# Bulk Modulus (GPa) = 59.00628 60.78944 59.89786
# Shear Modulus (GPa) = 29.03479 30.88674 29.96076
#
# Velocity S-wave (km/s) = 3.68072 3.79629 3.73896
# Velocity P-wave (km/s) = 6.75249 6.89785 6.82556
#
# Compressibility (1/GPa) = 0.01694735
#
# Stress axis : x y z
#
# Youngs Moduli (GPa) = 74.53993 56.86098 91.12148
#
# Poissons Ratio (x) = 0.47545 0.16899
# Poissons Ratio (y) = 0.62327 0.20945
# Poissons Ratio (z) = 0.13824 0.13070
#
# Static dielectric constant tensor:
#      x y z
#    x 4.051790 0.000000 0.000000 
#    y 0.000000 3.555180 0.000000 
#    z 0.000000 0.000000 3.938650 
# 
# 
# High freq. dielectric constant tensor:
#      x y z
#    x 1.844700 0.000000 0.000000 
#    y 0.000000 1.822440 0.000000 
#    z 0.000000 0.000000 1.848210 
# 
# From -- ./inp_files/30149.got.cif
#   From: 2010.03.12/outbox.cif.g09.slc.cpg/sg20_16_cif.got.tgz:30149.got - 2010.04.14 01:38:04.
