data_PCOD8158167
_publ_section_title
;
Structure prediction by ZEFSAII (Michael W. Deem and Ramdas Pophale) SiO2 
 PCOD8158167
Probable space group: C 2 2 21
;
_chemical_formula_sum "Si O2"
_cell_formula_units_Z 40
_cell_length_a 22.375136
_cell_length_b 8.912502
_cell_length_c 8.550910
_cell_angle_alpha 90.000000
_cell_angle_beta 90.000000
_cell_angle_gamma 90.000000
_cell_volume 1705.209170
_symmetry_space_group_name_H-M "C 2 2 21"
_symmetry_group_IT_number 20
_symmetry_cell_setting 'orthorhombic'
loop_
_space_group_symop_operation_xyz
x,y,z
-x,-y,1/2+z
x,-y,-z
-x,y,1/2-z
1/2+x,1/2+y,z
1/2-x,1/2-y,1/2+z
1/2+x,1/2-y,-z
1/2-x,1/2+y,1/2-z
loop_
_atom_site_type_symbol
_atom_site_label
_atom_site_fract_x
_atom_site_fract_y
_atom_site_fract_z
Si Si1 0.812362 0.699645 0.857714
Si Si2 0.087468 0.747187 0.196831
Si Si3 0.943648 0.754131 0.940313
Si Si4 0.791455 0.630255 0.213767
Si Si5 0.021807 0.500000 0.000000
Si Si6 0.028104 0.000000 0.000000
O O1 0.880651 0.757692 0.850722
O O2 0.805197 0.545905 0.759723
O O3 0.773225 0.831915 0.783495
O O4 0.791560 0.670227 0.032478
O O5 0.061812 0.753173 0.371280
O O6 0.159165 0.731080 0.198482
O O7 0.062216 0.601734 0.110676
O O8 0.070770 0.900240 0.109022
O O9 0.978629 0.603459 0.892431
O O10 0.984284 0.896349 0.893710
#
# Coordination Sequence:
#
# PCOD8158167 Si02
#       6
#     8   8   8   8   4   4
#     4  10  23  43  69  92 124 167 211 262 315 377
#     4  10  22  40  61  90 129 165 210 262 313 375
#     4  10  21  41  62  90 127 169 209 255 318 377
#     4  10  23  44  66  94 126 165 212 261 317 373
#     4  10  18  36  64  88 122 166 210 256 304 370
#     4  10  20  36  62  92 126 166 206 256 308 370
#
# _framework density 23.457532
#
# number of rings (size 3 to 8) (size 9 to 14) (size 15 to 20)
#    0.000    2.000    0.000    4.800    0.000    7.200 
#    0.000   28.000    0.000    4.800    0.000    0.000 
#    0.000    0.000    0.000    0.000    0.000    0.000 
#
# Total GULP energy -248025.004975 kJ/mol
# GULP energy per Si atom -12401.250249 kJ/mol
# Density = 2.340414 g / cm^3
# Si number density = 23.457532 Si / 1000 Ang^3
#
#
#
# Elastic Constant Matrix: (Units=GPa)
#
#
# Indices 1 2 3 4 5 6 
#
# 1 149.7592 80.9724 55.8656 0.0000 0.0000 0.0000
# 2 80.9724 169.4849 44.8081 0.0000 0.0000 0.0000
# 3 55.8656 44.8081 56.2355 0.0000 0.0000 0.0000
# 4 0.0000 0.0000 0.0000 32.2767 0.0000 0.0000
# 5 0.0000 0.0000 0.0000 0.0000 32.7027 0.0000
# 6 0.0000 0.0000 0.0000 0.0000 0.0000 36.6829
#
#
#
# Elastic Compliance Matrix: (Units=1/GPa)
#
#
# Indices 1 2 3 4 5 6 
#
# 1 0.011859 -0.003232 -0.009206 0.000000 0.000000 0.000000
# 2 -0.003232 0.008356 -0.003447 0.000000 0.000000 0.000000
# 3 -0.009206 -0.003447 0.029674 0.000000 0.000000 0.000000
# 4 0.000000 0.000000 0.000000 0.030982 0.000000 0.000000
# 5 0.000000 0.000000 0.000000 0.000000 0.030579 0.000000
# 6 0.000000 0.000000 0.000000 0.000000 0.000000 0.027261
#
#
# Mechanical properties :
#
#
# Convention : Reuss Voigt Hill
#
# Bulk Modulus (GPa) = 55.18985 82.08575 68.63780
# Shear Modulus (GPa) = 28.32552 33.25468 30.79010
#
# Velocity S-wave (km/s) = 3.47871 3.76926 3.62690
# Velocity P-wave (km/s) = 6.30190 7.34931 6.84567
#
# Compressibility (1/GPa) = 0.01811927
#
# Stress axis : x y z
#
# Youngs Moduli (GPa) = 84.32491 119.68018 33.69926
#
# Poissons Ratio (x) = 0.38679 0.31023
# Poissons Ratio (y) = 0.27253 0.11616
# Poissons Ratio (z) = 0.77628 0.41255
#
# Static dielectric constant tensor:
#      x y z
#    x 4.327790 0.000000 0.000000 
#    y 0.000000 4.367760 0.000000 
#    z 0.000000 0.000000 3.932150 
# 
# 
# High freq. dielectric constant tensor:
#      x y z
#    x 1.935020 0.000000 0.000000 
#    y 0.000000 1.936850 0.000000 
#    z 0.000000 0.000000 1.918420 
# 
# From -- ./inp_files/10520.got.cif
#   From: 2010.03.12/outbox.cif.g09.slc.cpg/sg20_6_cif.got.tgz:10520.got - 2010.04.14 01:38:04.
