data_PCOD8158469
_publ_section_title
;
Structure prediction by ZEFSAII (Michael W. Deem and Ramdas Pophale) SiO2 
 PCOD8158469
Probable space group: C 2 2 21
;
_chemical_formula_sum "Si O2"
_cell_formula_units_Z 48
_cell_length_a 14.948543
_cell_length_b 9.356903
_cell_length_c 17.028483
_cell_angle_alpha 90.000000
_cell_angle_beta 90.000000
_cell_angle_gamma 90.000000
_cell_volume 2381.809112
_symmetry_space_group_name_H-M "C 2 2 21"
_symmetry_group_IT_number 20
_symmetry_cell_setting 'orthorhombic'
loop_
_space_group_symop_operation_xyz
x,y,z
-x,-y,1/2+z
x,-y,-z
-x,y,1/2-z
1/2+x,1/2+y,z
1/2-x,1/2-y,1/2+z
1/2+x,1/2-y,-z
1/2-x,1/2+y,1/2-z
loop_
_atom_site_type_symbol
_atom_site_label
_atom_site_fract_x
_atom_site_fract_y
_atom_site_fract_z
Si Si1 0.866963 0.914151 0.819112
Si Si2 0.676147 0.267641 0.840373
Si Si3 0.459151 0.541063 0.412168
Si Si4 0.627454 0.749652 0.693485
Si Si5 0.059696 0.266653 0.859792
Si Si6 0.698281 0.964744 0.912548
O O1 0.868122 0.809551 0.743506
O O2 0.864976 0.079696 0.794855
O O3 0.779792 0.879724 0.871538
O O4 0.956562 0.885303 0.869118
O O5 0.623858 0.349142 0.909883
O O6 0.780501 0.315471 0.839246
O O7 0.670055 0.100246 0.859567
O O8 0.487378 0.500000 0.500000
O O9 0.423130 0.401026 0.368646
O O10 0.601772 0.816829 0.777026
O O11 0.547388 0.791770 0.633718
O O12 0.112046 0.361630 0.923336
O O13 0.731376 0.000000 0.000000
#
# Coordination Sequence:
#
# PCOD8158469 Si02
#       6
#     8   8   8   8   8   8
#     4  10  20  39  62  86 115 158 205 249 286 360
#     4  11  21  38  60  90 115 154 208 251 289 358
#     4  11  22  38  62  89 119 157 200 247 302 359
#     4   9  19  36  60  83 109 154 202 241 289 355
#     4  10  19  38  60  79 118 158 193 237 305 358
#     4  11  23  39  59  90 128 157 192 252 316 354
#
# _framework density 20.152749
#
# number of rings (size 3 to 8) (size 9 to 14) (size 15 to 20)
#    0.000    1.667    3.333    2.000    0.000    0.000 
#    6.000    0.833    0.000    0.000    0.000    0.000 
#    0.000    0.000    0.000    0.000    0.000    0.000 
#
# Total GULP energy -297529.079997 kJ/mol
# GULP energy per Si atom -12397.045000 kJ/mol
# Density = 2.010688 g / cm^3
# Si number density = 20.152749 Si / 1000 Ang^3
#
#
#
# Elastic Constant Matrix: (Units=GPa)
#
#
# Indices 1 2 3 4 5 6 
#
# 1 145.7305 49.7138 30.3343 0.0000 0.0000 0.0000
# 2 49.7138 52.5599 15.6842 0.0000 0.0000 0.0000
# 3 30.3343 15.6842 80.1026 0.0000 0.0000 0.0000
# 4 0.0000 0.0000 0.0000 25.7011 0.0000 0.0000
# 5 0.0000 0.0000 0.0000 0.0000 26.4577 0.0000
# 6 0.0000 0.0000 0.0000 0.0000 0.0000 33.1062
#
#
#
# Elastic Compliance Matrix: (Units=1/GPa)
#
#
# Indices 1 2 3 4 5 6 
#
# 1 0.010469 -0.009260 -0.002151 0.000000 0.000000 0.000000
# 2 -0.009260 0.028397 -0.002054 0.000000 0.000000 0.000000
# 3 -0.002151 -0.002054 0.013701 0.000000 0.000000 0.000000
# 4 0.000000 0.000000 0.000000 0.038909 0.000000 0.000000
# 5 0.000000 0.000000 0.000000 0.000000 0.037796 0.000000
# 6 0.000000 0.000000 0.000000 0.000000 0.000000 0.030206
#
#
# Mechanical properties :
#
#
# Convention : Reuss Voigt Hill
#
# Bulk Modulus (GPa) = 39.00593 52.20640 45.60617
# Shear Modulus (GPa) = 25.64726 29.23036 27.43881
#
# Velocity S-wave (km/s) = 3.57128 3.81260 3.69391
# Velocity P-wave (km/s) = 6.03345 6.73370 6.39317
#
# Compressibility (1/GPa) = 0.02563713
#
# Stress axis : x y z
#
# Youngs Moduli (GPa) = 95.52355 35.21484 72.98856
#
# Poissons Ratio (x) = 0.32608 0.15702
# Poissons Ratio (y) = 0.88453 0.14989
# Poissons Ratio (z) = 0.20550 0.07232
#
# Static dielectric constant tensor:
#      x y z
#    x 3.909700 0.000000 0.000000 
#    y 0.000000 3.387410 0.000000 
#    z 0.000000 0.000000 3.562990 
# 
# 
# High freq. dielectric constant tensor:
#      x y z
#    x 1.801230 0.000000 0.000000 
#    y 0.000000 1.758660 0.000000 
#    z 0.000000 0.000000 1.777480 
# 
# From -- ./inp_files/24794.got.cif
#   From: 2010.03.12/outbox.cif.g09.slc.cpg/sg20_13_cif.got.tgz:24794.got - 2010.04.14 01:38:04.
