data_PCOD8158082
_publ_section_title
;
Structure prediction by ZEFSAII (Michael W. Deem and Ramdas Pophale) SiO2 
 PCOD8158082
Probable space group: C 2 2 21
;
_chemical_formula_sum "Si O2"
_cell_formula_units_Z 48
_cell_length_a 11.931736
_cell_length_b 13.073546
_cell_length_c 16.264298
_cell_angle_alpha 90.000000
_cell_angle_beta 90.000000
_cell_angle_gamma 90.000000
_cell_volume 2537.069463
_symmetry_space_group_name_H-M "C 2 2 21"
_symmetry_group_IT_number 20
_symmetry_cell_setting 'orthorhombic'
loop_
_space_group_symop_operation_xyz
x,y,z
-x,-y,1/2+z
x,-y,-z
-x,y,1/2-z
1/2+x,1/2+y,z
1/2-x,1/2-y,1/2+z
1/2+x,1/2-y,-z
1/2-x,1/2+y,1/2-z
loop_
_atom_site_type_symbol
_atom_site_label
_atom_site_fract_x
_atom_site_fract_y
_atom_site_fract_z
Si Si1 0.622780 0.132322 0.285442
Si Si2 0.545923 0.976157 0.407754
Si Si3 0.485010 0.757117 0.350067
Si Si4 0.887238 0.890571 0.970612
Si Si5 0.296963 0.970910 0.636998
Si Si6 0.770037 0.809285 0.124021
O O1 0.500000 0.140898 0.250000
O O2 0.710917 0.100515 0.216134
O O3 0.657775 0.243131 0.314316
O O4 0.630412 0.043717 0.353694
O O5 0.553152 0.858002 0.379190
O O6 0.584252 0.000000 0.500000
O O7 0.421455 0.015752 0.395154
O O8 0.500000 0.744249 0.250000
O O9 0.535076 0.661255 0.400986
O O10 0.356056 0.762986 0.381353
O O11 0.765795 0.915911 0.935753
O O12 0.849021 0.812555 0.042514
O O13 0.942555 0.000000 0.000000
O O14 0.239684 0.077790 0.661121
#
# Coordination Sequence:
#
# PCOD8158082 Si02
#       6
#     8   8   8   8   8   8
#     4  10  20  34  54  82 109 135 177 227 268 312
#     4  10  18  32  55  81 108 139 177 223 270 320
#     4  11  21  36  58  84 111 144 185 230 276 326
#     4  10  21  38  57  76 106 148 186 218 270 338
#     4   9  18  34  54  74 104 146 181 211 262 337
#     4  10  20  36  56  81 109 142 183 225 272 327
#
# _framework density 18.919466
#
# number of rings (size 3 to 8) (size 9 to 14) (size 15 to 20)
#    0.000    2.000    0.000    7.000    0.000    1.333 
#    0.000    9.167    0.000    0.000    0.000    0.000 
#    0.000    0.000    0.000    0.000    0.000    0.000 
#
# Total GULP energy -297373.369601 kJ/mol
# GULP energy per Si atom -12390.557067 kJ/mol
# Density = 1.887640 g / cm^3
# Si number density = 18.919466 Si / 1000 Ang^3
#
#
#
# Elastic Constant Matrix: (Units=GPa)
#
#
# Indices 1 2 3 4 5 6 
#
# 1 29.4809 16.0092 19.0058 0.0000 0.0000 0.0000
# 2 16.0092 58.9222 29.4200 0.0000 0.0000 0.0000
# 3 19.0058 29.4200 97.3305 0.0000 0.0000 0.0000
# 4 0.0000 0.0000 0.0000 46.5959 0.0000 0.0000
# 5 0.0000 0.0000 0.0000 0.0000 18.6677 0.0000
# 6 0.0000 0.0000 0.0000 0.0000 0.0000 18.4691
#
#
#
# Elastic Compliance Matrix: (Units=1/GPa)
#
#
# Indices 1 2 3 4 5 6 
#
# 1 0.042259 -0.008670 -0.005631 0.000000 0.000000 0.000000
# 2 -0.008670 0.021767 -0.004886 0.000000 0.000000 0.000000
# 3 -0.005631 -0.004886 0.012851 0.000000 0.000000 0.000000
# 4 0.000000 0.000000 0.000000 0.021461 0.000000 0.000000
# 5 0.000000 0.000000 0.000000 0.000000 0.053569 0.000000
# 6 0.000000 0.000000 0.000000 0.000000 0.000000 0.054145
#
#
# Mechanical properties :
#
#
# Convention : Reuss Voigt Hill
#
# Bulk Modulus (GPa) = 25.97322 34.95596 30.46459
# Shear Modulus (GPa) = 19.43558 24.83311 22.13434
#
# Velocity S-wave (km/s) = 3.20860 3.62687 3.42413
# Velocity P-wave (km/s) = 5.24260 6.00460 5.63649
#
# Compressibility (1/GPa) = 0.03850119
#
# Stress axis : x y z
#
# Youngs Moduli (GPa) = 23.66373 45.94100 77.81549
#
# Poissons Ratio (x) = 0.39831 0.43819
# Poissons Ratio (y) = 0.20517 0.38025
# Poissons Ratio (z) = 0.13325 0.22449
#
# Static dielectric constant tensor:
#      x y z
#    x 3.276790 0.000000 0.000000 
#    y 0.000000 3.676900 0.000000 
#    z 0.000000 0.000000 3.799200 
# 
# 
# High freq. dielectric constant tensor:
#      x y z
#    x 1.712410 0.000000 0.000000 
#    y 0.000000 1.740620 0.000000 
#    z 0.000000 0.000000 1.746790 
# 
# From -- ./inp_files/19911.got.cif
#   From: 2010.03.12/outbox.cif.g09.slc.cpg/sg20_10_cif.got.tgz:19911.got - 2010.04.14 01:38:04.
