data_PCOD8158391
_publ_section_title
;
Structure prediction by ZEFSAII (Michael W. Deem and Ramdas Pophale) SiO2 
 PCOD8158391
Probable space group: C 2 2 21
;
_chemical_formula_sum "Si O2"
_cell_formula_units_Z 56
_cell_length_a 14.916675
_cell_length_b 20.964220
_cell_length_c 9.022979
_cell_angle_alpha 90.000000
_cell_angle_beta 90.000000
_cell_angle_gamma 90.000000
_cell_volume 2821.634019
_symmetry_space_group_name_H-M "C 2 2 21"
_symmetry_group_IT_number 20
_symmetry_cell_setting 'orthorhombic'
loop_
_space_group_symop_operation_xyz
x,y,z
-x,-y,1/2+z
x,-y,-z
-x,y,1/2-z
1/2+x,1/2+y,z
1/2-x,1/2-y,1/2+z
1/2+x,1/2-y,-z
1/2-x,1/2+y,1/2-z
loop_
_atom_site_type_symbol
_atom_site_label
_atom_site_fract_x
_atom_site_fract_y
_atom_site_fract_z
Si Si1 0.864960 0.760846 0.975650
Si Si2 0.593646 0.806971 0.205928
Si Si3 0.227877 0.596045 0.658271
Si Si4 0.899717 0.151086 0.771476
Si Si5 0.156777 0.641542 0.359630
Si Si6 0.832627 0.728635 0.405721
Si Si7 0.413894 0.991186 0.833543
O O1 0.901053 0.758634 0.806068
O O2 0.757688 0.749949 0.987331
O O3 0.890846 0.826944 0.056251
O O4 0.902525 0.696841 0.059721
O O5 0.500000 0.841249 0.250000
O O6 0.678442 0.848248 0.252884
O O7 0.597388 0.794263 0.031052
O O8 0.329616 0.595685 0.722414
O O9 0.226157 0.610327 0.480514
O O10 0.178352 0.529885 0.699285
O O11 0.882069 0.212962 0.671928
O O12 0.000000 0.124291 0.750000
O O13 0.197764 0.673849 0.211410
O O14 0.097297 0.583546 0.297142
O O15 0.500000 0.019353 0.750000
O O16 0.442791 0.000000 0.000000
#
# Coordination Sequence:
#
# PCOD8158391 Si02
#       7
#     8   8   8   8   8   8   8
#     4  10  19  36  53  84 121 150 189 236 301 355
#     4  11  20  31  53  81 114 154 188 236 295 356
#     4  10  20  38  54  79 118 154 199 241 294 342
#     4  11  21  35  57  83 114 155 200 242 291 359
#     4   9  20  34  58  82 113 156 189 232 294 358
#     4  11  19  35  57  83 121 155 186 241 297 358
#     4  10  22  39  59  87 120 156 199 245 297 364
#
# _framework density 19.846655999999999
#
# number of rings (size 3 to 8) (size 9 to 14) (size 15 to 20)
#    0.000    1.714    4.286    2.143    0.000    6.857 
#    0.000    0.000    0.000    0.000   11.143    0.000 
#    0.000    0.000    0.000    0.000    0.000    0.000 
#
# Total GULP energy -346915.812986 kJ/mol
# GULP energy per Si atom -12389.850464 kJ/mol
# Density = 1.980148 g / cm^3
# Si number density = 19.846656 Si / 1000 Ang^3
#
#
#
# Elastic Constant Matrix: (Units=GPa)
#
#
# Indices 1 2 3 4 5 6 
#
# 1 130.1111 30.6588 27.2911 0.0000 0.0000 0.0000
# 2 30.6588 72.9065 30.1153 0.0000 0.0000 0.0000
# 3 27.2911 30.1153 92.7751 0.0000 0.0000 0.0000
# 4 0.0000 0.0000 0.0000 15.2383 0.0000 0.0000
# 5 0.0000 0.0000 0.0000 0.0000 23.2778 0.0000
# 6 0.0000 0.0000 0.0000 0.0000 0.0000 5.6508
#
#
#
# Elastic Compliance Matrix: (Units=1/GPa)
#
#
# Indices 1 2 3 4 5 6 
#
# 1 0.008729 -0.003014 -0.001589 0.000000 0.000000 0.000000
# 2 -0.003014 0.016881 -0.004593 0.000000 0.000000 0.000000
# 3 -0.001589 -0.004593 0.012737 0.000000 0.000000 0.000000
# 4 0.000000 0.000000 0.000000 0.065624 0.000000 0.000000
# 5 0.000000 0.000000 0.000000 0.000000 0.042959 0.000000
# 6 0.000000 0.000000 0.000000 0.000000 0.000000 0.176966
#
#
# Mechanical properties :
#
#
# Convention : Reuss Voigt Hill
#
# Bulk Modulus (GPa) = 50.11484 52.43590 51.27537
# Shear Modulus (GPa) = 14.32901 22.68187 18.50544
#
# Velocity S-wave (km/s) = 2.68989 3.38428 3.05687
# Velocity P-wave (km/s) = 5.91212 6.46135 6.19283
#
# Compressibility (1/GPa) = 0.01995417
#
# Stress axis : x y z
#
# Youngs Moduli (GPa) = 114.55520 59.23818 78.51033
#
# Poissons Ratio (x) = 0.17857 0.12478
# Poissons Ratio (y) = 0.34531 0.36059
# Poissons Ratio (z) = 0.18207 0.27208
#
# Static dielectric constant tensor:
#      x y z
#    x 3.494190 0.000000 0.000000 
#    y 0.000000 3.601180 0.000000 
#    z 0.000000 0.000000 3.865840 
# 
# 
# High freq. dielectric constant tensor:
#      x y z
#    x 1.756630 0.000000 0.000000 
#    y 0.000000 1.731910 0.000000 
#    z 0.000000 0.000000 1.783640 
# 
# From -- ./inp_files/8702.got.cif
#   From: 2010.03.12/outbox.cif.g09.slc.cpg/sg20_5_cif.got.tgz:8702.got - 2010.04.14 01:38:04.
