data_PCOD8158548
_publ_section_title
;
Structure prediction by ZEFSAII (Michael W. Deem and Ramdas Pophale) SiO2 
 PCOD8158548
Probable space group: C 2 2 21
;
_chemical_formula_sum "Si O2"
_cell_formula_units_Z 56
_cell_length_a 22.077172
_cell_length_b 6.241669
_cell_length_c 22.833946
_cell_angle_alpha 90.000000
_cell_angle_beta 90.000000
_cell_angle_gamma 90.000000
_cell_volume 3146.481226
_symmetry_space_group_name_H-M "C 2 2 21"
_symmetry_group_IT_number 20
_symmetry_cell_setting 'orthorhombic'
loop_
_space_group_symop_operation_xyz
x,y,z
-x,-y,1/2+z
x,-y,-z
-x,y,1/2-z
1/2+x,1/2+y,z
1/2-x,1/2-y,1/2+z
1/2+x,1/2-y,-z
1/2-x,1/2+y,1/2-z
loop_
_atom_site_type_symbol
_atom_site_label
_atom_site_fract_x
_atom_site_fract_y
_atom_site_fract_z
Si Si1 0.805196 0.000000 0.000000
Si Si2 0.190770 0.818846 0.178036
Si Si3 0.246440 0.121938 0.942738
Si Si4 0.000000 0.391746 0.250000
Si Si5 0.896937 0.921447 0.746229
Si Si6 0.415726 0.810296 0.822193
Si Si7 0.310289 0.042487 0.761679
Si Si8 0.368188 0.878334 0.943334
O O1 0.848452 0.859054 0.040190
O O2 0.761610 0.135157 0.041657
O O3 0.197839 0.862060 0.109089
O O4 0.243041 0.944910 0.213047
O O5 0.192157 0.566400 0.196436
O O6 0.125307 0.918385 0.195172
O O7 0.308620 0.008192 0.921990
O O8 0.219357 0.000000 0.000000
O O9 0.051088 0.237348 0.221960
O O10 0.029517 0.543629 0.298813
O O11 0.839936 0.776274 0.764606
O O12 0.922661 0.062019 0.801315
O O13 0.417393 0.847023 0.892145
O O14 0.349456 0.879599 0.800576
O O15 0.396923 0.000000 0.000000
#
# Coordination Sequence:
#
# PCOD8158548 Si02
#       8
#     4   8   8   4   8   8   8   8
#     4   8  18  28  44  72 108 156 178 212 284 324
#     4  11  19  31  51  81 116 143 182 220 279 333
#     4   9  19  32  47  75 117 154 185 218 265 341
#     4  10  22  40  56  80 106 146 194 226 286 332
#     4  10  22  35  54  82 111 146 182 230 282 336
#     4  10  20  35  55  77 112 146 183 230 280 335
#     4  10  20  29  48  82 114 144 172 219 278 329
#     4   9  18  31  50  79 113 146 185 224 277 338
#
# _framework density 17.797657999999998
#
# number of rings (size 3 to 8) (size 9 to 14) (size 15 to 20)
#    0.000    2.571    2.857    0.429    2.000    3.429 
#    0.000    0.000    0.000    0.000   14.857    0.000 
#    0.000    0.000    0.000    0.000    0.000    0.000 
#
# Total GULP energy -346971.607109 kJ/mol
# GULP energy per Si atom -12391.843111 kJ/mol
# Density = 1.775715 g / cm^3
# Si number density = 17.797658 Si / 1000 Ang^3
#
#
#
# Elastic Constant Matrix: (Units=GPa)
#
#
# Indices 1 2 3 4 5 6 
#
# 1 62.5248 29.4532 36.4000 0.0000 0.0000 0.0000
# 2 29.4532 118.3013 49.8017 0.0000 0.0000 0.0000
# 3 36.4000 49.8017 134.7972 0.0000 0.0000 0.0000
# 4 0.0000 0.0000 0.0000 16.2070 0.0000 0.0000
# 5 0.0000 0.0000 0.0000 0.0000 23.7330 0.0000
# 6 0.0000 0.0000 0.0000 0.0000 0.0000 30.2341
#
#
#
# Elastic Compliance Matrix: (Units=1/GPa)
#
#
# Indices 1 2 3 4 5 6 
#
# 1 0.019948 -0.003196 -0.004206 0.000000 0.000000 0.000000
# 2 -0.003196 0.010522 -0.003024 0.000000 0.000000 0.000000
# 3 -0.004206 -0.003024 0.009672 0.000000 0.000000 0.000000
# 4 0.000000 0.000000 0.000000 0.061702 0.000000 0.000000
# 5 0.000000 0.000000 0.000000 0.000000 0.042135 0.000000
# 6 0.000000 0.000000 0.000000 0.000000 0.000000 0.033075
#
#
# Mechanical properties :
#
#
# Convention : Reuss Voigt Hill
#
# Bulk Modulus (GPa) = 51.84283 60.77033 56.30658
# Shear Modulus (GPa) = 24.46960 27.36604 25.91782
#
# Velocity S-wave (km/s) = 3.71196 3.92550 3.82022
# Velocity P-wave (km/s) = 6.89665 7.40036 7.15294
#
# Compressibility (1/GPa) = 0.01928907
#
# Stress axis : x y z
#
# Youngs Moduli (GPa) = 50.13138 95.04066 103.39485
#
# Poissons Ratio (x) = 0.30373 0.43486
# Poissons Ratio (y) = 0.16021 0.31271
# Poissons Ratio (z) = 0.21085 0.28744
#
# Static dielectric constant tensor:
#      x y z
#    x 3.060720 0.000000 0.000000 
#    y 0.000000 3.535330 0.000000 
#    z 0.000000 0.000000 3.143390 
# 
# 
# High freq. dielectric constant tensor:
#      x y z
#    x 1.653330 0.000000 0.000000 
#    y 0.000000 1.710100 0.000000 
#    z 0.000000 0.000000 1.664710 
# 
# From -- ./inp_files/26206.got.cif
#   From: 2010.03.12/outbox.cif.g09.slc.cpg/sg20_14_cif.got.tgz:26206.got - 2010.04.14 01:38:04.
