data_PCOD8158348
_publ_section_title
;
Structure prediction by ZEFSAII (Michael W. Deem and Ramdas Pophale) SiO2 
 PCOD8158348
Probable space group: C 2 2 21
;
_chemical_formula_sum "Si O2"
_cell_formula_units_Z 64
_cell_length_a 8.803254
_cell_length_b 14.182559
_cell_length_c 28.022172
_cell_angle_alpha 90.000000
_cell_angle_beta 90.000000
_cell_angle_gamma 90.000000
_cell_volume 3498.642972
_symmetry_space_group_name_H-M "C 2 2 21"
_symmetry_group_IT_number 20
_symmetry_cell_setting 'orthorhombic'
loop_
_space_group_symop_operation_xyz
x,y,z
-x,-y,1/2+z
x,-y,-z
-x,y,1/2-z
1/2+x,1/2+y,z
1/2-x,1/2-y,1/2+z
1/2+x,1/2-y,-z
1/2-x,1/2+y,1/2-z
loop_
_atom_site_type_symbol
_atom_site_label
_atom_site_fract_x
_atom_site_fract_y
_atom_site_fract_z
Si Si1 0.823896 0.392914 0.006964
Si Si2 0.321046 0.256742 0.676651
Si Si3 0.675392 0.747580 0.575455
Si Si4 0.323897 0.892914 0.493036
Si Si5 0.819358 0.120323 0.750000
Si Si6 0.324609 0.252420 0.424545
Si Si7 0.178954 0.756742 0.676651
Si Si8 0.178742 0.910119 0.750000
O O1 0.725772 0.348410 0.049468
O O2 1.000000 0.387414 0.021680
O O3 0.769884 0.500000 0.000000
O O4 0.793272 0.337131 0.958135
O O5 0.274807 0.263591 0.622022
O O6 0.240075 0.168937 0.701933
O O7 0.500000 0.241626 0.681415
O O8 0.268840 0.352943 0.702926
O O9 0.725772 0.651590 0.549468
O O10 0.500000 0.738703 0.589616
O O11 0.293274 0.837131 0.541865
O O12 0.269884 0.000000 0.500000
O O13 0.759926 0.168937 0.701933
O O14 0.000000 0.122376 0.750000
O O15 0.750756 0.014384 0.750000
O O16 0.225195 0.236409 0.377978
O O17 0.231160 0.852943 0.702927
O O18 0.000000 0.920672 0.750000
#
# Coordination Sequence:
#
# PCOD8158348 Si02
#       8
#     8   8   8   8   8   8   8   8
#     4   9  19  36  55  76 104 136 171 213 259 306
#     4  10  20  36  54  75 105 139 171 206 255 308
#     4  10  20  34  53  78 105 135 172 212 255 302
#     4   9  19  36  55  76 104 136 171 213 259 306
#     4  10  19  35  56  79 104 131 171 218 258 300
#     4  10  20  34  53  78 105 135 172 212 255 302
#     4  10  20  36  54  75 105 139 171 206 255 308
#     4   8  18  35  54  75 102 135 169 208 254 304
#
# _framework density 18.292807
#
# number of rings (size 3 to 8) (size 9 to 14) (size 15 to 20)
#    0.000    2.500    0.000    2.625    0.000    3.500 
#    0.000   12.500    0.000    0.000    0.000    0.000 
#    0.000    0.000    0.000    0.000    0.000    0.000 
#
# Total GULP energy -396858.838867 kJ/mol
# GULP energy per Si atom -12401.838715 kJ/mol
# Density = 1.825117 g / cm^3
# Si number density = 18.292807 Si / 1000 Ang^3
#
#
#
# Elastic Constant Matrix: (Units=GPa)
#
#
# Indices 1 2 3 4 5 6 
#
# 1 66.8633 39.7962 35.4633 0.0000 0.0000 0.0000
# 2 39.7962 163.1464 53.3503 0.0000 0.0000 0.0000
# 3 35.4633 53.3503 109.1992 0.0000 0.0000 0.0000
# 4 0.0000 0.0000 0.0000 11.7124 0.0000 0.0000
# 5 0.0000 0.0000 0.0000 0.0000 28.9266 0.0000
# 6 0.0000 0.0000 0.0000 0.0000 0.0000 25.6725
#
#
#
# Elastic Compliance Matrix: (Units=1/GPa)
#
#
# Indices 1 2 3 4 5 6 
#
# 1 0.019356 -0.003173 -0.004736 0.000000 0.000000 0.000000
# 2 -0.003173 0.007815 -0.002788 0.000000 0.000000 0.000000
# 3 -0.004736 -0.002788 0.012058 0.000000 0.000000 0.000000
# 4 0.000000 0.000000 0.000000 0.085380 0.000000 0.000000
# 5 0.000000 0.000000 0.000000 0.000000 0.034570 0.000000
# 6 0.000000 0.000000 0.000000 0.000000 0.000000 0.038952
#
#
# Mechanical properties :
#
#
# Convention : Reuss Voigt Hill
#
# Bulk Modulus (GPa) = 56.06702 66.26984 61.16843
# Shear Modulus (GPa) = 22.17598 27.30224 24.73911
#
# Velocity S-wave (km/s) = 3.48556 3.86750 3.68148
# Velocity P-wave (km/s) = 6.84946 7.49995 7.18207
#
# Compressibility (1/GPa) = 0.01783580
#
# Stress axis : x y z
#
# Youngs Moduli (GPa) = 51.66300 127.95888 82.93538
#
# Poissons Ratio (x) = 0.40599 0.39278
# Poissons Ratio (y) = 0.16392 0.23120
# Poissons Ratio (z) = 0.24467 0.35671
#
# Static dielectric constant tensor:
#      x y z
#    x 3.311790 0.000000 0.000000 
#    y 0.000000 3.597340 0.000000 
#    z 0.000000 0.000000 3.303950 
# 
# 
# High freq. dielectric constant tensor:
#      x y z
#    x 1.707800 0.000000 0.000000 
#    y 0.000000 1.713020 0.000000 
#    z 0.000000 0.000000 1.710060 
# 
# From -- ./inp_files/31100.got.cif
#   From: 2010.03.12/outbox.cif.g09.slc.cpg/sg20_16_cif.got.tgz:31100.got - 2010.04.14 01:38:04.
