data_PCOD8158508
_publ_section_title
;
Structure prediction by ZEFSAII (Michael W. Deem and Ramdas Pophale) SiO2 
 PCOD8158508
Probable space group: C 2 2 21
;
_chemical_formula_sum "Si O2"
_cell_formula_units_Z 48
_cell_length_a 8.857829
_cell_length_b 28.257809
_cell_length_c 9.136518
_cell_angle_alpha 90.000000
_cell_angle_beta 90.000000
_cell_angle_gamma 90.000000
_cell_volume 2286.896403
_symmetry_space_group_name_H-M "C 2 2 21"
_symmetry_group_IT_number 20
_symmetry_cell_setting 'orthorhombic'
loop_
_space_group_symop_operation_xyz
x,y,z
-x,-y,1/2+z
x,-y,-z
-x,y,1/2-z
1/2+x,1/2+y,z
1/2-x,1/2-y,1/2+z
1/2+x,1/2-y,-z
1/2-x,1/2+y,1/2-z
loop_
_atom_site_type_symbol
_atom_site_label
_atom_site_fract_x
_atom_site_fract_y
_atom_site_fract_z
Si Si1 0.660957 0.294287 0.820520
Si Si2 0.842923 0.052852 0.045336
Si Si3 0.325385 0.109360 0.217115
Si Si4 0.809005 0.948231 0.487342
Si Si5 0.329607 0.387948 0.225417
Si Si6 0.162632 0.209862 0.825307
O O1 0.500000 0.305006 0.750000
O O2 0.763492 0.338051 0.769757
O O3 0.727078 0.249140 0.738721
O O4 0.651109 0.287900 0.996996
O O5 0.765121 0.068638 0.194489
O O6 0.024042 0.053454 0.058749
O O7 0.788860 0.095041 0.936727
O O8 0.788839 0.000000 0.000000
O O9 0.500000 0.109500 0.250000
O O10 0.301124 0.091298 0.052916
O O11 0.807017 0.935677 0.317298
O O12 0.737771 0.000000 0.500000
O O13 0.500000 0.371416 0.250000
O O14 0.250631 0.339100 0.276248
O O15 0.000000 0.217951 0.750000
#
# Coordination Sequence:
#
# PCOD8158508 Si02
#       6
#     8   8   8   8   8   8
#     4  12  26  45  72  97 131 177 223 278 342 408
#     4  10  21  39  67  98 127 172 225 272 327 391
#     4  12  26  41  62  95 138 176 221 268 332 398
#     4  10  19  39  67  95 126 168 220 274 323 391
#     4   9  19  36  63  94 128 161 210 268 327 388
#     4  11  24  44  69 101 134 166 221 280 347 406
#
# _framework density 20.989145000000001
#
# number of rings (size 3 to 8) (size 9 to 14) (size 15 to 20)
#    0.000    1.333    1.667    4.000    7.000    3.333 
#    0.000    0.833    0.000    0.000    0.000    0.000 
#    0.000    0.000    0.000    0.000    0.000    0.000 
#
# Total GULP energy -297401.181044 kJ/mol
# GULP energy per Si atom -12391.715877 kJ/mol
# Density = 2.094137 g / cm^3
# Si number density = 20.989145 Si / 1000 Ang^3
#
#
#
# Elastic Constant Matrix: (Units=GPa)
#
#
# Indices 1 2 3 4 5 6 
#
# 1 74.9179 25.6510 21.8768 0.0000 0.0000 0.0000
# 2 25.6510 149.9516 26.8411 0.0000 0.0000 0.0000
# 3 21.8768 26.8411 86.8293 0.0000 0.0000 0.0000
# 4 0.0000 0.0000 0.0000 61.7836 0.0000 0.0000
# 5 0.0000 0.0000 0.0000 0.0000 24.8449 0.0000
# 6 0.0000 0.0000 0.0000 0.0000 0.0000 32.2642
#
#
#
# Elastic Compliance Matrix: (Units=1/GPa)
#
#
# Indices 1 2 3 4 5 6 
#
# 1 0.014950 -0.001994 -0.003151 0.000000 0.000000 0.000000
# 2 -0.001994 0.007325 -0.001762 0.000000 0.000000 0.000000
# 3 -0.003151 -0.001762 0.012855 0.000000 0.000000 0.000000
# 4 0.000000 0.000000 0.000000 0.016186 0.000000 0.000000
# 5 0.000000 0.000000 0.000000 0.000000 0.040250 0.000000
# 6 0.000000 0.000000 0.000000 0.000000 0.000000 0.030994
#
#
# Mechanical properties :
#
#
# Convention : Reuss Voigt Hill
#
# Bulk Modulus (GPa) = 46.90728 51.15965 49.03346
# Shear Modulus (GPa) = 34.84828 39.60052 37.22440
#
# Velocity S-wave (km/s) = 4.07910 4.34834 4.21587
# Velocity P-wave (km/s) = 6.67699 7.04543 6.86368
#
# Compressibility (1/GPa) = 0.02131865
#
# Stress axis : x y z
#
# Youngs Moduli (GPa) = 66.88742 136.51397 77.78858
#
# Poissons Ratio (x) = 0.27214 0.24508
# Poissons Ratio (y) = 0.13334 0.13708
# Poissons Ratio (z) = 0.21073 0.24056
#
# Static dielectric constant tensor:
#      x y z
#    x 3.282330 0.000000 0.000000 
#    y 0.000000 4.000760 0.000000 
#    z 0.000000 0.000000 3.879180 
# 
# 
# High freq. dielectric constant tensor:
#      x y z
#    x 1.783800 0.000000 0.000000 
#    y 0.000000 1.849540 0.000000 
#    z 0.000000 0.000000 1.835270 
# 
# From -- ./inp_files/6489.got.cif
#   From: 2010.03.12/outbox.cif.g09.slc.cpg/sg20_4_cif.got.tgz:6489.got - 2010.04.14 01:38:04.
