data_PCOD8158653
_publ_section_title
;
Structure prediction by ZEFSAII (Michael W. Deem and Ramdas Pophale) SiO2 
 PCOD8158653
Probable space group: C 2 2 21
;
_chemical_formula_sum "Si O2"
_cell_formula_units_Z 36
_cell_length_a 33.699949
_cell_length_b 10.823146
_cell_length_c 5.045134
_cell_angle_alpha 90.000000
_cell_angle_beta 90.000000
_cell_angle_gamma 90.000000
_cell_volume 1840.159492
_symmetry_space_group_name_H-M "C 2 2 21"
_symmetry_group_IT_number 20
_symmetry_cell_setting 'orthorhombic'
loop_
_space_group_symop_operation_xyz
x,y,z
-x,-y,1/2+z
x,-y,-z
-x,y,1/2-z
1/2+x,1/2+y,z
1/2-x,1/2-y,1/2+z
1/2+x,1/2-y,-z
1/2-x,1/2+y,1/2-z
loop_
_atom_site_type_symbol
_atom_site_label
_atom_site_fract_x
_atom_site_fract_y
_atom_site_fract_z
Si Si1 0.113853 0.647681 0.496047
Si Si2 0.023421 0.646990 0.496886
Si Si3 0.160812 0.716145 0.981922
Si Si4 0.264476 0.676764 0.347869
Si Si5 0.778901 0.500000 0.500000
O O1 0.118251 0.500000 0.500000
O O2 0.068606 0.690973 0.464717
O O3 0.125130 0.705497 0.777061
O O4 0.142046 0.706887 0.273091
O O5 0.022396 0.500000 0.500000
O O6 0.000000 0.700230 0.750000
O O7 0.000000 0.702258 0.250000
O O8 0.188678 0.836820 0.935271
O O9 0.192757 0.610495 0.914747
O O10 0.239442 0.729242 0.595622
O O11 0.248389 0.542727 0.250304
#
# Coordination Sequence:
#
# PCOD8158653 Si02
#       5
#     8   8   8   8   4
#     4  11  19  30  46  68  93 126 161 209 253 277
#     4   9  17  28  42  61  89 122 159 194 234 288
#     4  11  20  31  48  70  93 124 171 214 250 295
#     4  10  22  34  50  70  94 127 171 219 269 300
#     4  10  20  36  50  66  96 130 168 216 258 302
#
# _framework density 19.563523
#
# number of rings (size 3 to 8) (size 9 to 14) (size 15 to 20)
#    0.000    1.778    2.222    4.000    0.000    6.222 
#    0.000    0.000    0.000    0.000    0.000    0.000 
#    0.000    0.000    0.000    6.000    0.000   15.111 
#
# Total GULP energy -223039.772335 kJ/mol
# GULP energy per Si atom -12391.098463 kJ/mol
# Density = 1.951900 g / cm^3
# Si number density = 19.563523 Si / 1000 Ang^3
#
#
#
# Elastic Constant Matrix: (Units=GPa)
#
#
# Indices 1 2 3 4 5 6 
#
# 1 141.7199 14.1843 47.0514 0.0000 0.0000 0.0000
# 2 14.1843 15.5886 0.2676 0.0000 0.0000 0.0000
# 3 47.0514 0.2676 123.3924 0.0000 0.0000 0.0000
# 4 0.0000 0.0000 0.0000 14.1470 0.0000 0.0000
# 5 0.0000 0.0000 0.0000 0.0000 40.9830 0.0000
# 6 0.0000 0.0000 0.0000 0.0000 0.0000 17.0832
#
#
#
# Elastic Compliance Matrix: (Units=1/GPa)
#
#
# Indices 1 2 3 4 5 6 
#
# 1 0.009004 -0.008135 -0.003416 0.000000 0.000000 0.000000
# 2 -0.008135 0.071501 0.002947 0.000000 0.000000 0.000000
# 3 -0.003416 0.002947 0.009400 0.000000 0.000000 0.000000
# 4 0.000000 0.000000 0.000000 0.070687 0.000000 0.000000
# 5 0.000000 0.000000 0.000000 0.000000 0.024400 0.000000
# 6 0.000000 0.000000 0.000000 0.000000 0.000000 0.058537
#
#
# Mechanical properties :
#
#
# Convention : Reuss Voigt Hill
#
# Bulk Modulus (GPa) = 13.75552 44.85639 29.30595
# Shear Modulus (GPa) = 17.54575 29.05583 23.30079
#
# Velocity S-wave (km/s) = 2.99801 3.85802 3.45488
# Velocity P-wave (km/s) = 4.36240 6.54401 5.56123
#
# Compressibility (1/GPa) = 0.07269808
#
# Stress axis : x y z
#
# Youngs Moduli (GPa) = 111.05661 13.98588 106.37888
#
# Poissons Ratio (x) = 0.11377 0.36338
# Poissons Ratio (y) = 0.90340 -0.31348
# Poissons Ratio (z) = 0.37936 -0.04121
#
# Static dielectric constant tensor:
#      x y z
#    x 3.839250 0.000000 0.000000 
#    y 0.000000 3.516660 0.000000 
#    z 0.000000 0.000000 3.833760 
# 
# 
# High freq. dielectric constant tensor:
#      x y z
#    x 1.771260 0.000000 0.000000 
#    y 0.000000 1.685560 0.000000 
#    z 0.000000 0.000000 1.787840 
# 
# From -- ./inp_files/4565.got.cif
#   From: 2010.03.12/outbox.cif.g09.slc.cpg/sg20_3_cif.got.tgz:4565.got - 2010.04.14 01:38:04.
