data_PCOD8158296
_publ_section_title
;
Structure prediction by ZEFSAII (Michael W. Deem and Ramdas Pophale) SiO2 
 PCOD8158296
Probable space group: C 2 2 21
;
_chemical_formula_sum "Si O2"
_cell_formula_units_Z 64
_cell_length_a 10.794462
_cell_length_b 19.461635
_cell_length_c 14.496422
_cell_angle_alpha 90.000000
_cell_angle_beta 90.000000
_cell_angle_gamma 90.000000
_cell_volume 3045.377594
_symmetry_space_group_name_H-M "C 2 2 21"
_symmetry_group_IT_number 20
_symmetry_cell_setting 'orthorhombic'
loop_
_space_group_symop_operation_xyz
x,y,z
-x,-y,1/2+z
x,-y,-z
-x,y,1/2-z
1/2+x,1/2+y,z
1/2-x,1/2-y,1/2+z
1/2+x,1/2-y,-z
1/2-x,1/2+y,1/2-z
loop_
_atom_site_type_symbol
_atom_site_label
_atom_site_fract_x
_atom_site_fract_y
_atom_site_fract_z
Si Si1 0.136609 0.884108 0.778817
Si Si2 0.120510 0.370312 0.404698
Si Si3 0.758539 0.477284 0.217880
Si Si4 0.653016 0.814824 0.070347
Si Si5 0.337386 0.666793 0.481337
Si Si6 0.770039 0.948675 0.077114
Si Si7 0.052724 0.050824 0.920050
Si Si8 0.145736 0.739115 0.737638
O O1 0.120298 0.851977 0.879401
O O2 0.178512 0.818942 0.715336
O O3 0.000000 0.913008 0.750000
O O4 0.247910 0.939613 0.776164
O O5 0.137750 0.444218 0.351524
O O6 0.200468 0.365521 0.498747
O O7 0.187596 0.310770 0.344189
O O8 0.978378 0.354603 0.424938
O O9 0.792554 0.452312 0.321272
O O10 0.624555 0.456685 0.176529
O O11 0.651135 0.749153 0.002408
O O12 0.750384 0.872234 0.036198
O O13 0.706157 0.788006 0.167937
O O14 0.435165 0.629973 0.549036
O O15 0.911251 0.968815 0.095941
O O16 0.713270 0.000000 0.000000
O O17 0.107982 0.000000 0.000000
O O18 0.000000 0.731712 0.750000
#
# Coordination Sequence:
#
# PCOD8158296 Si02
#       8
#     8   8   8   8   8   8   8   8
#     4  10  19  33  59  90 119 146 199 260 314 358
#     4  10  21  38  64  85 121 166 204 255 309 378
#     4  11  21  37  59  91 123 159 197 250 319 362
#     4  10  21  40  58  85 122 158 215 249 307 374
#     4  10  22  36  61  92 113 154 201 262 311 360
#     4  11  24  37  58  88 122 167 203 250 303 371
#     4  10  20  37  59  89 125 148 200 260 316 363
#     4   8  16  34  58  83 109 157 203 250 299 364
#
# _framework density 21.015456
#
# number of rings (size 3 to 8) (size 9 to 14) (size 15 to 20)
#    0.000    2.000    2.500    1.875    3.500    1.000 
#    2.250    0.000    0.000    0.000    0.000    0.000 
#    0.000    0.000    0.000    0.000    0.000    0.000 
#
# Total GULP energy -396440.091025 kJ/mol
# GULP energy per Si atom -12388.752845 kJ/mol
# Density = 2.096762 g / cm^3
# Si number density = 21.015456 Si / 1000 Ang^3
#
#
#
# Elastic Constant Matrix: (Units=GPa)
#
#
# Indices 1 2 3 4 5 6 
#
# 1 44.5430 11.9855 10.3287 0.0000 0.0000 0.0000
# 2 11.9855 140.8008 21.2023 0.0000 0.0000 0.0000
# 3 10.3287 21.2023 70.0088 0.0000 0.0000 0.0000
# 4 0.0000 0.0000 0.0000 31.1432 0.0000 0.0000
# 5 0.0000 0.0000 0.0000 0.0000 16.0234 0.0000
# 6 0.0000 0.0000 0.0000 0.0000 0.0000 31.7088
#
#
#
# Elastic Compliance Matrix: (Units=1/GPa)
#
#
# Indices 1 2 3 4 5 6 
#
# 1 0.023565 -0.001553 -0.003006 0.000000 0.000000 0.000000
# 2 -0.001553 0.007544 -0.002056 0.000000 0.000000 0.000000
# 3 -0.003006 -0.002056 0.015350 0.000000 0.000000 0.000000
# 4 0.000000 0.000000 0.000000 0.032110 0.000000 0.000000
# 5 0.000000 0.000000 0.000000 0.000000 0.062409 0.000000
# 6 0.000000 0.000000 0.000000 0.000000 0.000000 0.031537
#
#
# Mechanical properties :
#
#
# Convention : Reuss Voigt Hill
#
# Bulk Modulus (GPa) = 30.09416 38.04284 34.06850
# Shear Modulus (GPa) = 25.40377 29.89748 27.65063
#
# Velocity S-wave (km/s) = 3.48057 3.77588 3.63123
# Velocity P-wave (km/s) = 5.52301 6.09519 5.81614
#
# Compressibility (1/GPa) = 0.03322904
#
# Stress axis : x y z
#
# Youngs Moduli (GPa) = 42.43536 132.55594 65.14667
#
# Poissons Ratio (x) = 0.20590 0.19585
# Poissons Ratio (y) = 0.06591 0.13391
# Poissons Ratio (z) = 0.12757 0.27248
#
# Static dielectric constant tensor:
#      x y z
#    x 3.312700 0.000000 0.000000 
#    y 0.000000 4.318450 0.000000 
#    z 0.000000 0.000000 3.874510 
# 
# 
# High freq. dielectric constant tensor:
#      x y z
#    x 1.777210 0.000000 0.000000 
#    y 0.000000 1.840880 0.000000 
#    z 0.000000 0.000000 1.814320 
# 
# From -- ./inp_files/20291.got.cif
#   From: 2010.03.12/outbox.cif.g09.slc.cpg/sg20_11_cif.got.tgz:20291.got - 2010.04.14 01:38:04.
