data_PCOD8158275
_publ_section_title
;
Structure prediction by ZEFSAII (Michael W. Deem and Ramdas Pophale) SiO2 
 PCOD8158275
Probable space group: C 2 2 21
;
_chemical_formula_sum "Si O2"
_cell_formula_units_Z 40
_cell_length_a 12.004369
_cell_length_b 13.994609
_cell_length_c 12.035258
_cell_angle_alpha 90.000000
_cell_angle_beta 90.000000
_cell_angle_gamma 90.000000
_cell_volume 2021.880624
_symmetry_space_group_name_H-M "C 2 2 21"
_symmetry_group_IT_number 20
_symmetry_cell_setting 'orthorhombic'
loop_
_space_group_symop_operation_xyz
x,y,z
-x,-y,1/2+z
x,-y,-z
-x,y,1/2-z
1/2+x,1/2+y,z
1/2-x,1/2-y,1/2+z
1/2+x,1/2-y,-z
1/2-x,1/2+y,1/2-z
loop_
_atom_site_type_symbol
_atom_site_label
_atom_site_fract_x
_atom_site_fract_y
_atom_site_fract_z
Si Si1 0.988969 0.837905 0.908469
Si Si2 0.875288 0.640769 0.935915
Si Si3 0.345052 0.432448 0.746033
Si Si4 0.899356 0.559367 0.172231
Si Si5 0.361733 0.413485 0.418444
O O1 0.944523 0.731417 0.895753
O O2 0.893129 0.914010 0.870067
O O3 0.098235 0.850046 0.830933
O O4 0.026873 0.862472 0.034966
O O5 0.914764 0.550349 0.864115
O O6 0.743129 0.658831 0.914392
O O7 0.898969 0.627538 0.065893
O O8 0.212434 0.424427 0.743937
O O9 0.384210 0.537333 0.701186
O O10 0.000000 0.591537 0.250000
O O11 0.321088 0.500000 0.500000
#
# Coordination Sequence:
#
# PCOD8158275 Si02
#       5
#     8   8   8   8   8
#     4  10  19  32  69  85 112 151 210 237 280 364
#     4  10  19  36  61  90 113 160 193 244 301 343
#     4   9  19  37  60  86 114 160 190 235 308 348
#     4  10  20  38  62  83 125 157 191 239 307 357
#     4   9  16  38  62  76 123 162 179 239 309 346
#
# _framework density 19.783560999999999
#
# number of rings (size 3 to 8) (size 9 to 14) (size 15 to 20)
#    0.000    2.400    6.000    0.000    2.800    1.600 
#    0.000    0.000   92.400    0.000    0.000    0.000 
#    0.000    0.000    0.000    0.000    0.000    0.000 
#
# Total GULP energy -247858.980041 kJ/mol
# GULP energy per Si atom -12392.949002 kJ/mol
# Density = 1.973853 g / cm^3
# Si number density = 19.783561 Si / 1000 Ang^3
#
#
#
# Elastic Constant Matrix: (Units=GPa)
#
#
# Indices 1 2 3 4 5 6 
#
# 1 136.8165 53.5944 46.0034 0.0000 0.0000 0.0000
# 2 53.5944 91.2851 26.9732 0.0000 0.0000 0.0000
# 3 46.0034 26.9732 60.5029 0.0000 0.0000 0.0000
# 4 0.0000 0.0000 0.0000 17.1439 0.0000 0.0000
# 5 0.0000 0.0000 0.0000 0.0000 32.5233 0.0000
# 6 0.0000 0.0000 0.0000 0.0000 0.0000 38.4496
#
#
#
# Elastic Compliance Matrix: (Units=1/GPa)
#
#
# Indices 1 2 3 4 5 6 
#
# 1 0.011360 -0.004742 -0.006524 0.000000 0.000000 0.000000
# 2 -0.004742 0.014596 -0.002902 0.000000 0.000000 0.000000
# 3 -0.006524 -0.002902 0.022782 0.000000 0.000000 0.000000
# 4 0.000000 0.000000 0.000000 0.058330 0.000000 0.000000
# 5 0.000000 0.000000 0.000000 0.000000 0.030747 0.000000
# 6 0.000000 0.000000 0.000000 0.000000 0.000000 0.026008
#
#
# Mechanical properties :
#
#
# Convention : Reuss Voigt Hill
#
# Bulk Modulus (GPa) = 49.01059 60.19405 54.60232
# Shear Modulus (GPa) = 25.13080 28.42558 26.77819
#
# Velocity S-wave (km/s) = 3.56798 3.79466 3.68306
# Velocity P-wave (km/s) = 6.46538 7.04923 6.76361
#
# Compressibility (1/GPa) = 0.02040375
#
# Stress axis : x y z
#
# Youngs Moduli (GPa) = 88.02700 68.51113 43.89442
#
# Poissons Ratio (x) = 0.32488 0.28635
# Poissons Ratio (y) = 0.41743 0.12736
# Poissons Ratio (z) = 0.57425 0.19879
#
# Static dielectric constant tensor:
#      x y z
#    x 3.618360 0.000000 0.000000 
#    y 0.000000 3.340490 0.000000 
#    z 0.000000 0.000000 3.667040 
# 
# 
# High freq. dielectric constant tensor:
#      x y z
#    x 1.772650 0.000000 0.000000 
#    y 0.000000 1.741670 0.000000 
#    z 0.000000 0.000000 1.753840 
# 
# From -- ./inp_files/19758.got.cif
#   From: 2010.03.12/outbox.cif.g09.slc.cpg/sg20_10_cif.got.tgz:19758.got - 2010.04.14 01:38:04.
