data_PCOD8158664
_publ_section_title
;
Structure prediction by ZEFSAII (Michael W. Deem and Ramdas Pophale) SiO2 
 PCOD8158664
Probable space group: C 2 2 21
;
_chemical_formula_sum "Si O2"
_cell_formula_units_Z 60
_cell_length_a 19.213162
_cell_length_b 12.944048
_cell_length_c 12.257346
_cell_angle_alpha 90.000000
_cell_angle_beta 90.000000
_cell_angle_gamma 90.000000
_cell_volume 3048.354038
_symmetry_space_group_name_H-M "C 2 2 21"
_symmetry_group_IT_number 20
_symmetry_cell_setting 'orthorhombic'
loop_
_space_group_symop_operation_xyz
x,y,z
-x,-y,1/2+z
x,-y,-z
-x,y,1/2-z
1/2+x,1/2+y,z
1/2-x,1/2-y,1/2+z
1/2+x,1/2-y,-z
1/2-x,1/2+y,1/2-z
loop_
_atom_site_type_symbol
_atom_site_label
_atom_site_fract_x
_atom_site_fract_y
_atom_site_fract_z
Si Si1 0.084516 0.563872 0.398267
Si Si2 0.166274 0.229737 0.411564
Si Si3 0.809896 0.738940 0.148342
Si Si4 0.500000 0.920582 0.250000
Si Si5 0.910884 0.111399 0.475724
Si Si6 0.790818 0.125375 0.652453
Si Si7 0.812298 0.896619 0.709381
Si Si8 0.010998 0.705051 0.550893
O O1 0.118164 0.500000 0.500000
O O2 0.138739 0.642076 0.346675
O O3 0.061331 0.490597 0.299545
O O4 0.018630 0.626818 0.448850
O O5 0.182159 0.197371 0.536082
O O6 0.216742 0.324915 0.378656
O O7 0.178373 0.128386 0.337626
O O8 0.086861 0.266375 0.401498
O O9 0.827410 0.814462 0.248092
O O10 0.732641 0.694679 0.156451
O O11 0.530075 0.849963 0.150947
O O12 0.843218 0.129617 0.550826
O O13 0.886936 0.109795 0.349709
O O14 0.969419 0.196941 0.494090
O O15 0.945275 0.000000 0.500000
O O16 0.776722 0.007985 0.691113
#
# Coordination Sequence:
#
# PCOD8158664 Si02
#       8
#     8   8   8   4   8   8   8   8
#     4   9  21  35  57  88 115 159 197 238 299 353
#     4  10  21  40  61  89 117 160 201 247 295 361
#     4  10  21  37  60  88 118 156 196 250 293 354
#     4  10  20  36  56  86 120 152 198 244 290 360
#     4  10  21  40  62  90 119 163 201 246 297 361
#     4  10  22  38  61  90 121 156 198 248 307 346
#     4  10  21  37  63  85 120 155 201 246 297 357
#     4  10  21  38  61  85 122 160 199 247 298 357
#
# _framework density 19.682753999999999
#
# number of rings (size 3 to 8) (size 9 to 14) (size 15 to 20)
#    0.000    2.133    1.333    0.800    7.467    0.533 
#    4.800    0.000    0.000    0.000    0.000    0.000 
#    0.000    0.000    0.000    0.000    0.000    0.000 
#
# Total GULP energy -371921.120434 kJ/mol
# GULP energy per Si atom -12397.370681 kJ/mol
# Density = 1.963795 g / cm^3
# Si number density = 19.682754 Si / 1000 Ang^3
#
#
#
# Elastic Constant Matrix: (Units=GPa)
#
#
# Indices 1 2 3 4 5 6 
#
# 1 65.6810 33.4086 27.7664 0.0000 0.0000 0.0000
# 2 33.4086 96.8210 37.3708 0.0000 0.0000 0.0000
# 3 27.7664 37.3708 101.6979 0.0000 0.0000 0.0000
# 4 0.0000 0.0000 0.0000 39.1236 0.0000 0.0000
# 5 0.0000 0.0000 0.0000 0.0000 17.7158 0.0000
# 6 0.0000 0.0000 0.0000 0.0000 0.0000 35.2231
#
#
#
# Elastic Compliance Matrix: (Units=1/GPa)
#
#
# Indices 1 2 3 4 5 6 
#
# 1 0.019373 -0.005410 -0.003301 0.000000 0.000000 0.000000
# 2 -0.005410 0.013546 -0.003501 0.000000 0.000000 0.000000
# 3 -0.003301 -0.003501 0.012021 0.000000 0.000000 0.000000
# 4 0.000000 0.000000 0.000000 0.025560 0.000000 0.000000
# 5 0.000000 0.000000 0.000000 0.000000 0.056447 0.000000
# 6 0.000000 0.000000 0.000000 0.000000 0.000000 0.028390
#
#
# Mechanical properties :
#
#
# Convention : Reuss Voigt Hill
#
# Bulk Modulus (GPa) = 48.74407 51.25459 49.99933
# Shear Modulus (GPa) = 26.79529 29.45611 28.12570
#
# Velocity S-wave (km/s) = 3.69366 3.87272 3.78425
# Velocity P-wave (km/s) = 6.55816 6.78927 6.67471
#
# Compressibility (1/GPa) = 0.02051532
#
# Stress axis : x y z
#
# Youngs Moduli (GPa) = 51.61911 73.82013 83.18960
#
# Poissons Ratio (x) = 0.39940 0.27462
# Poissons Ratio (y) = 0.27928 0.29122
# Poissons Ratio (z) = 0.17040 0.25842
#
# Static dielectric constant tensor:
#      x y z
#    x 3.260090 0.000000 0.000000 
#    y 0.000000 3.695440 0.000000 
#    z 0.000000 0.000000 3.779310 
# 
# 
# High freq. dielectric constant tensor:
#      x y z
#    x 1.743310 0.000000 0.000000 
#    y 0.000000 1.770390 0.000000 
#    z 0.000000 0.000000 1.775190 
# 
# From -- ./inp_files/16384.got.cif
#   From: 2010.03.12/outbox.cif.g09.slc.cpg/sg20_9_cif.got.tgz:16384.got - 2010.04.14 01:38:04.
