data_PCOD8158414
_publ_section_title
;
Structure prediction by ZEFSAII (Michael W. Deem and Ramdas Pophale) SiO2 
 PCOD8158414
Probable space group: C 2 2 21
;
_chemical_formula_sum "Si O2"
_cell_formula_units_Z 56
_cell_length_a 19.352218
_cell_length_b 15.470137
_cell_length_c 9.380403
_cell_angle_alpha 90.000000
_cell_angle_beta 90.000000
_cell_angle_gamma 90.000000
_cell_volume 2808.318780
_symmetry_space_group_name_H-M "C 2 2 21"
_symmetry_group_IT_number 20
_symmetry_cell_setting 'orthorhombic'
loop_
_space_group_symop_operation_xyz
x,y,z
-x,-y,1/2+z
x,-y,-z
-x,y,1/2-z
1/2+x,1/2+y,z
1/2-x,1/2-y,1/2+z
1/2+x,1/2-y,-z
1/2-x,1/2+y,1/2-z
loop_
_atom_site_type_symbol
_atom_site_label
_atom_site_fract_x
_atom_site_fract_y
_atom_site_fract_z
Si Si1 0.191253 0.912558 0.230710
Si Si2 0.519580 0.275199 0.913368
Si Si3 0.289002 0.597045 0.192047
Si Si4 0.324974 0.307548 0.547360
Si Si5 0.034296 0.579454 0.903882
Si Si6 0.691037 0.112996 0.949459
Si Si7 0.908221 0.900209 0.025811
O O1 0.260537 0.888694 0.313443
O O2 0.122174 0.884497 0.316002
O O3 0.187736 0.015633 0.214167
O O4 0.197180 0.871186 0.077206
O O5 0.500000 0.280318 0.750000
O O6 0.594311 0.318086 0.921887
O O7 0.514509 0.174715 0.965255
O O8 0.471229 0.334397 0.011171
O O9 0.279497 0.672255 0.309807
O O10 0.348613 0.626371 0.084234
O O11 0.222543 0.568289 0.093855
O O12 0.311660 0.211152 0.496600
O O13 0.117685 0.573988 0.901553
O O14 0.000000 0.566294 0.750000
O O15 0.005888 0.500000 0.000000
O O16 0.931103 0.000000 0.000000
#
# Coordination Sequence:
#
# PCOD8158414 Si02
#       7
#     8   8   8   8   8   8   8
#     4  10  21  36  57  89 116 152 197 245 292 351
#     4  10  20  38  60  84 123 165 199 243 300 361
#     4  10  19  36  61  81 117 158 190 238 293 362
#     4  11  21  34  56  90 117 149 202 249 284 348
#     4  10  22  43  66  88 114 158 204 256 308 361
#     4  10  21  40  62  80 118 159 193 237 311 360
#     4   9  19  36  57  83 120 164 192 230 302 364
#
# _framework density 19.940756
#
# number of rings (size 3 to 8) (size 9 to 14) (size 15 to 20)
#    0.000    2.000    1.429    3.429    0.000    1.714 
#    5.143    2.857    0.000    0.000    0.000    0.000 
#    0.000    0.000    0.000    0.000    0.000    0.000 
#
# Total GULP energy -347060.094865 kJ/mol
# GULP energy per Si atom -12395.003388 kJ/mol
# Density = 1.989537 g / cm^3
# Si number density = 19.940756 Si / 1000 Ang^3
#
#
#
# Elastic Constant Matrix: (Units=GPa)
#
#
# Indices 1 2 3 4 5 6 
#
# 1 90.8460 29.2569 38.1439 0.0000 0.0000 0.0000
# 2 29.2569 71.9002 42.5752 0.0000 0.0000 0.0000
# 3 38.1439 42.5752 107.3610 0.0000 0.0000 0.0000
# 4 0.0000 0.0000 0.0000 35.9619 0.0000 0.0000
# 5 0.0000 0.0000 0.0000 0.0000 27.4594 0.0000
# 6 0.0000 0.0000 0.0000 0.0000 0.0000 25.2107
#
#
#
# Elastic Compliance Matrix: (Units=1/GPa)
#
#
# Indices 1 2 3 4 5 6 
#
# 1 0.013575 -0.003487 -0.003440 0.000000 0.000000 0.000000
# 2 -0.003487 0.019072 -0.006324 0.000000 0.000000 0.000000
# 3 -0.003440 -0.006324 0.013045 0.000000 0.000000 0.000000
# 4 0.000000 0.000000 0.000000 0.027807 0.000000 0.000000
# 5 0.000000 0.000000 0.000000 0.000000 0.036417 0.000000
# 6 0.000000 0.000000 0.000000 0.000000 0.000000 0.039666
#
#
# Mechanical properties :
#
#
# Convention : Reuss Voigt Hill
#
# Bulk Modulus (GPa) = 52.11376 54.45102 53.28239
# Shear Modulus (GPa) = 27.40013 28.40182 27.90097
#
# Velocity S-wave (km/s) = 3.71088 3.77810 3.74464
# Velocity P-wave (km/s) = 6.67472 6.81159 6.74350
#
# Compressibility (1/GPa) = 0.01918879
#
# Stress axis : x y z
#
# Youngs Moduli (GPa) = 73.66473 52.43330 76.65953
#
# Poissons Ratio (x) = 0.18282 0.26374
# Poissons Ratio (y) = 0.25684 0.48483
# Poissons Ratio (z) = 0.25343 0.33161
#
# Static dielectric constant tensor:
#      x y z
#    x 3.652300 0.000000 0.000000 
#    y 0.000000 3.836160 0.000000 
#    z 0.000000 0.000000 3.487190 
# 
# 
# High freq. dielectric constant tensor:
#      x y z
#    x 1.767460 0.000000 0.000000 
#    y 0.000000 1.793500 0.000000 
#    z 0.000000 0.000000 1.768340 
# 
# From -- ./inp_files/10187.got.cif
#   From: 2010.03.12/outbox.cif.g09.slc.cpg/sg20_6_cif.got.tgz:10187.got - 2010.04.14 01:38:04.
