data_PCOD8158129
_publ_section_title
;
Structure prediction by ZEFSAII (Michael W. Deem and Ramdas Pophale) SiO2 
 PCOD8158129
Probable space group: C 2 2 21
;
_chemical_formula_sum "Si O2"
_cell_formula_units_Z 32
_cell_length_a 14.762181
_cell_length_b 11.754332
_cell_length_c 8.094933
_cell_angle_alpha 90.000000
_cell_angle_beta 90.000000
_cell_angle_gamma 90.000000
_cell_volume 1404.629346
_symmetry_space_group_name_H-M "C 2 2 21"
_symmetry_group_IT_number 20
_symmetry_cell_setting 'orthorhombic'
loop_
_space_group_symop_operation_xyz
x,y,z
-x,-y,1/2+z
x,-y,-z
-x,y,1/2-z
1/2+x,1/2+y,z
1/2-x,1/2-y,1/2+z
1/2+x,1/2-y,-z
1/2-x,1/2+y,1/2-z
loop_
_atom_site_type_symbol
_atom_site_label
_atom_site_fract_x
_atom_site_fract_y
_atom_site_fract_z
Si Si1 0.596620 0.732968 0.308544
Si Si2 0.576264 0.400532 0.382343
Si Si3 0.403220 0.009452 0.694934
Si Si4 0.284466 0.458784 0.683805
O O1 0.500000 0.685885 0.250000
O O2 0.603126 0.709103 0.506113
O O3 0.607753 0.864252 0.267195
O O4 0.671895 0.664781 0.206847
O O5 0.535817 0.500000 0.500000
O O6 0.500000 0.365185 0.250000
O O7 0.668576 0.446956 0.300471
O O8 0.500000 0.957653 0.750000
O O9 0.396570 0.000000 0.500000
O O10 0.320842 0.939506 0.772537
O O11 0.297310 0.500000 0.500000
#
# Coordination Sequence:
#
# PCOD8158129 Si02
#       4
#     8   8   8   8
#     4  10  22  41  66  99 131 172 221 266 327 391
#     4  10  18  34  62 100 140 173 212 271 325 382
#     4  11  25  47  68  93 131 173 218 273 329 392
#     4  11  22  38  65 100 135 172 218 272 324 383
#
# _framework density 22.781808999999999
#
# number of rings (size 3 to 8) (size 9 to 14) (size 15 to 20)
#    0.000    1.500    0.000    8.250    0.000    4.000 
#    0.000   15.000    0.000    1.500    0.000    0.000 
#    0.000    0.000    0.000    0.000    0.000    0.000 
#
# Total GULP energy -198415.020622 kJ/mol
# GULP energy per Si atom -12400.938789 kJ/mol
# Density = 2.272996 g / cm^3
# Si number density = 22.781809 Si / 1000 Ang^3
#
#
#
# Elastic Constant Matrix: (Units=GPa)
#
#
# Indices 1 2 3 4 5 6 
#
# 1 166.2994 28.2084 19.6467 0.0000 0.0000 0.0000
# 2 28.2084 39.8463 15.2335 0.0000 0.0000 0.0000
# 3 19.6467 15.2335 128.5512 0.0000 0.0000 0.0000
# 4 0.0000 0.0000 0.0000 29.7546 0.0000 0.0000
# 5 0.0000 0.0000 0.0000 0.0000 43.1137 0.0000
# 6 0.0000 0.0000 0.0000 0.0000 0.0000 -10.8372
#
#
#
# Elastic Compliance Matrix: (Units=1/GPa)
#
#
# Indices 1 2 3 4 5 6 
#
# 1 0.006864 -0.004670 -0.000496 0.000000 0.000000 0.000000
# 2 -0.004670 0.029464 -0.002778 0.000000 0.000000 0.000000
# 3 -0.000496 -0.002778 0.008184 0.000000 0.000000 0.000000
# 4 0.000000 0.000000 0.000000 0.033608 0.000000 0.000000
# 5 0.000000 0.000000 0.000000 0.000000 0.023194 0.000000
# 6 0.000000 0.000000 0.000000 0.000000 0.000000 -0.092275
#
#
# Mechanical properties :
#
#
# Convention : Reuss Voigt Hill
#
# Bulk Modulus (GPa) = 34.93370 51.20824 43.07097
# Shear Modulus (GPa) = 145.06005 30.51343 87.78674
#
# Velocity S-wave (km/s) = 7.98823 3.66372 6.21429
# Velocity P-wave (km/s) = 10.02246 6.35796 8.39266
#
# Compressibility (1/GPa) = 0.02862565
#
# Stress axis : x y z
#
# Youngs Moduli (GPa) = 145.68981 33.93943 122.19058
#
# Poissons Ratio (x) = 0.15849 0.06056
# Poissons Ratio (y) = 0.68032 0.33943
# Poissons Ratio (z) = 0.07221 0.09428
#
# Static dielectric constant tensor:
#      x y z
#    x 4.871480 0.000000 0.000000 
#    y 0.000000 3.763960 0.000000 
#    z 0.000000 0.000000 4.441640 
# 
# 
# High freq. dielectric constant tensor:
#      x y z
#    x 1.911150 0.000000 0.000000 
#    y 0.000000 1.874310 0.000000 
#    z 0.000000 0.000000 1.916100 
# 
# From -- ./inp_files/6802.got.cif
#   From: 2010.03.12/outbox.cif.g09.slc.cpg/sg20_4_cif.got.tgz:6802.got - 2010.04.14 01:38:04.
