data_PCOD8158576
_publ_section_title
;
Structure prediction by ZEFSAII (Michael W. Deem and Ramdas Pophale) SiO2 
 PCOD8158576
Probable space group: C 2 2 21
;
_chemical_formula_sum "Si O2"
_cell_formula_units_Z 64
_cell_length_a 12.106263
_cell_length_b 16.817938
_cell_length_c 13.062599
_cell_angle_alpha 90.000000
_cell_angle_beta 90.000000
_cell_angle_gamma 90.000000
_cell_volume 2659.576253
_symmetry_space_group_name_H-M "C 2 2 21"
_symmetry_group_IT_number 20
_symmetry_cell_setting 'orthorhombic'
loop_
_space_group_symop_operation_xyz
x,y,z
-x,-y,1/2+z
x,-y,-z
-x,y,1/2-z
1/2+x,1/2+y,z
1/2-x,1/2-y,1/2+z
1/2+x,1/2-y,-z
1/2-x,1/2+y,1/2-z
loop_
_atom_site_type_symbol
_atom_site_label
_atom_site_fract_x
_atom_site_fract_y
_atom_site_fract_z
Si Si1 0.674503 0.504296 0.883424
Si Si2 0.328834 0.138471 0.869760
Si Si3 0.566823 0.910816 0.125098
Si Si4 0.997500 0.131106 0.634160
Si Si5 0.047345 0.588183 0.118782
Si Si6 0.767922 0.187982 0.893889
Si Si7 0.172342 0.736425 0.108033
Si Si8 0.308869 0.138723 0.115679
O O1 0.755686 0.565618 0.826992
O O2 0.549372 0.539607 0.873828
O O3 0.702650 0.414370 0.845031
O O4 0.711097 0.500000 0.000000
O O5 0.452746 0.125123 0.827665
O O6 0.270127 0.219721 0.827426
O O7 0.319721 0.144521 0.992796
O O8 0.671837 0.860417 0.167817
O O9 0.586594 0.002176 0.157675
O O10 0.553494 0.905470 0.003451
O O11 0.919979 0.196140 0.577310
O O12 0.000000 0.159878 0.750000
O O13 0.122346 0.133725 0.592515
O O14 0.121475 0.660004 0.167516
O O15 0.921670 0.599195 0.157717
O O16 0.795552 0.272074 0.839527
O O17 0.720551 0.201215 0.005018
#
# Coordination Sequence:
#
# PCOD8158576 Si02
#       8
#     8   8   8   8   8   8   8   8
#     4   9  17  33  57  85 110 158 216 252 295 384
#     4   8  14  25  47  79 109 137 185 253 292 343
#     4   9  16  26  46  79 116 143 180 247 309 340
#     4  11  23  40  61  91 131 166 204 269 342 380
#     4   9  14  26  47  78 112 141 186 246 296 338
#     4  10  20  33  56  86 117 157 206 254 304 383
#     4   9  18  32  56  84 113 153 209 250 303 370
#     4   9  14  27  51  78 105 140 201 247 283 353
#
# _framework density 24.063984000000001
#
# number of rings (size 3 to 8) (size 9 to 14) (size 15 to 20)
#    0.000    2.750    2.500    0.750    1.750    0.000 
#    4.500    0.000    2.750    3.000    0.000    0.000 
#    0.000    0.000    0.000    0.000    0.000    0.000 
#
# Total GULP energy -396484.055668 kJ/mol
# GULP energy per Si atom -12390.126740 kJ/mol
# Density = 2.400921 g / cm^3
# Si number density = 24.063984 Si / 1000 Ang^3
#
#
#
# Elastic Constant Matrix: (Units=GPa)
#
#
# Indices 1 2 3 4 5 6 
#
# 1 195.1034 113.3760 9.8297 0.0000 0.0000 0.0000
# 2 113.3760 205.4882 6.9764 0.0000 0.0000 0.0000
# 3 9.8297 6.9764 17.8347 0.0000 0.0000 0.0000
# 4 0.0000 0.0000 0.0000 17.1746 0.0000 0.0000
# 5 0.0000 0.0000 0.0000 0.0000 30.1817 0.0000
# 6 0.0000 0.0000 0.0000 0.0000 0.0000 64.0098
#
#
#
# Elastic Compliance Matrix: (Units=1/GPa)
#
#
# Indices 1 2 3 4 5 6 
#
# 1 0.007662 -0.004139 -0.002604 0.000000 0.000000 0.000000
# 2 -0.004139 0.007168 -0.000523 0.000000 0.000000 0.000000
# 3 -0.002604 -0.000523 0.057710 0.000000 0.000000 0.000000
# 4 0.000000 0.000000 0.000000 0.058225 0.000000 0.000000
# 5 0.000000 0.000000 0.000000 0.000000 0.033133 0.000000
# 6 0.000000 0.000000 0.000000 0.000000 0.000000 0.015623
#
#
# Mechanical properties :
#
#
# Convention : Reuss Voigt Hill
#
# Bulk Modulus (GPa) = 17.23872 75.42117 46.32994
# Shear Modulus (GPa) = 23.43154 41.48951 32.46053
#
# Velocity S-wave (km/s) = 3.12383 4.15677 3.67676
# Velocity P-wave (km/s) = 4.49337 7.37891 6.10895
#
# Compressibility (1/GPa) = 0.05800896
#
# Stress axis : x y z
#
# Youngs Moduli (GPa) = 130.51683 139.51239 17.32798
#
# Poissons Ratio (x) = 0.57743 0.04512
# Poissons Ratio (y) = 0.54020 0.00906
# Poissons Ratio (z) = 0.33985 0.07291
#
# Static dielectric constant tensor:
#      x y z
#    x 4.794980 0.000000 0.000000 
#    y 0.000000 4.921580 0.000000 
#    z 0.000000 0.000000 3.936440 
# 
# 
# High freq. dielectric constant tensor:
#      x y z
#    x 1.947030 0.000000 0.000000 
#    y 0.000000 1.957840 0.000000 
#    z 0.000000 0.000000 1.953070 
# 
# From -- ./inp_files/20263.got.cif
#   From: 2010.03.12/outbox.cif.g09.slc.cpg/sg20_11_cif.got.tgz:20263.got - 2010.04.14 01:38:04.
