data_PCOD8158663
_publ_section_title
;
Structure prediction by ZEFSAII (Michael W. Deem and Ramdas Pophale) SiO2 
 PCOD8158663
Probable space group: C 2 2 21
;
_chemical_formula_sum "Si O2"
_cell_formula_units_Z 64
_cell_length_a 18.617969
_cell_length_b 12.302607
_cell_length_c 14.002145
_cell_angle_alpha 90.000000
_cell_angle_beta 90.000000
_cell_angle_gamma 90.000000
_cell_volume 3207.185092
_symmetry_space_group_name_H-M "C 2 2 21"
_symmetry_group_IT_number 20
_symmetry_cell_setting 'orthorhombic'
loop_
_space_group_symop_operation_xyz
x,y,z
-x,-y,1/2+z
x,-y,-z
-x,y,1/2-z
1/2+x,1/2+y,z
1/2-x,1/2-y,1/2+z
1/2+x,1/2-y,-z
1/2-x,1/2+y,1/2-z
loop_
_atom_site_type_symbol
_atom_site_label
_atom_site_fract_x
_atom_site_fract_y
_atom_site_fract_z
Si Si1 0.151713 0.169472 0.260466
Si Si2 0.726007 0.491012 0.608766
Si Si3 0.718933 0.532552 0.105472
Si Si4 0.275950 0.667675 0.742304
Si Si5 0.987451 0.621994 0.474566
Si Si6 0.135859 0.358314 0.833411
Si Si7 0.455171 0.830357 0.164942
Si Si8 0.117824 0.545802 0.358951
O O1 0.164326 0.072895 0.334978
O O2 0.165620 0.123219 0.152614
O O3 0.202682 0.271216 0.278963
O O4 0.074048 0.218957 0.286164
O O5 0.702327 0.500000 0.500000
O O6 0.729359 0.612892 0.652647
O O7 0.799419 0.422315 0.615496
O O8 0.714375 0.424703 0.165438
O O9 0.801062 0.576843 0.108759
O O10 0.693404 0.500000 0.000000
O O11 0.341025 0.751450 0.726469
O O12 0.962547 0.500000 0.500000
O O13 0.924574 0.674428 0.410253
O O14 0.995499 0.694326 0.571299
O O15 0.063143 0.620311 0.418590
O O16 0.104380 0.437723 0.753385
O O17 0.500000 0.887384 0.250000
O O18 0.397055 0.917523 0.124578
#
# Coordination Sequence:
#
# PCOD8158663 Si02
#       8
#     8   8   8   8   8   8   8   8
#     4  10  21  38  56  85 117 156 193 248 298 350
#     4  10  21  36  57  84 116 155 192 246 292 352
#     4  11  21  36  59  87 119 154 202 251 300 361
#     4  10  20  36  56  85 118 154 196 241 302 347
#     4  10  22  34  55  91 121 163 193 238 303 368
#     4  11  20  37  57  86 124 156 197 243 299 359
#     4  11  22  37  60  83 121 159 199 245 299 363
#     4  11  19  36  58  86 124 153 188 249 304 361
#
# _framework density 19.955193000000001
#
# number of rings (size 3 to 8) (size 9 to 14) (size 15 to 20)
#    0.000    1.500    5.000    3.375    0.000    5.000 
#    0.000    0.000    0.000    9.750    0.000    0.000 
#    0.000    0.000    0.000    0.000    0.000    0.000 
#
# Total GULP energy -396584.574912 kJ/mol
# GULP energy per Si atom -12393.267966 kJ/mol
# Density = 1.990977 g / cm^3
# Si number density = 19.955193 Si / 1000 Ang^3
#
#
#
# Elastic Constant Matrix: (Units=GPa)
#
#
# Indices 1 2 3 4 5 6 
#
# 1 72.4979 28.0796 40.1341 0.0000 0.0000 0.0000
# 2 28.0796 69.2414 21.0583 0.0000 0.0000 0.0000
# 3 40.1341 21.0583 144.0067 0.0000 0.0000 0.0000
# 4 0.0000 0.0000 0.0000 27.8903 0.0000 0.0000
# 5 0.0000 0.0000 0.0000 0.0000 27.8468 0.0000
# 6 0.0000 0.0000 0.0000 0.0000 0.0000 20.6700
#
#
#
# Elastic Compliance Matrix: (Units=1/GPa)
#
#
# Indices 1 2 3 4 5 6 
#
# 1 0.018568 -0.006233 -0.004263 0.000000 0.000000 0.000000
# 2 -0.006233 0.017207 -0.000779 0.000000 0.000000 0.000000
# 3 -0.004263 -0.000779 0.008246 0.000000 0.000000 0.000000
# 4 0.000000 0.000000 0.000000 0.035855 0.000000 0.000000
# 5 0.000000 0.000000 0.000000 0.000000 0.035911 0.000000
# 6 0.000000 0.000000 0.000000 0.000000 0.000000 0.048379
#
#
# Mechanical properties :
#
#
# Convention : Reuss Voigt Hill
#
# Bulk Modulus (GPa) = 46.57693 51.58778 49.08235
# Shear Modulus (GPa) = 25.78999 28.37968 27.08484
#
# Velocity S-wave (km/s) = 3.59889 3.77526 3.68813
# Velocity P-wave (km/s) = 6.37658 6.70159 6.54111
#
# Compressibility (1/GPa) = 0.02146986
#
# Stress axis : x y z
#
# Youngs Moduli (GPa) = 53.85653 58.11604 121.26801
#
# Poissons Ratio (x) = 0.36225 0.51700
# Poissons Ratio (y) = 0.33570 0.09447
# Poissons Ratio (z) = 0.22961 0.04527
#
# Static dielectric constant tensor:
#      x y z
#    x 3.478760 0.000000 0.000000 
#    y 0.000000 3.635410 0.000000 
#    z 0.000000 0.000000 3.835290 
# 
# 
# High freq. dielectric constant tensor:
#      x y z
#    x 1.754050 0.000000 0.000000 
#    y 0.000000 1.758240 0.000000 
#    z 0.000000 0.000000 1.791700 
# 
# From -- ./inp_files/21522.got.cif
#   From: 2010.03.12/outbox.cif.g09.slc.cpg/sg20_11_cif.got.tgz:21522.got - 2010.04.14 01:38:04.
