data_PCOD8158294
_publ_section_title
;
Structure prediction by ZEFSAII (Michael W. Deem and Ramdas Pophale) SiO2 
 PCOD8158294
Probable space group: C 2 2 21
;
_chemical_formula_sum "Si O2"
_cell_formula_units_Z 48
_cell_length_a 11.912308
_cell_length_b 13.258555
_cell_length_c 15.777228
_cell_angle_alpha 90.000000
_cell_angle_beta 90.000000
_cell_angle_gamma 90.000000
_cell_volume 2491.855245
_symmetry_space_group_name_H-M "C 2 2 21"
_symmetry_group_IT_number 20
_symmetry_cell_setting 'orthorhombic'
loop_
_space_group_symop_operation_xyz
x,y,z
-x,-y,1/2+z
x,-y,-z
-x,y,1/2-z
1/2+x,1/2+y,z
1/2-x,1/2-y,1/2+z
1/2+x,1/2-y,-z
1/2-x,1/2+y,1/2-z
loop_
_atom_site_type_symbol
_atom_site_label
_atom_site_fract_x
_atom_site_fract_y
_atom_site_fract_z
Si Si1 0.070322 0.354692 0.437575
Si Si2 0.742262 0.666638 0.811598
Si Si3 0.164094 0.376565 0.792006
Si Si4 0.549902 0.920448 0.616801
Si Si5 0.627337 0.540607 0.222088
Si Si6 0.905585 0.745528 0.679846
O O1 0.178585 0.306932 0.392186
O O2 0.070800 0.342145 0.539334
O O3 0.082251 0.469881 0.412324
O O4 0.953986 0.305678 0.404508
O O5 0.654415 0.757887 0.812206
O O6 0.678125 0.560070 0.820838
O O7 0.810040 0.673994 0.721831
O O8 0.126336 0.389892 0.694970
O O9 0.289650 0.424972 0.800080
O O10 0.080799 0.429143 0.857532
O O11 0.500000 0.516307 0.250000
O O12 0.632878 0.638653 0.159096
O O13 0.000000 0.758208 0.750000
#
# Coordination Sequence:
#
# PCOD8158294 Si02
#       6
#     8   8   8   8   8   8
#     4  10  19  37  61  89 108 152 197 250 286 347
#     4  10  19  34  59  83 117 150 193 233 296 342
#     4  10  21  38  57  87 115 155 191 246 289 351
#     4  10  21  36  62  87 116 144 206 247 295 329
#     4  10  19  33  57  85 115 152 190 229 284 362
#     4   8  17  32  56  85 108 150 191 233 283 341
#
# _framework density 19.262756
#
# number of rings (size 3 to 8) (size 9 to 14) (size 15 to 20)
#    0.000    2.333    1.667    2.000    7.000    0.000 
#    6.000    0.000    0.000    0.000    0.000    0.000 
#    0.000    0.000    0.000    0.000    0.000    0.000 
#
# Total GULP energy -297314.455059 kJ/mol
# GULP energy per Si atom -12388.102294 kJ/mol
# Density = 1.921891 g / cm^3
# Si number density = 19.262756 Si / 1000 Ang^3
#
#
#
# Elastic Constant Matrix: (Units=GPa)
#
#
# Indices 1 2 3 4 5 6 
#
# 1 98.2734 16.4024 25.2210 0.0000 0.0000 0.0000
# 2 16.4024 61.8463 15.3556 0.0000 0.0000 0.0000
# 3 25.2210 15.3556 90.4238 0.0000 0.0000 0.0000
# 4 0.0000 0.0000 0.0000 19.7519 0.0000 0.0000
# 5 0.0000 0.0000 0.0000 0.0000 5.7543 0.0000
# 6 0.0000 0.0000 0.0000 0.0000 0.0000 36.3027
#
#
#
# Elastic Compliance Matrix: (Units=1/GPa)
#
#
# Indices 1 2 3 4 5 6 
#
# 1 0.011266 -0.002305 -0.002751 0.000000 0.000000 0.000000
# 2 -0.002305 0.017352 -0.002304 0.000000 0.000000 0.000000
# 3 -0.002751 -0.002304 0.012218 0.000000 0.000000 0.000000
# 4 0.000000 0.000000 0.000000 0.050628 0.000000 0.000000
# 5 0.000000 0.000000 0.000000 0.000000 0.173784 0.000000
# 6 0.000000 0.000000 0.000000 0.000000 0.000000 0.027546
#
#
# Mechanical properties :
#
#
# Convention : Reuss Voigt Hill
#
# Bulk Modulus (GPa) = 38.28955 40.50018 39.39486
# Shear Modulus (GPa) = 15.81178 25.26609 20.53894
#
# Velocity S-wave (km/s) = 2.86815 3.62561 3.26889
# Velocity P-wave (km/s) = 5.55779 6.21269 5.89434
#
# Compressibility (1/GPa) = 0.02611679
#
# Stress axis : x y z
#
# Youngs Moduli (GPa) = 88.75936 57.62880 81.84926
#
# Poissons Ratio (x) = 0.13283 0.22517
# Poissons Ratio (y) = 0.20459 0.18857
# Poissons Ratio (z) = 0.24418 0.13277
#
# Static dielectric constant tensor:
#      x y z
#    x 3.784580 0.000000 0.000000 
#    y 0.000000 3.604630 0.000000 
#    z 0.000000 0.000000 3.674050 
# 
# 
# High freq. dielectric constant tensor:
#      x y z
#    x 1.757640 0.000000 0.000000 
#    y 0.000000 1.755680 0.000000 
#    z 0.000000 0.000000 1.704230 
# 
# From -- ./inp_files/24327.got.cif
#   From: 2010.03.12/outbox.cif.g09.slc.cpg/sg20_13_cif.got.tgz:24327.got - 2010.04.14 01:38:04.
