data_PCOD8158939
_publ_section_title
;
Structure prediction by ZEFSAII (Michael W. Deem and Ramdas Pophale) SiO2 
 PCOD8158939
Probable space group: C 2 2 21
;
_chemical_formula_sum "Si O2"
_cell_formula_units_Z 48
_cell_length_a 12.650992
_cell_length_b 21.122658
_cell_length_c 8.413664
_cell_angle_alpha 90.000000
_cell_angle_beta 90.000000
_cell_angle_gamma 90.000000
_cell_volume 2248.320979
_symmetry_space_group_name_H-M "C 2 2 21"
_symmetry_group_IT_number 20
_symmetry_cell_setting 'orthorhombic'
loop_
_space_group_symop_operation_xyz
x,y,z
-x,-y,1/2+z
x,-y,-z
-x,y,1/2-z
1/2+x,1/2+y,z
1/2-x,1/2-y,1/2+z
1/2+x,1/2-y,-z
1/2-x,1/2+y,1/2-z
loop_
_atom_site_type_symbol
_atom_site_label
_atom_site_fract_x
_atom_site_fract_y
_atom_site_fract_z
Si Si1 0.876500 0.076547 0.757439
Si Si2 0.612009 0.237358 0.663099
Si Si3 0.132135 0.606491 0.108410
Si Si4 0.243889 0.000000 0.000000
Si Si5 0.274215 0.690680 0.888991
Si Si6 0.601642 0.884123 0.546705
Si Si7 0.735341 0.500000 0.500000
O O1 0.834317 0.024071 0.636460
O O2 0.830372 0.148079 0.751515
O O3 0.000000 0.081057 0.750000
O O4 0.841125 0.052495 0.928790
O O5 0.500000 0.254407 0.750000
O O6 0.637607 0.282841 0.512530
O O7 0.706656 0.243950 0.793083
O O8 0.613242 0.166351 0.593956
O O9 0.124850 0.643651 0.276554
O O10 0.191505 0.538517 0.125577
O O11 0.016843 0.589385 0.040567
O O12 0.186189 0.651738 0.982455
O O13 0.316463 0.940516 0.966521
#
# Coordination Sequence:
#
# PCOD8158939 Si02
#       7
#     8   8   8   4   8   8   4
#     4  11  24  43  65  97 133 185 230 282 344 419
#     4  12  25  47  71 104 138 189 240 295 357 424
#     4  10  21  40  64 101 136 177 218 285 360 419
#     4  12  22  42  70 102 136 178 234 292 354 424
#     4  11  25  45  69  97 143 179 236 293 346 420
#     4  11  22  40  69 103 134 175 226 290 361 426
#     4  10  20  40  62  94 142 168 222 286 340 416
#
# _framework density 21.349264999999999
#
# number of rings (size 3 to 8) (size 9 to 14) (size 15 to 20)
#    0.000    1.000    5.000    2.000    0.000    1.333 
#    9.000    1.667    0.000    0.000    0.000    0.000 
#    0.000    0.000    0.000    0.000    0.000    0.000 
#
# Total GULP energy -297361.428362 kJ/mol
# GULP energy per Si atom -12390.059515 kJ/mol
# Density = 2.130067 g / cm^3
# Si number density = 21.349265 Si / 1000 Ang^3
#
#
#
# Elastic Constant Matrix: (Units=GPa)
#
#
# Indices 1 2 3 4 5 6 
#
# 1 144.6679 27.0236 36.2729 0.0000 0.0000 0.0000
# 2 27.0236 53.6565 11.2836 0.0000 0.0000 0.0000
# 3 36.2729 11.2836 70.3339 0.0000 0.0000 0.0000
# 4 0.0000 0.0000 0.0000 42.5590 0.0000 0.0000
# 5 0.0000 0.0000 0.0000 0.0000 29.8040 0.0000
# 6 0.0000 0.0000 0.0000 0.0000 0.0000 -4.8071
#
#
#
# Elastic Compliance Matrix: (Units=1/GPa)
#
#
# Indices 1 2 3 4 5 6 
#
# 1 0.008526 -0.003487 -0.003838 0.000000 0.000000 0.000000
# 2 -0.003487 0.020714 -0.001525 0.000000 0.000000 0.000000
# 3 -0.003838 -0.001525 0.016442 0.000000 0.000000 0.000000
# 4 0.000000 0.000000 0.000000 0.023497 0.000000 0.000000
# 5 0.000000 0.000000 0.000000 0.000000 0.033553 0.000000
# 6 0.000000 0.000000 0.000000 0.000000 0.000000 -0.208026
#
#
# Mechanical properties :
#
#
# Convention : Reuss Voigt Hill
#
# Bulk Modulus (GPa) = 35.73635 46.42428 41.08031
# Shear Modulus (GPa) = -63.88283 26.44972 -18.71656
#
# Velocity S-wave (km/s) = -5.47610 3.52363 -2.96410
# Velocity P-wave (km/s) = 4.81750 6.19249 2.75124
#
# Compressibility (1/GPa) = 0.02798271
#
# Stress axis : x y z
#
# Youngs Moduli (GPa) = 117.28886 48.27677 60.82105
#
# Poissons Ratio (x) = 0.16834 0.23341
# Poissons Ratio (y) = 0.40898 0.09274
# Poissons Ratio (z) = 0.45011 0.07361
#
# Static dielectric constant tensor:
#      x y z
#    x 3.929160 0.000000 0.000000 
#    y 0.000000 3.832780 0.000000 
#    z 0.000000 0.000000 5.579570 
# 
# 
# High freq. dielectric constant tensor:
#      x y z
#    x 1.848150 0.000000 0.000000 
#    y 0.000000 1.822160 0.000000 
#    z 0.000000 0.000000 1.842710 
# 
# From -- ./inp_files/7438.got.cif
#   From: 2010.03.12/outbox.cif.g09.slc.cpg/sg20_4_cif.got.tgz:7438.got - 2010.04.14 01:38:04.
