data_PCOD8158487
_publ_section_title
;
Structure prediction by ZEFSAII (Michael W. Deem and Ramdas Pophale) SiO2 
 PCOD8158487
Probable space group: C 2 2 21
;
_chemical_formula_sum "Si O2"
_cell_formula_units_Z 48
_cell_length_a 8.560353
_cell_length_b 31.361230
_cell_length_c 8.809852
_cell_angle_alpha 90.000000
_cell_angle_beta 90.000000
_cell_angle_gamma 90.000000
_cell_volume 2365.121053
_symmetry_space_group_name_H-M "C 2 2 21"
_symmetry_group_IT_number 20
_symmetry_cell_setting 'orthorhombic'
loop_
_space_group_symop_operation_xyz
x,y,z
-x,-y,1/2+z
x,-y,-z
-x,y,1/2-z
1/2+x,1/2+y,z
1/2-x,1/2-y,1/2+z
1/2+x,1/2-y,-z
1/2-x,1/2+y,1/2-z
loop_
_atom_site_type_symbol
_atom_site_label
_atom_site_fract_x
_atom_site_fract_y
_atom_site_fract_z
Si Si1 0.216373 0.276913 0.881148
Si Si2 0.137071 0.294235 0.556835
Si Si3 0.500000 0.588682 0.250000
Si Si4 0.305017 0.635084 0.007154
Si Si5 0.533154 0.114082 0.429130
Si Si6 0.293910 0.450644 0.495985
Si Si7 0.000000 0.091823 0.750000
O O1 0.244927 0.286047 0.703949
O O2 0.034180 0.276208 0.915962
O O3 0.287760 0.230665 0.916103
O O4 0.297879 0.313678 0.982264
O O5 0.134705 0.344626 0.522284
O O6 0.624396 0.618006 0.335569
O O7 0.589492 0.558474 0.133473
O O8 0.410324 0.622732 0.864949
O O9 0.132918 0.614701 0.985228
O O10 0.500000 0.115818 0.250000
O O11 0.628961 0.073132 0.482234
O O12 0.251591 0.500000 0.500000
O O13 0.376119 0.437935 0.337761
#
# Coordination Sequence:
#
# PCOD8158487 Si02
#       7
#     8   8   4   8   8   8   4
#     4  10  21  37  58  87 120 158 207 253 301 366
#     4  10  21  38  59  85 123 158 206 257 304 371
#     4  10  19  38  68  86 128 172 200 254 313 384
#     4  10  21  41  64  90 125 166 208 251 312 379
#     4  11  20  44  67  87 124 173 213 251 315 385
#     4  11  23  41  65  96 124 164 212 261 319 379
#     4  10  25  42  60  98 132 156 204 268 323 364
#
# _framework density 20.294944000000001
#
# number of rings (size 3 to 8) (size 9 to 14) (size 15 to 20)
#    0.000    1.667    5.000    0.500    0.000    8.000 
#    3.000    4.167    0.000    0.000    0.000    0.000 
#    0.000    0.000    0.000    0.000    0.000    0.000 
#
# Total GULP energy -297676.465132 kJ/mol
# GULP energy per Si atom -12403.186047 kJ/mol
# Density = 2.024875 g / cm^3
# Si number density = 20.294944 Si / 1000 Ang^3
#
#
#
# Elastic Constant Matrix: (Units=GPa)
#
#
# Indices 1 2 3 4 5 6 
#
# 1 76.2978 67.7774 30.9470 0.0000 0.0000 0.0000
# 2 67.7774 150.9928 49.4468 0.0000 0.0000 0.0000
# 3 30.9470 49.4468 66.8058 0.0000 0.0000 0.0000
# 4 0.0000 0.0000 0.0000 19.7497 0.0000 0.0000
# 5 0.0000 0.0000 0.0000 0.0000 34.1012 0.0000
# 6 0.0000 0.0000 0.0000 0.0000 0.0000 34.3623
#
#
#
# Elastic Compliance Matrix: (Units=1/GPa)
#
#
# Indices 1 2 3 4 5 6 
#
# 1 0.022542 -0.008842 -0.003898 0.000000 0.000000 0.000000
# 2 -0.008842 0.012210 -0.004941 0.000000 0.000000 0.000000
# 3 -0.003898 -0.004941 0.020432 0.000000 0.000000 0.000000
# 4 0.000000 0.000000 0.000000 0.050634 0.000000 0.000000
# 5 0.000000 0.000000 0.000000 0.000000 0.029324 0.000000
# 6 0.000000 0.000000 0.000000 0.000000 0.000000 0.029102
#
#
# Mechanical properties :
#
#
# Convention : Reuss Voigt Hill
#
# Bulk Modulus (GPa) = 50.45059 65.60431 58.02745
# Shear Modulus (GPa) = 24.24665 27.37099 25.80882
#
# Velocity S-wave (km/s) = 3.46021 3.67640 3.56994
# Velocity P-wave (km/s) = 6.39349 7.10048 6.75624
#
# Compressibility (1/GPa) = 0.01982138
#
# Stress axis : x y z
#
# Youngs Moduli (GPa) = 44.36087 81.89918 48.94359
#
# Poissons Ratio (x) = 0.72418 0.19077
# Poissons Ratio (y) = 0.39225 0.24185
# Poissons Ratio (z) = 0.17291 0.40469
#
# Static dielectric constant tensor:
#      x y z
#    x 3.751690 0.000000 0.000000 
#    y 0.000000 3.527570 0.000000 
#    z 0.000000 0.000000 3.710670 
# 
# 
# High freq. dielectric constant tensor:
#      x y z
#    x 1.800550 0.000000 0.000000 
#    y 0.000000 1.786000 0.000000 
#    z 0.000000 0.000000 1.788270 
# 
# From -- ./inp_files/6589.got.cif
#   From: 2010.03.12/outbox.cif.g09.slc.cpg/sg20_4_cif.got.tgz:6589.got - 2010.04.14 01:38:04.
