data_PCOD8158231
_publ_section_title
;
Structure prediction by ZEFSAII (Michael W. Deem and Ramdas Pophale) SiO2 
 PCOD8158231
Probable space group: C 2 2 21
;
_chemical_formula_sum "Si O2"
_cell_formula_units_Z 52
_cell_length_a 9.549268
_cell_length_b 13.697147
_cell_length_c 18.468425
_cell_angle_alpha 90.000000
_cell_angle_beta 90.000000
_cell_angle_gamma 90.000000
_cell_volume 2415.628021
_symmetry_space_group_name_H-M "C 2 2 21"
_symmetry_group_IT_number 20
_symmetry_cell_setting 'orthorhombic'
loop_
_space_group_symop_operation_xyz
x,y,z
-x,-y,1/2+z
x,-y,-z
-x,y,1/2-z
1/2+x,1/2+y,z
1/2-x,1/2-y,1/2+z
1/2+x,1/2-y,-z
1/2-x,1/2+y,1/2-z
loop_
_atom_site_type_symbol
_atom_site_label
_atom_site_fract_x
_atom_site_fract_y
_atom_site_fract_z
Si Si1 0.204219 0.653798 0.613068
Si Si2 0.840706 0.495738 0.231591
Si Si3 0.686932 0.853658 0.611634
Si Si4 0.667201 0.000000 0.500000
Si Si5 0.503013 0.319177 0.569420
Si Si6 0.001953 0.823214 0.402700
Si Si7 0.584192 0.516084 0.322497
O O1 0.171641 0.608282 0.691333
O O2 0.250987 0.565998 0.557752
O O3 0.066533 0.712487 0.588199
O O4 0.344885 0.718831 0.612098
O O5 0.783885 0.585225 0.183519
O O6 0.746542 0.493923 0.303817
O O7 0.000000 0.516779 0.250000
O O8 0.604108 0.756759 0.631438
O O9 0.835996 0.821962 0.578239
O O10 0.594001 0.919213 0.553108
O O11 0.539791 0.341971 0.486369
O O12 0.580468 0.395577 0.621074
O O13 0.014646 0.922206 0.358106
O O14 0.500000 0.543661 0.250000
#
# Coordination Sequence:
#
# PCOD8158231 Si02
#       7
#     8   8   8   4   8   8   8
#     4  11  24  42  74  96 139 181 224 285 346 406
#     4  11  27  48  66  99 138 189 229 285 340 415
#     4  11  24  42  74  96 139 181 224 285 346 406
#     4  10  18  44  66  96 130 178 218 266 352 396
#     4  12  24  44  70 108 135 181 232 290 347 412
#     4  12  24  44  70 108 135 181 232 290 347 412
#     4  12  25  45  70 100 138 190 233 272 349 415
#
# _framework density 21.526492000000001
#
# number of rings (size 3 to 8) (size 9 to 14) (size 15 to 20)
#    0.000    0.615    6.154    1.385    4.308    2.462 
#    0.000    0.000    0.000    0.000    0.000    0.000 
#    0.000    0.000    0.000    0.000    0.000    0.000 
#
# Total GULP energy -322217.798308 kJ/mol
# GULP energy per Si atom -12392.992243 kJ/mol
# Density = 2.147750 g / cm^3
# Si number density = 21.526492 Si / 1000 Ang^3
#
#
#
# Elastic Constant Matrix: (Units=GPa)
#
#
# Indices 1 2 3 4 5 6 
#
# 1 95.3181 27.2150 15.4858 0.0000 0.0000 0.0000
# 2 27.2150 91.8962 31.9800 0.0000 0.0000 0.0000
# 3 15.4858 31.9800 74.9676 0.0000 0.0000 0.0000
# 4 0.0000 0.0000 0.0000 22.5953 0.0000 0.0000
# 5 0.0000 0.0000 0.0000 0.0000 31.0859 0.0000
# 6 0.0000 0.0000 0.0000 0.0000 0.0000 30.1554
#
#
#
# Elastic Compliance Matrix: (Units=1/GPa)
#
#
# Indices 1 2 3 4 5 6 
#
# 1 0.011535 -0.003038 -0.001087 0.000000 0.000000 0.000000
# 2 -0.003038 0.013579 -0.005165 0.000000 0.000000 0.000000
# 3 -0.001087 -0.005165 0.015767 0.000000 0.000000 0.000000
# 4 0.000000 0.000000 0.000000 0.044257 0.000000 0.000000
# 5 0.000000 0.000000 0.000000 0.000000 0.032169 0.000000
# 6 0.000000 0.000000 0.000000 0.000000 0.000000 0.033162
#
#
# Mechanical properties :
#
#
# Convention : Reuss Voigt Hill
#
# Bulk Modulus (GPa) = 44.84016 45.72705 45.28360
# Shear Modulus (GPa) = 28.33153 29.26740 28.79947
#
# Velocity S-wave (km/s) = 3.63178 3.69127 3.66165
# Velocity P-wave (km/s) = 6.20176 6.28138 6.24170
#
# Compressibility (1/GPa) = 0.02230144
#
# Stress axis : x y z
#
# Youngs Moduli (GPa) = 86.69161 73.64339 63.42397
#
# Poissons Ratio (x) = 0.22372 0.06893
# Poissons Ratio (y) = 0.26336 0.32759
# Poissons Ratio (z) = 0.09422 0.38037
#
# Static dielectric constant tensor:
#      x y z
#    x 3.737470 0.000000 0.000000 
#    y 0.000000 3.926170 0.000000 
#    z 0.000000 0.000000 4.128850 
# 
# 
# High freq. dielectric constant tensor:
#      x y z
#    x 1.831030 0.000000 0.000000 
#    y 0.000000 1.846160 0.000000 
#    z 0.000000 0.000000 1.857300 
# 
# From -- ./inp_files/26642.got.cif
#   From: 2010.03.12/outbox.cif.g09.slc.cpg/sg20_14_cif.got.tgz:26642.got - 2010.04.14 01:38:04.
