data_PCOD8158849
_publ_section_title
;
Structure prediction by ZEFSAII (Michael W. Deem and Ramdas Pophale) SiO2 
 PCOD8158849
Probable space group: C 2 2 21
;
_chemical_formula_sum "Si O2"
_cell_formula_units_Z 64
_cell_length_a 9.579634
_cell_length_b 14.281508
_cell_length_c 21.954024
_cell_angle_alpha 90.000000
_cell_angle_beta 90.000000
_cell_angle_gamma 90.000000
_cell_volume 3003.565580
_symmetry_space_group_name_H-M "C 2 2 21"
_symmetry_group_IT_number 20
_symmetry_cell_setting 'orthorhombic'
loop_
_space_group_symop_operation_xyz
x,y,z
-x,-y,1/2+z
x,-y,-z
-x,y,1/2-z
1/2+x,1/2+y,z
1/2-x,1/2-y,1/2+z
1/2+x,1/2-y,-z
1/2-x,1/2+y,1/2-z
loop_
_atom_site_type_symbol
_atom_site_label
_atom_site_fract_x
_atom_site_fract_y
_atom_site_fract_z
Si Si1 0.438979 0.669831 0.900167
Si Si2 0.086366 0.465637 0.309379
Si Si3 0.559827 0.920672 0.447832
Si Si4 0.354783 0.607918 0.509113
Si Si5 0.414331 0.534097 0.690882
Si Si6 0.087851 0.683651 0.304231
Si Si7 0.093873 0.184287 0.194774
Si Si8 0.360700 0.227799 0.575940
O O1 0.506186 0.582105 0.864938
O O2 0.465190 0.767648 0.865942
O O3 0.273743 0.661902 0.911982
O O4 0.518207 0.668608 0.964243
O O5 0.024204 0.441357 0.376592
O O6 0.250369 0.438409 0.303017
O O7 0.061255 0.575284 0.309391
O O8 0.000000 0.424472 0.250000
O O9 0.721394 0.891927 0.447011
O O10 0.462444 0.833196 0.467040
O O11 0.536195 0.000000 0.500000
O O12 0.400903 0.500000 0.500000
O O13 0.315133 0.669097 0.449370
O O14 0.500000 0.565671 0.750000
O O15 0.430906 0.423953 0.679312
O O16 0.247087 0.705598 0.288578
O O17 0.000000 0.729516 0.250000
O O18 0.053801 0.248879 0.137545
O O19 0.000000 0.219472 0.250000
#
# Coordination Sequence:
#
# PCOD8158849 Si02
#       8
#     8   8   8   8   8   8   8   8
#     4  11  22  38  65  91 131 163 215 275 328 393
#     4  10  22  42  68  96 132 176 225 269 333 395
#     4  11  26  44  68  96 133 179 219 274 333 400
#     4  11  24  43  70  91 123 177 225 270 332 398
#     4  10  20  38  65  97 128 173 217 268 333 396
#     4   9  20  37  61  92 123 167 209 264 321 387
#     4   9  20  39  63  89 130 169 212 267 328 388
#     4  11  25  41  63  99 131 168 221 279 323 391
#
# _framework density 21.308008000000001
#
# number of rings (size 3 to 8) (size 9 to 14) (size 15 to 20)
#    0.000    1.750    1.250    1.875   12.250    2.000 
#    2.250    1.250    0.000    0.000    0.000    0.000 
#    0.000    0.000    0.000    0.000    0.000    0.000 
#
# Total GULP energy -396522.723574 kJ/mol
# GULP energy per Si atom -12391.335112 kJ/mol
# Density = 2.125951 g / cm^3
# Si number density = 21.308008 Si / 1000 Ang^3
#
#
#
# Elastic Constant Matrix: (Units=GPa)
#
#
# Indices 1 2 3 4 5 6 
#
# 1 84.0191 62.4802 45.8730 0.0000 0.0000 0.0000
# 2 62.4802 83.2541 41.8885 0.0000 0.0000 0.0000
# 3 45.8730 41.8885 116.8215 0.0000 0.0000 0.0000
# 4 0.0000 0.0000 0.0000 33.0761 0.0000 0.0000
# 5 0.0000 0.0000 0.0000 0.0000 38.0613 0.0000
# 6 0.0000 0.0000 0.0000 0.0000 0.0000 22.5930
#
#
#
# Elastic Compliance Matrix: (Units=1/GPa)
#
#
# Indices 1 2 3 4 5 6 
#
# 1 0.028610 -0.019301 -0.004314 0.000000 0.000000 0.000000
# 2 -0.019301 0.027676 -0.002345 0.000000 0.000000 0.000000
# 3 -0.004314 -0.002345 0.011095 0.000000 0.000000 0.000000
# 4 0.000000 0.000000 0.000000 0.030233 0.000000 0.000000
# 5 0.000000 0.000000 0.000000 0.000000 0.026273 0.000000
# 6 0.000000 0.000000 0.000000 0.000000 0.000000 0.044261
#
#
# Mechanical properties :
#
#
# Convention : Reuss Voigt Hill
#
# Bulk Modulus (GPa) = 64.67442 64.95313 64.81377
# Shear Modulus (GPa) = 22.20028 27.66961 24.93495
#
# Velocity S-wave (km/s) = 3.23131 3.60746 3.42455
# Velocity P-wave (km/s) = 6.65882 6.92104 6.79120
#
# Compressibility (1/GPa) = 0.01546206
#
# Stress axis : x y z
#
# Youngs Moduli (GPa) = 34.95239 36.13238 90.13235
#
# Poissons Ratio (x) = 0.69739 0.38882
# Poissons Ratio (y) = 0.67461 0.21134
# Poissons Ratio (z) = 0.15078 0.08472
#
# Static dielectric constant tensor:
#      x y z
#    x 3.923290 0.000000 0.000000 
#    y 0.000000 3.799780 0.000000 
#    z 0.000000 0.000000 4.041330 
# 
# 
# High freq. dielectric constant tensor:
#      x y z
#    x 1.830760 0.000000 0.000000 
#    y 0.000000 1.840040 0.000000 
#    z 0.000000 0.000000 1.842290 
# 
# From -- ./inp_files/28890.got.cif
#   From: 2010.03.12/outbox.cif.g09.slc.cpg/sg20_15_cif.got.tgz:28890.got - 2010.04.14 01:38:04.
