data_PCOD8158468
_publ_section_title
;
Structure prediction by ZEFSAII (Michael W. Deem and Ramdas Pophale) SiO2 
 PCOD8158468
Probable space group: C 2 2 21
;
_chemical_formula_sum "Si O2"
_cell_formula_units_Z 64
_cell_length_a 8.789565
_cell_length_b 12.095552
_cell_length_c 27.299166
_cell_angle_alpha 90.000000
_cell_angle_beta 90.000000
_cell_angle_gamma 90.000000
_cell_volume 2902.301020
_symmetry_space_group_name_H-M "C 2 2 21"
_symmetry_group_IT_number 20
_symmetry_cell_setting 'orthorhombic'
loop_
_space_group_symop_operation_xyz
x,y,z
-x,-y,1/2+z
x,-y,-z
-x,y,1/2-z
1/2+x,1/2+y,z
1/2-x,1/2-y,1/2+z
1/2+x,1/2-y,-z
1/2-x,1/2+y,1/2-z
loop_
_atom_site_type_symbol
_atom_site_label
_atom_site_fract_x
_atom_site_fract_y
_atom_site_fract_z
Si Si1 0.776105 0.791058 0.362153
Si Si2 0.793667 0.988946 0.694137
Si Si3 0.993253 0.402245 0.651832
Si Si4 0.380559 0.759989 0.441174
Si Si5 0.853895 0.425860 0.283590
Si Si6 0.428161 0.988429 0.552392
Si Si7 0.438329 0.284613 0.664043
Si Si8 0.788830 0.790250 0.965180
O O1 0.807747 0.915726 0.346261
O O2 0.914658 0.717040 0.341632
O O3 0.613031 0.752917 0.340697
O O4 0.771866 0.787372 0.421070
O O5 0.788753 0.041872 0.748697
O O6 0.646951 0.910907 0.682926
O O7 0.935867 0.905213 0.689707
O O8 0.868422 0.491484 0.670549
O O9 0.027023 0.428530 0.594389
O O10 0.388662 0.889983 0.428748
O O11 0.352241 0.703465 0.388528
O O12 0.252523 0.737728 0.481966
O O13 0.530760 0.706862 0.464565
O O14 0.842195 0.300753 0.302781
O O15 0.000000 0.438512 0.250000
O O16 0.517261 0.000000 0.500000
O O17 0.277542 0.914138 0.541545
#
# Coordination Sequence:
#
# PCOD8158468 Si02
#       8
#     8   8   8   8   8   8   8   8
#     4  10  21  42  62  89 129 160 204 252 307 361
#     4  11  24  40  62  90 123 158 208 252 309 364
#     4  10  19  39  63  86 120 162 197 254 305 355
#     4  10  19  38  59  92 126 158 211 247 303 369
#     4  10  20  39  65  86 118 162 197 257 312 353
#     4   9  17  33  61  85 115 161 200 240 302 355
#     4  11  22  41  66  90 124 166 204 257 311 368
#     4   9  20  35  61  91 123 165 201 249 301 366
#
# _framework density 22.051468
#
# number of rings (size 3 to 8) (size 9 to 14) (size 15 to 20)
#    0.000    2.000    3.750    0.750    1.750    3.000 
#    2.250   10.625    0.000    0.000    0.000    0.000 
#    0.000    0.000    0.000    0.000    0.000    0.000 
#
# Total GULP energy -396622.148445 kJ/mol
# GULP energy per Si atom -12394.442139 kJ/mol
# Density = 2.200128 g / cm^3
# Si number density = 22.051468 Si / 1000 Ang^3
#
#
#
# Elastic Constant Matrix: (Units=GPa)
#
#
# Indices 1 2 3 4 5 6 
#
# 1 31.0181 25.1063 17.3274 0.0000 0.0000 0.0000
# 2 25.1063 97.7082 11.6349 0.0000 0.0000 0.0000
# 3 17.3274 11.6349 87.0731 0.0000 0.0000 0.0000
# 4 0.0000 0.0000 0.0000 29.2039 0.0000 0.0000
# 5 0.0000 0.0000 0.0000 0.0000 22.7934 0.0000
# 6 0.0000 0.0000 0.0000 0.0000 0.0000 29.5750
#
#
#
# Elastic Compliance Matrix: (Units=1/GPa)
#
#
# Indices 1 2 3 4 5 6 
#
# 1 0.045110 -0.010692 -0.007548 0.000000 0.000000 0.000000
# 2 -0.010692 0.012934 0.000399 0.000000 0.000000 0.000000
# 3 -0.007548 0.000399 0.012933 0.000000 0.000000 0.000000
# 4 0.000000 0.000000 0.000000 0.034242 0.000000 0.000000
# 5 0.000000 0.000000 0.000000 0.000000 0.043872 0.000000
# 6 0.000000 0.000000 0.000000 0.000000 0.000000 0.033812
#
#
# Mechanical properties :
#
#
# Convention : Reuss Voigt Hill
#
# Bulk Modulus (GPa) = 28.33194 35.99296 32.16245
# Shear Modulus (GPa) = 21.70591 27.09652 24.40122
#
# Velocity S-wave (km/s) = 3.14081 3.50921 3.33010
# Velocity P-wave (km/s) = 5.10185 5.72513 5.42245
#
# Compressibility (1/GPa) = 0.03529585
#
# Stress axis : x y z
#
# Youngs Moduli (GPa) = 22.16792 77.31319 77.31977
#
# Poissons Ratio (x) = 0.82666 0.58362
# Poissons Ratio (y) = 0.23703 -0.03088
# Poissons Ratio (z) = 0.16733 -0.03088
#
# Static dielectric constant tensor:
#      x y z
#    x 3.604090 0.000000 0.000000 
#    y 0.000000 3.965100 0.000000 
#    z 0.000000 0.000000 4.582360 
# 
# 
# High freq. dielectric constant tensor:
#      x y z
#    x 1.824230 0.000000 0.000000 
#    y 0.000000 1.864250 0.000000 
#    z 0.000000 0.000000 1.887980 
# 
# From -- ./inp_files/31090.got.cif
#   From: 2010.03.12/outbox.cif.g09.slc.cpg/sg20_16_cif.got.tgz:31090.got - 2010.04.14 01:38:04.
