data_PCOD8158287
_publ_section_title
;
Structure prediction by ZEFSAII (Michael W. Deem and Ramdas Pophale) SiO2 
 PCOD8158287
Probable space group: C 2 2 21
;
_chemical_formula_sum "Si O2"
_cell_formula_units_Z 64
_cell_length_a 16.453924
_cell_length_b 8.436453
_cell_length_c 23.879695
_cell_angle_alpha 90.000000
_cell_angle_beta 90.000000
_cell_angle_gamma 90.000000
_cell_volume 3314.806287
_symmetry_space_group_name_H-M "C 2 2 21"
_symmetry_group_IT_number 20
_symmetry_cell_setting 'orthorhombic'
loop_
_space_group_symop_operation_xyz
x,y,z
-x,-y,1/2+z
x,-y,-z
-x,y,1/2-z
1/2+x,1/2+y,z
1/2-x,1/2-y,1/2+z
1/2+x,1/2-y,-z
1/2-x,1/2+y,1/2-z
loop_
_atom_site_type_symbol
_atom_site_label
_atom_site_fract_x
_atom_site_fract_y
_atom_site_fract_z
Si Si1 0.843758 0.286505 0.119705
Si Si2 0.670048 0.187218 0.496024
Si Si3 0.075342 0.615035 0.903642
Si Si4 0.147630 0.187041 0.999421
Si Si5 0.481849 0.693935 0.686508
Si Si6 0.076903 0.602579 0.396035
Si Si7 0.505472 0.328669 0.684757
Si Si8 0.337621 0.181987 0.380177
O O1 0.854051 0.477856 0.125123
O O2 0.752928 0.235016 0.135401
O O3 0.903397 0.196595 0.161850
O O4 0.861950 0.238094 0.054600
O O5 0.761637 0.245189 0.484191
O O6 0.609785 0.222373 0.444464
O O7 0.673405 0.000000 0.500000
O O8 0.087804 0.726700 0.957316
O O9 0.057281 0.719428 0.848902
O O10 0.154489 0.508214 0.889059
O O11 0.999684 0.500014 0.917795
O O12 0.127923 0.237533 0.936358
O O13 0.134733 0.000000 0.000000
O O14 0.500000 0.733196 0.750000
O O15 0.553672 0.781051 0.653635
O O16 0.480941 0.508430 0.674132
O O17 0.394038 0.763428 0.670994
O O18 0.500000 0.282182 0.750000
#
# Coordination Sequence:
#
# PCOD8158287 Si02
#       8
#     8   8   8   8   8   8   8   8
#     4   9  19  36  57  82 113 144 180 226 275 335
#     4   8  16  32  53  80 111 141 172 215 271 331
#     4  10  21  35  57  83 112 148 188 230 279 332
#     4  10  19  33  55  83 115 146 181 226 279 336
#     4  10  22  40  57  79 111 147 190 236 281 332
#     4   9  19  35  59  82 111 147 184 225 280 340
#     4  10  22  40  56  77 111 147 190 239 280 326
#     4  10  21  37  57  82 114 146 183 229 280 342
#
# _framework density 19.307312
#
# number of rings (size 3 to 8) (size 9 to 14) (size 15 to 20)
#    0.000    2.500    0.000    1.875    0.000   14.500 
#    0.000    9.375    0.000    3.000    0.000    0.000 
#    0.000    0.000    0.000    0.000    0.000    0.000 
#
# Total GULP energy -396689.742588 kJ/mol
# GULP energy per Si atom -12396.554456 kJ/mol
# Density = 1.926337 g / cm^3
# Si number density = 19.307312 Si / 1000 Ang^3
#
#
#
# Elastic Constant Matrix: (Units=GPa)
#
#
# Indices 1 2 3 4 5 6 
#
# 1 95.1275 36.3713 63.0345 0.0000 0.0000 0.0000
# 2 36.3713 78.5843 56.1467 0.0000 0.0000 0.0000
# 3 63.0345 56.1467 126.9748 0.0000 0.0000 0.0000
# 4 0.0000 0.0000 0.0000 30.6223 0.0000 0.0000
# 5 0.0000 0.0000 0.0000 0.0000 26.1694 0.0000
# 6 0.0000 0.0000 0.0000 0.0000 0.0000 28.9012
#
#
#
# Elastic Compliance Matrix: (Units=1/GPa)
#
#
# Indices 1 2 3 4 5 6 
#
# 1 0.016002 -0.002530 -0.006825 0.000000 0.000000 0.000000
# 2 -0.002530 0.019002 -0.007147 0.000000 0.000000 0.000000
# 3 -0.006825 -0.007147 0.014424 0.000000 0.000000 0.000000
# 4 0.000000 0.000000 0.000000 0.032656 0.000000 0.000000
# 5 0.000000 0.000000 0.000000 0.000000 0.038213 0.000000
# 6 0.000000 0.000000 0.000000 0.000000 0.000000 0.034601
#
#
# Mechanical properties :
#
#
# Convention : Reuss Voigt Hill
#
# Bulk Modulus (GPa) = 60.88343 67.97687 64.43015
# Shear Modulus (GPa) = 25.85633 26.81416 26.33525
#
# Velocity S-wave (km/s) = 3.66348 3.73072 3.69725
# Velocity P-wave (km/s) = 7.03542 7.33771 7.18815
#
# Compressibility (1/GPa) = 0.01642483
#
# Stress axis : x y z
#
# Youngs Moduli (GPa) = 62.49162 52.62549 69.32834
#
# Poissons Ratio (x) = 0.13313 0.47319
# Poissons Ratio (y) = 0.15809 0.49547
# Poissons Ratio (z) = 0.42653 0.37610
#
# Static dielectric constant tensor:
#      x y z
#    x 3.585310 0.000000 0.000000 
#    y 0.000000 3.567170 0.000000 
#    z 0.000000 0.000000 3.590020 
# 
# 
# High freq. dielectric constant tensor:
#      x y z
#    x 1.746360 0.000000 0.000000 
#    y 0.000000 1.747780 0.000000 
#    z 0.000000 0.000000 1.747110 
# 
# From -- ./inp_files/27786.got.cif
#   From: 2010.03.12/outbox.cif.g09.slc.cpg/sg20_14_cif.got.tgz:27786.got - 2010.04.14 01:38:04.
