data_PCOD8158473
_publ_section_title
;
Structure prediction by ZEFSAII (Michael W. Deem and Ramdas Pophale) SiO2 
 PCOD8158473
Probable space group: C 2 2 21
;
_chemical_formula_sum "Si O2"
_cell_formula_units_Z 52
_cell_length_a 19.355766
_cell_length_b 14.364550
_cell_length_c 9.094271
_cell_angle_alpha 90.000000
_cell_angle_beta 90.000000
_cell_angle_gamma 90.000000
_cell_volume 2528.542630
_symmetry_space_group_name_H-M "C 2 2 21"
_symmetry_group_IT_number 20
_symmetry_cell_setting 'orthorhombic'
loop_
_space_group_symop_operation_xyz
x,y,z
-x,-y,1/2+z
x,-y,-z
-x,y,1/2-z
1/2+x,1/2+y,z
1/2-x,1/2-y,1/2+z
1/2+x,1/2-y,-z
1/2-x,1/2+y,1/2-z
loop_
_atom_site_type_symbol
_atom_site_label
_atom_site_fract_x
_atom_site_fract_y
_atom_site_fract_z
Si Si1 0.054309 0.200066 0.464761
Si Si2 0.195935 0.282076 0.448404
Si Si3 0.602764 0.603576 0.761991
Si Si4 0.000000 0.949494 0.750000
Si Si5 0.056030 0.716021 0.125148
Si Si6 0.697159 0.153765 0.218600
Si Si7 0.255852 0.533692 0.659055
O O1 0.121297 0.247531 0.394084
O O2 0.072323 0.153306 0.619325
O O3 0.031626 0.112470 0.374592
O O4 0.992490 0.278375 0.478369
O O5 0.253042 0.207630 0.395129
O O6 0.196069 0.289917 0.626788
O O7 0.202901 0.382458 0.371755
O O8 0.560700 0.513688 0.813547
O O9 0.594018 0.683299 0.883292
O O10 0.682004 0.573949 0.743239
O O11 0.120427 0.644871 0.143354
O O12 0.000000 0.694765 0.250000
O O13 0.720933 0.048175 0.246796
O O14 0.283955 0.500000 0.500000
#
# Coordination Sequence:
#
# PCOD8158473 Si02
#       7
#     8   8   8   4   8   8   8
#     4  11  23  38  60  88 124 166 196 253 316 368
#     4  11  21  42  62  90 129 157 206 257 313 370
#     4  11  20  37  56  86 124 156 194 250 303 379
#     4  12  24  32  58  92 124 158 202 252 310 366
#     4  10  19  38  62  82 120 163 204 239 311 369
#     4  11  22  39  64  94 120 170 205 259 306 371
#     4  10  23  36  62  94 119 157 210 253 303 363
#
# _framework density 20.565204999999999
#
# number of rings (size 3 to 8) (size 9 to 14) (size 15 to 20)
#    0.000    1.231    6.923    1.385    2.154    1.231 
#    0.000    0.769    1.692    0.000    0.000    0.000 
#    0.000    0.000    0.000    0.000    0.000    0.000 
#
# Total GULP energy -322092.321785 kJ/mol
# GULP energy per Si atom -12388.166223 kJ/mol
# Density = 2.051840 g / cm^3
# Si number density = 20.565205 Si / 1000 Ang^3
#
#
#
# Elastic Constant Matrix: (Units=GPa)
#
#
# Indices 1 2 3 4 5 6 
#
# 1 154.5233 44.1255 28.4868 0.0000 0.0000 0.0000
# 2 44.1255 66.9725 14.1310 0.0000 0.0000 0.0000
# 3 28.4868 14.1310 24.5953 0.0000 0.0000 0.0000
# 4 0.0000 0.0000 0.0000 -3.6694 0.0000 0.0000
# 5 0.0000 0.0000 0.0000 0.0000 24.1191 0.0000
# 6 0.0000 0.0000 0.0000 0.0000 0.0000 43.9374
#
#
#
# Elastic Compliance Matrix: (Units=1/GPa)
#
#
# Indices 1 2 3 4 5 6 
#
# 1 0.009222 -0.004350 -0.008182 0.000000 0.000000 0.000000
# 2 -0.004350 0.019043 -0.005903 0.000000 0.000000 0.000000
# 3 -0.008182 -0.005903 0.053526 0.000000 0.000000 0.000000
# 4 0.000000 0.000000 0.000000 -0.272527 0.000000 0.000000
# 5 0.000000 0.000000 0.000000 0.000000 0.041461 0.000000
# 6 0.000000 0.000000 0.000000 0.000000 0.000000 0.022760
#
#
# Mechanical properties :
#
#
# Convention : Reuss Voigt Hill
#
# Bulk Modulus (GPa) = 22.26097 46.61977 34.44037
# Shear Modulus (GPa) = -66.95979 23.50062 -21.72959
#
# Velocity S-wave (km/s) = -5.71231 3.38411 -3.25409
# Velocity P-wave (km/s) = 5.71482 6.16344 1.63231
#
# Compressibility (1/GPa) = 0.04492166
#
# Stress axis : x y z
#
# Youngs Moduli (GPa) = 108.43670 52.51326 18.68236
#
# Poissons Ratio (x) = 0.22841 0.15286
# Poissons Ratio (y) = 0.47166 0.11028
# Poissons Ratio (z) = 0.88724 0.30999
#
# Static dielectric constant tensor:
#      x y z
#    x 4.165890 0.000000 0.000000 
#    y 0.000000 3.758740 0.000000 
#    z 0.000000 0.000000 3.496470 
# 
# 
# High freq. dielectric constant tensor:
#      x y z
#    x 1.819860 0.000000 0.000000 
#    y 0.000000 1.793550 0.000000 
#    z 0.000000 0.000000 1.777130 
# 
# From -- ./inp_files/15844.got.cif
#   From: 2010.03.12/outbox.cif.g09.slc.cpg/sg20_8_cif.got.tgz:15844.got - 2010.04.14 01:38:04.
