data_PCOD8158058
_publ_section_title
;
Structure prediction by ZEFSAII (Michael W. Deem and Ramdas Pophale) SiO2 
 PCOD8158058
Probable space group: C 2 2 21
;
_chemical_formula_sum "Si O2"
_cell_formula_units_Z 52
_cell_length_a 9.341364
_cell_length_b 16.727880
_cell_length_c 18.091196
_cell_angle_alpha 90.000000
_cell_angle_beta 90.000000
_cell_angle_gamma 90.000000
_cell_volume 2826.952286
_symmetry_space_group_name_H-M "C 2 2 21"
_symmetry_group_IT_number 20
_symmetry_cell_setting 'orthorhombic'
loop_
_space_group_symop_operation_xyz
x,y,z
-x,-y,1/2+z
x,-y,-z
-x,y,1/2-z
1/2+x,1/2+y,z
1/2-x,1/2-y,1/2+z
1/2+x,1/2-y,-z
1/2-x,1/2+y,1/2-z
loop_
_atom_site_type_symbol
_atom_site_label
_atom_site_fract_x
_atom_site_fract_y
_atom_site_fract_z
Si Si1 0.037196 0.000000 0.500000
Si Si2 0.591320 0.128124 0.323249
Si Si3 0.022639 0.802426 0.336899
Si Si4 0.147994 0.960749 0.779102
Si Si5 0.519136 0.023799 0.581074
Si Si6 0.170603 0.086343 0.907376
Si Si7 0.781997 0.049789 0.866472
O O1 0.922755 0.927984 0.482725
O O2 0.140785 0.007938 0.427951
O O3 0.500000 0.124001 0.250000
O O4 0.570656 0.214046 0.362242
O O5 0.757571 0.114931 0.303183
O O6 0.544034 0.058383 0.376854
O O7 0.141762 0.864709 0.363769
O O8 0.000000 0.806996 0.250000
O O9 0.871639 0.826068 0.376126
O O10 0.000000 0.924635 0.750000
O O11 0.117567 0.020516 0.847263
O O12 0.224180 0.008886 0.713337
O O13 0.476353 0.000000 0.500000
O O14 0.659083 0.080910 0.581226
O O15 0.382946 0.069445 0.614353
#
# Coordination Sequence:
#
# PCOD8158058 Si02
#       7
#     4   8   8   8   8   8   8
#     4  10  18  30  56  86 108 144 186 228 276 342
#     4  10  22  36  58  83 116 148 185 243 292 336
#     4  10  19  38  57  82 113 149 186 234 294 344
#     4  11  18  34  58  87 106 146 200 233 273 341
#     4  11  22  36  57  86 115 148 196 243 283 339
#     4  10  19  34  58  83 109 151 193 230 275 354
#     4  11  19  34  59  86 110 148 191 238 284 340
#
# _framework density 18.394369000000001
#
# number of rings (size 3 to 8) (size 9 to 14) (size 15 to 20)
#    0.000    1.538    7.692    0.000    0.000    0.000 
#    0.000    4.615    0.000    0.000    0.000    0.000 
#    0.000    0.000    0.000    0.000    0.000    0.000 
#
# Total GULP energy -322186.962802 kJ/mol
# GULP energy per Si atom -12391.806262 kJ/mol
# Density = 1.835250 g / cm^3
# Si number density = 18.394369 Si / 1000 Ang^3
#
#
#
# Elastic Constant Matrix: (Units=GPa)
#
#
# Indices 1 2 3 4 5 6 
#
# 1 133.6821 41.4606 14.1085 0.0000 0.0000 0.0000
# 2 41.4606 89.5944 11.9532 0.0000 0.0000 0.0000
# 3 14.1085 11.9532 47.4997 0.0000 0.0000 0.0000
# 4 0.0000 0.0000 0.0000 15.6560 0.0000 0.0000
# 5 0.0000 0.0000 0.0000 0.0000 32.1093 0.0000
# 6 0.0000 0.0000 0.0000 0.0000 0.0000 28.6429
#
#
#
# Elastic Compliance Matrix: (Units=1/GPa)
#
#
# Indices 1 2 3 4 5 6 
#
# 1 0.008858 -0.003878 -0.001655 0.000000 0.000000 0.000000
# 2 -0.003878 0.013247 -0.002182 0.000000 0.000000 0.000000
# 3 -0.001655 -0.002182 0.022093 0.000000 0.000000 0.000000
# 4 0.000000 0.000000 0.000000 0.063873 0.000000 0.000000
# 5 0.000000 0.000000 0.000000 0.000000 0.031144 0.000000
# 6 0.000000 0.000000 0.000000 0.000000 0.000000 0.034913
#
#
# Mechanical properties :
#
#
# Convention : Reuss Voigt Hill
#
# Bulk Modulus (GPa) = 34.76028 45.09120 39.92574
# Shear Modulus (GPa) = 25.10702 28.83189 26.96945
#
# Velocity S-wave (km/s) = 3.69850 3.96337 3.83323
# Velocity P-wave (km/s) = 6.09728 6.74620 6.42993
#
# Compressibility (1/GPa) = 0.02876847
#
# Stress axis : x y z
#
# Youngs Moduli (GPa) = 112.89318 75.48771 45.26241
#
# Poissons Ratio (x) = 0.29276 0.07491
# Poissons Ratio (y) = 0.43783 0.09875
# Poissons Ratio (z) = 0.18684 0.16469
#
# Static dielectric constant tensor:
#      x y z
#    x 3.666150 0.000000 0.000000 
#    y 0.000000 3.396700 0.000000 
#    z 0.000000 0.000000 3.559150 
# 
# 
# High freq. dielectric constant tensor:
#      x y z
#    x 1.730380 0.000000 0.000000 
#    y 0.000000 1.667330 0.000000 
#    z 0.000000 0.000000 1.723060 
# 
# From -- ./inp_files/23700.got.cif
#   From: 2010.03.12/outbox.cif.g09.slc.cpg/sg20_12_cif.got.tgz:23700.got - 2010.04.14 01:38:04.
