data_PCOD8158797
_publ_section_title
;
Structure prediction by ZEFSAII (Michael W. Deem and Ramdas Pophale) SiO2 
 PCOD8158797
Probable space group: C 2 2 21
;
_chemical_formula_sum "Si O2"
_cell_formula_units_Z 60
_cell_length_a 11.449768
_cell_length_b 9.255923
_cell_length_c 26.530870
_cell_angle_alpha 90.000000
_cell_angle_beta 90.000000
_cell_angle_gamma 90.000000
_cell_volume 2811.693077
_symmetry_space_group_name_H-M "C 2 2 21"
_symmetry_group_IT_number 20
_symmetry_cell_setting 'orthorhombic'
loop_
_space_group_symop_operation_xyz
x,y,z
-x,-y,1/2+z
x,-y,-z
-x,y,1/2-z
1/2+x,1/2+y,z
1/2-x,1/2-y,1/2+z
1/2+x,1/2-y,-z
1/2-x,1/2+y,1/2-z
loop_
_atom_site_type_symbol
_atom_site_label
_atom_site_fract_x
_atom_site_fract_y
_atom_site_fract_z
Si Si1 0.745550 0.849826 0.720154
Si Si2 0.983136 0.429748 0.147444
Si Si3 0.388880 0.813580 0.608896
Si Si4 0.290661 0.479446 0.058025
Si Si5 0.253280 0.657394 0.690678
Si Si6 0.939043 0.026794 0.557185
Si Si7 0.174488 0.772138 0.887379
Si Si8 0.500000 0.949670 0.750000
O O1 0.802737 0.761190 0.766361
O O2 0.763455 0.773237 0.666685
O O3 0.606637 0.851558 0.730852
O O4 0.799574 0.011699 0.718228
O O5 0.999893 0.581673 0.117512
O O6 0.049195 0.305258 0.117264
O O7 0.846687 0.389937 0.150775
O O8 0.038401 0.447654 0.203445
O O9 0.358438 0.735443 0.661773
O O10 0.420549 0.696102 0.567166
O O11 0.277508 0.906387 0.592250
O O12 0.426501 0.512410 0.067043
O O13 0.257401 0.316475 0.074489
O O14 0.255282 0.500000 0.000000
O O15 0.902920 0.000000 0.500000
O O16 0.852470 0.932496 0.592118
#
# Coordination Sequence:
#
# PCOD8158797 Si02
#       8
#     8   8   8   8   8   8   8   4
#     4  11  23  38  62  91 131 166 213 255 312 375
#     4  10  22  39  63  86 128 167 208 252 309 371
#     4  11  22  42  65  92 126 170 207 258 319 379
#     4  10  24  42  65  93 127 164 209 265 322 375
#     4  11  23  41  62  94 128 171 209 257 312 375
#     4  11  24  42  65  95 126 160 213 271 320 379
#     4  11  22  41  64  93 124 168 211 261 314 382
#     4  10  20  38  58  90 126 172 202 254 310 366
#
# _framework density 21.339455000000001
#
# number of rings (size 3 to 8) (size 9 to 14) (size 15 to 20)
#    0.000    1.333    2.667    3.200    5.600    0.000 
#    0.000    0.000    0.000    5.600    0.000    0.000 
#    0.000    0.000    0.000    0.000    0.000    0.000 
#
# Total GULP energy -372029.748530 kJ/mol
# GULP energy per Si atom -12400.991618 kJ/mol
# Density = 2.129089 g / cm^3
# Si number density = 21.339455 Si / 1000 Ang^3
#
#
#
# Elastic Constant Matrix: (Units=GPa)
#
#
# Indices 1 2 3 4 5 6 
#
# 1 55.6089 16.9034 17.8647 0.0000 0.0000 0.0000
# 2 16.9034 106.4362 21.8147 0.0000 0.0000 0.0000
# 3 17.8647 21.8147 76.3415 0.0000 0.0000 0.0000
# 4 0.0000 0.0000 0.0000 40.4287 0.0000 0.0000
# 5 0.0000 0.0000 0.0000 0.0000 32.2836 0.0000
# 6 0.0000 0.0000 0.0000 0.0000 0.0000 23.7964
#
#
#
# Elastic Compliance Matrix: (Units=1/GPa)
#
#
# Indices 1 2 3 4 5 6 
#
# 1 0.019984 -0.002353 -0.004004 0.000000 0.000000 0.000000
# 2 -0.002353 0.010257 -0.002380 0.000000 0.000000 0.000000
# 3 -0.004004 -0.002380 0.014716 0.000000 0.000000 0.000000
# 4 0.000000 0.000000 0.000000 0.024735 0.000000 0.000000
# 5 0.000000 0.000000 0.000000 0.000000 0.030975 0.000000
# 6 0.000000 0.000000 0.000000 0.000000 0.000000 0.042023
#
#
# Mechanical properties :
#
#
# Convention : Reuss Voigt Hill
#
# Bulk Modulus (GPa) = 36.38690 39.06135 37.72413
# Shear Modulus (GPa) = 29.52870 31.42199 30.47534
#
# Velocity S-wave (km/s) = 3.72393 3.84146 3.78315
# Velocity P-wave (km/s) = 5.96479 6.16605 6.06626
#
# Compressibility (1/GPa) = 0.02748241
#
# Stress axis : x y z
#
# Youngs Moduli (GPa) = 50.03912 97.49581 67.95226
#
# Poissons Ratio (x) = 0.22942 0.27209
# Poissons Ratio (y) = 0.11775 0.16174
# Poissons Ratio (z) = 0.20036 0.23207
#
# Static dielectric constant tensor:
#      x y z
#    x 3.567510 0.000000 0.000000 
#    y 0.000000 4.005820 0.000000 
#    z 0.000000 0.000000 3.899620 
# 
# 
# High freq. dielectric constant tensor:
#      x y z
#    x 1.820520 0.000000 0.000000 
#    y 0.000000 1.846560 0.000000 
#    z 0.000000 0.000000 1.839040 
# 
# From -- ./inp_files/30338.got.cif
#   From: 2010.03.12/outbox.cif.g09.slc.cpg/sg20_16_cif.got.tgz:30338.got - 2010.04.14 01:38:04.
