data_PCOD8158876
_publ_section_title
;
Structure prediction by ZEFSAII (Michael W. Deem and Ramdas Pophale) SiO2 
 PCOD8158876
Probable space group: C 2 2 21
;
_chemical_formula_sum "Si O2"
_cell_formula_units_Z 40
_cell_length_a 9.041385
_cell_length_b 9.260182
_cell_length_c 22.877717
_cell_angle_alpha 90.000000
_cell_angle_beta 90.000000
_cell_angle_gamma 90.000000
_cell_volume 1915.433896
_symmetry_space_group_name_H-M "C 2 2 21"
_symmetry_group_IT_number 20
_symmetry_cell_setting 'orthorhombic'
loop_
_space_group_symop_operation_xyz
x,y,z
-x,-y,1/2+z
x,-y,-z
-x,y,1/2-z
1/2+x,1/2+y,z
1/2-x,1/2-y,1/2+z
1/2+x,1/2-y,-z
1/2-x,1/2+y,1/2-z
loop_
_atom_site_type_symbol
_atom_site_label
_atom_site_fract_x
_atom_site_fract_y
_atom_site_fract_z
Si Si1 0.331649 0.095980 0.235960
Si Si2 0.270572 0.655063 0.527461
Si Si3 0.268425 0.130923 0.673130
Si Si4 0.584221 0.743614 0.571532
Si Si5 0.575822 0.945064 0.374799
O O1 0.500000 0.142983 0.250000
O O2 0.236894 0.235913 0.218706
O O3 0.254526 0.020159 0.291900
O O4 0.332340 0.978711 0.183888
O O5 0.254707 0.500000 0.500000
O O6 0.438506 0.680657 0.543231
O O7 0.210868 0.765739 0.478391
O O8 0.170847 0.664638 0.585824
O O9 0.135936 0.145978 0.626367
O O10 0.423822 0.136737 0.639438
O O11 0.545778 0.905038 0.591783
#
# Coordination Sequence:
#
# PCOD8158876 Si02
#       5
#     8   8   8   8   8
#     4   9  20  38  57  84 120 155 196 246 297 350
#     4  10  21  38  59  86 118 152 193 240 292 352
#     4  10  20  39  62  85 118 159 198 244 297 347
#     4  10  21  37  59  86 118 153 195 244 293 351
#     4   9  20  38  57  81 117 155 193 242 295 348
#
# _framework density 20.882995000000001
#
# number of rings (size 3 to 8) (size 9 to 14) (size 15 to 20)
#    0.000    2.400    0.000    1.200    0.000    6.400 
#    0.000   23.000    0.000    0.000    0.000    0.000 
#    0.000    0.000    0.000    0.000    0.000    0.000 
#
# Total GULP energy -247996.528179 kJ/mol
# GULP energy per Si atom -12399.826409 kJ/mol
# Density = 2.083546 g / cm^3
# Si number density = 20.882995 Si / 1000 Ang^3
#
#
#
# Elastic Constant Matrix: (Units=GPa)
#
#
# Indices 1 2 3 4 5 6 
#
# 1 118.0439 45.7488 59.3627 0.0000 0.0000 0.0000
# 2 45.7488 35.8743 19.6105 0.0000 0.0000 0.0000
# 3 59.3627 19.6105 99.4025 0.0000 0.0000 0.0000
# 4 0.0000 0.0000 0.0000 26.7659 0.0000 0.0000
# 5 0.0000 0.0000 0.0000 0.0000 43.3666 0.0000
# 6 0.0000 0.0000 0.0000 0.0000 0.0000 30.3255
#
#
#
# Elastic Compliance Matrix: (Units=1/GPa)
#
#
# Indices 1 2 3 4 5 6 
#
# 1 0.021554 -0.022923 -0.008350 0.000000 0.000000 0.000000
# 2 -0.022923 0.055623 0.002716 0.000000 0.000000 0.000000
# 3 -0.008350 0.002716 0.014511 0.000000 0.000000 0.000000
# 4 0.000000 0.000000 0.000000 0.037361 0.000000 0.000000
# 5 0.000000 0.000000 0.000000 0.000000 0.023059 0.000000
# 6 0.000000 0.000000 0.000000 0.000000 0.000000 0.032976
#
#
# Mechanical properties :
#
#
# Convention : Reuss Voigt Hill
#
# Bulk Modulus (GPa) = 28.92304 55.86275 42.39290
# Shear Modulus (GPa) = 19.70657 28.66484 24.18570
#
# Velocity S-wave (km/s) = 3.07525 3.70894 3.40686
# Velocity P-wave (km/s) = 5.14681 6.71938 5.98497
#
# Compressibility (1/GPa) = 0.03457451
#
# Stress axis : x y z
#
# Youngs Moduli (GPa) = 46.39423 17.97816 68.91426
#
# Poissons Ratio (x) = 0.41211 0.57542
# Poissons Ratio (y) = 1.06349 -0.18717
# Poissons Ratio (z) = 0.38738 -0.04883
#
# Static dielectric constant tensor:
#      x y z
#    x 3.545410 0.000000 0.000000 
#    y 0.000000 3.547910 0.000000 
#    z 0.000000 0.000000 4.281180 
# 
# 
# High freq. dielectric constant tensor:
#      x y z
#    x 1.807400 0.000000 0.000000 
#    y 0.000000 1.793580 0.000000 
#    z 0.000000 0.000000 1.843440 
# 
# From -- ./inp_files/26481.got.cif
#   From: 2010.03.12/outbox.cif.g09.slc.cpg/sg20_14_cif.got.tgz:26481.got - 2010.04.14 01:38:04.
