data_PCOD8158124
_publ_section_title
;
Structure prediction by ZEFSAII (Michael W. Deem and Ramdas Pophale) SiO2 
 PCOD8158124
Probable space group: C 2 2 21
;
_chemical_formula_sum "Si O2"
_cell_formula_units_Z 60
_cell_length_a 21.782408
_cell_length_b 12.113507
_cell_length_c 12.085372
_cell_angle_alpha 90.000000
_cell_angle_beta 90.000000
_cell_angle_gamma 90.000000
_cell_volume 3188.862593
_symmetry_space_group_name_H-M "C 2 2 21"
_symmetry_group_IT_number 20
_symmetry_cell_setting 'orthorhombic'
loop_
_space_group_symop_operation_xyz
x,y,z
-x,-y,1/2+z
x,-y,-z
-x,y,1/2-z
1/2+x,1/2+y,z
1/2-x,1/2-y,1/2+z
1/2+x,1/2-y,-z
1/2-x,1/2+y,1/2-z
loop_
_atom_site_type_symbol
_atom_site_label
_atom_site_fract_x
_atom_site_fract_y
_atom_site_fract_z
Si Si1 0.327391 0.573473 0.774369
Si Si2 0.412162 0.240710 0.152717
Si Si3 0.304415 0.350173 0.687926
Si Si4 0.546801 0.205655 0.099828
Si Si5 0.180970 0.557459 0.384599
Si Si6 0.608296 0.000000 0.000000
Si Si7 0.313103 0.897590 0.303531
Si Si8 0.634715 0.617272 0.966877
O O1 0.377575 0.639225 0.849039
O O2 0.341276 0.441366 0.762458
O O3 0.259786 0.588359 0.824847
O O4 0.329362 0.620762 0.649535
O O5 0.475955 0.241274 0.086959
O O6 0.427312 0.208124 0.277124
O O7 0.371850 0.146654 0.093534
O O8 0.232435 0.379286 0.688416
O O9 0.323134 0.230129 0.730413
O O10 0.315348 0.353002 0.557201
O O11 0.580470 0.295431 0.025265
O O12 0.561256 0.083943 0.056920
O O13 0.201790 0.500000 0.500000
O O14 0.159001 0.461656 0.301351
O O15 0.651724 0.064614 0.913893
O O16 0.604939 0.500000 0.000000
#
# Coordination Sequence:
#
# PCOD8158124 Si02
#       8
#     8   8   8   8   8   4   8   8
#     4   9  19  34  56  85 117 153 190 238 302 355
#     4  10  20  38  56  81 111 158 200 237 286 354
#     4  10  18  34  58  86 118 145 193 247 299 358
#     4  10  21  35  58  80 114 153 201 244 281 349
#     4  11  22  37  56  85 120 158 189 238 306 364
#     4  12  22  36  58  92 122 156 196 244 298 352
#     4  11  21  36  58  89 123 150 189 247 300 360
#     4   9  17  33  58  84 106 148 198 245 291 348
#
# _framework density 18.815486
#
# number of rings (size 3 to 8) (size 9 to 14) (size 15 to 20)
#    0.000    1.867    4.000    2.000    0.933    0.000 
#    4.800    0.000    4.400    0.000    3.467    0.000 
#    0.000    0.000    0.000    0.000    0.000    0.000 
#
# Total GULP energy -371752.837420 kJ/mol
# GULP energy per Si atom -12391.761247 kJ/mol
# Density = 1.877266 g / cm^3
# Si number density = 18.815486 Si / 1000 Ang^3
#
#
#
# Elastic Constant Matrix: (Units=GPa)
#
#
# Indices 1 2 3 4 5 6 
#
# 1 90.4727 39.3063 15.5792 0.0000 0.0000 0.0000
# 2 39.3063 129.9009 25.9079 0.0000 0.0000 0.0000
# 3 15.5792 25.9079 31.6130 0.0000 0.0000 0.0000
# 4 0.0000 0.0000 0.0000 21.7872 0.0000 0.0000
# 5 0.0000 0.0000 0.0000 0.0000 15.4474 0.0000
# 6 0.0000 0.0000 0.0000 0.0000 0.0000 27.4581
#
#
#
# Elastic Compliance Matrix: (Units=1/GPa)
#
#
# Indices 1 2 3 4 5 6 
#
# 1 0.013104 -0.003200 -0.003835 0.000000 0.000000 0.000000
# 2 -0.003200 0.009984 -0.006605 0.000000 0.000000 0.000000
# 3 -0.003835 -0.006605 0.038935 0.000000 0.000000 0.000000
# 4 0.000000 0.000000 0.000000 0.045898 0.000000 0.000000
# 5 0.000000 0.000000 0.000000 0.000000 0.064736 0.000000
# 6 0.000000 0.000000 0.000000 0.000000 0.000000 0.036419
#
#
# Mechanical properties :
#
#
# Convention : Reuss Voigt Hill
#
# Bulk Modulus (GPa) = 28.78303 45.95259 37.36781
# Shear Modulus (GPa) = 20.16635 24.35143 22.25889
#
# Velocity S-wave (km/s) = 3.27738 3.60143 3.44322
# Velocity P-wave (km/s) = 5.44540 6.46294 5.97586
#
# Compressibility (1/GPa) = 0.03474270
#
# Stress axis : x y z
#
# Youngs Moduli (GPa) = 76.31394 100.16195 25.68352
#
# Poissons Ratio (x) = 0.32053 0.09850
# Poissons Ratio (y) = 0.24422 0.16964
# Poissons Ratio (z) = 0.29267 0.66157
#
# Static dielectric constant tensor:
#      x y z
#    x 3.415900 0.000000 0.000000 
#    y 0.000000 3.798950 0.000000 
#    z 0.000000 0.000000 3.256540 
# 
# 
# High freq. dielectric constant tensor:
#      x y z
#    x 1.712690 0.000000 0.000000 
#    y 0.000000 1.747210 0.000000 
#    z 0.000000 0.000000 1.708420 
# 
# From -- ./inp_files/16803.got.cif
#   From: 2010.03.12/outbox.cif.g09.slc.cpg/sg20_9_cif.got.tgz:16803.got - 2010.04.14 01:38:04.
