data_PCOD8158488
_publ_section_title
;
Structure prediction by ZEFSAII (Michael W. Deem and Ramdas Pophale) SiO2 
 PCOD8158488
Probable space group: C 2 2 21
;
_chemical_formula_sum "Si O2"
_cell_formula_units_Z 44
_cell_length_a 8.879495
_cell_length_b 16.419408
_cell_length_c 15.158667
_cell_angle_alpha 90.000000
_cell_angle_beta 90.000000
_cell_angle_gamma 90.000000
_cell_volume 2210.073791
_symmetry_space_group_name_H-M "C 2 2 21"
_symmetry_group_IT_number 20
_symmetry_cell_setting 'orthorhombic'
loop_
_space_group_symop_operation_xyz
x,y,z
-x,-y,1/2+z
x,-y,-z
-x,y,1/2-z
1/2+x,1/2+y,z
1/2-x,1/2-y,1/2+z
1/2+x,1/2-y,-z
1/2-x,1/2+y,1/2-z
loop_
_atom_site_type_symbol
_atom_site_label
_atom_site_fract_x
_atom_site_fract_y
_atom_site_fract_z
Si Si1 0.145721 0.047313 0.796306
Si Si2 0.401908 0.088398 0.669976
Si Si3 0.500000 0.185959 0.250000
Si Si4 0.544059 0.182876 0.524226
Si Si5 0.892981 0.558515 0.120578
Si Si6 0.358393 0.711015 0.608588
O O1 0.236497 0.078029 0.709718
O O2 0.100508 0.119196 0.863814
O O3 0.000000 0.007111 0.750000
O O4 0.234644 0.984774 0.858804
O O5 0.500000 0.123059 0.750000
O O6 0.412594 0.154893 0.592012
O O7 0.466386 0.001493 0.636563
O O8 0.397535 0.133262 0.186577
O O9 0.624044 0.237619 0.197550
O O10 0.598889 0.098827 0.476363
O O11 0.475585 0.253788 0.463537
O O12 0.687835 0.219374 0.574526
#
# Coordination Sequence:
#
# PCOD8158488 Si02
#       6
#     8   8   4   8   8   8
#     4  11  22  40  67  97 130 170 214 274 322 386
#     4  10  19  38  69  85 119 174 221 252 319 390
#     4  10  20  42  66  92 128 174 220 256 326 404
#     4  11  24  41  65  96 132 171 215 271 330 391
#     4  10  20  42  68  90 123 175 225 258 315 395
#     4  11  24  39  64  95 135 168 210 272 332 381
#
# _framework density 19.908836999999998
#
# number of rings (size 3 to 8) (size 9 to 14) (size 15 to 20)
#    0.000    1.455    7.273    0.545    2.545    0.000 
#    3.273    0.000    4.000    0.000    0.000    0.000 
#    0.000    0.000    0.000    0.000    0.000    0.000 
#
# Total GULP energy -272647.921139 kJ/mol
# GULP energy per Si atom -12393.087325 kJ/mol
# Density = 1.986352 g / cm^3
# Si number density = 19.908837 Si / 1000 Ang^3
#
#
#
# Elastic Constant Matrix: (Units=GPa)
#
#
# Indices 1 2 3 4 5 6 
#
# 1 103.3354 28.1066 42.8974 0.0000 0.0000 0.0000
# 2 28.1066 89.5590 41.9397 0.0000 0.0000 0.0000
# 3 42.8974 41.9397 112.3574 0.0000 0.0000 0.0000
# 4 0.0000 0.0000 0.0000 24.2766 0.0000 0.0000
# 5 0.0000 0.0000 0.0000 0.0000 30.9746 0.0000
# 6 0.0000 0.0000 0.0000 0.0000 0.0000 28.8866
#
#
#
# Elastic Compliance Matrix: (Units=1/GPa)
#
#
# Indices 1 2 3 4 5 6 
#
# 1 0.011768 -0.001926 -0.003774 0.000000 0.000000 0.000000
# 2 -0.001926 0.013846 -0.004433 0.000000 0.000000 0.000000
# 3 -0.003774 -0.004433 0.011996 0.000000 0.000000 0.000000
# 4 0.000000 0.000000 0.000000 0.041192 0.000000 0.000000
# 5 0.000000 0.000000 0.000000 0.000000 0.032285 0.000000
# 6 0.000000 0.000000 0.000000 0.000000 0.000000 0.034618
#
#
# Mechanical properties :
#
#
# Convention : Reuss Voigt Hill
#
# Bulk Modulus (GPa) = 57.65712 59.01548 58.33630
# Shear Modulus (GPa) = 29.11185 29.64811 29.37998
#
# Velocity S-wave (km/s) = 3.82810 3.86319 3.84568
# Velocity P-wave (km/s) = 6.96868 7.04317 7.00602
#
# Compressibility (1/GPa) = 0.01734391
#
# Stress axis : x y z
#
# Youngs Moduli (GPa) = 84.97824 72.22209 83.36242
#
# Poissons Ratio (x) = 0.13908 0.31461
# Poissons Ratio (y) = 0.16365 0.36956
# Poissons Ratio (z) = 0.32071 0.32017
#
# Static dielectric constant tensor:
#      x y z
#    x 4.007950 0.000000 0.000000 
#    y 0.000000 3.709420 0.000000 
#    z 0.000000 0.000000 4.146460 
# 
# 
# High freq. dielectric constant tensor:
#      x y z
#    x 1.757480 0.000000 0.000000 
#    y 0.000000 1.770650 0.000000 
#    z 0.000000 0.000000 1.794710 
# 
# From -- ./inp_files/18769.got.cif
#   From: 2010.03.12/outbox.cif.g09.slc.cpg/sg20_10_cif.got.tgz:18769.got - 2010.04.14 01:38:04.
