data_PCOD8158196
_publ_section_title
;
Structure prediction by ZEFSAII (Michael W. Deem and Ramdas Pophale) SiO2 
 PCOD8158196
Probable space group: C 2 2 21
;
_chemical_formula_sum "Si O2"
_cell_formula_units_Z 52
_cell_length_a 12.854063
_cell_length_b 8.123356
_cell_length_c 23.490605
_cell_angle_alpha 90.000000
_cell_angle_beta 90.000000
_cell_angle_gamma 90.000000
_cell_volume 2452.845042
_symmetry_space_group_name_H-M "C 2 2 21"
_symmetry_group_IT_number 20
_symmetry_cell_setting 'orthorhombic'
loop_
_space_group_symop_operation_xyz
x,y,z
-x,-y,1/2+z
x,-y,-z
-x,y,1/2-z
1/2+x,1/2+y,z
1/2-x,1/2-y,1/2+z
1/2+x,1/2-y,-z
1/2-x,1/2+y,1/2-z
loop_
_atom_site_type_symbol
_atom_site_label
_atom_site_fract_x
_atom_site_fract_y
_atom_site_fract_z
Si Si1 0.695019 0.684593 0.500531
Si Si2 0.113691 0.833402 0.380661
Si Si3 0.232518 0.128274 0.191606
Si Si4 0.116110 0.615706 0.732379
Si Si5 0.163881 0.000000 0.000000
Si Si6 0.115505 0.870378 0.118373
Si Si7 0.676076 0.306970 0.623702
O O1 0.749055 0.500000 0.500000
O O2 0.611384 0.679322 0.551057
O O3 0.771971 0.834603 0.513938
O O4 0.634192 0.720063 0.440948
O O5 0.193485 0.701160 0.356752
O O6 0.995419 0.799855 0.360639
O O7 0.152310 0.008765 0.356381
O O8 0.159834 0.253835 0.223790
O O9 0.309713 0.043282 0.237316
O O10 0.152621 0.002007 0.164201
O O11 0.120878 0.681382 0.667080
O O12 0.000000 0.567138 0.750000
O O13 0.098512 0.041067 0.943070
O O14 0.199135 0.722270 0.117981
#
# Coordination Sequence:
#
# PCOD8158196 Si02
#       7
#     8   8   8   8   4   8   8
#     4   9  19  36  65  91 132 171 206 267 321 377
#     4  11  21  39  65  92 124 169 207 254 329 383
#     4  11  24  41  63  93 125 163 211 269 312 374
#     4  11  24  43  64  90 122 167 211 262 319 374
#     4  10  18  38  64  90 136 170 208 262 318 390
#     4  10  22  38  64  93 125 167 208 255 322 379
#     4   9  21  40  60  90 128 156 209 266 301 375
#
# _framework density 21.199871999999999
#
# number of rings (size 3 to 8) (size 9 to 14) (size 15 to 20)
#    0.000    1.846    1.538    1.846    3.231    3.692 
#    0.000    0.769   13.538    0.000    0.000    0.000 
#    0.000    0.000    0.000    0.000    0.000    0.000 
#
# Total GULP energy -322244.337057 kJ/mol
# GULP energy per Si atom -12394.012964 kJ/mol
# Density = 2.115162 g / cm^3
# Si number density = 21.199872 Si / 1000 Ang^3
#
#
#
# Elastic Constant Matrix: (Units=GPa)
#
#
# Indices 1 2 3 4 5 6 
#
# 1 99.2170 19.9708 23.0100 0.0000 0.0000 0.0000
# 2 19.9708 55.4027 -8.2906 0.0000 0.0000 0.0000
# 3 23.0100 -8.2906 67.2629 0.0000 0.0000 0.0000
# 4 0.0000 0.0000 0.0000 29.1657 0.0000 0.0000
# 5 0.0000 0.0000 0.0000 0.0000 21.6656 0.0000
# 6 0.0000 0.0000 0.0000 0.0000 0.0000 9.2584
#
#
#
# Elastic Compliance Matrix: (Units=1/GPa)
#
#
# Indices 1 2 3 4 5 6 
#
# 1 0.012228 -0.005128 -0.004815 0.000000 0.000000 0.000000
# 2 -0.005128 0.020540 0.004286 0.000000 0.000000 0.000000
# 3 -0.004815 0.004286 0.017043 0.000000 0.000000 0.000000
# 4 0.000000 0.000000 0.000000 0.034287 0.000000 0.000000
# 5 0.000000 0.000000 0.000000 0.000000 0.046156 0.000000
# 6 0.000000 0.000000 0.000000 0.000000 0.000000 0.108010
#
#
# Mechanical properties :
#
#
# Convention : Reuss Voigt Hill
#
# Bulk Modulus (GPa) = 25.97731 32.36255 29.16993
# Shear Modulus (GPa) = 19.05415 24.49741 21.77578
#
# Velocity S-wave (km/s) = 3.00123 3.40302 3.20842
# Velocity P-wave (km/s) = 4.92848 5.54430 5.24544
#
# Compressibility (1/GPa) = 0.03849513
#
# Stress axis : x y z
#
# Youngs Moduli (GPa) = 81.78043 48.68643 58.67673
#
# Poissons Ratio (x) = 0.24968 0.28254
# Poissons Ratio (y) = 0.41939 -0.25149
# Poissons Ratio (z) = 0.39378 -0.20867
#
# Static dielectric constant tensor:
#      x y z
#    x 3.535240 0.000000 0.000000 
#    y 0.000000 4.002130 0.000000 
#    z 0.000000 0.000000 4.061300 
# 
# 
# High freq. dielectric constant tensor:
#      x y z
#    x 1.806630 0.000000 0.000000 
#    y 0.000000 1.834620 0.000000 
#    z 0.000000 0.000000 1.844670 
# 
# From -- ./inp_files/30297.got.cif
#   From: 2010.03.12/outbox.cif.g09.slc.cpg/sg20_16_cif.got.tgz:30297.got - 2010.04.14 01:38:04.
