data_PCOD8158597
_publ_section_title
;
Structure prediction by ZEFSAII (Michael W. Deem and Ramdas Pophale) SiO2 
 PCOD8158597
Probable space group: C 2 2 21
;
_chemical_formula_sum "Si O2"
_cell_formula_units_Z 40
_cell_length_a 23.929672
_cell_length_b 5.042135
_cell_length_c 15.540025
_cell_angle_alpha 90.000000
_cell_angle_beta 90.000000
_cell_angle_gamma 90.000000
_cell_volume 1875.007151
_symmetry_space_group_name_H-M "C 2 2 21"
_symmetry_group_IT_number 20
_symmetry_cell_setting 'orthorhombic'
loop_
_space_group_symop_operation_xyz
x,y,z
-x,-y,1/2+z
x,-y,-z
-x,y,1/2-z
1/2+x,1/2+y,z
1/2-x,1/2-y,1/2+z
1/2+x,1/2-y,-z
1/2-x,1/2+y,1/2-z
loop_
_atom_site_type_symbol
_atom_site_label
_atom_site_fract_x
_atom_site_fract_y
_atom_site_fract_z
Si Si1 0.749632 0.130767 0.693693
Si Si2 0.158806 0.742561 0.058613
Si Si3 0.635970 0.029209 0.602025
Si Si4 0.964315 0.250906 0.556810
Si Si5 0.426612 0.466744 0.102459
O O1 0.736344 0.343851 0.767486
O O2 0.802789 0.233461 0.641628
O O3 0.697362 0.109721 0.630174
O O4 0.096289 0.677062 0.096597
O O5 0.179658 0.500000 0.000000
O O6 0.163041 0.000000 0.000000
O O7 0.590791 0.245483 0.638599
O O8 0.635053 0.000000 0.500000
O O9 0.618413 0.743080 0.639337
O O10 0.987592 0.500000 0.500000
O O11 0.011495 0.151915 0.625613
O O12 0.949566 0.000000 0.500000
O O13 0.425343 0.500000 0.000000
#
# Coordination Sequence:
#
# PCOD8158597 Si02
#       5
#     8   8   8   8   8
#     4  12  25  40  57  80 116 153 188 234 285 330
#     4  10  21  38  61  85 110 146 192 232 271 331
#     4  10  20  34  56  81 108 143 185 227 270 328
#     4   9  16  29  52  83 112 136 173 229 280 321
#     4   9  16  29  52  83 110 134 172 228 280 320
#
# _framework density 21.333254
#
# number of rings (size 3 to 8) (size 9 to 14) (size 15 to 20)
#    0.000    2.000    0.000    6.000    0.000    2.400 
#    0.000    0.000    0.000    7.200    0.000    0.000 
#    0.000    0.000    0.000    0.000    0.000    0.000 
#
# Total GULP energy -247801.285294 kJ/mol
# GULP energy per Si atom -12390.064265 kJ/mol
# Density = 2.128470 g / cm^3
# Si number density = 21.333254 Si / 1000 Ang^3
#
#
#
# Elastic Constant Matrix: (Units=GPa)
#
#
# Indices 1 2 3 4 5 6 
#
# 1 139.8859 31.3668 30.4888 0.0000 0.0000 0.0000
# 2 31.3668 128.6845 25.4727 0.0000 0.0000 0.0000
# 3 30.4888 25.4727 29.9815 0.0000 0.0000 0.0000
# 4 0.0000 0.0000 0.0000 27.2809 0.0000 0.0000
# 5 0.0000 0.0000 0.0000 0.0000 3.0384 0.0000
# 6 0.0000 0.0000 0.0000 0.0000 0.0000 36.5044
#
#
#
# Elastic Compliance Matrix: (Units=1/GPa)
#
#
# Indices 1 2 3 4 5 6 
#
# 1 0.009208 -0.000470 -0.008964 0.000000 0.000000 0.000000
# 2 -0.000470 0.009366 -0.007480 0.000000 0.000000 0.000000
# 3 -0.008964 -0.007480 0.048825 0.000000 0.000000 0.000000
# 4 0.000000 0.000000 0.000000 0.036656 0.000000 0.000000
# 5 0.000000 0.000000 0.000000 0.000000 0.329120 0.000000
# 6 0.000000 0.000000 0.000000 0.000000 0.000000 0.027394
#
#
# Mechanical properties :
#
#
# Convention : Reuss Voigt Hill
#
# Bulk Modulus (GPa) = 29.78779 52.57872 41.18325
# Shear Modulus (GPa) = 9.88950 27.44632 18.66791
#
# Velocity S-wave (km/s) = 2.15541 3.59074 2.96135
# Velocity P-wave (km/s) = 4.49308 6.47234 5.57131
#
# Compressibility (1/GPa) = 0.03357080
#
# Stress axis : x y z
#
# Youngs Moduli (GPa) = 108.60241 106.76837 20.48134
#
# Poissons Ratio (x) = 0.05017 0.18360
# Poissons Ratio (y) = 0.05104 0.15319
# Poissons Ratio (z) = 0.97356 0.79859
#
# Static dielectric constant tensor:
#      x y z
#    x 4.249370 0.000000 0.000000 
#    y 0.000000 4.108690 0.000000 
#    z 0.000000 0.000000 3.180640 
# 
# 
# High freq. dielectric constant tensor:
#      x y z
#    x 1.854880 0.000000 0.000000 
#    y 0.000000 1.866630 0.000000 
#    z 0.000000 0.000000 1.763250 
# 
# From -- ./inp_files/21924.got.cif
#   From: 2010.03.12/outbox.cif.g09.slc.cpg/sg20_11_cif.got.tgz:21924.got - 2010.04.14 01:38:04.
