data_PCOD8158776
_publ_section_title
;
Structure prediction by ZEFSAII (Michael W. Deem and Ramdas Pophale) SiO2 
 PCOD8158776
Probable space group: C 2 2 21
;
_chemical_formula_sum "Si O2"
_cell_formula_units_Z 48
_cell_length_a 14.938771
_cell_length_b 8.623016
_cell_length_c 17.671640
_cell_angle_alpha 90.000000
_cell_angle_beta 90.000000
_cell_angle_gamma 90.000000
_cell_volume 2276.412268
_symmetry_space_group_name_H-M "C 2 2 21"
_symmetry_group_IT_number 20
_symmetry_cell_setting 'orthorhombic'
loop_
_space_group_symop_operation_xyz
x,y,z
-x,-y,1/2+z
x,-y,-z
-x,y,1/2-z
1/2+x,1/2+y,z
1/2-x,1/2-y,1/2+z
1/2+x,1/2-y,-z
1/2-x,1/2+y,1/2-z
loop_
_atom_site_type_symbol
_atom_site_label
_atom_site_fract_x
_atom_site_fract_y
_atom_site_fract_z
Si Si1 0.914886 0.392155 0.572910
Si Si2 0.313048 0.591096 0.575975
Si Si3 0.236214 0.969251 0.410914
Si Si4 0.938231 0.487143 0.820052
Si Si5 0.253167 0.664157 0.325777
Si Si6 0.832046 0.766403 0.833227
O O1 0.915217 0.500000 0.500000
O O2 0.897662 0.206513 0.561583
O O3 0.830966 0.460673 0.620625
O O4 0.012034 0.410549 0.609251
O O5 0.289745 0.500000 0.500000
O O6 0.325620 0.461597 0.642581
O O7 0.227937 0.691981 0.600185
O O8 0.157896 0.055218 0.361538
O O9 0.222903 0.000000 0.500000
O O10 0.234770 0.788326 0.392176
O O11 0.840456 0.417681 0.807383
O O12 0.926217 0.673611 0.831514
O O13 0.000000 0.448125 0.750000
O O14 0.289408 0.744954 0.250415
#
# Coordination Sequence:
#
# PCOD8158776 Si02
#       6
#     8   8   8   8   8   8
#     4  10  21  38  60  88 124 159 199 252 316 373
#     4  10  20  37  64  91 118 162 209 252 305 375
#     4  10  20  38  61  86 117 157 202 249 300 369
#     4  11  23  38  59  85 119 156 198 257 314 364
#     4  11  21  38  64  89 118 158 210 258 301 371
#     4  10  21  37  61  87 115 160 208 248 298 370
#
# _framework density 21.085811
#
# number of rings (size 3 to 8) (size 9 to 14) (size 15 to 20)
#    0.000    1.667    0.000    8.000    0.000    4.000 
#    0.000    6.667    0.000    0.000    0.000    0.000 
#    0.000    0.000    0.000    0.000    0.000    0.000 
#
# Total GULP energy -297359.250166 kJ/mol
# GULP energy per Si atom -12389.968757 kJ/mol
# Density = 2.103782 g / cm^3
# Si number density = 21.085811 Si / 1000 Ang^3
#
#
#
# Elastic Constant Matrix: (Units=GPa)
#
#
# Indices 1 2 3 4 5 6 
#
# 1 61.6171 37.4660 41.6191 0.0000 0.0000 0.0000
# 2 37.4660 143.0179 59.0482 0.0000 0.0000 0.0000
# 3 41.6191 59.0482 113.9538 0.0000 0.0000 0.0000
# 4 0.0000 0.0000 0.0000 45.3948 0.0000 0.0000
# 5 0.0000 0.0000 0.0000 0.0000 14.6903 0.0000
# 6 0.0000 0.0000 0.0000 0.0000 0.0000 33.3928
#
#
#
# Elastic Compliance Matrix: (Units=1/GPa)
#
#
# Indices 1 2 3 4 5 6 
#
# 1 0.022641 -0.003202 -0.006610 0.000000 0.000000 0.000000
# 2 -0.003202 0.009348 -0.003674 0.000000 0.000000 0.000000
# 3 -0.006610 -0.003674 0.013094 0.000000 0.000000 0.000000
# 4 0.000000 0.000000 0.000000 0.022029 0.000000 0.000000
# 5 0.000000 0.000000 0.000000 0.000000 0.068072 0.000000
# 6 0.000000 0.000000 0.000000 0.000000 0.000000 0.029947
#
#
# Mechanical properties :
#
#
# Convention : Reuss Voigt Hill
#
# Bulk Modulus (GPa) = 55.21888 66.09505 60.65696
# Shear Modulus (GPa) = 25.23471 30.72594 27.98032
#
# Velocity S-wave (km/s) = 3.46318 3.82145 3.64672
# Velocity P-wave (km/s) = 6.49892 7.13338 6.82353
#
# Compressibility (1/GPa) = 0.01810975
#
# Stress axis : x y z
#
# Youngs Moduli (GPa) = 44.16783 106.97401 76.37329
#
# Poissons Ratio (x) = 0.34255 0.50481
# Poissons Ratio (y) = 0.14143 0.28063
# Poissons Ratio (z) = 0.29194 0.39307
#
# Static dielectric constant tensor:
#      x y z
#    x 4.071590 0.000000 0.000000 
#    y 0.000000 4.345250 0.000000 
#    z 0.000000 0.000000 3.937240 
# 
# 
# High freq. dielectric constant tensor:
#      x y z
#    x 1.779780 0.000000 0.000000 
#    y 0.000000 1.846090 0.000000 
#    z 0.000000 0.000000 1.835500 
# 
# From -- ./inp_files/24785.got.cif
#   From: 2010.03.12/outbox.cif.g09.slc.cpg/sg20_13_cif.got.tgz:24785.got - 2010.04.14 01:38:04.
