data_PCOD8158526
_publ_section_title
;
Structure prediction by ZEFSAII (Michael W. Deem and Ramdas Pophale) SiO2 
 PCOD8158526
Probable space group: C 2 2 21
;
_chemical_formula_sum "Si O2"
_cell_formula_units_Z 40
_cell_length_a 8.009849
_cell_length_b 11.934971
_cell_length_c 17.489307
_cell_angle_alpha 90.000000
_cell_angle_beta 90.000000
_cell_angle_gamma 90.000000
_cell_volume 1671.930800
_symmetry_space_group_name_H-M "C 2 2 21"
_symmetry_group_IT_number 20
_symmetry_cell_setting 'orthorhombic'
loop_
_space_group_symop_operation_xyz
x,y,z
-x,-y,1/2+z
x,-y,-z
-x,y,1/2-z
1/2+x,1/2+y,z
1/2-x,1/2-y,1/2+z
1/2+x,1/2-y,-z
1/2-x,1/2+y,1/2-z
loop_
_atom_site_type_symbol
_atom_site_label
_atom_site_fract_x
_atom_site_fract_y
_atom_site_fract_z
Si Si1 0.392920 0.968943 0.582641
Si Si2 0.476197 0.729240 0.546922
Si Si3 0.762868 0.038995 0.621034
Si Si4 0.669475 0.282669 0.892422
Si Si5 0.172808 0.404010 0.219918
O O1 0.399215 0.835578 0.591800
O O2 0.317898 0.000000 0.500000
O O3 0.572119 0.033048 0.591346
O O4 0.269883 0.016414 0.649021
O O5 0.370905 0.616999 0.564948
O O6 0.473936 0.745377 0.454731
O O7 0.666657 0.724503 0.571827
O O8 0.792981 0.090900 0.706388
O O9 0.831546 0.913760 0.622347
O O10 0.641400 0.222220 0.810904
O O11 0.000000 0.456430 0.250000
#
# Coordination Sequence:
#
# PCOD8158526 Si02
#       5
#     8   8   8   8   8
#     4  10  19  41  67  92 130 179 226 273 339 412
#     4  11  23  42  73  96 135 176 236 286 346 411
#     4  10  23  41  67  96 140 173 222 292 349 401
#     4  11  24  45  69 103 135 181 231 288 348 414
#     4  10  23  42  65  97 135 181 225 280 352 416
#
# _framework density 23.924436
#
# number of rings (size 3 to 8) (size 9 to 14) (size 15 to 20)
#    0.000    1.600    2.000    3.000    5.600    0.800 
#   10.800    0.000    0.000    0.000    0.000    0.000 
#    0.000    0.000    0.000    0.000    0.000    0.000 
#
# Total GULP energy -247880.529665 kJ/mol
# GULP energy per Si atom -12394.026483 kJ/mol
# Density = 2.386998 g / cm^3
# Si number density = 23.924436 Si / 1000 Ang^3
#
#
#
# Elastic Constant Matrix: (Units=GPa)
#
#
# Indices 1 2 3 4 5 6 
#
# 1 20.3206 2.7985 9.5843 0.0000 0.0000 0.0000
# 2 2.7985 141.3885 37.4777 0.0000 0.0000 0.0000
# 3 9.5843 37.4777 153.9004 0.0000 0.0000 0.0000
# 4 0.0000 0.0000 0.0000 49.1711 0.0000 0.0000
# 5 0.0000 0.0000 0.0000 0.0000 21.8475 0.0000
# 6 0.0000 0.0000 0.0000 0.0000 0.0000 29.2596
#
#
#
# Elastic Compliance Matrix: (Units=1/GPa)
#
#
# Indices 1 2 3 4 5 6 
#
# 1 0.050705 -0.000178 -0.003114 0.000000 0.000000 0.000000
# 2 -0.000178 0.007561 -0.001830 0.000000 0.000000 0.000000
# 3 -0.003114 -0.001830 0.007137 0.000000 0.000000 0.000000
# 4 0.000000 0.000000 0.000000 0.020337 0.000000 0.000000
# 5 0.000000 0.000000 0.000000 0.000000 0.045772 0.000000
# 6 0.000000 0.000000 0.000000 0.000000 0.000000 0.034177
#
#
# Mechanical properties :
#
#
# Convention : Reuss Voigt Hill
#
# Bulk Modulus (GPa) = 18.12971 46.14781 32.13876
# Shear Modulus (GPa) = 25.73069 37.77224 31.75146
#
# Velocity S-wave (km/s) = 3.28304 3.97774 3.64697
# Velocity P-wave (km/s) = 4.68673 6.35826 5.58538
#
# Compressibility (1/GPa) = 0.05515808
#
# Stress axis : x y z
#
# Youngs Moduli (GPa) = 19.72207 132.25102 140.10793
#
# Poissons Ratio (x) = 0.02355 0.43634
# Poissons Ratio (y) = 0.00351 0.25643
# Poissons Ratio (z) = 0.06142 0.24205
#
# Static dielectric constant tensor:
#      x y z
#    x 3.851370 0.000000 0.000000 
#    y 0.000000 4.320360 0.000000 
#    z 0.000000 0.000000 4.828070 
# 
# 
# High freq. dielectric constant tensor:
#      x y z
#    x 1.905470 0.000000 0.000000 
#    y 0.000000 1.961480 0.000000 
#    z 0.000000 0.000000 1.962850 
# 
# From -- ./inp_files/23174.got.cif
#   From: 2010.03.12/outbox.cif.g09.slc.cpg/sg20_12_cif.got.tgz:23174.got - 2010.04.14 01:38:04.
