data_PCOD8158496
_publ_section_title
;
Structure prediction by ZEFSAII (Michael W. Deem and Ramdas Pophale) SiO2 
 PCOD8158496
Probable space group: C 2 2 21
;
_chemical_formula_sum "Si O2"
_cell_formula_units_Z 40
_cell_length_a 27.441651
_cell_length_b 8.778586
_cell_length_c 8.057552
_cell_angle_alpha 90.000000
_cell_angle_beta 90.000000
_cell_angle_gamma 90.000000
_cell_volume 1941.055359
_symmetry_space_group_name_H-M "C 2 2 21"
_symmetry_group_IT_number 20
_symmetry_cell_setting 'orthorhombic'
loop_
_space_group_symop_operation_xyz
x,y,z
-x,-y,1/2+z
x,-y,-z
-x,y,1/2-z
1/2+x,1/2+y,z
1/2-x,1/2-y,1/2+z
1/2+x,1/2-y,-z
1/2-x,1/2+y,1/2-z
loop_
_atom_site_type_symbol
_atom_site_label
_atom_site_fract_x
_atom_site_fract_y
_atom_site_fract_z
Si Si1 0.303072 0.386459 0.732975
Si Si2 0.783322 0.220628 0.631364
Si Si3 0.141662 0.604905 0.346451
Si Si4 0.099282 0.848927 0.577715
Si Si5 0.947909 0.566784 0.819066
O O1 0.271397 0.288590 0.864454
O O2 0.284111 0.559273 0.725221
O O3 0.300733 0.301296 0.556441
O O4 0.358345 0.391592 0.793854
O O5 0.815485 0.349817 0.722213
O O6 0.161608 0.500000 0.500000
O O7 0.119530 0.758485 0.420389
O O8 0.099822 0.514182 0.237137
O O9 0.058698 0.750061 0.676934
O O10 0.074748 0.000000 0.500000
O O11 0.000000 0.518645 0.750000
O O12 0.945226 0.500000 0.000000
#
# Coordination Sequence:
#
# PCOD8158496 Si02
#       5
#     8   8   8   8   8
#     4  11  25  37  59  87 127 165 214 255 307 366
#     4  11  24  39  57  90 124 171 212 255 306 367
#     4   9  20  38  62  84 121 159 204 249 308 365
#     4  10  19  39  61  84 119 162 199 255 307 364
#     4   9  21  39  64  91 116 153 198 251 311 376
#
# _framework density 20.607347000000001
#
# number of rings (size 3 to 8) (size 9 to 14) (size 15 to 20)
#    0.000    2.400    2.000    1.200    8.400    1.600 
#    0.000    4.000    4.400    0.000    0.000    0.000 
#    0.000    0.000    0.000    0.000    0.000    0.000 
#
# Total GULP energy -247857.965622 kJ/mol
# GULP energy per Si atom -12392.898281 kJ/mol
# Density = 2.056044 g / cm^3
# Si number density = 20.607347 Si / 1000 Ang^3
#
#
#
# Elastic Constant Matrix: (Units=GPa)
#
#
# Indices 1 2 3 4 5 6 
#
# 1 70.1566 25.1443 20.3528 0.0000 0.0000 0.0000
# 2 25.1443 120.2517 29.7906 0.0000 0.0000 0.0000
# 3 20.3528 29.7906 44.4212 0.0000 0.0000 0.0000
# 4 0.0000 0.0000 0.0000 29.8954 0.0000 0.0000
# 5 0.0000 0.0000 0.0000 0.0000 28.9249 0.0000
# 6 0.0000 0.0000 0.0000 0.0000 0.0000 22.8175
#
#
#
# Elastic Compliance Matrix: (Units=1/GPa)
#
#
# Indices 1 2 3 4 5 6 
#
# 1 0.016803 -0.001926 -0.006407 0.000000 0.000000 0.000000
# 2 -0.001926 0.010194 -0.005954 0.000000 0.000000 0.000000
# 3 -0.006407 -0.005954 0.029440 0.000000 0.000000 0.000000
# 4 0.000000 0.000000 0.000000 0.033450 0.000000 0.000000
# 5 0.000000 0.000000 0.000000 0.000000 0.034572 0.000000
# 6 0.000000 0.000000 0.000000 0.000000 0.000000 0.043826
#
#
# Mechanical properties :
#
#
# Convention : Reuss Voigt Hill
#
# Bulk Modulus (GPa) = 35.88998 42.82276 39.35637
# Shear Modulus (GPa) = 24.25466 26.96368 25.60917
#
# Velocity S-wave (km/s) = 3.43445 3.62117 3.52905
# Velocity P-wave (km/s) = 5.76031 6.18945 5.97873
#
# Compressibility (1/GPa) = 0.02786293
#
# Stress axis : x y z
#
# Youngs Moduli (GPa) = 59.51370 98.10075 33.96735
#
# Poissons Ratio (x) = 0.18896 0.21762
# Poissons Ratio (y) = 0.11464 0.20223
# Poissons Ratio (z) = 0.38130 0.58406
#
# Static dielectric constant tensor:
#      x y z
#    x -1.506020 0.000000 0.000000 
#    y 0.000000 4.146450 0.000000 
#    z 0.000000 0.000000 3.476130 
# 
# 
# High freq. dielectric constant tensor:
#      x y z
#    x 1.789040 0.000000 0.000000 
#    y 0.000000 1.826690 0.000000 
#    z 0.000000 0.000000 1.781710 
# 
# From -- ./inp_files/6340.got.cif
#   From: 2010.03.12/outbox.cif.g09.slc.cpg/sg20_4_cif.got.tgz:6340.got - 2010.04.14 01:38:04.
