data_PCOD8158459
_publ_section_title
;
Structure prediction by ZEFSAII (Michael W. Deem and Ramdas Pophale) SiO2 
 PCOD8158459
Probable space group: C 2 2 21
;
_chemical_formula_sum "Si O2"
_cell_formula_units_Z 64
_cell_length_a 16.990854
_cell_length_b 11.237473
_cell_length_c 16.406785
_cell_angle_alpha 90.000000
_cell_angle_beta 90.000000
_cell_angle_gamma 90.000000
_cell_volume 3132.617403
_symmetry_space_group_name_H-M "C 2 2 21"
_symmetry_group_IT_number 20
_symmetry_cell_setting 'orthorhombic'
loop_
_space_group_symop_operation_xyz
x,y,z
-x,-y,1/2+z
x,-y,-z
-x,y,1/2-z
1/2+x,1/2+y,z
1/2-x,1/2-y,1/2+z
1/2+x,1/2-y,-z
1/2-x,1/2+y,1/2-z
loop_
_atom_site_type_symbol
_atom_site_label
_atom_site_fract_x
_atom_site_fract_y
_atom_site_fract_z
Si Si1 0.821034 0.608867 0.799723
Si Si2 0.601017 0.872512 0.023624
Si Si3 0.607182 0.748931 0.598380
Si Si4 0.687111 0.490728 0.096846
Si Si5 0.781216 0.743727 0.646446
Si Si6 0.586079 0.901199 0.742689
Si Si7 0.564941 0.298412 0.126100
Si Si8 0.576495 0.886654 0.448754
O O1 0.752930 0.593823 0.866007
O O2 0.796267 0.716434 0.741394
O O3 0.844478 0.496820 0.740009
O O4 0.895798 0.635072 0.856554
O O5 0.657851 0.823003 0.090988
O O6 0.516548 0.896758 0.062652
O O7 0.593695 0.780007 0.949884
O O8 0.637360 0.000000 0.000000
O O9 0.692996 0.698053 0.622686
O O10 0.597705 0.873315 0.646751
O O11 0.529280 0.673129 0.624929
O O12 0.602811 0.771649 0.501756
O O13 0.701360 0.617411 0.137739
O O14 0.604715 0.428805 0.122785
O O15 0.694984 0.500000 0.000000
O O16 0.500000 0.960324 0.750000
O O17 0.591147 0.778922 0.794830
O O18 0.609772 0.000000 0.500000
#
# Coordination Sequence:
#
# PCOD8158459 Si02
#       8
#     8   8   8   8   8   8   8   8
#     4  12  24  36  66  97 133 162 221 283 341 381
#     4  10  22  39  64  98 129 162 217 279 342 396
#     4  10  20  41  62  90 127 177 223 261 330 407
#     4  12  24  44  69  95 130 182 229 268 333 412
#     4  12  24  40  64  97 136 171 225 280 332 395
#     4  10  20  36  65  93 124 166 215 273 332 395
#     4  10  22  40  69  92 127 175 223 271 335 406
#     4  10  19  37  65  94 119 162 213 278 334 393
#
# _framework density 20.430199999999999
#
# number of rings (size 3 to 8) (size 9 to 14) (size 15 to 20)
#    0.000    1.250    3.750    2.625    3.500    0.000 
#    0.000    0.625   13.750    0.000    0.000    0.000 
#    0.000    0.000    0.000    0.000    0.000    0.000 
#
# Total GULP energy -396518.556229 kJ/mol
# GULP energy per Si atom -12391.204882 kJ/mol
# Density = 2.038370 g / cm^3
# Si number density = 20.430200 Si / 1000 Ang^3
#
#
#
# Elastic Constant Matrix: (Units=GPa)
#
#
# Indices 1 2 3 4 5 6 
#
# 1 108.5592 34.9671 46.4490 0.0000 0.0000 0.0000
# 2 34.9671 66.4096 37.6560 0.0000 0.0000 0.0000
# 3 46.4490 37.6560 115.5272 0.0000 0.0000 0.0000
# 4 0.0000 0.0000 0.0000 30.2378 0.0000 0.0000
# 5 0.0000 0.0000 0.0000 0.0000 32.2860 0.0000
# 6 0.0000 0.0000 0.0000 0.0000 0.0000 29.8856
#
#
#
# Elastic Compliance Matrix: (Units=1/GPa)
#
#
# Indices 1 2 3 4 5 6 
#
# 1 0.012103 -0.004433 -0.003421 0.000000 0.000000 0.000000
# 2 -0.004433 0.020096 -0.004768 0.000000 0.000000 0.000000
# 3 -0.003421 -0.004768 0.011586 0.000000 0.000000 0.000000
# 4 0.000000 0.000000 0.000000 0.033071 0.000000 0.000000
# 5 0.000000 0.000000 0.000000 0.000000 0.030973 0.000000
# 6 0.000000 0.000000 0.000000 0.000000 0.000000 0.033461
#
#
# Mechanical properties :
#
#
# Convention : Reuss Voigt Hill
#
# Bulk Modulus (GPa) = 53.93630 58.73781 56.33706
# Shear Modulus (GPa) = 28.94957 29.91014 29.42985
#
# Velocity S-wave (km/s) = 3.76839 3.83040 3.79952
# Velocity P-wave (km/s) = 6.73735 6.95525 6.84717
#
# Compressibility (1/GPa) = 0.01854039
#
# Stress axis : x y z
#
# Youngs Moduli (GPa) = 82.62219 49.76212 86.31352
#
# Poissons Ratio (x) = 0.22059 0.29531
# Poissons Ratio (y) = 0.36625 0.41153
# Poissons Ratio (z) = 0.28268 0.23726
#
# Static dielectric constant tensor:
#      x y z
#    x 4.015510 0.000000 0.000000 
#    y 0.000000 3.602060 0.000000 
#    z 0.000000 0.000000 3.899560 
# 
# 
# High freq. dielectric constant tensor:
#      x y z
#    x 1.808180 0.000000 0.000000 
#    y 0.000000 1.760350 0.000000 
#    z 0.000000 0.000000 1.810670 
# 
# From -- ./inp_files/24999.got.cif
#   From: 2010.03.12/outbox.cif.g09.slc.cpg/sg20_13_cif.got.tgz:24999.got - 2010.04.14 01:38:04.
