data_PCOD8158078
_publ_section_title
;
Structure prediction by ZEFSAII (Michael W. Deem and Ramdas Pophale) SiO2 
 PCOD8158078
Probable space group: C 2 2 21
;
_chemical_formula_sum "Si O2"
_cell_formula_units_Z 60
_cell_length_a 18.302559
_cell_length_b 13.316518
_cell_length_c 13.385311
_cell_angle_alpha 90.000000
_cell_angle_beta 90.000000
_cell_angle_gamma 90.000000
_cell_volume 3262.353079
_symmetry_space_group_name_H-M "C 2 2 21"
_symmetry_group_IT_number 20
_symmetry_cell_setting 'orthorhombic'
loop_
_space_group_symop_operation_xyz
x,y,z
-x,-y,1/2+z
x,-y,-z
-x,y,1/2-z
1/2+x,1/2+y,z
1/2-x,1/2-y,1/2+z
1/2+x,1/2-y,-z
1/2-x,1/2+y,1/2-z
loop_
_atom_site_type_symbol
_atom_site_label
_atom_site_fract_x
_atom_site_fract_y
_atom_site_fract_z
Si Si1 0.111036 0.701714 0.580227
Si Si2 0.646920 0.942059 0.259326
Si Si3 0.500000 0.938264 0.750000
Si Si4 0.716227 0.519593 0.339399
Si Si5 0.419246 0.635795 0.240457
Si Si6 0.369247 0.220148 0.593867
Si Si7 0.222049 0.163066 0.520175
Si Si8 0.479468 0.111667 0.467817
O O1 0.163810 0.629517 0.645755
O O2 0.071471 0.777325 0.657289
O O3 0.154457 0.763971 0.497706
O O4 0.056123 0.631468 0.520711
O O5 0.717878 0.012699 0.241512
O O6 0.632450 0.879217 0.160328
O O7 0.571241 0.998403 0.280642
O O8 0.517443 0.873177 0.848254
O O9 0.640117 0.552190 0.288888
O O10 0.741745 0.601529 0.420195
O O11 0.701254 0.412129 0.390179
O O12 0.500000 0.586265 0.250000
O O13 0.393534 0.681759 0.345855
O O14 0.288809 0.235795 0.548713
O O15 0.423921 0.197514 0.503390
O O16 0.453082 0.000000 0.500000
#
# Coordination Sequence:
#
# PCOD8158078 Si02
#       8
#     8   8   4   8   8   8   8   8
#     4  10  20  35  56  80 115 148 184 237 292 343
#     4  10  18  32  54  85 111 143 185 230 284 345
#     4  12  22  30  52  88 114 146 186 220 288 354
#     4   9  19  34  57  83 110 151 202 235 270 344
#     4  10  19  35  60  84 106 150 205 239 276 335
#     4  10  19  33  56  80 113 145 188 237 282 343
#     4   9  19  35  55  80 112 154 187 233 289 333
#     4  12  21  33  54  83 115 152 180 233 286 341
#
# _framework density 18.391632000000001
#
# number of rings (size 3 to 8) (size 9 to 14) (size 15 to 20)
#    0.000    1.867    4.000    0.800    3.733    1.067 
#    0.000    2.667    4.400    0.000    0.000    0.000 
#    0.000    0.000    0.000    0.000    0.000    0.000 
#
# Total GULP energy -371947.241834 kJ/mol
# GULP energy per Si atom -12398.241394 kJ/mol
# Density = 1.834977 g / cm^3
# Si number density = 18.391632 Si / 1000 Ang^3
#
#
#
# Elastic Constant Matrix: (Units=GPa)
#
#
# Indices 1 2 3 4 5 6 
#
# 1 124.4793 42.8466 42.1218 0.0000 0.0000 0.0000
# 2 42.8466 50.3970 28.3421 0.0000 0.0000 0.0000
# 3 42.1218 28.3421 97.8994 0.0000 0.0000 0.0000
# 4 0.0000 0.0000 0.0000 25.4883 0.0000 0.0000
# 5 0.0000 0.0000 0.0000 0.0000 30.4591 0.0000
# 6 0.0000 0.0000 0.0000 0.0000 0.0000 22.5521
#
#
#
# Elastic Compliance Matrix: (Units=1/GPa)
#
#
# Indices 1 2 3 4 5 6 
#
# 1 0.011892 -0.008640 -0.002616 0.000000 0.000000 0.000000
# 2 -0.008640 0.029978 -0.004961 0.000000 0.000000 0.000000
# 3 -0.002616 -0.004961 0.012776 0.000000 0.000000 0.000000
# 4 0.000000 0.000000 0.000000 0.039234 0.000000 0.000000
# 5 0.000000 0.000000 0.000000 0.000000 0.032831 0.000000
# 6 0.000000 0.000000 0.000000 0.000000 0.000000 0.044342
#
#
# Mechanical properties :
#
#
# Convention : Reuss Voigt Hill
#
# Bulk Modulus (GPa) = 45.01816 55.48851 50.25334
# Shear Modulus (GPa) = 23.70896 26.33091 25.01993
#
# Velocity S-wave (km/s) = 3.59432 3.78786 3.69236
# Velocity P-wave (km/s) = 6.46190 7.02613 6.74992
#
# Compressibility (1/GPa) = 0.02221326
#
# Stress axis : x y z
#
# Youngs Moduli (GPa) = 84.08746 33.35778 78.27018
#
# Poissons Ratio (x) = 0.28820 0.20472
# Poissons Ratio (y) = 0.72650 0.38833
# Poissons Ratio (z) = 0.21993 0.16550
#
# Static dielectric constant tensor:
#      x y z
#    x 3.406100 0.000000 0.000000 
#    y 0.000000 3.085790 0.000000 
#    z 0.000000 0.000000 3.494420 
# 
# 
# High freq. dielectric constant tensor:
#      x y z
#    x 1.715350 0.000000 0.000000 
#    y 0.000000 1.677840 0.000000 
#    z 0.000000 0.000000 1.714040 
# 
# From -- ./inp_files/21451.got.cif
#   From: 2010.03.12/outbox.cif.g09.slc.cpg/sg20_11_cif.got.tgz:21451.got - 2010.04.14 01:38:04.
