data_PCOD8158440
_publ_section_title
;
Structure prediction by ZEFSAII (Michael W. Deem and Ramdas Pophale) SiO2 
 PCOD8158440
Probable space group: C 2 2 21
;
_chemical_formula_sum "Si O2"
_cell_formula_units_Z 56
_cell_length_a 7.438540
_cell_length_b 22.388957
_cell_length_c 16.842049
_cell_angle_alpha 90.000000
_cell_angle_beta 90.000000
_cell_angle_gamma 90.000000
_cell_volume 2804.894246
_symmetry_space_group_name_H-M "C 2 2 21"
_symmetry_group_IT_number 20
_symmetry_cell_setting 'orthorhombic'
loop_
_space_group_symop_operation_xyz
x,y,z
-x,-y,1/2+z
x,-y,-z
-x,y,1/2-z
1/2+x,1/2+y,z
1/2-x,1/2-y,1/2+z
1/2+x,1/2-y,-z
1/2-x,1/2+y,1/2-z
loop_
_atom_site_type_symbol
_atom_site_label
_atom_site_fract_x
_atom_site_fract_y
_atom_site_fract_z
Si Si1 0.297475 0.337495 0.263478
Si Si2 0.108877 0.493513 0.589200
Si Si3 0.668028 0.078116 0.857966
Si Si4 0.378579 0.269677 0.677486
Si Si5 0.580491 0.824228 0.416963
Si Si6 0.028041 0.945378 0.051041
Si Si7 0.744376 0.368359 0.935216
O O1 0.500000 0.356217 0.250000
O O2 0.173612 0.390658 0.228227
O O3 0.265757 0.276331 0.214303
O O4 0.247841 0.333746 0.356125
O O5 0.036272 0.500000 0.500000
O O6 0.290794 0.533904 0.598445
O O7 0.146644 0.423650 0.603437
O O8 0.946534 0.516258 0.646402
O O9 0.559248 0.121278 0.916615
O O10 0.873026 0.072591 0.888046
O O11 0.500000 0.290894 0.750000
O O12 0.487805 0.237864 0.606342
O O13 0.301065 0.330053 0.641896
O O14 0.645028 0.823347 0.507698
O O15 0.077991 0.892619 0.988606
O O16 0.951067 0.000000 0.000000
#
# Coordination Sequence:
#
# PCOD8158440 Si02
#       7
#     8   8   8   8   8   8   8
#     4  10  22  37  59  87 119 159 206 260 315 363
#     4   9  18  34  57  85 125 151 200 255 298 366
#     4  11  18  34  61  84 121 156 197 250 317 358
#     4   9  21  39  60  84 127 164 198 258 317 367
#     4  10  20  35  57  89 112 155 203 258 299 355
#     4   9  19  31  55  87 119 155 197 245 304 357
#     4  10  19  37  61  86 124 159 204 254 306 374
#
# _framework density 19.965102000000002
#
# number of rings (size 3 to 8) (size 9 to 14) (size 15 to 20)
#    0.000    2.571    2.857    2.571    0.000    3.429 
#    0.000    1.429   12.571    0.000    0.000    0.000 
#    0.000    0.000    0.000    0.000    0.000    0.000 
#
# Total GULP energy -346969.112000 kJ/mol
# GULP energy per Si atom -12391.754000 kJ/mol
# Density = 1.991966 g / cm^3
# Si number density = 19.965102 Si / 1000 Ang^3
#
#
#
# Elastic Constant Matrix: (Units=GPa)
#
#
# Indices 1 2 3 4 5 6 
#
# 1 87.2096 33.4442 27.2883 0.0000 0.0000 0.0000
# 2 33.4442 120.1434 52.2541 0.0000 0.0000 0.0000
# 3 27.2883 52.2541 60.5250 0.0000 0.0000 0.0000
# 4 0.0000 0.0000 0.0000 20.8258 0.0000 0.0000
# 5 0.0000 0.0000 0.0000 0.0000 20.8844 0.0000
# 6 0.0000 0.0000 0.0000 0.0000 0.0000 18.4357
#
#
#
# Elastic Compliance Matrix: (Units=1/GPa)
#
#
# Indices 1 2 3 4 5 6 
#
# 1 0.013586 -0.001790 -0.004580 0.000000 0.000000 0.000000
# 2 -0.001790 0.013564 -0.010903 0.000000 0.000000 0.000000
# 3 -0.004580 -0.010903 0.028000 0.000000 0.000000 0.000000
# 4 0.000000 0.000000 0.000000 0.048017 0.000000 0.000000
# 5 0.000000 0.000000 0.000000 0.000000 0.047883 0.000000
# 6 0.000000 0.000000 0.000000 0.000000 0.000000 0.054243
#
#
# Mechanical properties :
#
#
# Convention : Reuss Voigt Hill
#
# Bulk Modulus (GPa) = 48.53491 54.87236 51.70363
# Shear Modulus (GPa) = 20.26691 22.35528 21.31109
#
# Velocity S-wave (km/s) = 3.18955 3.34985 3.27068
# Velocity P-wave (km/s) = 6.15848 6.51965 6.34164
#
# Compressibility (1/GPa) = 0.02060373
#
# Stress axis : x y z
#
# Youngs Moduli (GPa) = 73.60409 73.72567 35.71384
#
# Poissons Ratio (x) = 0.13196 0.16357
# Poissons Ratio (y) = 0.13175 0.38940
# Poissons Ratio (z) = 0.33712 0.80385
#
# Static dielectric constant tensor:
#      x y z
#    x 3.685480 0.000000 0.000000 
#    y 0.000000 3.575370 0.000000 
#    z 0.000000 0.000000 3.385760 
# 
# 
# High freq. dielectric constant tensor:
#      x y z
#    x 1.772680 0.000000 0.000000 
#    y 0.000000 1.773880 0.000000 
#    z 0.000000 0.000000 1.759490 
# 
# From -- ./inp_files/23846.got.cif
#   From: 2010.03.12/outbox.cif.g09.slc.cpg/sg20_12_cif.got.tgz:23846.got - 2010.04.14 01:38:04.
