data_PCOD8158622
_publ_section_title
;
Structure prediction by ZEFSAII (Michael W. Deem and Ramdas Pophale) SiO2 
 PCOD8158622
Probable space group: C 2 2 21
;
_chemical_formula_sum "Si O2"
_cell_formula_units_Z 56
_cell_length_a 4.958891
_cell_length_b 32.701725
_cell_length_c 16.781924
_cell_angle_alpha 90.000000
_cell_angle_beta 90.000000
_cell_angle_gamma 90.000000
_cell_volume 2721.428787
_symmetry_space_group_name_H-M "C 2 2 21"
_symmetry_group_IT_number 20
_symmetry_cell_setting 'orthorhombic'
loop_
_space_group_symop_operation_xyz
x,y,z
-x,-y,1/2+z
x,-y,-z
-x,y,1/2-z
1/2+x,1/2+y,z
1/2-x,1/2-y,1/2+z
1/2+x,1/2-y,-z
1/2-x,1/2+y,1/2-z
loop_
_atom_site_type_symbol
_atom_site_label
_atom_site_fract_x
_atom_site_fract_y
_atom_site_fract_z
Si Si1 0.474648 0.953258 0.983046
Si Si2 0.264025 0.211435 0.696760
Si Si3 0.053284 0.148456 0.409180
Si Si4 0.025746 0.087195 0.543096
Si Si5 0.742090 0.879604 0.198478
Si Si6 0.561131 0.105117 0.341125
Si Si7 0.898774 0.239224 0.452390
O O1 0.419698 0.937040 0.892833
O O2 0.790594 0.945766 0.997205
O O3 0.282867 0.928367 0.044959
O O4 0.405017 0.000000 0.000000
O O5 0.500000 0.230648 0.750000
O O6 0.347591 0.165392 0.669263
O O7 0.239192 0.237062 0.616591
O O8 0.000000 0.214505 0.750000
O O9 0.845729 0.128123 0.347107
O O10 0.005079 0.196340 0.418511
O O11 0.025359 0.130446 0.498150
O O12 0.348019 0.137798 0.375653
O O13 0.164431 0.090631 0.628602
O O14 0.500000 0.900101 0.250000
O O15 0.000000 0.871248 0.250000
O O16 0.500000 0.092978 0.250000
O O17 0.662977 0.235224 0.519123
#
# Coordination Sequence:
#
# PCOD8158622 Si02
#       7
#     8   8   8   8   8   8   8
#     4  10  21  38  61  88 116 150 186 229 290 350
#     4  10  22  38  55  79 114 154 190 236 297 343
#     4  10  22  37  58  85 113 154 197 241 290 340
#     4  10  20  37  59  81 113 147 186 231 279 343
#     4  10  20  35  56  80 109 147 190 233 280 336
#     4  10  21  39  61  86 116 154 197 241 292 352
#     4  12  24  38  58  85 116 152 201 251 292 340
#
# _framework density 20.577425000000002
#
# number of rings (size 3 to 8) (size 9 to 14) (size 15 to 20)
#    0.000    1.714    0.000    4.286    0.000    6.286 
#    0.000    2.143    0.000    1.714    0.000    0.000 
#    0.000    0.000    0.000    0.000    0.000    0.000 
#
# Total GULP energy -347103.948033 kJ/mol
# GULP energy per Si atom -12396.569573 kJ/mol
# Density = 2.053059 g / cm^3
# Si number density = 20.577425 Si / 1000 Ang^3
#
#
#
# Elastic Constant Matrix: (Units=GPa)
#
#
# Indices 1 2 3 4 5 6 
#
# 1 104.0713 11.0403 22.6868 0.0000 0.0000 0.0000
# 2 11.0403 84.3358 43.7498 0.0000 0.0000 0.0000
# 3 22.6868 43.7498 100.6855 0.0000 0.0000 0.0000
# 4 0.0000 0.0000 0.0000 21.0243 0.0000 0.0000
# 5 0.0000 0.0000 0.0000 0.0000 37.7663 0.0000
# 6 0.0000 0.0000 0.0000 0.0000 0.0000 22.0148
#
#
#
# Elastic Compliance Matrix: (Units=1/GPa)
#
#
# Indices 1 2 3 4 5 6 
#
# 1 0.010107 -0.000183 -0.002198 0.000000 0.000000 0.000000
# 2 -0.000183 0.015311 -0.006612 0.000000 0.000000 0.000000
# 3 -0.002198 -0.006612 0.013300 0.000000 0.000000 0.000000
# 4 0.000000 0.000000 0.000000 0.047564 0.000000 0.000000
# 5 0.000000 0.000000 0.000000 0.000000 0.026479 0.000000
# 6 0.000000 0.000000 0.000000 0.000000 0.000000 0.045424
#
#
# Mechanical properties :
#
#
# Convention : Reuss Voigt Hill
#
# Bulk Modulus (GPa) = 48.23153 49.33850 48.78501
# Shear Modulus (GPa) = 27.31019 30.26879 28.78949
#
# Velocity S-wave (km/s) = 3.64702 3.83948 3.74449
# Velocity P-wave (km/s) = 6.42061 6.60943 6.51570
#
# Compressibility (1/GPa) = 0.02073333
#
# Stress axis : x y z
#
# Youngs Moduli (GPa) = 98.93804 65.31153 75.18735
#
# Poissons Ratio (x) = 0.01195 0.16526
# Poissons Ratio (y) = 0.01810 0.49712
# Poissons Ratio (z) = 0.21746 0.43183
#
# Static dielectric constant tensor:
#      x y z
#    x 3.883660 0.000000 0.000000 
#    y 0.000000 3.423700 0.000000 
#    z 0.000000 0.000000 3.611060 
# 
# 
# High freq. dielectric constant tensor:
#      x y z
#    x 1.830100 0.000000 0.000000 
#    y 0.000000 1.777240 0.000000 
#    z 0.000000 0.000000 1.797750 
# 
# From -- ./inp_files/17957.got.cif
#   From: 2010.03.12/outbox.cif.g09.slc.cpg/sg20_9_cif.got.tgz:17957.got - 2010.04.14 01:38:04.
