data_PCOD8158827
_publ_section_title
;
Structure prediction by ZEFSAII (Michael W. Deem and Ramdas Pophale) SiO2 
 PCOD8158827
Probable space group: C 2 2 21
;
_chemical_formula_sum "Si O2"
_cell_formula_units_Z 60
_cell_length_a 20.134681
_cell_length_b 5.023661
_cell_length_c 27.747100
_cell_angle_alpha 90.000000
_cell_angle_beta 90.000000
_cell_angle_gamma 90.000000
_cell_volume 2806.613940
_symmetry_space_group_name_H-M "C 2 2 21"
_symmetry_group_IT_number 20
_symmetry_cell_setting 'orthorhombic'
loop_
_space_group_symop_operation_xyz
x,y,z
-x,-y,1/2+z
x,-y,-z
-x,y,1/2-z
1/2+x,1/2+y,z
1/2-x,1/2-y,1/2+z
1/2+x,1/2-y,-z
1/2-x,1/2+y,1/2-z
loop_
_atom_site_type_symbol
_atom_site_label
_atom_site_fract_x
_atom_site_fract_y
_atom_site_fract_z
Si Si1 0.800186 0.509767 0.582324
Si Si2 0.486565 0.458244 0.096526
Si Si3 0.590740 0.026573 0.627040
Si Si4 0.377804 0.486689 0.445377
Si Si5 0.183443 0.343478 0.455142
Si Si6 0.230027 0.540606 0.189579
Si Si7 0.313278 0.040204 0.208060
Si Si8 0.425312 0.500000 0.000000
O O1 0.815939 0.809346 0.563643
O O2 0.728648 0.402301 0.563813
O O3 0.806770 0.515771 0.639796
O O4 0.855303 0.315268 0.561491
O O5 0.467321 0.193087 0.125445
O O6 0.564431 0.538649 0.094487
O O7 0.442343 0.690455 0.118409
O O8 0.470416 0.380341 0.041745
O O9 0.617662 0.020280 0.681652
O O10 0.654680 0.981998 0.590335
O O11 0.404055 0.500000 0.500000
O O12 0.219814 0.500000 0.500000
O O13 0.117417 0.238028 0.479468
O O14 0.291646 0.340156 0.195727
O O15 0.178585 0.502812 0.234133
O O16 0.256829 0.840805 0.188569
#
# Coordination Sequence:
#
# PCOD8158827 Si02
#       8
#     8   8   8   8   8   8   8   4
#     4  12  26  40  63  89 129 167 210 260 304 386
#     4  11  23  42  62  84 120 164 219 252 301 355
#     4  11  22  37  65  92 121 154 202 271 313 371
#     4  12  27  45  61  85 125 181 222 246 292 374
#     4  11  23  35  58  93 131 155 200 250 340 362
#     4  10  21  38  62  90 131 165 197 252 319 400
#     4  10  20  38  62  96 126 159 200 253 333 387
#     4  10  22  36  56  84 118 156 192 264 308 352
#
# _framework density 21.378074000000002
#
# number of rings (size 3 to 8) (size 9 to 14) (size 15 to 20)
#    0.000    1.067    3.333    3.200    5.600    0.000 
#    0.000    0.000    0.000    4.800    0.000    0.000 
#    0.000    0.000    0.000    0.000    0.000    0.000 
#
# Total GULP energy -371887.346499 kJ/mol
# GULP energy per Si atom -12396.244883 kJ/mol
# Density = 2.132942 g / cm^3
# Si number density = 21.378074 Si / 1000 Ang^3
#
#
#
# Elastic Constant Matrix: (Units=GPa)
#
#
# Indices 1 2 3 4 5 6 
#
# 1 51.9233 2.8028 4.0283 0.0000 0.0000 0.0000
# 2 2.8028 78.4182 13.5655 0.0000 0.0000 0.0000
# 3 4.0283 13.5655 82.4115 0.0000 0.0000 0.0000
# 4 0.0000 0.0000 0.0000 28.1255 0.0000 0.0000
# 5 0.0000 0.0000 0.0000 0.0000 29.9156 0.0000
# 6 0.0000 0.0000 0.0000 0.0000 0.0000 23.0319
#
#
#
# Elastic Compliance Matrix: (Units=1/GPa)
#
#
# Indices 1 2 3 4 5 6 
#
# 1 0.019355 -0.000544 -0.000857 0.000000 0.000000 0.000000
# 2 -0.000544 0.013141 -0.002137 0.000000 0.000000 0.000000
# 3 -0.000857 -0.002137 0.012528 0.000000 0.000000 0.000000
# 4 0.000000 0.000000 0.000000 0.035555 0.000000 0.000000
# 5 0.000000 0.000000 0.000000 0.000000 0.033427 0.000000
# 6 0.000000 0.000000 0.000000 0.000000 0.000000 0.043418
#
#
# Mechanical properties :
#
#
# Convention : Reuss Voigt Hill
#
# Bulk Modulus (GPa) = 26.35018 28.17183 27.26100
# Shear Modulus (GPa) = 28.22499 29.03835 28.63167
#
# Velocity S-wave (km/s) = 3.63750 3.68954 3.66362
# Velocity P-wave (km/s) = 5.47672 5.59972 5.53856
#
# Compressibility (1/GPa) = 0.03795041
#
# Stress axis : x y z
#
# Youngs Moduli (GPa) = 51.66630 76.09674 79.82256
#
# Poissons Ratio (x) = 0.04137 0.06838
# Poissons Ratio (y) = 0.02809 0.17055
# Poissons Ratio (z) = 0.04426 0.16259
#
# Static dielectric constant tensor:
#      x y z
#    x 3.600470 0.000000 0.000000 
#    y 0.000000 3.858860 0.000000 
#    z 0.000000 0.000000 4.146960 
# 
# 
# High freq. dielectric constant tensor:
#      x y z
#    x 1.810030 0.000000 0.000000 
#    y 0.000000 1.849030 0.000000 
#    z 0.000000 0.000000 1.834860 
# 
# From -- ./inp_files/29561.got.cif
#   From: 2010.03.12/outbox.cif.g09.slc.cpg/sg20_15_cif.got.tgz:29561.got - 2010.04.14 01:38:04.
