data_PCOD8158413
_publ_section_title
;
Structure prediction by ZEFSAII (Michael W. Deem and Ramdas Pophale) SiO2 
 PCOD8158413
Probable space group: C 2 2 21
;
_chemical_formula_sum "Si O2"
_cell_formula_units_Z 56
_cell_length_a 21.005988
_cell_length_b 15.720627
_cell_length_c 8.606821
_cell_angle_alpha 90.000000
_cell_angle_beta 90.000000
_cell_angle_gamma 90.000000
_cell_volume 2842.207279
_symmetry_space_group_name_H-M "C 2 2 21"
_symmetry_group_IT_number 20
_symmetry_cell_setting 'orthorhombic'
loop_
_space_group_symop_operation_xyz
x,y,z
-x,-y,1/2+z
x,-y,-z
-x,y,1/2-z
1/2+x,1/2+y,z
1/2-x,1/2-y,1/2+z
1/2+x,1/2-y,-z
1/2-x,1/2+y,1/2-z
loop_
_atom_site_type_symbol
_atom_site_label
_atom_site_fract_x
_atom_site_fract_y
_atom_site_fract_z
Si Si1 0.059654 0.278805 0.147107
Si Si2 0.701781 0.439607 0.631924
Si Si3 0.842403 0.848362 0.585787
Si Si4 0.232033 0.790390 0.432153
Si Si5 0.988693 0.593233 0.067738
Si Si6 0.362102 0.163696 0.934918
Si Si7 0.738410 0.586200 0.838024
O O1 0.089466 0.196866 0.058121
O O2 0.113649 0.317456 0.260135
O O3 0.000000 0.248934 0.250000
O O4 0.039712 0.347050 0.018314
O O5 0.668102 0.500000 0.500000
O O6 0.651838 0.392192 0.744252
O O7 0.746616 0.368594 0.550999
O O8 0.745000 0.500296 0.739061
O O9 0.787669 0.777370 0.572525
O O10 0.821853 0.918565 0.457464
O O11 0.164760 0.748809 0.483000
O O12 0.225007 0.828757 0.260946
O O13 0.000000 0.593045 0.250000
O O14 0.998139 0.500000 0.000000
O O15 0.917547 0.625823 0.040266
O O16 0.305605 0.094536 0.926047
#
# Coordination Sequence:
#
# PCOD8158413 Si02
#       7
#     8   8   8   8   8   8   8
#     4  10  21  40  64  85 120 169 208 256 308 365
#     4  10  21  37  55  88 127 160 195 252 318 367
#     4  11  19  37  59  88 121 158 206 253 301 378
#     4  10  19  36  60  90 124 160 206 243 312 375
#     4  11  25  45  61  90 124 165 217 264 311 371
#     4  10  20  39  61  88 125 165 204 259 309 379
#     4  10  21  34  59  95 126 159 197 258 322 366
#
# _framework density 19.702995999999999
#
# number of rings (size 3 to 8) (size 9 to 14) (size 15 to 20)
#    0.000    1.714    2.857    2.571    2.000    2.286 
#    5.143    0.000    0.000    1.714    0.000    0.000 
#    0.000    0.000    0.000    0.000    0.000    0.000 
#
# Total GULP energy -347025.038621 kJ/mol
# GULP energy per Si atom -12393.751379 kJ/mol
# Density = 1.965815 g / cm^3
# Si number density = 19.702996 Si / 1000 Ang^3
#
#
#
# Elastic Constant Matrix: (Units=GPa)
#
#
# Indices 1 2 3 4 5 6 
#
# 1 95.0743 46.0053 47.0439 0.0000 0.0000 0.0000
# 2 46.0053 106.7405 51.9901 0.0000 0.0000 0.0000
# 3 47.0439 51.9901 127.1223 0.0000 0.0000 0.0000
# 4 0.0000 0.0000 0.0000 44.4799 0.0000 0.0000
# 5 0.0000 0.0000 0.0000 0.0000 20.3103 0.0000
# 6 0.0000 0.0000 0.0000 0.0000 0.0000 13.0831
#
#
#
# Elastic Compliance Matrix: (Units=1/GPa)
#
#
# Indices 1 2 3 4 5 6 
#
# 1 0.014433 -0.004519 -0.003493 0.000000 0.000000 0.000000
# 2 -0.004519 0.013114 -0.003691 0.000000 0.000000 0.000000
# 3 -0.003493 -0.003691 0.010669 0.000000 0.000000 0.000000
# 4 0.000000 0.000000 0.000000 0.022482 0.000000 0.000000
# 5 0.000000 0.000000 0.000000 0.000000 0.049236 0.000000
# 6 0.000000 0.000000 0.000000 0.000000 0.000000 0.076434
#
#
# Mechanical properties :
#
#
# Convention : Reuss Voigt Hill
#
# Bulk Modulus (GPa) = 67.52452 68.77952 68.15202
# Shear Modulus (GPa) = 23.28707 27.83454 25.56081
#
# Velocity S-wave (km/s) = 3.44161 3.76268 3.60572
# Velocity P-wave (km/s) = 7.08086 7.33900 7.21108
#
# Compressibility (1/GPa) = 0.01480943
#
# Stress axis : x y z
#
# Youngs Moduli (GPa) = 69.28390 76.25376 93.73347
#
# Poissons Ratio (x) = 0.34463 0.32741
# Poissons Ratio (y) = 0.31313 0.34596
# Poissons Ratio (z) = 0.24201 0.28144
#
# Static dielectric constant tensor:
#      x y z
#    x 3.480880 0.000000 0.000000 
#    y 0.000000 3.862130 0.000000 
#    z 0.000000 0.000000 4.012690 
# 
# 
# High freq. dielectric constant tensor:
#      x y z
#    x 1.728020 0.000000 0.000000 
#    y 0.000000 1.780290 0.000000 
#    z 0.000000 0.000000 1.785460 
# 
# From -- ./inp_files/8711.got.cif
#   From: 2010.03.12/outbox.cif.g09.slc.cpg/sg20_5_cif.got.tgz:8711.got - 2010.04.14 01:38:04.
