data_PCOD8158628
_publ_section_title
;
Structure prediction by ZEFSAII (Michael W. Deem and Ramdas Pophale) SiO2 
 PCOD8158628
Probable space group: C 2 2 21
;
_chemical_formula_sum "Si O2"
_cell_formula_units_Z 28
_cell_length_a 21.726083
_cell_length_b 13.919495
_cell_length_c 5.144023
_cell_angle_alpha 90.000000
_cell_angle_beta 90.000000
_cell_angle_gamma 90.000000
_cell_volume 1555.635393
_symmetry_space_group_name_H-M "C 2 2 21"
_symmetry_group_IT_number 20
_symmetry_cell_setting 'orthorhombic'
loop_
_space_group_symop_operation_xyz
x,y,z
-x,-y,1/2+z
x,-y,-z
-x,y,1/2-z
1/2+x,1/2+y,z
1/2-x,1/2-y,1/2+z
1/2+x,1/2-y,-z
1/2-x,1/2+y,1/2-z
loop_
_atom_site_type_symbol
_atom_site_label
_atom_site_fract_x
_atom_site_fract_y
_atom_site_fract_z
Si Si1 0.760958 0.102850 0.613854
Si Si2 0.500000 0.436885 0.250000
Si Si3 0.672123 0.240996 0.843016
Si Si4 0.377365 0.678940 0.830023
O O1 0.703211 0.137939 0.788027
O O2 0.772001 0.180949 0.381242
O O3 0.823484 0.098688 0.787486
O O4 0.744255 0.000000 0.500000
O O5 0.482562 0.500000 0.500000
O O6 0.557232 0.370833 0.319742
O O7 0.628083 0.271325 0.607831
O O8 0.629988 0.239809 0.103284
#
# Coordination Sequence:
#
# PCOD8158628 Si02
#       4
#     8   4   8   8
#     4  10  20  35  57  81 112 152 176 236 283 329
#     4  12  24  36  54  84 110 156 202 214 278 356
#     4  10  20  37  51  82 113 142 190 226 280 339
#     4  10  21  36  51  76 118 145 179 233 263 336
#
# _framework density 17.999077
#
# number of rings (size 3 to 8) (size 9 to 14) (size 15 to 20)
#    1.714    0.000    2.857    2.571    4.000    0.000 
#    0.000    0.000    0.000    0.000    0.000    4.000 
#    0.000    0.000    0.000    0.000    0.000    0.000 
#
# Total GULP energy -173495.049856 kJ/mol
# GULP energy per Si atom -12392.503561 kJ/mol
# Density = 1.795811 g / cm^3
# Si number density = 17.999077 Si / 1000 Ang^3
#
#
#
# Elastic Constant Matrix: (Units=GPa)
#
#
# Indices 1 2 3 4 5 6 
#
# 1 75.9946 8.9586 5.7589 0.0000 0.0000 0.0000
# 2 8.9586 54.5988 -4.8715 0.0000 0.0000 0.0000
# 3 5.7589 -4.8715 92.1311 0.0000 0.0000 0.0000
# 4 0.0000 0.0000 0.0000 13.1319 0.0000 0.0000
# 5 0.0000 0.0000 0.0000 0.0000 26.2429 0.0000
# 6 0.0000 0.0000 0.0000 0.0000 0.0000 13.4730
#
#
#
# Elastic Compliance Matrix: (Units=1/GPa)
#
#
# Indices 1 2 3 4 5 6 
#
# 1 0.013503 -0.002302 -0.000966 0.000000 0.000000 0.000000
# 2 -0.002302 0.018795 0.001138 0.000000 0.000000 0.000000
# 3 -0.000966 0.001138 0.010975 0.000000 0.000000 0.000000
# 4 0.000000 0.000000 0.000000 0.076151 0.000000 0.000000
# 5 0.000000 0.000000 0.000000 0.000000 0.038106 0.000000
# 6 0.000000 0.000000 0.000000 0.000000 0.000000 0.074222
#
#
# Mechanical properties :
#
#
# Convention : Reuss Voigt Hill
#
# Bulk Modulus (GPa) = 25.63266 26.93517 26.28392
# Shear Modulus (GPa) = 20.07908 24.76146 22.42027
#
# Velocity S-wave (km/s) = 3.34363 3.71308 3.53318
# Velocity P-wave (km/s) = 5.40171 5.77753 5.59278
#
# Compressibility (1/GPa) = 0.03901274
#
# Stress axis : x y z
#
# Youngs Moduli (GPa) = 74.05567 53.20677 91.11933
#
# Poissons Ratio (x) = 0.12247 0.08800
# Poissons Ratio (y) = 0.17046 -0.10366
# Poissons Ratio (z) = 0.07152 -0.06053
#
# Static dielectric constant tensor:
#      x y z
#    x 3.050690 0.000000 0.000000 
#    y 0.000000 2.910380 0.000000 
#    z 0.000000 0.000000 3.531840 
# 
# 
# High freq. dielectric constant tensor:
#      x y z
#    x 1.671380 0.000000 0.000000 
#    y 0.000000 1.656320 0.000000 
#    z 0.000000 0.000000 1.717000 
# 
# From -- ./inp_files/935.got.cif
#   From: 2010.03.12/outbox.cif.g09.slc.cpg/sg20_1_cif.got.tgz:935.got - 2010.04.14 01:38:04.
