data_PCOD8158127
_publ_section_title
;
Structure prediction by ZEFSAII (Michael W. Deem and Ramdas Pophale) SiO2 
 PCOD8158127
Probable space group: C 2 2 21
;
_chemical_formula_sum "Si O2"
_cell_formula_units_Z 64
_cell_length_a 18.222479
_cell_length_b 4.969131
_cell_length_c 33.597584
_cell_angle_alpha 90.000000
_cell_angle_beta 90.000000
_cell_angle_gamma 90.000000
_cell_volume 3042.257377
_symmetry_space_group_name_H-M "C 2 2 21"
_symmetry_group_IT_number 20
_symmetry_cell_setting 'orthorhombic'
loop_
_space_group_symop_operation_xyz
x,y,z
-x,-y,1/2+z
x,-y,-z
-x,y,1/2-z
1/2+x,1/2+y,z
1/2-x,1/2-y,1/2+z
1/2+x,1/2-y,-z
1/2-x,1/2+y,1/2-z
loop_
_atom_site_type_symbol
_atom_site_label
_atom_site_fract_x
_atom_site_fract_y
_atom_site_fract_z
Si Si1 0.802768 0.458497 0.105422
Si Si2 0.686315 0.265687 0.524810
Si Si3 0.973586 0.944227 0.956425
Si Si4 0.524584 0.040055 0.405035
Si Si5 0.931130 0.963479 0.723498
Si Si6 0.244904 0.542778 0.852916
Si Si7 0.713512 0.409942 0.266237
Si Si8 0.079551 0.465539 0.830488
O O1 0.770651 0.337629 0.063845
O O2 0.890155 0.488043 0.104079
O O3 0.778111 0.252385 0.139630
O O4 0.766402 0.749190 0.112296
O O5 0.730515 0.500000 0.500000
O O6 0.613620 0.420543 0.538874
O O7 0.665330 0.000000 0.500000
O O8 0.006059 0.673879 0.937158
O O9 0.990696 0.174481 0.924738
O O10 0.009457 0.000000 0.000000
O O11 0.482316 0.015132 0.363847
O O12 0.862826 0.960884 0.753380
O O13 0.940541 0.668551 0.705015
O O14 0.000000 0.045570 0.750000
O O15 0.919672 0.166631 0.687083
O O16 0.282898 0.654274 0.812912
O O17 0.157525 0.534110 0.849881
O O18 0.723516 0.130054 0.242851
#
# Coordination Sequence:
#
# PCOD8158127 Si02
#       8
#     8   8   8   8   8   8   8   8
#     4  11  23  37  63  95 120 158 212 249 301 362
#     4  10  18  34  60  92 129 160 198 260 311 355
#     4  10  18  35  61  92 122 159 202 253 304 359
#     4  11  23  38  61  94 125 157 204 258 304 360
#     4  12  26  44  66  93 122 162 207 262 313 364
#     4  12  24  41  63  87 125 166 201 253 305 375
#     4  12  23  44  66  90 118 163 215 251 297 372
#     4  12  26  45  61  90 130 168 197 251 323 370
#
# _framework density 21.037011
#
# number of rings (size 3 to 8) (size 9 to 14) (size 15 to 20)
#    0.000    0.750    2.500    8.250    3.500    0.000 
#    0.000    0.000    0.000    7.500    0.000    0.000 
#    0.000    0.000    0.000    0.000    0.000    0.000 
#
# Total GULP energy -396888.685173 kJ/mol
# GULP energy per Si atom -12402.771412 kJ/mol
# Density = 2.098913 g / cm^3
# Si number density = 21.037011 Si / 1000 Ang^3
#
#
#
# Elastic Constant Matrix: (Units=GPa)
#
#
# Indices 1 2 3 4 5 6 
#
# 1 76.0797 17.7913 40.2088 0.0000 0.0000 0.0000
# 2 17.7913 102.5896 15.9596 0.0000 0.0000 0.0000
# 3 40.2088 15.9596 83.8706 0.0000 0.0000 0.0000
# 4 0.0000 0.0000 0.0000 48.5879 0.0000 0.0000
# 5 0.0000 0.0000 0.0000 0.0000 14.1358 0.0000
# 6 0.0000 0.0000 0.0000 0.0000 0.0000 17.4968
#
#
#
# Elastic Compliance Matrix: (Units=1/GPa)
#
#
# Indices 1 2 3 4 5 6 
#
# 1 0.017931 -0.001826 -0.008249 0.000000 0.000000 0.000000
# 2 -0.001826 0.010231 -0.001071 0.000000 0.000000 0.000000
# 3 -0.008249 -0.001071 0.016082 0.000000 0.000000 0.000000
# 4 0.000000 0.000000 0.000000 0.020581 0.000000 0.000000
# 5 0.000000 0.000000 0.000000 0.000000 0.070742 0.000000
# 6 0.000000 0.000000 0.000000 0.000000 0.000000 0.057153
#
#
# Mechanical properties :
#
#
# Convention : Reuss Voigt Hill
#
# Bulk Modulus (GPa) = 45.55690 45.60658 45.58174
# Shear Modulus (GPa) = 22.48914 28.61612 25.55263
#
# Velocity S-wave (km/s) = 3.27315 3.69219 3.48897
# Velocity P-wave (km/s) = 5.99894 6.31685 6.15995
#
# Compressibility (1/GPa) = 0.02195057
#
# Stress axis : x y z
#
# Youngs Moduli (GPa) = 55.77016 97.74261 62.18311
#
# Poissons Ratio (x) = 0.17851 0.51293
# Poissons Ratio (y) = 0.10186 0.06661
# Poissons Ratio (z) = 0.46003 0.10471
#
# Static dielectric constant tensor:
#      x y z
#    x 3.446990 0.000000 0.000000 
#    y 0.000000 4.059030 0.000000 
#    z 0.000000 0.000000 4.156020 
# 
# 
# High freq. dielectric constant tensor:
#      x y z
#    x 1.783230 0.000000 0.000000 
#    y 0.000000 1.848890 0.000000 
#    z 0.000000 0.000000 1.840540 
# 
# From -- ./inp_files/31366.got.cif
#   From: 2010.03.12/outbox.cif.g09.slc.cpg/sg20_16_cif.got.tgz:31366.got - 2010.04.14 01:38:04.
