data_PCOD8158238
_publ_section_title
;
Structure prediction by ZEFSAII (Michael W. Deem and Ramdas Pophale) SiO2 
 PCOD8158238
Probable space group: C 2 2 21
;
_chemical_formula_sum "Si O2"
_cell_formula_units_Z 32
_cell_length_a 17.315883
_cell_length_b 20.923681
_cell_length_c 5.183047
_cell_angle_alpha 90.000000
_cell_angle_beta 90.000000
_cell_angle_gamma 90.000000
_cell_volume 1877.880188
_symmetry_space_group_name_H-M "C 2 2 21"
_symmetry_group_IT_number 20
_symmetry_cell_setting 'orthorhombic'
loop_
_space_group_symop_operation_xyz
x,y,z
-x,-y,1/2+z
x,-y,-z
-x,y,1/2-z
1/2+x,1/2+y,z
1/2-x,1/2-y,1/2+z
1/2+x,1/2-y,-z
1/2-x,1/2+y,1/2-z
loop_
_atom_site_type_symbol
_atom_site_label
_atom_site_fract_x
_atom_site_fract_y
_atom_site_fract_z
Si Si1 0.175471 0.695338 0.296691
Si Si2 0.835476 0.181663 0.079527
Si Si3 0.049810 0.926636 0.499333
Si Si4 0.589101 0.202231 0.785255
O O1 0.187216 0.772684 0.334556
O O2 0.258455 0.664291 0.239789
O O3 0.138413 0.666267 0.559407
O O4 0.116735 0.679626 0.065014
O O5 0.896425 0.221289 0.256420
O O6 0.873258 0.115900 0.987858
O O7 0.000000 0.909849 0.250000
O O8 0.077016 0.000000 0.500000
O O9 0.000000 0.910556 0.750000
O O10 0.500000 0.185441 0.750000
#
# Coordination Sequence:
#
# PCOD8158238 Si02
#       4
#     8   8   8   8
#     4  10  20  30  44  71  94 129 163 199 255 302
#     4  10  20  31  50  66 102 128 167 205 253 290
#     4  10  23  36  50  73 100 139 181 206 234 291
#     4  10  19  29  44  69  95 125 159 193 247 304
#
# _framework density 17.040490999999999
#
# number of rings (size 3 to 8) (size 9 to 14) (size 15 to 20)
#    1.500    0.500    2.500    1.500    7.000    0.000 
#    0.000    0.000    0.000    0.000    0.000    0.000 
#    0.000    4.000    0.000    2.750    0.000    0.000 
#
# Total GULP energy -198273.905808 kJ/mol
# GULP energy per Si atom -12392.119113 kJ/mol
# Density = 1.700171 g / cm^3
# Si number density = 17.040491 Si / 1000 Ang^3
#
#
#
# Elastic Constant Matrix: (Units=GPa)
#
#
# Indices 1 2 3 4 5 6 
#
# 1 119.4772 34.2271 38.5881 0.0000 0.0000 0.0000
# 2 34.2271 49.3617 12.6868 0.0000 0.0000 0.0000
# 3 38.5881 12.6868 117.2142 0.0000 0.0000 0.0000
# 4 0.0000 0.0000 0.0000 18.4969 0.0000 0.0000
# 5 0.0000 0.0000 0.0000 0.0000 28.7041 0.0000
# 6 0.0000 0.0000 0.0000 0.0000 0.0000 25.4628
#
#
#
# Elastic Compliance Matrix: (Units=1/GPa)
#
#
# Indices 1 2 3 4 5 6 
#
# 1 0.011369 -0.007119 -0.002972 0.000000 0.000000 0.000000
# 2 -0.007119 0.025297 -0.000394 0.000000 0.000000 0.000000
# 3 -0.002972 -0.000394 0.009553 0.000000 0.000000 0.000000
# 4 0.000000 0.000000 0.000000 0.054063 0.000000 0.000000
# 5 0.000000 0.000000 0.000000 0.000000 0.034838 0.000000
# 6 0.000000 0.000000 0.000000 0.000000 0.000000 0.039273
#
#
# Mechanical properties :
#
#
# Convention : Reuss Voigt Hill
#
# Bulk Modulus (GPa) = 39.60947 50.78410 45.19679
# Shear Modulus (GPa) = 24.53624 27.90284 26.21954
#
# Velocity S-wave (km/s) = 3.79869 4.05092 3.92683
# Velocity P-wave (km/s) = 6.52187 7.19352 6.86591
#
# Compressibility (1/GPa) = 0.02524649
#
# Stress axis : x y z
#
# Youngs Moduli (GPa) = 87.95594 39.53105 104.68386
#
# Poissons Ratio (x) = 0.28144 0.31115
# Poissons Ratio (y) = 0.62620 0.04126
# Poissons Ratio (z) = 0.26143 0.01558
#
# Static dielectric constant tensor:
#      x y z
#    x 3.021920 0.000000 0.000000 
#    y 0.000000 2.626640 0.000000 
#    z 0.000000 0.000000 3.300120 
# 
# 
# High freq. dielectric constant tensor:
#      x y z
#    x 1.662370 0.000000 0.000000 
#    y 0.000000 1.581770 0.000000 
#    z 0.000000 0.000000 1.674350 
# 
# From -- ./inp_files/2458.got.cif
#   From: 2010.03.12/outbox.cif.g09.slc.cpg/sg20_2_cif.got.tgz:2458.got - 2010.04.14 01:38:04.
