data_PCOD8158330
_publ_section_title
;
Structure prediction by ZEFSAII (Michael W. Deem and Ramdas Pophale) SiO2 
 PCOD8158330
Probable space group: C 2 2 21
;
_chemical_formula_sum "Si O2"
_cell_formula_units_Z 52
_cell_length_a 13.358344
_cell_length_b 19.474955
_cell_length_c 10.258112
_cell_angle_alpha 90.000000
_cell_angle_beta 90.000000
_cell_angle_gamma 90.000000
_cell_volume 2668.680132
_symmetry_space_group_name_H-M "C 2 2 21"
_symmetry_group_IT_number 20
_symmetry_cell_setting 'orthorhombic'
loop_
_space_group_symop_operation_xyz
x,y,z
-x,-y,1/2+z
x,-y,-z
-x,y,1/2-z
1/2+x,1/2+y,z
1/2-x,1/2-y,1/2+z
1/2+x,1/2-y,-z
1/2-x,1/2+y,1/2-z
loop_
_atom_site_type_symbol
_atom_site_label
_atom_site_fract_x
_atom_site_fract_y
_atom_site_fract_z
Si Si1 0.500000 0.204812 0.250000
Si Si2 0.111065 0.215284 0.271015
Si Si3 0.589420 0.700298 0.558768
Si Si4 0.198501 0.368398 0.810544
Si Si5 0.724920 0.983777 0.140014
Si Si6 0.453209 0.549040 0.892713
Si Si7 0.699933 0.164260 0.881199
O O1 0.496348 0.253492 0.123736
O O2 0.400697 0.159818 0.244052
O O3 0.118289 0.235919 0.422453
O O4 0.200961 0.161854 0.242748
O O5 0.120333 0.282140 0.177202
O O6 0.000000 0.182996 0.250000
O O7 0.544699 0.624164 0.541617
O O8 0.689237 0.694656 0.649092
O O9 0.197821 0.449570 0.774057
O O10 0.194716 0.349856 0.963905
O O11 0.843250 0.979983 0.126615
O O12 0.684038 0.909810 0.191369
O O13 0.675990 0.000000 0.000000
O O14 0.500000 0.549286 0.750000
O O15 0.508325 0.500000 0.000000
#
# Coordination Sequence:
#
# PCOD8158330 Si02
#       7
#     4   8   8   8   8   8   8
#     4  12  20  38  58  82 114 150 194 236 284 354
#     4  11  21  35  56  88 118 149 192 243 294 353
#     4  10  21  35  59  87 116 155 192 244 300 351
#     4  10  21  35  59  83 111 153 194 235 294 347
#     4   8  17  35  57  79 109 151 197 235 288 353
#     4  10  19  34  58  86 119 155 198 241 303 361
#     4   9  18  38  58  83 111 146 192 245 285 350
#
# _framework density 19.485289000000002
#
# number of rings (size 3 to 8) (size 9 to 14) (size 15 to 20)
#    0.000    2.154    2.308    3.692    0.000    2.462 
#    1.385    0.000    6.769    0.000    0.000    0.000 
#    0.000    0.000    0.000    0.000    0.000    0.000 
#
# Total GULP energy -322101.799602 kJ/mol
# GULP energy per Si atom -12388.530754 kJ/mol
# Density = 1.944094 g / cm^3
# Si number density = 19.485289 Si / 1000 Ang^3
#
#
#
# Elastic Constant Matrix: (Units=GPa)
#
#
# Indices 1 2 3 4 5 6 
#
# 1 97.4092 48.0429 10.8429 0.0000 0.0000 0.0000
# 2 48.0429 117.9446 26.7677 0.0000 0.0000 0.0000
# 3 10.8429 26.7677 53.7653 0.0000 0.0000 0.0000
# 4 0.0000 0.0000 0.0000 26.1836 0.0000 0.0000
# 5 0.0000 0.0000 0.0000 0.0000 22.1751 0.0000
# 6 0.0000 0.0000 0.0000 0.0000 0.0000 8.9833
#
#
#
# Elastic Compliance Matrix: (Units=1/GPa)
#
#
# Indices 1 2 3 4 5 6 
#
# 1 0.012847 -0.005237 0.000016 0.000000 0.000000 0.000000
# 2 -0.005237 0.011693 -0.004765 0.000000 0.000000 0.000000
# 3 0.000016 -0.004765 0.020969 0.000000 0.000000 0.000000
# 4 0.000000 0.000000 0.000000 0.038192 0.000000 0.000000
# 5 0.000000 0.000000 0.000000 0.000000 0.045096 0.000000
# 6 0.000000 0.000000 0.000000 0.000000 0.000000 0.111317
#
#
# Mechanical properties :
#
#
# Convention : Reuss Voigt Hill
#
# Bulk Modulus (GPa) = 39.15892 48.93622 44.04757
# Shear Modulus (GPa) = 18.61520 23.69945 21.15732
#
# Velocity S-wave (km/s) = 3.09422 3.49130 3.29874
# Velocity P-wave (km/s) = 5.73637 6.43593 6.09619
#
# Compressibility (1/GPa) = 0.02553696
#
# Stress axis : x y z
#
# Youngs Moduli (GPa) = 77.83954 85.51994 47.69028
#
# Poissons Ratio (x) = 0.44784 -0.00078
# Poissons Ratio (y) = 0.40762 0.22727
# Poissons Ratio (z) = -0.00127 0.40755
#
# Static dielectric constant tensor:
#      x y z
#    x 3.409120 0.000000 0.000000 
#    y 0.000000 3.787370 0.000000 
#    z 0.000000 0.000000 3.372300 
# 
# 
# High freq. dielectric constant tensor:
#      x y z
#    x 1.739870 0.000000 0.000000 
#    y 0.000000 1.767430 0.000000 
#    z 0.000000 0.000000 1.728260 
# 
# From -- ./inp_files/15259.got.cif
#   From: 2010.03.12/outbox.cif.g09.slc.cpg/sg20_8_cif.got.tgz:15259.got - 2010.04.14 01:38:04.
