data_PCOD8158770
_publ_section_title
;
Structure prediction by ZEFSAII (Michael W. Deem and Ramdas Pophale) SiO2 
 PCOD8158770
Probable space group: C 2 2 21
;
_chemical_formula_sum "Si O2"
_cell_formula_units_Z 40
_cell_length_a 14.929419
_cell_length_b 9.210430
_cell_length_c 13.396064
_cell_angle_alpha 90.000000
_cell_angle_beta 90.000000
_cell_angle_gamma 90.000000
_cell_volume 1842.044115
_symmetry_space_group_name_H-M "C 2 2 21"
_symmetry_group_IT_number 20
_symmetry_cell_setting 'orthorhombic'
loop_
_space_group_symop_operation_xyz
x,y,z
-x,-y,1/2+z
x,-y,-z
-x,y,1/2-z
1/2+x,1/2+y,z
1/2-x,1/2-y,1/2+z
1/2+x,1/2-y,-z
1/2-x,1/2+y,1/2-z
loop_
_atom_site_type_symbol
_atom_site_label
_atom_site_fract_x
_atom_site_fract_y
_atom_site_fract_z
Si Si1 0.740017 0.222045 0.614221
Si Si2 0.646476 0.850988 0.051804
Si Si3 0.755457 0.977381 0.212911
Si Si4 0.961492 0.777047 0.950040
Si Si5 0.452419 0.428697 0.149405
O O1 0.805301 0.227511 0.516871
O O2 0.758034 0.067700 0.669989
O O3 0.765925 0.352527 0.692124
O O4 0.636052 0.220961 0.581552
O O5 0.685652 0.863765 0.163253
O O6 0.539986 0.838643 0.067605
O O7 0.673629 0.000000 0.000000
O O8 0.848044 0.947395 0.159901
O O9 0.992009 0.918164 0.887622
O O10 0.965873 0.804940 0.067952
O O11 0.500000 0.376643 0.250000
#
# Coordination Sequence:
#
# PCOD8158770 Si02
#       5
#     8   8   8   8   8
#     4  10  21  41  62  91 124 159 209 256 310 372
#     4  10  21  40  60  85 125 164 197 252 320 364
#     4  10  21  38  63  88 121 164 198 257 315 362
#     4  10  21  37  62  91 121 160 204 255 305 363
#     4  10  20  37  62  91 120 157 209 254 297 363
#
# _framework density 21.715005000000001
#
# number of rings (size 3 to 8) (size 9 to 14) (size 15 to 20)
#    0.000    2.000    2.000    1.200    5.600    0.000 
#    3.600    0.000    0.000    0.000    0.000    0.000 
#    0.000    0.000    0.000    0.000    0.000    0.000 
#
# Total GULP energy -247909.197936 kJ/mol
# GULP energy per Si atom -12395.459897 kJ/mol
# Density = 2.166558 g / cm^3
# Si number density = 21.715005 Si / 1000 Ang^3
#
#
#
# Elastic Constant Matrix: (Units=GPa)
#
#
# Indices 1 2 3 4 5 6 
#
# 1 94.0650 10.3023 13.8774 0.0000 0.0000 0.0000
# 2 10.3023 25.5780 15.4316 0.0000 0.0000 0.0000
# 3 13.8774 15.4316 89.4541 0.0000 0.0000 0.0000
# 4 0.0000 0.0000 0.0000 21.2838 0.0000 0.0000
# 5 0.0000 0.0000 0.0000 0.0000 34.6747 0.0000
# 6 0.0000 0.0000 0.0000 0.0000 0.0000 31.9215
#
#
#
# Elastic Compliance Matrix: (Units=1/GPa)
#
#
# Indices 1 2 3 4 5 6 
#
# 1 0.011213 -0.003870 -0.001072 0.000000 0.000000 0.000000
# 2 -0.003870 0.044973 -0.007158 0.000000 0.000000 0.000000
# 3 -0.001072 -0.007158 0.012580 0.000000 0.000000 0.000000
# 4 0.000000 0.000000 0.000000 0.046984 0.000000 0.000000
# 5 0.000000 0.000000 0.000000 0.000000 0.028839 0.000000
# 6 0.000000 0.000000 0.000000 0.000000 0.000000 0.031327
#
#
# Mechanical properties :
#
#
# Convention : Reuss Voigt Hill
#
# Bulk Modulus (GPa) = 22.43810 32.03553 27.23681
# Shear Modulus (GPa) = 23.25893 28.87506 26.06699
#
# Velocity S-wave (km/s) = 3.27632 3.65050 3.46846
# Velocity P-wave (km/s) = 4.96666 5.70552 5.34886
#
# Compressibility (1/GPa) = 0.04456706
#
# Stress axis : x y z
#
# Youngs Moduli (GPa) = 89.18300 22.23550 79.49108
#
# Poissons Ratio (x) = 0.08604 0.08521
# Poissons Ratio (y) = 0.34510 0.56899
# Poissons Ratio (z) = 0.09560 0.15916
#
# Static dielectric constant tensor:
#      x y z
#    x 3.801190 0.000000 0.000000 
#    y 0.000000 3.637090 0.000000 
#    z 0.000000 0.000000 4.000300 
# 
# 
# High freq. dielectric constant tensor:
#      x y z
#    x 1.859930 0.000000 0.000000 
#    y 0.000000 1.821160 0.000000 
#    z 0.000000 0.000000 1.857500 
# 
# From -- ./inp_files/13863.got.cif
#   From: 2010.03.12/outbox.cif.g09.slc.cpg/sg20_7_cif.got.tgz:13863.got - 2010.04.14 01:38:04.
