data_PCOD8158511
_publ_section_title
;
Structure prediction by ZEFSAII (Michael W. Deem and Ramdas Pophale) SiO2 
 PCOD8158511
Probable space group: C 2 2 21
;
_chemical_formula_sum "Si O2"
_cell_formula_units_Z 60
_cell_length_a 18.752222
_cell_length_b 7.678361
_cell_length_c 18.231566
_cell_angle_alpha 90.000000
_cell_angle_beta 90.000000
_cell_angle_gamma 90.000000
_cell_volume 2625.096280
_symmetry_space_group_name_H-M "C 2 2 21"
_symmetry_group_IT_number 20
_symmetry_cell_setting 'orthorhombic'
loop_
_space_group_symop_operation_xyz
x,y,z
-x,-y,1/2+z
x,-y,-z
-x,y,1/2-z
1/2+x,1/2+y,z
1/2-x,1/2-y,1/2+z
1/2+x,1/2-y,-z
1/2-x,1/2+y,1/2-z
loop_
_atom_site_type_symbol
_atom_site_label
_atom_site_fract_x
_atom_site_fract_y
_atom_site_fract_z
Si Si1 0.581183 0.500000 0.500000
Si Si2 0.687755 0.305957 0.811389
Si Si3 0.424033 0.439848 0.269270
Si Si4 0.965716 0.205353 0.581823
Si Si5 0.304813 0.198655 0.970828
Si Si6 0.450181 0.092341 0.187078
Si Si7 0.844210 0.801728 0.526316
Si Si8 0.193753 0.429005 0.319093
O O1 0.526257 0.561756 0.562893
O O2 0.629373 0.669075 0.482020
O O3 0.640004 0.425773 0.757100
O O4 0.644697 0.267675 0.886660
O O5 0.762270 0.394882 0.831059
O O6 0.706832 0.136636 0.763684
O O7 0.500000 0.529361 0.250000
O O8 0.418090 0.380109 0.354059
O O9 0.415911 0.273336 0.216357
O O10 0.913598 0.272841 0.516367
O O11 0.004482 0.376796 0.613351
O O12 0.284881 0.200795 0.884299
O O13 0.233272 0.279883 0.007491
O O14 0.322423 0.000000 0.000000
O O15 0.500000 0.009651 0.250000
O O16 0.389359 0.958997 0.167112
O O17 0.840947 0.000000 0.500000
#
# Coordination Sequence:
#
# PCOD8158511 Si02
#       8
#     4   8   8   8   8   8   8   8
#     4  12  24  38  74 110 124 188 250 286 364 444
#     4  12  24  40  69 100 136 186 239 290 361 444
#     4   9  19  37  65  94 131 175 219 292 348 419
#     4  10  19  39  74  96 133 182 240 286 366 445
#     4  11  25  46  71 101 155 185 236 314 367 432
#     4   9  22  42  64  94 141 178 222 300 368 424
#     4  11  20  44  69  98 138 194 239 296 370 442
#     4  12  25  42  67 101 142 188 235 300 370 436
#
# _framework density 22.856304000000002
#
# number of rings (size 3 to 8) (size 9 to 14) (size 15 to 20)
#    0.000    1.600    4.667    1.600    3.733    2.667 
#    2.400    0.000    4.400    0.000    0.000    0.000 
#    0.000    0.000    0.000    0.000    0.000    0.000 
#
# Total GULP energy -371745.209418 kJ/mol
# GULP energy per Si atom -12391.506981 kJ/mol
# Density = 2.280428 g / cm^3
# Si number density = 22.856304 Si / 1000 Ang^3
#
#
#
# Elastic Constant Matrix: (Units=GPa)
#
#
# Indices 1 2 3 4 5 6 
#
# 1 93.2713 25.9186 23.4923 0.0000 0.0000 0.0000
# 2 25.9186 45.8454 27.2238 0.0000 0.0000 0.0000
# 3 23.4923 27.2238 142.7614 0.0000 0.0000 0.0000
# 4 0.0000 0.0000 0.0000 21.2820 0.0000 0.0000
# 5 0.0000 0.0000 0.0000 0.0000 34.6000 0.0000
# 6 0.0000 0.0000 0.0000 0.0000 0.0000 30.3656
#
#
#
# Elastic Compliance Matrix: (Units=1/GPa)
#
#
# Indices 1 2 3 4 5 6 
#
# 1 0.012804 -0.006752 -0.000819 0.000000 0.000000 0.000000
# 2 -0.006752 0.028159 -0.004259 0.000000 0.000000 0.000000
# 3 -0.000819 -0.004259 0.007952 0.000000 0.000000 0.000000
# 4 0.000000 0.000000 0.000000 0.046988 0.000000 0.000000
# 5 0.000000 0.000000 0.000000 0.000000 0.028902 0.000000
# 6 0.000000 0.000000 0.000000 0.000000 0.000000 0.032932
#
#
# Mechanical properties :
#
#
# Convention : Reuss Voigt Hill
#
# Bulk Modulus (GPa) = 39.59772 48.34973 43.97372
# Shear Modulus (GPa) = 26.34152 30.93243 28.63698
#
# Velocity S-wave (km/s) = 3.39851 3.68277 3.54349
# Velocity P-wave (km/s) = 5.72381 6.26765 6.00190
#
# Compressibility (1/GPa) = 0.02525398
#
# Stress axis : x y z
#
# Youngs Moduli (GPa) = 78.09989 35.51318 125.76065
#
# Poissons Ratio (x) = 0.23979 0.10305
# Poissons Ratio (y) = 0.52735 0.53556
# Poissons Ratio (z) = 0.06399 0.15124
#
# Static dielectric constant tensor:
#      x y z
#    x 4.442880 0.000000 0.000000 
#    y 0.000000 3.635230 0.000000 
#    z 0.000000 0.000000 4.313360 
# 
# 
# High freq. dielectric constant tensor:
#      x y z
#    x 1.915170 0.000000 0.000000 
#    y 0.000000 1.855920 0.000000 
#    z 0.000000 0.000000 1.911210 
# 
# From -- ./inp_files/25284.got.cif
#   From: 2010.03.12/outbox.cif.g09.slc.cpg/sg20_13_cif.got.tgz:25284.got - 2010.04.14 01:38:04.
