data_PCOD8158869
_publ_section_title
;
Structure prediction by ZEFSAII (Michael W. Deem and Ramdas Pophale) SiO2 
 PCOD8158869
Probable space group: C 2 2 21
;
_chemical_formula_sum "Si O2"
_cell_formula_units_Z 40
_cell_length_a 7.689583
_cell_length_b 10.438726
_cell_length_c 24.740345
_cell_angle_alpha 90.000000
_cell_angle_beta 90.000000
_cell_angle_gamma 90.000000
_cell_volume 1985.893886
_symmetry_space_group_name_H-M "C 2 2 21"
_symmetry_group_IT_number 20
_symmetry_cell_setting 'orthorhombic'
loop_
_space_group_symop_operation_xyz
x,y,z
-x,-y,1/2+z
x,-y,-z
-x,y,1/2-z
1/2+x,1/2+y,z
1/2-x,1/2-y,1/2+z
1/2+x,1/2-y,-z
1/2-x,1/2+y,1/2-z
loop_
_atom_site_type_symbol
_atom_site_label
_atom_site_fract_x
_atom_site_fract_y
_atom_site_fract_z
Si Si1 0.594797 0.894247 0.694539
Si Si2 0.547802 0.405272 0.842609
Si Si3 0.316967 0.456263 0.438954
Si Si4 0.506800 0.135701 0.625805
Si Si5 0.110934 0.149562 0.623306
O O1 0.500000 0.864311 0.750000
O O2 0.804600 0.903645 0.704417
O O3 0.522187 0.026304 0.670641
O O4 0.556573 0.776677 0.654606
O O5 0.659772 0.421787 0.899033
O O6 0.419272 0.526360 0.836561
O O7 0.444576 0.271061 0.845207
O O8 0.311044 0.500000 0.500000
O O9 0.482301 0.361568 0.428622
O O10 0.135983 0.385496 0.424485
O O11 0.309865 0.145145 0.603794
#
# Coordination Sequence:
#
# PCOD8158869 Si02
#       5
#     8   8   8   8   8
#     4  10  21  38  61  87 119 156 194 243 296 350
#     4   8  20  39  53  87 115 144 204 233 284 356
#     4   9  20  40  59  86 120 153 190 245 292 347
#     4  10  20  39  59  83 120 150 194 242 286 348
#     4   9  21  38  60  83 123 151 197 241 285 352
#
# _framework density 20.142064000000001
#
# number of rings (size 3 to 8) (size 9 to 14) (size 15 to 20)
#    1.200    1.600    0.000    0.000    2.800    4.000 
#   10.800    1.000    0.000    0.000    0.000    0.000 
#    0.000    0.000    0.000    0.000    0.000    0.000 
#
# Total GULP energy -247787.358816 kJ/mol
# GULP energy per Si atom -12389.367941 kJ/mol
# Density = 2.009622 g / cm^3
# Si number density = 20.142064 Si / 1000 Ang^3
#
#
#
# Elastic Constant Matrix: (Units=GPa)
#
#
# Indices 1 2 3 4 5 6 
#
# 1 82.0065 16.7733 -0.7894 0.0000 0.0000 0.0000
# 2 16.7733 136.8063 -0.3458 0.0000 0.0000 0.0000
# 3 -0.7894 -0.3458 25.1815 0.0000 0.0000 0.0000
# 4 0.0000 0.0000 0.0000 18.4681 0.0000 0.0000
# 5 0.0000 0.0000 0.0000 0.0000 19.2528 0.0000
# 6 0.0000 0.0000 0.0000 0.0000 0.0000 25.8533
#
#
#
# Elastic Compliance Matrix: (Units=1/GPa)
#
#
# Indices 1 2 3 4 5 6 
#
# 1 0.012511 -0.001533 0.000371 0.000000 0.000000 0.000000
# 2 -0.001533 0.007498 0.000055 0.000000 0.000000 0.000000
# 3 0.000371 0.000055 0.039724 0.000000 0.000000 0.000000
# 4 0.000000 0.000000 0.000000 0.054147 0.000000 0.000000
# 5 0.000000 0.000000 0.000000 0.000000 0.051941 0.000000
# 6 0.000000 0.000000 0.000000 0.000000 0.000000 0.038680
#
#
# Mechanical properties :
#
#
# Convention : Reuss Voigt Hill
#
# Bulk Modulus (GPa) = 17.38552 30.58561 23.98556
# Shear Modulus (GPa) = 22.13489 27.93858 25.03673
#
# Velocity S-wave (km/s) = 3.31862 3.72839 3.52946
# Velocity P-wave (km/s) = 4.83058 5.80968 5.34261
#
# Compressibility (1/GPa) = 0.05751913
#
# Stress axis : x y z
#
# Youngs Moduli (GPa) = 79.92779 133.37418 25.17368
#
# Poissons Ratio (x) = 0.20447 -0.00934
# Poissons Ratio (y) = 0.12253 -0.00138
# Poissons Ratio (z) = -0.02967 -0.00732
#
# Static dielectric constant tensor:
#      x y z
#    x 3.763750 0.000000 0.000000 
#    y 0.000000 3.819910 0.000000 
#    z 0.000000 0.000000 3.088120 
# 
# 
# High freq. dielectric constant tensor:
#      x y z
#    x 1.795760 0.000000 0.000000 
#    y 0.000000 1.801110 0.000000 
#    z 0.000000 0.000000 1.737350 
# 
# From -- ./inp_files/26494.got.cif
#   From: 2010.03.12/outbox.cif.g09.slc.cpg/sg20_14_cif.got.tgz:26494.got - 2010.04.14 01:38:04.
