data_PCOD8158768
_publ_section_title
;
Structure prediction by ZEFSAII (Michael W. Deem and Ramdas Pophale) SiO2 
 PCOD8158768
Probable space group: C 2 2 21
;
_chemical_formula_sum "Si O2"
_cell_formula_units_Z 64
_cell_length_a 19.284635
_cell_length_b 18.296504
_cell_length_c 9.314865
_cell_angle_alpha 90.000000
_cell_angle_beta 90.000000
_cell_angle_gamma 90.000000
_cell_volume 3286.670021
_symmetry_space_group_name_H-M "C 2 2 21"
_symmetry_group_IT_number 20
_symmetry_cell_setting 'orthorhombic'
loop_
_space_group_symop_operation_xyz
x,y,z
-x,-y,1/2+z
x,-y,-z
-x,y,1/2-z
1/2+x,1/2+y,z
1/2-x,1/2-y,1/2+z
1/2+x,1/2-y,-z
1/2-x,1/2+y,1/2-z
loop_
_atom_site_type_symbol
_atom_site_label
_atom_site_fract_x
_atom_site_fract_y
_atom_site_fract_z
Si Si1 0.820930 0.080047 0.484533
Si Si2 0.544739 0.059894 0.379089
Si Si3 0.776018 0.677022 0.474902
Si Si4 0.856584 0.731545 0.892024
Si Si5 0.305021 0.061735 0.232881
Si Si6 0.018095 0.279796 0.587061
Si Si7 0.776985 0.395727 0.228889
Si Si8 0.394942 0.278444 0.585106
O O1 0.754863 0.079833 0.379617
O O2 0.794132 0.102084 0.641134
O O3 0.878594 0.135643 0.429408
O O4 0.855328 0.000000 0.500000
O O5 0.500000 0.025310 0.250000
O O6 0.621529 0.083764 0.333309
O O7 0.505422 0.133350 0.431107
O O8 0.547593 0.000000 0.500000
O O9 0.712510 0.721133 0.408650
O O10 0.795225 0.608866 0.375424
O O11 0.755137 0.646778 0.629034
O O12 0.840327 0.731609 0.492631
O O13 0.836165 0.647060 0.861654
O O14 0.897525 0.759839 0.752837
O O15 0.903231 0.738235 0.035688
O O16 0.306031 0.975664 0.268482
O O17 0.000000 0.255139 0.750000
O O18 0.970099 0.235644 0.478683
#
# Coordination Sequence:
#
# PCOD8158768 Si02
#       8
#     8   8   8   8   8   8   8   8
#     4  10  20  37  62  87 119 157 204 255 316 371
#     4  11  24  39  61  87 129 175 209 247 299 381
#     4  11  22  35  63  92 127 159 208 263 312 367
#     4  11  22  39  60  92 124 169 202 260 312 379
#     4  11  21  40  60  91 126 165 209 256 316 366
#     4  11  25  40  61  88 122 165 211 259 311 373
#     4  10  22  35  61  92 127 164 200 259 304 372
#     4  11  23  39  61  90 122 166 206 260 315 374
#
# _framework density 19.472595999999999
#
# number of rings (size 3 to 8) (size 9 to 14) (size 15 to 20)
#    0.000    1.250    2.500    4.875    1.750    4.000 
#    0.000    0.000    0.000    3.000    0.000    0.000 
#    0.000    0.000    0.000    0.000    0.000    0.000 
#
# Total GULP energy -396862.270593 kJ/mol
# GULP energy per Si atom -12401.945956 kJ/mol
# Density = 1.942828 g / cm^3
# Si number density = 19.472596 Si / 1000 Ang^3
#
#
#
# Elastic Constant Matrix: (Units=GPa)
#
#
# Indices 1 2 3 4 5 6 
#
# 1 72.7363 34.4837 32.6113 0.0000 0.0000 0.0000
# 2 34.4837 112.5699 37.3304 0.0000 0.0000 0.0000
# 3 32.6113 37.3304 92.0257 0.0000 0.0000 0.0000
# 4 0.0000 0.0000 0.0000 26.3057 0.0000 0.0000
# 5 0.0000 0.0000 0.0000 0.0000 33.4206 0.0000
# 6 0.0000 0.0000 0.0000 0.0000 0.0000 15.4136
#
#
#
# Elastic Compliance Matrix: (Units=1/GPa)
#
#
# Indices 1 2 3 4 5 6 
#
# 1 0.017686 -0.003858 -0.004702 0.000000 0.000000 0.000000
# 2 -0.003858 0.011106 -0.003138 0.000000 0.000000 0.000000
# 3 -0.004702 -0.003138 0.013806 0.000000 0.000000 0.000000
# 4 0.000000 0.000000 0.000000 0.038015 0.000000 0.000000
# 5 0.000000 0.000000 0.000000 0.000000 0.029922 0.000000
# 6 0.000000 0.000000 0.000000 0.000000 0.000000 0.064878
#
#
# Mechanical properties :
#
#
# Convention : Reuss Voigt Hill
#
# Bulk Modulus (GPa) = 52.08171 54.02030 53.05101
# Shear Modulus (GPa) = 24.36552 26.55509 25.46030
#
# Velocity S-wave (km/s) = 3.54117 3.69686 3.61985
# Velocity P-wave (km/s) = 6.59728 6.78412 6.69135
#
# Compressibility (1/GPa) = 0.01920060
#
# Stress axis : x y z
#
# Youngs Moduli (GPa) = 56.54275 90.04241 72.43385
#
# Poissons Ratio (x) = 0.34742 0.34060
# Poissons Ratio (y) = 0.21816 0.22728
# Poissons Ratio (z) = 0.26587 0.28254
#
# Static dielectric constant tensor:
#      x y z
#    x 3.379910 0.000000 0.000000 
#    y 0.000000 3.670920 0.000000 
#    z 0.000000 0.000000 3.673700 
# 
# 
# High freq. dielectric constant tensor:
#      x y z
#    x 1.737680 0.000000 0.000000 
#    y 0.000000 1.761560 0.000000 
#    z 0.000000 0.000000 1.771440 
# 
# From -- ./inp_files/10369.got.cif
#   From: 2010.03.12/outbox.cif.g09.slc.cpg/sg20_6_cif.got.tgz:10369.got - 2010.04.14 01:38:04.
