data_PCOD8158904
_publ_section_title
;
Structure prediction by ZEFSAII (Michael W. Deem and Ramdas Pophale) SiO2 
 PCOD8158904
Probable space group: C 2 2 21
;
_chemical_formula_sum "Si O2"
_cell_formula_units_Z 64
_cell_length_a 12.021157
_cell_length_b 17.306872
_cell_length_c 15.599897
_cell_angle_alpha 90.000000
_cell_angle_beta 90.000000
_cell_angle_gamma 90.000000
_cell_volume 3245.537129
_symmetry_space_group_name_H-M "C 2 2 21"
_symmetry_group_IT_number 20
_symmetry_cell_setting 'orthorhombic'
loop_
_space_group_symop_operation_xyz
x,y,z
-x,-y,1/2+z
x,-y,-z
-x,y,1/2-z
1/2+x,1/2+y,z
1/2-x,1/2-y,1/2+z
1/2+x,1/2-y,-z
1/2-x,1/2+y,1/2-z
loop_
_atom_site_type_symbol
_atom_site_label
_atom_site_fract_x
_atom_site_fract_y
_atom_site_fract_z
Si Si1 0.381986 0.145248 0.714901
Si Si2 0.747699 0.589688 0.144024
Si Si3 0.858588 0.184251 0.036779
Si Si4 0.906975 0.353992 0.984663
Si Si5 0.853679 0.409277 0.474467
Si Si6 0.256839 0.087232 0.868793
Si Si7 0.425036 0.409660 0.497861
Si Si8 0.118751 0.185872 0.264043
O O1 0.500000 0.112511 0.750000
O O2 0.350670 0.100562 0.628268
O O3 0.283515 0.135174 0.783993
O O4 0.389396 0.237610 0.703882
O O5 0.750022 0.499989 0.162659
O O6 0.719903 0.632302 0.232870
O O7 0.867250 0.615603 0.107866
O O8 0.653224 0.614248 0.076319
O O9 0.865684 0.265970 0.989767
O O10 0.861300 0.204073 0.136960
O O11 0.749268 0.136007 0.014912
O O12 0.960762 0.134692 0.003018
O O13 0.853509 0.405383 0.060257
O O14 0.038755 0.365140 0.988981
O O15 0.851548 0.500000 0.500000
O O16 0.138940 0.113125 0.909697
O O17 0.451004 0.500000 0.500000
O O18 0.000000 0.142469 0.250000
#
# Coordination Sequence:
#
# PCOD8158904 Si02
#       8
#     8   8   8   8   8   8   8   8
#     4  11  22  41  64  91 128 170 218 266 319 395
#     4  10  21  37  66  87 120 163 224 258 305 391
#     4  12  24  39  66  97 134 164 211 277 335 383
#     4  11  22  41  65  92 124 175 218 259 322 403
#     4  12  27  43  64 100 140 171 211 281 350 383
#     4  10  20  39  65  91 118 168 221 260 307 393
#     4   9  20  39  62  90 121 163 207 263 319 389
#     4  11  21  39  63  96 122 168 221 265 316 391
#
# _framework density 19.719387000000001
#
# number of rings (size 3 to 8) (size 9 to 14) (size 15 to 20)
#    0.000    1.250    3.750    3.750    5.250    0.000 
#    0.000    1.250    0.000    3.000    0.000    0.000 
#    0.000    0.000    0.000    0.000    0.000    0.000 
#
# Total GULP energy -396801.754328 kJ/mol
# GULP energy per Si atom -12400.054823 kJ/mol
# Density = 1.967450 g / cm^3
# Si number density = 19.719387 Si / 1000 Ang^3
#
#
#
# Elastic Constant Matrix: (Units=GPa)
#
#
# Indices 1 2 3 4 5 6 
#
# 1 104.2140 41.4095 31.6958 0.0000 0.0000 0.0000
# 2 41.4095 88.7202 26.7758 0.0000 0.0000 0.0000
# 3 31.6958 26.7758 76.0711 0.0000 0.0000 0.0000
# 4 0.0000 0.0000 0.0000 22.8305 0.0000 0.0000
# 5 0.0000 0.0000 0.0000 0.0000 25.1652 0.0000
# 6 0.0000 0.0000 0.0000 0.0000 0.0000 33.8854
#
#
#
# Elastic Compliance Matrix: (Units=1/GPa)
#
#
# Indices 1 2 3 4 5 6 
#
# 1 0.012584 -0.004801 -0.003553 0.000000 0.000000 0.000000
# 2 -0.004801 0.014443 -0.003083 0.000000 0.000000 0.000000
# 3 -0.003553 -0.003083 0.015711 0.000000 0.000000 0.000000
# 4 0.000000 0.000000 0.000000 0.043801 0.000000 0.000000
# 5 0.000000 0.000000 0.000000 0.000000 0.039737 0.000000
# 6 0.000000 0.000000 0.000000 0.000000 0.000000 0.029511
#
#
# Mechanical properties :
#
#
# Convention : Reuss Voigt Hill
#
# Bulk Modulus (GPa) = 50.34515 52.08528 51.21521
# Shear Modulus (GPa) = 26.98556 27.65117 27.31836
#
# Velocity S-wave (km/s) = 3.70331 3.74870 3.72607
# Velocity P-wave (km/s) = 6.62361 6.72366 6.67382
#
# Compressibility (1/GPa) = 0.01986289
#
# Stress axis : x y z
#
# Youngs Moduli (GPa) = 79.46540 69.23871 63.64820
#
# Poissons Ratio (x) = 0.33242 0.22617
# Poissons Ratio (y) = 0.38152 0.19624
# Poissons Ratio (z) = 0.28237 0.21348
#
# Static dielectric constant tensor:
#      x y z
#    x 3.699680 0.000000 0.000000 
#    y 0.000000 3.602170 0.000000 
#    z 0.000000 0.000000 3.561670 
# 
# 
# High freq. dielectric constant tensor:
#      x y z
#    x 1.767790 0.000000 0.000000 
#    y 0.000000 1.774000 0.000000 
#    z 0.000000 0.000000 1.758460 
# 
# From -- ./inp_files/20266.got.cif
#   From: 2010.03.12/outbox.cif.g09.slc.cpg/sg20_11_cif.got.tgz:20266.got - 2010.04.14 01:38:04.
