data_PCOD8158558
_publ_section_title
;
Structure prediction by ZEFSAII (Michael W. Deem and Ramdas Pophale) SiO2 
 PCOD8158558
Probable space group: C 2 2 21
;
_chemical_formula_sum "Si O2"
_cell_formula_units_Z 56
_cell_length_a 23.001008
_cell_length_b 5.106455
_cell_length_c 25.587344
_cell_angle_alpha 90.000000
_cell_angle_beta 90.000000
_cell_angle_gamma 90.000000
_cell_volume 3005.325982
_symmetry_space_group_name_H-M "C 2 2 21"
_symmetry_group_IT_number 20
_symmetry_cell_setting 'orthorhombic'
loop_
_space_group_symop_operation_xyz
x,y,z
-x,-y,1/2+z
x,-y,-z
-x,y,1/2-z
1/2+x,1/2+y,z
1/2-x,1/2-y,1/2+z
1/2+x,1/2-y,-z
1/2-x,1/2+y,1/2-z
loop_
_atom_site_type_symbol
_atom_site_label
_atom_site_fract_x
_atom_site_fract_y
_atom_site_fract_z
Si Si1 0.042024 0.010016 0.636181
Si Si2 0.502911 0.011689 0.810957
Si Si3 0.605886 0.038895 0.885429
Si Si4 0.440292 0.462519 0.438766
Si Si5 0.277714 0.006774 0.330517
Si Si6 0.841604 0.822151 0.167456
Si Si7 0.686891 0.189555 0.721275
O O1 0.038952 0.718277 0.659687
O O2 0.016350 0.215003 0.678090
O O3 0.108496 0.105695 0.625083
O O4 0.006315 0.013268 0.582239
O O5 0.500000 0.069777 0.750000
O O6 0.568870 0.044261 0.831849
O O7 0.601921 0.323286 0.912225
O O8 0.672378 0.958953 0.873299
O O9 0.582522 0.826324 0.926202
O O10 0.441788 0.500000 0.500000
O O11 0.223413 0.847455 0.357031
O O12 0.303999 0.844204 0.282399
O O13 0.250774 0.279292 0.307391
O O14 0.850249 0.540597 0.194108
O O15 0.848327 0.039479 0.213776
#
# Coordination Sequence:
#
# PCOD8158558 Si02
#       7
#     8   8   8   8   8   8   8
#     4  10  21  36  54  80 105 145 190 222 280 333
#     4  10  21  34  48  79 116 151 175 225 270 331
#     4  10  23  34  60  85 110 145 195 233 281 344
#     4  10  22  43  61  80 104 142 192 247 301 338
#     4  10  21  33  51  82 117 151 196 211 264 327
#     4  10  20  32  51  77 108 154 186 219 260 315
#     4  10  20  32  49  78 116 163 182 205 256 324
#
# _framework density 18.633586999999999
#
# number of rings (size 3 to 8) (size 9 to 14) (size 15 to 20)
#    0.857    1.143    1.429    1.714    6.000    0.000 
#    0.000    0.000    0.000    1.714    0.000    0.000 
#    0.000    0.000    0.000    0.000    0.000    0.000 
#
# Total GULP energy -346953.318668 kJ/mol
# GULP energy per Si atom -12391.189952 kJ/mol
# Density = 1.859118 g / cm^3
# Si number density = 18.633587 Si / 1000 Ang^3
#
#
#
# Elastic Constant Matrix: (Units=GPa)
#
#
# Indices 1 2 3 4 5 6 
#
# 1 82.7836 3.5360 31.0422 0.0000 0.0000 0.0000
# 2 3.5360 90.6891 8.5862 0.0000 0.0000 0.0000
# 3 31.0422 8.5862 80.1439 0.0000 0.0000 0.0000
# 4 0.0000 0.0000 0.0000 17.0928 0.0000 0.0000
# 5 0.0000 0.0000 0.0000 0.0000 14.2391 0.0000
# 6 0.0000 0.0000 0.0000 0.0000 0.0000 24.6810
#
#
#
# Elastic Compliance Matrix: (Units=1/GPa)
#
#
# Indices 1 2 3 4 5 6 
#
# 1 0.014132 -0.000033 -0.005470 0.000000 0.000000 0.000000
# 2 -0.000033 0.011140 -0.001181 0.000000 0.000000 0.000000
# 3 -0.005470 -0.001181 0.014723 0.000000 0.000000 0.000000
# 4 0.000000 0.000000 0.000000 0.058504 0.000000 0.000000
# 5 0.000000 0.000000 0.000000 0.000000 0.070229 0.000000
# 6 0.000000 0.000000 0.000000 0.000000 0.000000 0.040517
#
#
# Mechanical properties :
#
#
# Convention : Reuss Voigt Hill
#
# Bulk Modulus (GPa) = 37.55612 37.77171 37.66391
# Shear Modulus (GPa) = 21.59926 25.23272 23.41599
#
# Velocity S-wave (km/s) = 3.40833 3.68387 3.54878
# Velocity P-wave (km/s) = 5.97393 6.19753 6.08675
#
# Compressibility (1/GPa) = 0.02662682
#
# Stress axis : x y z
#
# Youngs Moduli (GPa) = 70.75948 89.76864 67.92154
#
# Poissons Ratio (x) = 0.00297 0.37155
# Poissons Ratio (y) = 0.00234 0.08019
# Poissons Ratio (z) = 0.38708 0.10598
#
# Static dielectric constant tensor:
#      x y z
#    x 3.513880 0.000000 0.000000 
#    y 0.000000 3.564500 0.000000 
#    z 0.000000 0.000000 2.898500 
# 
# 
# High freq. dielectric constant tensor:
#      x y z
#    x 1.724770 0.000000 0.000000 
#    y 0.000000 1.742920 0.000000 
#    z 0.000000 0.000000 1.663980 
# 
# From -- ./inp_files/27998.got.cif
#   From: 2010.03.12/outbox.cif.g09.slc.cpg/sg20_14_cif.got.tgz:27998.got - 2010.04.14 01:38:04.
