data_PCOD8158409
_publ_section_title
;
Structure prediction by ZEFSAII (Michael W. Deem and Ramdas Pophale) SiO2 
 PCOD8158409
Probable space group: C 2 2 21
;
_chemical_formula_sum "Si O2"
_cell_formula_units_Z 48
_cell_length_a 4.976342
_cell_length_b 29.452678
_cell_length_c 15.986467
_cell_angle_alpha 90.000000
_cell_angle_beta 90.000000
_cell_angle_gamma 90.000000
_cell_volume 2343.082091
_symmetry_space_group_name_H-M "C 2 2 21"
_symmetry_group_IT_number 20
_symmetry_cell_setting 'orthorhombic'
loop_
_space_group_symop_operation_xyz
x,y,z
-x,-y,1/2+z
x,-y,-z
-x,y,1/2-z
1/2+x,1/2+y,z
1/2-x,1/2-y,1/2+z
1/2+x,1/2-y,-z
1/2-x,1/2+y,1/2-z
loop_
_atom_site_type_symbol
_atom_site_label
_atom_site_fract_x
_atom_site_fract_y
_atom_site_fract_z
Si Si1 0.901804 0.487493 0.405298
Si Si2 0.254012 0.076857 0.307616
Si Si3 0.860724 0.249147 0.553456
Si Si4 0.088852 0.935916 0.154352
Si Si5 0.299052 0.847087 0.559236
Si Si6 0.299317 0.651229 0.557155
O O1 0.975533 0.500000 0.500000
O O2 0.794121 0.531284 0.358712
O O3 0.667177 0.449507 0.402724
O O4 0.170732 0.471512 0.358524
O O5 0.500000 0.089798 0.250000
O O6 0.213230 0.118333 0.369878
O O7 0.000000 0.069530 0.250000
O O8 0.675550 0.252194 0.469858
O O9 0.809519 0.296589 0.602540
O O10 0.769734 0.201960 0.599072
O O11 0.202513 0.886494 0.129416
O O12 0.000000 0.935645 0.250000
O O13 0.578245 0.859613 0.513644
O O14 0.084067 0.849471 0.486618
#
# Coordination Sequence:
#
# PCOD8158409 Si02
#       6
#     8   8   8   8   8   8
#     4  12  25  42  62  83 110 152 199 237 278 343
#     4  12  24  39  58  84 116 149 183 234 294 341
#     4   8  16  31  56  83 110 144 189 236 273 318
#     4  12  24  39  59  87 120 150 185 239 295 340
#     4  10  20  37  59  85 114 150 194 235 275 335
#     4  10  19  36  60  86 113 151 195 233 276 335
#
# _framework density 20.485835999999999
#
# number of rings (size 3 to 8) (size 9 to 14) (size 15 to 20)
#    0.000    1.333    0.000    7.500    0.000    0.000 
#    0.000    0.833    0.000    2.000    0.000    0.000 
#    0.000    0.000    0.000    0.000    0.000    0.000 
#
# Total GULP energy -297491.376050 kJ/mol
# GULP energy per Si atom -12395.474002 kJ/mol
# Density = 2.043921 g / cm^3
# Si number density = 20.485836 Si / 1000 Ang^3
#
#
#
# Elastic Constant Matrix: (Units=GPa)
#
#
# Indices 1 2 3 4 5 6 
#
# 1 82.5390 39.0286 28.7509 0.0000 0.0000 0.0000
# 2 39.0286 163.0712 77.7907 0.0000 0.0000 0.0000
# 3 28.7509 77.7907 98.9423 0.0000 0.0000 0.0000
# 4 0.0000 0.0000 0.0000 -5.8537 0.0000 0.0000
# 5 0.0000 0.0000 0.0000 0.0000 39.1328 0.0000
# 6 0.0000 0.0000 0.0000 0.0000 0.0000 86.0557
#
#
#
# Elastic Compliance Matrix: (Units=1/GPa)
#
#
# Indices 1 2 3 4 5 6 
#
# 1 0.013979 -0.002253 -0.002291 0.000000 0.000000 0.000000
# 2 -0.002253 0.010176 -0.007346 0.000000 0.000000 0.000000
# 3 -0.002291 -0.007346 0.016548 0.000000 0.000000 0.000000
# 4 0.000000 0.000000 0.000000 -0.170833 0.000000 0.000000
# 5 0.000000 0.000000 0.000000 0.000000 0.025554 0.000000
# 6 0.000000 0.000000 0.000000 0.000000 0.000000 0.011620
#
#
# Mechanical properties :
#
#
# Convention : Reuss Voigt Hill
#
# Bulk Modulus (GPa) = 59.08871 70.63256 64.86064
# Shear Modulus (GPa) = -78.69436 37.13246 -20.78095
#
# Velocity S-wave (km/s) = -6.20463 4.26207 -3.18843
# Velocity P-wave (km/s) = 4.73536 7.66642 4.26323
#
# Compressibility (1/GPa) = 0.01692371
#
# Stress axis : x y z
#
# Youngs Moduli (GPa) = 71.53752 98.27421 60.43070
#
# Poissons Ratio (x) = 0.22139 0.13843
# Poissons Ratio (y) = 0.16116 0.44390
# Poissons Ratio (z) = 0.16387 0.72189
#
# Static dielectric constant tensor:
#      x y z
#    x 3.919430 0.000000 0.000000 
#    y 0.000000 4.304660 0.000000 
#    z 0.000000 0.000000 2.573030 
# 
# 
# High freq. dielectric constant tensor:
#      x y z
#    x 1.825080 0.000000 0.000000 
#    y 0.000000 1.829560 0.000000 
#    z 0.000000 0.000000 1.752280 
# 
# From -- ./inp_files/17803.got.cif
#   From: 2010.03.12/outbox.cif.g09.slc.cpg/sg20_9_cif.got.tgz:17803.got - 2010.04.14 01:38:04.
