data_PCOD8158984
_publ_section_title
;
Structure prediction by ZEFSAII (Michael W. Deem and Ramdas Pophale) SiO2 
 PCOD8158984
Probable space group: C 2 2 21
;
_chemical_formula_sum "Si O2"
_cell_formula_units_Z 48
_cell_length_a 16.830280
_cell_length_b 16.618952
_cell_length_c 8.390721
_cell_angle_alpha 90.000000
_cell_angle_beta 90.000000
_cell_angle_gamma 90.000000
_cell_volume 2346.898219
_symmetry_space_group_name_H-M "C 2 2 21"
_symmetry_group_IT_number 20
_symmetry_cell_setting 'orthorhombic'
loop_
_space_group_symop_operation_xyz
x,y,z
-x,-y,1/2+z
x,-y,-z
-x,y,1/2-z
1/2+x,1/2+y,z
1/2-x,1/2-y,1/2+z
1/2+x,1/2-y,-z
1/2-x,1/2+y,1/2-z
loop_
_atom_site_type_symbol
_atom_site_label
_atom_site_fract_x
_atom_site_fract_y
_atom_site_fract_z
Si Si1 0.500000 0.617012 0.250000
Si Si2 0.150326 0.830642 0.929352
Si Si3 0.832437 0.085663 0.747423
Si Si4 0.227255 0.570103 0.251414
Si Si5 0.414572 0.025207 0.679678
Si Si6 0.560200 0.500000 0.500000
Si Si7 0.300012 0.153665 0.576992
O O1 0.419572 0.667107 0.293547
O O2 0.507081 0.561235 0.402767
O O3 0.236157 0.861050 0.863789
O O4 0.165543 0.738698 0.978742
O O5 0.125690 0.881882 0.085987
O O6 0.777509 0.159470 0.810021
O O7 0.780831 0.006988 0.713277
O O8 0.893942 0.058977 0.880818
O O9 0.135195 0.543017 0.280495
O O10 0.230563 0.599037 0.069224
O O11 0.500000 0.039523 0.750000
O O12 0.367642 0.109222 0.680056
O O13 0.427046 0.000000 0.500000
#
# Coordination Sequence:
#
# PCOD8158984 Si02
#       7
#     4   8   8   8   8   4   8
#     4  12  26  38  60  92 132 168 208 264 312 380
#     4  12  24  37  62  96 129 165 211 256 323 379
#     4  11  20  39  68  90 116 170 216 260 308 370
#     4  10  20  41  61  91 120 163 215 262 301 376
#     4   9  20  37  64  87 119 162 207 258 308 368
#     4  12  22  42  64  86 124 158 224 262 308 362
#     4  10  21  39  63  90 129 163 200 263 323 376
#
# _framework density 20.452527
#
# number of rings (size 3 to 8) (size 9 to 14) (size 15 to 20)
#    0.000    1.333    3.333    3.500    1.167    2.667 
#    0.000    0.000   22.000    0.000    0.000    0.000 
#    0.000    0.000    0.000    0.000    0.000    0.000 
#
# Total GULP energy -297351.540462 kJ/mol
# GULP energy per Si atom -12389.647519 kJ/mol
# Density = 2.040598 g / cm^3
# Si number density = 20.452527 Si / 1000 Ang^3
#
#
#
# Elastic Constant Matrix: (Units=GPa)
#
#
# Indices 1 2 3 4 5 6 
#
# 1 88.2168 30.2398 39.9136 0.0000 0.0000 0.0000
# 2 30.2398 94.5266 25.7448 0.0000 0.0000 0.0000
# 3 39.9136 25.7448 76.8695 0.0000 0.0000 0.0000
# 4 0.0000 0.0000 0.0000 27.6149 0.0000 0.0000
# 5 0.0000 0.0000 0.0000 0.0000 37.9660 0.0000
# 6 0.0000 0.0000 0.0000 0.0000 0.0000 24.9046
#
#
#
# Elastic Compliance Matrix: (Units=1/GPa)
#
#
# Indices 1 2 3 4 5 6 
#
# 1 0.015582 -0.003060 -0.007066 0.000000 0.000000 0.000000
# 2 -0.003060 0.012242 -0.002511 0.000000 0.000000 0.000000
# 3 -0.007066 -0.002511 0.017519 0.000000 0.000000 0.000000
# 4 0.000000 0.000000 0.000000 0.036212 0.000000 0.000000
# 5 0.000000 0.000000 0.000000 0.000000 0.026339 0.000000
# 6 0.000000 0.000000 0.000000 0.000000 0.000000 0.040153
#
#
# Mechanical properties :
#
#
# Convention : Reuss Voigt Hill
#
# Bulk Modulus (GPa) = 49.82946 50.15662 49.99304
# Shear Modulus (GPa) = 27.77614 29.01140 28.39377
#
# Velocity S-wave (km/s) = 3.68921 3.77035 3.73000
# Velocity P-wave (km/s) = 6.52406 6.59778 6.56103
#
# Compressibility (1/GPa) = 0.02006845
#
# Stress axis : x y z
#
# Youngs Moduli (GPa) = 64.17826 81.68646 57.08163
#
# Poissons Ratio (x) = 0.24999 0.40332
# Poissons Ratio (y) = 0.19641 0.14333
# Poissons Ratio (z) = 0.45346 0.20511
#
# Static dielectric constant tensor:
#      x y z
#    x 4.208830 0.000000 0.000000 
#    y 0.000000 3.562780 0.000000 
#    z 0.000000 0.000000 3.699550 
# 
# 
# High freq. dielectric constant tensor:
#      x y z
#    x 1.799240 0.000000 0.000000 
#    y 0.000000 1.785120 0.000000 
#    z 0.000000 0.000000 1.799820 
# 
# From -- ./inp_files/9368.got.cif
#   From: 2010.03.12/outbox.cif.g09.slc.cpg/sg20_5_cif.got.tgz:9368.got - 2010.04.14 01:38:04.
