data_PCOD8158079
_publ_section_title
;
Structure prediction by ZEFSAII (Michael W. Deem and Ramdas Pophale) SiO2 
 PCOD8158079
Probable space group: C 2 2 21
;
_chemical_formula_sum "Si O2"
_cell_formula_units_Z 56
_cell_length_a 19.130245
_cell_length_b 15.920857
_cell_length_c 8.778135
_cell_angle_alpha 90.000000
_cell_angle_beta 90.000000
_cell_angle_gamma 90.000000
_cell_volume 2673.555655
_symmetry_space_group_name_H-M "C 2 2 21"
_symmetry_group_IT_number 20
_symmetry_cell_setting 'orthorhombic'
loop_
_space_group_symop_operation_xyz
x,y,z
-x,-y,1/2+z
x,-y,-z
-x,y,1/2-z
1/2+x,1/2+y,z
1/2-x,1/2-y,1/2+z
1/2+x,1/2-y,-z
1/2-x,1/2+y,1/2-z
loop_
_atom_site_type_symbol
_atom_site_label
_atom_site_fract_x
_atom_site_fract_y
_atom_site_fract_z
Si Si1 0.009920 0.910115 0.570031
Si Si2 0.817977 0.554505 0.637706
Si Si3 0.771266 0.298466 0.563398
Si Si4 0.887167 0.583395 0.938891
Si Si5 0.612526 0.265690 0.600265
Si Si6 0.238934 0.416655 0.668469
Si Si7 0.870005 0.830271 0.572048
O O1 0.938611 0.872298 0.497965
O O2 0.000000 0.920537 0.750000
O O3 0.071624 0.844543 0.527983
O O4 0.029174 0.000000 0.500000
O O5 0.851315 0.500000 0.500000
O O6 0.780531 0.637222 0.576158
O O7 0.878912 0.576085 0.756744
O O8 0.760309 0.499462 0.726788
O O9 0.693085 0.262979 0.548104
O O10 0.784630 0.337611 0.728709
O O11 0.828769 0.225458 0.550796
O O12 0.921248 0.676338 0.959310
O O13 0.930297 0.500000 0.000000
O O14 0.812588 0.578136 0.025427
O O15 0.607789 0.273002 0.783469
O O16 0.319065 0.406378 0.619823
#
# Coordination Sequence:
#
# PCOD8158079 Si02
#       7
#     8   8   8   8   8   8   8
#     4  10  24  44  61  85 123 167 211 246 305 372
#     4   9  18  31  51  81 118 148 183 248 307 359
#     4  10  18  32  55  83 115 150 205 249 304 351
#     4  10  18  32  54  85 118 147 187 242 304 352
#     4  10  20  36  59  85 118 161 204 249 305 365
#     4   9  19  31  50  88 116 147 194 250 305 360
#     4  10  19  36  57  85 116 158 206 246 306 368
#
# _framework density 20.945889999999999
#
# number of rings (size 3 to 8) (size 9 to 14) (size 15 to 20)
#    0.000    2.286    2.857    0.000    0.000    5.714 
#    2.571    0.000    0.000    2.571    0.000    0.000 
#    0.000    0.000    0.000    0.000    0.000    0.000 
#
# Total GULP energy -346943.193419 kJ/mol
# GULP energy per Si atom -12390.828336 kJ/mol
# Density = 2.089822 g / cm^3
# Si number density = 20.945890 Si / 1000 Ang^3
#
#
#
# Elastic Constant Matrix: (Units=GPa)
#
#
# Indices 1 2 3 4 5 6 
#
# 1 68.3023 38.1809 13.0405 0.0000 0.0000 0.0000
# 2 38.1809 164.8371 29.0131 0.0000 0.0000 0.0000
# 3 13.0405 29.0131 70.0802 0.0000 0.0000 0.0000
# 4 0.0000 0.0000 0.0000 30.9579 0.0000 0.0000
# 5 0.0000 0.0000 0.0000 0.0000 17.6591 0.0000
# 6 0.0000 0.0000 0.0000 0.0000 0.0000 33.0097
#
#
#
# Elastic Compliance Matrix: (Units=1/GPa)
#
#
# Indices 1 2 3 4 5 6 
#
# 1 0.016994 -0.003645 -0.001653 0.000000 0.000000 0.000000
# 2 -0.003645 0.007325 -0.002354 0.000000 0.000000 0.000000
# 3 -0.001653 -0.002354 0.015552 0.000000 0.000000 0.000000
# 4 0.000000 0.000000 0.000000 0.032302 0.000000 0.000000
# 5 0.000000 0.000000 0.000000 0.000000 0.056628 0.000000
# 6 0.000000 0.000000 0.000000 0.000000 0.000000 0.030294
#
#
# Mechanical properties :
#
#
# Convention : Reuss Voigt Hill
#
# Bulk Modulus (GPa) = 40.70737 51.52096 46.11416
# Shear Modulus (GPa) = 27.38384 31.19100 29.28742
#
# Velocity S-wave (km/s) = 3.61967 3.86310 3.74336
# Velocity P-wave (km/s) = 6.07833 6.67448 6.38336
#
# Compressibility (1/GPa) = 0.02456558
#
# Stress axis : x y z
#
# Youngs Moduli (GPa) = 58.84374 136.51205 64.30171
#
# Poissons Ratio (x) = 0.49764 0.10630
# Poissons Ratio (y) = 0.21451 0.15139
# Poissons Ratio (z) = 0.09727 0.32140
#
# Static dielectric constant tensor:
#      x y z
#    x 3.397660 0.000000 0.000000 
#    y 0.000000 4.294770 0.000000 
#    z 0.000000 0.000000 3.778800 
# 
# 
# High freq. dielectric constant tensor:
#      x y z
#    x 1.768250 0.000000 0.000000 
#    y 0.000000 1.846120 0.000000 
#    z 0.000000 0.000000 1.810670 
# 
# From -- ./inp_files/10203.got.cif
#   From: 2010.03.12/outbox.cif.g09.slc.cpg/sg20_6_cif.got.tgz:10203.got - 2010.04.14 01:38:04.
