data_PCOD8158546
_publ_section_title
;
Structure prediction by ZEFSAII (Michael W. Deem and Ramdas Pophale) SiO2 
 PCOD8158546
Probable space group: C 2 2 21
;
_chemical_formula_sum "Si O2"
_cell_formula_units_Z 44
_cell_length_a 9.274863
_cell_length_b 11.301533
_cell_length_c 18.685119
_cell_angle_alpha 90.000000
_cell_angle_beta 90.000000
_cell_angle_gamma 90.000000
_cell_volume 1958.577355
_symmetry_space_group_name_H-M "C 2 2 21"
_symmetry_group_IT_number 20
_symmetry_cell_setting 'orthorhombic'
loop_
_space_group_symop_operation_xyz
x,y,z
-x,-y,1/2+z
x,-y,-z
-x,y,1/2-z
1/2+x,1/2+y,z
1/2-x,1/2-y,1/2+z
1/2+x,1/2-y,-z
1/2-x,1/2+y,1/2-z
loop_
_atom_site_type_symbol
_atom_site_label
_atom_site_fract_x
_atom_site_fract_y
_atom_site_fract_z
Si Si1 0.852629 0.414996 0.103211
Si Si2 0.000000 0.170564 0.250000
Si Si3 0.102914 0.569550 0.134725
Si Si4 0.283873 0.873168 0.261476
Si Si5 0.113261 0.000000 0.000000
Si Si6 0.000000 0.755827 0.250000
Si Si7 0.907037 0.144217 0.099700
O O1 0.798548 0.433101 0.184054
O O2 0.713951 0.426103 0.053076
O O3 0.923181 0.285827 0.094281
O O4 0.969488 0.520185 0.086608
O O5 0.861746 0.248051 0.268562
O O6 0.957288 0.096180 0.178768
O O7 0.144757 0.459714 0.183117
O O8 0.239958 0.607195 0.086368
O O9 0.058339 0.680250 0.183443
O O10 0.119863 0.844647 0.280470
O O11 0.010615 0.091893 0.040060
#
# Coordination Sequence:
#
# PCOD8158546 Si02
#       7
#     8   4   8   8   4   4   8
#     4  11  25  48  66 100 141 179 230 285 341 421
#     4  10  19  45  72 100 140 168 225 309 326 394
#     4  12  23  41  74 103 139 175 224 285 359 394
#     4  11  22  41  70 111 137 168 229 293 345 409
#     4  12  32  46  70  98 142 194 234 274 360 422
#     4  12  23  37  68 114 140 170 219 289 354 406
#     4  11  27  47  70 104 139 184 236 286 345 421
#
# _framework density 22.465284
#
# number of rings (size 3 to 8) (size 9 to 14) (size 15 to 20)
#    0.000    0.727    9.091    0.000    7.636    3.636 
#    0.000    0.000    0.000    0.000    0.000    0.000 
#    0.000    0.000    0.000    0.000    0.000    0.000 
#
# Total GULP energy -272802.392047 kJ/mol
# GULP energy per Si atom -12400.108729 kJ/mol
# Density = 2.241415 g / cm^3
# Si number density = 22.465284 Si / 1000 Ang^3
#
#
#
# Elastic Constant Matrix: (Units=GPa)
#
#
# Indices 1 2 3 4 5 6 
#
# 1 147.0858 12.7528 32.3236 0.0000 0.0000 0.0000
# 2 12.7528 34.3527 16.4503 0.0000 0.0000 0.0000
# 3 32.3236 16.4503 34.5858 0.0000 0.0000 0.0000
# 4 0.0000 0.0000 0.0000 8.7366 0.0000 0.0000
# 5 0.0000 0.0000 0.0000 0.0000 45.4618 0.0000
# 6 0.0000 0.0000 0.0000 0.0000 0.0000 90.3826
#
#
#
# Elastic Compliance Matrix: (Units=1/GPa)
#
#
# Indices 1 2 3 4 5 6 
#
# 1 0.008575 0.000847 -0.008417 0.000000 0.000000 0.000000
# 2 0.000847 0.037779 -0.018761 0.000000 0.000000 0.000000
# 3 -0.008417 -0.018761 0.045704 0.000000 0.000000 0.000000
# 4 0.000000 0.000000 0.000000 0.114460 0.000000 0.000000
# 5 0.000000 0.000000 0.000000 0.000000 0.021996 0.000000
# 6 0.000000 0.000000 0.000000 0.000000 0.000000 0.011064
#
#
# Mechanical properties :
#
#
# Convention : Reuss Voigt Hill
#
# Bulk Modulus (GPa) = 25.38324 37.67530 31.52927
# Shear Modulus (GPa) = 16.37342 39.21606 27.79474
#
# Velocity S-wave (km/s) = 2.70262 4.18261 3.52124
# Velocity P-wave (km/s) = 4.58936 6.33502 5.53149
#
# Compressibility (1/GPa) = 0.03939607
#
# Stress axis : x y z
#
# Youngs Moduli (GPa) = 116.61734 26.46956 21.88005
#
# Poissons Ratio (x) = -0.02243 0.18417
# Poissons Ratio (y) = -0.09882 0.41049
# Poissons Ratio (z) = 0.98159 0.49660
#
# Static dielectric constant tensor:
#      x y z
#    x 4.564940 0.000000 0.000000 
#    y 0.000000 3.972380 0.000000 
#    z 0.000000 0.000000 3.825490 
# 
# 
# High freq. dielectric constant tensor:
#      x y z
#    x 1.909850 0.000000 0.000000 
#    y 0.000000 1.883780 0.000000 
#    z 0.000000 0.000000 1.856770 
# 
# From -- ./inp_files/28689.got.cif
#   From: 2010.03.12/outbox.cif.g09.slc.cpg/sg20_15_cif.got.tgz:28689.got - 2010.04.14 01:38:04.
