data_PCOD8158763
_publ_section_title
;
Structure prediction by ZEFSAII (Michael W. Deem and Ramdas Pophale) SiO2 
 PCOD8158763
Probable space group: C 2 2 21
;
_chemical_formula_sum "Si O2"
_cell_formula_units_Z 56
_cell_length_a 20.792860
_cell_length_b 13.283467
_cell_length_c 9.460692
_cell_angle_alpha 90.000000
_cell_angle_beta 90.000000
_cell_angle_gamma 90.000000
_cell_volume 2613.055142
_symmetry_space_group_name_H-M "C 2 2 21"
_symmetry_group_IT_number 20
_symmetry_cell_setting 'orthorhombic'
loop_
_space_group_symop_operation_xyz
x,y,z
-x,-y,1/2+z
x,-y,-z
-x,y,1/2-z
1/2+x,1/2+y,z
1/2-x,1/2-y,1/2+z
1/2+x,1/2-y,-z
1/2-x,1/2+y,1/2-z
loop_
_atom_site_type_symbol
_atom_site_label
_atom_site_fract_x
_atom_site_fract_y
_atom_site_fract_z
Si Si1 0.050519 0.708547 0.625442
Si Si2 0.342159 0.183776 0.387779
Si Si3 0.828592 0.319830 0.300824
Si Si4 0.692991 0.388408 0.212153
Si Si5 0.528137 0.912394 0.898260
Si Si6 0.121672 0.891271 0.495736
Si Si7 0.215524 0.891779 0.741097
O O1 0.111754 0.654307 0.697792
O O2 0.070513 0.814546 0.558267
O O3 0.000000 0.729199 0.750000
O O4 0.024613 0.644164 0.494337
O O5 0.338004 0.135728 0.543613
O O6 0.329741 0.304984 0.401286
O O7 0.415347 0.161335 0.343120
O O8 0.292306 0.129365 0.278836
O O9 0.767803 0.372376 0.235212
O O10 0.818412 0.200176 0.319698
O O11 0.645443 0.361346 0.340700
O O12 0.693902 0.507441 0.171620
O O13 0.500000 0.956271 0.750000
O O14 0.555132 0.000000 0.000000
O O15 0.187729 0.899011 0.583572
O O16 0.086864 0.000000 0.500000
#
# Coordination Sequence:
#
# PCOD8158763 Si02
#       7
#     8   8   8   8   8   8   8
#     4  11  22  42  64  89 131 175 216 274 324 384
#     4  11  22  38  64  91 124 169 210 265 325 394
#     4  10  21  37  63  93 126 167 212 262 332 387
#     4  10  20  37  61  91 125 161 209 274 327 391
#     4  12  28  45  66  94 128 172 220 262 313 388
#     4   9  18  36  61  87 119 162 214 265 331 387
#     4   9  20  35  60  91 123 159 209 265 330 390
#
# _framework density 21.430852000000002
#
# number of rings (size 3 to 8) (size 9 to 14) (size 15 to 20)
#    0.000    1.714    2.857    1.286    2.000    0.571 
#    0.000    5.000    0.000    0.000    0.000    0.000 
#    0.000    0.000    0.000    0.000    0.000    0.000 
#
# Total GULP energy -346914.416954 kJ/mol
# GULP energy per Si atom -12389.800605 kJ/mol
# Density = 2.138207 g / cm^3
# Si number density = 21.430852 Si / 1000 Ang^3
#
#
#
# Elastic Constant Matrix: (Units=GPa)
#
#
# Indices 1 2 3 4 5 6 
#
# 1 92.8919 23.4678 33.6555 0.0000 0.0000 0.0000
# 2 23.4678 83.3593 1.6060 0.0000 0.0000 0.0000
# 3 33.6555 1.6060 78.0095 0.0000 0.0000 0.0000
# 4 0.0000 0.0000 0.0000 27.5029 0.0000 0.0000
# 5 0.0000 0.0000 0.0000 0.0000 17.9201 0.0000
# 6 0.0000 0.0000 0.0000 0.0000 0.0000 52.0415
#
#
#
# Elastic Compliance Matrix: (Units=1/GPa)
#
#
# Indices 1 2 3 4 5 6 
#
# 1 0.013861 -0.003788 -0.005902 0.000000 0.000000 0.000000
# 2 -0.003788 0.013036 0.001366 0.000000 0.000000 0.000000
# 3 -0.005902 0.001366 0.015337 0.000000 0.000000 0.000000
# 4 0.000000 0.000000 0.000000 0.036360 0.000000 0.000000
# 5 0.000000 0.000000 0.000000 0.000000 0.055803 0.000000
# 6 0.000000 0.000000 0.000000 0.000000 0.000000 0.019215
#
#
# Mechanical properties :
#
#
# Convention : Reuss Voigt Hill
#
# Bulk Modulus (GPa) = 39.08437 41.30215 40.19326
# Shear Modulus (GPa) = 27.96582 32.52832 30.24707
#
# Velocity S-wave (km/s) = 3.61630 3.90016 3.76091
# Velocity P-wave (km/s) = 5.97611 6.29252 6.13635
#
# Compressibility (1/GPa) = 0.02558567
#
# Stress axis : x y z
#
# Youngs Moduli (GPa) = 72.14701 76.70776 65.20157
#
# Poissons Ratio (x) = 0.29060 0.38481
# Poissons Ratio (y) = 0.27332 -0.08907
# Poissons Ratio (z) = 0.42580 -0.10479
#
# Static dielectric constant tensor:
#      x y z
#    x 3.768850 0.000000 0.000000 
#    y 0.000000 4.388550 0.000000 
#    z 0.000000 0.000000 2.460660 
# 
# 
# High freq. dielectric constant tensor:
#      x y z
#    x 1.832620 0.000000 0.000000 
#    y 0.000000 1.845910 0.000000 
#    z 0.000000 0.000000 1.832810 
# 
# From -- ./inp_files/10181.got.cif
#   From: 2010.03.12/outbox.cif.g09.slc.cpg/sg20_6_cif.got.tgz:10181.got - 2010.04.14 01:38:04.
