data_PCOD8158376
_publ_section_title
;
Structure prediction by ZEFSAII (Michael W. Deem and Ramdas Pophale) SiO2 
 PCOD8158376
Probable space group: C 2 2 21
;
_chemical_formula_sum "Si O2"
_cell_formula_units_Z 64
_cell_length_a 23.741495
_cell_length_b 9.069710
_cell_length_c 15.024535
_cell_angle_alpha 90.000000
_cell_angle_beta 90.000000
_cell_angle_gamma 90.000000
_cell_volume 3235.210203
_symmetry_space_group_name_H-M "C 2 2 21"
_symmetry_group_IT_number 20
_symmetry_cell_setting 'orthorhombic'
loop_
_space_group_symop_operation_xyz
x,y,z
-x,-y,1/2+z
x,-y,-z
-x,y,1/2-z
1/2+x,1/2+y,z
1/2-x,1/2-y,1/2+z
1/2+x,1/2-y,-z
1/2-x,1/2+y,1/2-z
loop_
_atom_site_type_symbol
_atom_site_label
_atom_site_fract_x
_atom_site_fract_y
_atom_site_fract_z
Si Si1 0.444535 0.172780 0.999997
Si Si2 0.127684 0.830691 0.642951
Si Si3 0.747283 0.168296 0.103322
Si Si4 0.859570 0.830422 0.655007
Si Si5 0.627682 0.669305 0.642947
Si Si6 0.425013 0.826666 0.500000
Si Si7 0.252716 0.831699 0.396681
Si Si8 0.859573 0.830415 0.344990
O O1 0.417652 0.237398 0.910691
O O2 0.417655 0.237409 0.089302
O O3 0.509776 0.215157 0.999993
O O4 0.434735 0.000000 0.000000
O O5 0.190019 0.771124 0.620123
O O6 0.114168 0.813322 0.747052
O O7 0.123256 0.999997 0.611979
O O8 0.704098 0.269435 0.157782
O O9 0.742557 0.999996 0.137379
O O10 0.731174 0.179483 0.000001
O O11 0.897851 0.738589 0.588492
O O12 0.795898 0.769448 0.657778
O O13 0.858109 0.000004 0.624702
O O14 0.690016 0.728877 0.620117
O O15 0.614166 0.686678 0.747047
O O16 0.397858 0.761414 0.588499
O O17 0.413977 0.000000 0.500000
#
# Coordination Sequence:
#
# PCOD8158376 Si02
#       8
#     8   8   8   8   8   8   8   8
#     4  11  25  42  63  88 113 154 206 249 292 349
#     4  10  22  41  63  89 123 158 192 240 300 353
#     4  10  19  35  61  89 122 161 191 231 298 356
#     4  11  23  38  62  93 120 154 200 244 290 349
#     4  10  22  41  63  89 123 158 192 240 300 353
#     4  11  25  44  61  82 119 160 198 247 302 349
#     4  10  19  35  61  89 122 161 191 231 298 356
#     4  11  23  38  62  93 120 154 200 244 290 349
#
# _framework density 19.782330999999999
#
# number of rings (size 3 to 8) (size 9 to 14) (size 15 to 20)
#    0.000    1.500    2.500    2.250    0.000    6.000 
#    0.000    5.000    0.000    0.000    0.000    0.000 
#    0.000    0.000    0.000    0.000    0.000    0.000 
#
# Total GULP energy -396996.724347 kJ/mol
# GULP energy per Si atom -12406.147636 kJ/mol
# Density = 1.973731 g / cm^3
# Si number density = 19.782331 Si / 1000 Ang^3
#
#
#
# Elastic Constant Matrix: (Units=GPa)
#
#
# Indices 1 2 3 4 5 6 
#
# 1 139.2902 76.5152 49.1444 0.0000 0.0000 0.0000
# 2 76.5152 92.3805 41.0956 0.0000 0.0000 0.0000
# 3 49.1444 41.0956 93.8530 0.0000 0.0000 0.0000
# 4 0.0000 0.0000 0.0000 29.3961 0.0000 0.0000
# 5 0.0000 0.0000 0.0000 0.0000 12.9775 0.0000
# 6 0.0000 0.0000 0.0000 0.0000 0.0000 35.0973
#
#
#
# Elastic Compliance Matrix: (Units=1/GPa)
#
#
# Indices 1 2 3 4 5 6 
#
# 1 0.013718 -0.010142 -0.002742 0.000000 0.000000 0.000000
# 2 -0.010142 0.020942 -0.003859 0.000000 0.000000 0.000000
# 3 -0.002742 -0.003859 0.013781 0.000000 0.000000 0.000000
# 4 0.000000 0.000000 0.000000 0.034018 0.000000 0.000000
# 5 0.000000 0.000000 0.000000 0.000000 0.077057 0.000000
# 6 0.000000 0.000000 0.000000 0.000000 0.000000 0.028492
#
#
# Mechanical properties :
#
#
# Convention : Reuss Voigt Hill
#
# Bulk Modulus (GPa) = 66.87366 73.22601 70.04983
# Shear Modulus (GPa) = 22.07702 26.07874 24.07788
#
# Velocity S-wave (km/s) = 3.34428 3.63476 3.49254
# Velocity P-wave (km/s) = 6.98501 7.39672 7.19381
#
# Compressibility (1/GPa) = 0.01495357
#
# Stress axis : x y z
#
# Youngs Moduli (GPa) = 72.89579 47.75076 72.56553
#
# Poissons Ratio (x) = 0.48431 0.19899
# Poissons Ratio (y) = 0.73934 0.28004
# Poissons Ratio (z) = 0.19990 0.18427
#
# Static dielectric constant tensor:
#      x y z
#    x 3.593060 0.000000 0.000000 
#    y 0.000000 3.599170 0.000000 
#    z 0.000000 0.000000 3.587280 
# 
# 
# High freq. dielectric constant tensor:
#      x y z
#    x 1.770030 0.000000 0.000000 
#    y 0.000000 1.771570 0.000000 
#    z 0.000000 0.000000 1.782280 
# 
# From -- ./inp_files/22067.got.cif
#   From: 2010.03.12/outbox.cif.g09.slc.cpg/sg20_12_cif.got.tgz:22067.got - 2010.04.14 01:38:04.
