data_PCOD8158731
_publ_section_title
;
Structure prediction by ZEFSAII (Michael W. Deem and Ramdas Pophale) SiO2 
 PCOD8158731
Probable space group: C 2 2 21
;
_chemical_formula_sum "Si O2"
_cell_formula_units_Z 32
_cell_length_a 28.077138
_cell_length_b 11.755728
_cell_length_c 5.158492
_cell_angle_alpha 90.000000
_cell_angle_beta 90.000000
_cell_angle_gamma 90.000000
_cell_volume 1702.648997
_symmetry_space_group_name_H-M "C 2 2 21"
_symmetry_group_IT_number 20
_symmetry_cell_setting 'orthorhombic'
loop_
_space_group_symop_operation_xyz
x,y,z
-x,-y,1/2+z
x,-y,-z
-x,y,1/2-z
1/2+x,1/2+y,z
1/2-x,1/2-y,1/2+z
1/2+x,1/2-y,-z
1/2-x,1/2+y,1/2-z
loop_
_atom_site_type_symbol
_atom_site_label
_atom_site_fract_x
_atom_site_fract_y
_atom_site_fract_z
Si Si1 0.297767 0.880795 0.101352
Si Si2 0.700865 0.658421 0.671875
Si Si3 0.946989 0.923565 0.749332
Si Si4 0.648208 0.688023 0.183394
O O1 0.249548 0.906746 0.262386
O O2 0.337818 0.821428 0.283989
O O3 0.286095 0.793742 0.863423
O O4 0.318431 0.000000 0.000000
O O5 0.677214 0.614039 0.402412
O O6 0.662486 0.641977 0.901501
O O7 0.908154 0.823127 0.733973
O O8 0.000000 0.868958 0.750000
O O9 0.939725 0.000000 0.500000
O O10 0.938584 0.000000 0.000000
#
# Coordination Sequence:
#
# PCOD8158731 Si02
#       4
#     8   8   8   8
#     4  10  21  37  54  75 114 148 180 227 269 316
#     4  10  20  37  51  81 109 144 189 216 266 325
#     4  10  21  37  59  85 112 144 179 229 289 333
#     4  10  20  37  51  81 109 141 187 220 271 331
#
# _framework density 18.794242000000001
#
# number of rings (size 3 to 8) (size 9 to 14) (size 15 to 20)
#    1.500    0.500    2.500    1.500    0.000    4.000 
#    0.000    0.000    0.000    0.000    6.500    0.000 
#    0.000    0.000    0.000    0.000    0.000    0.000 
#
# Total GULP energy -198276.360497 kJ/mol
# GULP energy per Si atom -12392.272531 kJ/mol
# Density = 1.875147 g / cm^3
# Si number density = 18.794242 Si / 1000 Ang^3
#
#
#
# Elastic Constant Matrix: (Units=GPa)
#
#
# Indices 1 2 3 4 5 6 
#
# 1 136.2404 22.1956 24.0696 0.0000 0.0000 0.0000
# 2 22.1956 20.2361 2.8342 0.0000 0.0000 0.0000
# 3 24.0696 2.8342 120.6316 0.0000 0.0000 0.0000
# 4 0.0000 0.0000 0.0000 16.9490 0.0000 0.0000
# 5 0.0000 0.0000 0.0000 0.0000 26.7163 0.0000
# 6 0.0000 0.0000 0.0000 0.0000 0.0000 26.1231
#
#
#
# Elastic Compliance Matrix: (Units=1/GPa)
#
#
# Indices 1 2 3 4 5 6 
#
# 1 0.009239 -0.009908 -0.001611 0.000000 0.000000 0.000000
# 2 -0.009908 0.060205 0.000562 0.000000 0.000000 0.000000
# 3 -0.001611 0.000562 0.008598 0.000000 0.000000 0.000000
# 4 0.000000 0.000000 0.000000 0.059000 0.000000 0.000000
# 5 0.000000 0.000000 0.000000 0.000000 0.037430 0.000000
# 6 0.000000 0.000000 0.000000 0.000000 0.000000 0.038280
#
#
# Mechanical properties :
#
#
# Convention : Reuss Voigt Hill
#
# Bulk Modulus (GPa) = 17.81594 41.70076 29.75835
# Shear Modulus (GPa) = 19.73370 29.15826 24.44598
#
# Velocity S-wave (km/s) = 3.24386 3.94311 3.61046
# Velocity P-wave (km/s) = 4.85080 6.55493 5.76617
#
# Compressibility (1/GPa) = 0.05612950
#
# Stress axis : x y z
#
# Youngs Moduli (GPa) = 108.24148 16.61000 116.30809
#
# Poissons Ratio (x) = 0.16456 0.18733
# Poissons Ratio (y) = 1.07241 -0.06541
# Poissons Ratio (z) = 0.17433 -0.00934
#
# Static dielectric constant tensor:
#      x y z
#    x 3.441550 0.000000 0.000000 
#    y 0.000000 3.030380 0.000000 
#    z 0.000000 0.000000 3.594050 
# 
# 
# High freq. dielectric constant tensor:
#      x y z
#    x 1.711970 0.000000 0.000000 
#    y 0.000000 1.688630 0.000000 
#    z 0.000000 0.000000 1.750150 
# 
# From -- ./inp_files/1824.got.cif
#   From: 2010.03.12/outbox.cif.g09.slc.cpg/sg20_1_cif.got.tgz:1824.got - 2010.04.14 01:38:04.
