data_PCOD8158831
_publ_section_title
;
Structure prediction by ZEFSAII (Michael W. Deem and Ramdas Pophale) SiO2 
 PCOD8158831
Probable space group: C 2 2 21
;
_chemical_formula_sum "Si O2"
_cell_formula_units_Z 40
_cell_length_a 30.795728
_cell_length_b 7.762864
_cell_length_c 7.838147
_cell_angle_alpha 90.000000
_cell_angle_beta 90.000000
_cell_angle_gamma 90.000000
_cell_volume 1873.811314
_symmetry_space_group_name_H-M "C 2 2 21"
_symmetry_group_IT_number 20
_symmetry_cell_setting 'orthorhombic'
loop_
_space_group_symop_operation_xyz
x,y,z
-x,-y,1/2+z
x,-y,-z
-x,y,1/2-z
1/2+x,1/2+y,z
1/2-x,1/2-y,1/2+z
1/2+x,1/2-y,-z
1/2-x,1/2+y,1/2-z
loop_
_atom_site_type_symbol
_atom_site_label
_atom_site_fract_x
_atom_site_fract_y
_atom_site_fract_z
Si Si1 0.391494 0.237209 0.893468
Si Si2 0.408349 0.605450 0.750466
Si Si3 0.751991 0.500000 0.500000
Si Si4 0.300679 0.251217 0.755403
Si Si5 0.656057 0.500000 0.000000
Si Si6 0.000000 0.248560 0.750000
Si Si7 0.958946 0.500000 0.000000
O O1 0.404216 0.404310 0.788847
O O2 0.343972 0.170735 0.840807
O O3 0.427535 0.090096 0.858485
O O4 0.392975 0.275004 0.095461
O O5 0.375147 0.639958 0.594807
O O6 0.458431 0.634086 0.700419
O O7 0.725673 0.655545 0.408957
O O8 0.778388 0.593885 0.653149
O O9 0.312039 0.403238 0.626517
O O10 0.009883 0.362168 0.585539
#
# Coordination Sequence:
#
# PCOD8158831 Si02
#       7
#     8   8   4   8   4   4   4
#     4   9  20  39  59  79 115 162 198 238 301 367
#     4   9  19  36  59  84 114 160 202 241 297 358
#     4  12  26  42  67  97 124 160 200 261 319 358
#     4  11  24  42  64  92 125 158 203 253 306 375
#     4  10  20  38  63  89 120 162 206 243 295 374
#     4  10  22  36  54  84 120 150 200 252 290 346
#     4  10  22  36  56  84 116 152 192 250 300 334
#
# _framework density 21.346867
#
# number of rings (size 3 to 8) (size 9 to 14) (size 15 to 20)
#    0.000    2.000    0.000    3.600    0.000   12.000 
#    0.000    0.000    0.000    0.000    0.000    0.000 
#    0.000    0.000    0.000    0.000    0.000    0.000 
#
# Total GULP energy -247877.258035 kJ/mol
# GULP energy per Si atom -12393.862902 kJ/mol
# Density = 2.129828 g / cm^3
# Si number density = 21.346867 Si / 1000 Ang^3
#
#
#
# Elastic Constant Matrix: (Units=GPa)
#
#
# Indices 1 2 3 4 5 6 
#
# 1 132.7273 39.6246 49.9691 0.0000 0.0000 0.0000
# 2 39.6246 64.9580 18.6770 0.0000 0.0000 0.0000
# 3 49.9691 18.6770 82.8810 0.0000 0.0000 0.0000
# 4 0.0000 0.0000 0.0000 30.6975 0.0000 0.0000
# 5 0.0000 0.0000 0.0000 0.0000 45.7347 0.0000
# 6 0.0000 0.0000 0.0000 0.0000 0.0000 16.3777
#
#
#
# Elastic Compliance Matrix: (Units=1/GPa)
#
#
# Indices 1 2 3 4 5 6 
#
# 1 0.011191 -0.005225 -0.005570 0.000000 0.000000 0.000000
# 2 -0.005225 0.018901 -0.001109 0.000000 0.000000 0.000000
# 3 -0.005570 -0.001109 0.015673 0.000000 0.000000 0.000000
# 4 0.000000 0.000000 0.000000 0.032576 0.000000 0.000000
# 5 0.000000 0.000000 0.000000 0.000000 0.021865 0.000000
# 6 0.000000 0.000000 0.000000 0.000000 0.000000 0.061058
#
#
# Mechanical properties :
#
#
# Convention : Reuss Voigt Hill
#
# Bulk Modulus (GPa) = 45.54224 55.23418 50.38821
# Shear Modulus (GPa) = 25.98868 30.04836 28.01852
#
# Velocity S-wave (km/s) = 3.49298 3.75590 3.62682
# Velocity P-wave (km/s) = 6.13584 6.68878 6.41827
#
# Compressibility (1/GPa) = 0.02195764
#
# Stress axis : x y z
#
# Youngs Moduli (GPa) = 89.35745 52.90782 63.80274
#
# Poissons Ratio (x) = 0.27645 0.35536
# Poissons Ratio (y) = 0.46691 0.07076
# Poissons Ratio (z) = 0.49769 0.05867
#
# Static dielectric constant tensor:
#      x y z
#    x 4.248520 0.000000 0.000000 
#    y 0.000000 3.830720 0.000000 
#    z 0.000000 0.000000 4.142980 
# 
# 
# High freq. dielectric constant tensor:
#      x y z
#    x 1.849440 0.000000 0.000000 
#    y 0.000000 1.828600 0.000000 
#    z 0.000000 0.000000 1.837830 
# 
# From -- ./inp_files/6196.got.cif
#   From: 2010.03.12/outbox.cif.g09.slc.cpg/sg20_4_cif.got.tgz:6196.got - 2010.04.14 01:38:04.
