data_PCOD8158319
_publ_section_title
;
Structure prediction by ZEFSAII (Michael W. Deem and Ramdas Pophale) SiO2 
 PCOD8158319
Probable space group: C 2 2 21
;
_chemical_formula_sum "Si O2"
_cell_formula_units_Z 40
_cell_length_a 4.787182
_cell_length_b 23.801737
_cell_length_c 16.223576
_cell_angle_alpha 90.000000
_cell_angle_beta 90.000000
_cell_angle_gamma 90.000000
_cell_volume 1848.566926
_symmetry_space_group_name_H-M "C 2 2 21"
_symmetry_group_IT_number 20
_symmetry_cell_setting 'orthorhombic'
loop_
_space_group_symop_operation_xyz
x,y,z
-x,-y,1/2+z
x,-y,-z
-x,y,1/2-z
1/2+x,1/2+y,z
1/2-x,1/2-y,1/2+z
1/2+x,1/2-y,-z
1/2-x,1/2+y,1/2-z
loop_
_atom_site_type_symbol
_atom_site_label
_atom_site_fract_x
_atom_site_fract_y
_atom_site_fract_z
Si Si1 0.748791 0.196707 0.805501
Si Si2 0.591564 0.368759 0.660217
Si Si3 0.095511 0.303625 0.604620
Si Si4 0.526656 0.869033 0.446738
Si Si5 0.467367 0.564687 0.005590
O O1 0.500000 0.225024 0.750000
O O2 0.920977 0.239100 0.865885
O O3 0.582907 0.149525 0.857422
O O4 0.000000 0.170293 0.750000
O O5 0.500000 0.387835 0.750000
O O6 0.416536 0.317411 0.622356
O O7 0.524902 0.421983 0.602772
O O8 0.908060 0.345611 0.660516
O O9 0.011849 0.314778 0.508884
O O10 0.837152 0.894931 0.448909
O O11 0.344147 0.921818 0.476485
O O12 0.548120 0.500000 0.000000
#
# Coordination Sequence:
#
# PCOD8158319 Si02
#       5
#     8   8   8   8   8
#     4  12  24  38  58  88 127 166 197 238 297 367
#     4  10  19  34  56  86 113 141 191 248 291 337
#     4  10  21  36  57  82 115 153 189 232 287 348
#     4  10  23  40  60  86 117 154 201 246 292 360
#     4  10  21  40  63  84 113 156 201 250 304 354
#
# _framework density 21.638383999999999
#
# number of rings (size 3 to 8) (size 9 to 14) (size 15 to 20)
#    0.000    1.600    0.000    5.400    0.000    6.400 
#    0.000    3.000    0.000    2.400    0.000    0.000 
#    0.000    0.000    0.000    0.000    0.000    0.000 
#
# Total GULP energy -247847.365098 kJ/mol
# GULP energy per Si atom -12392.368255 kJ/mol
# Density = 2.158913 g / cm^3
# Si number density = 21.638384 Si / 1000 Ang^3
#
#
#
# Elastic Constant Matrix: (Units=GPa)
#
#
# Indices 1 2 3 4 5 6 
#
# 1 80.5908 6.5739 20.4597 0.0000 0.0000 0.0000
# 2 6.5739 82.6218 30.1597 0.0000 0.0000 0.0000
# 3 20.4597 30.1597 87.7002 0.0000 0.0000 0.0000
# 4 0.0000 0.0000 0.0000 19.3856 0.0000 0.0000
# 5 0.0000 0.0000 0.0000 0.0000 34.7071 0.0000
# 6 0.0000 0.0000 0.0000 0.0000 0.0000 21.4849
#
#
#
# Elastic Compliance Matrix: (Units=1/GPa)
#
#
# Indices 1 2 3 4 5 6 
#
# 1 0.013190 0.000084 -0.003106 0.000000 0.000000 0.000000
# 2 0.000084 0.013841 -0.004780 0.000000 0.000000 0.000000
# 3 -0.003106 -0.004780 0.013771 0.000000 0.000000 0.000000
# 4 0.000000 0.000000 0.000000 0.051585 0.000000 0.000000
# 5 0.000000 0.000000 0.000000 0.000000 0.028813 0.000000
# 6 0.000000 0.000000 0.000000 0.000000 0.000000 0.046544
#
#
# Mechanical properties :
#
#
# Convention : Reuss Voigt Hill
#
# Bulk Modulus (GPa) = 39.68356 40.58883 40.13620
# Shear Modulus (GPa) = 26.07609 28.03015 27.05312
#
# Velocity S-wave (km/s) = 3.47520 3.60306 3.53971
# Velocity P-wave (km/s) = 5.87213 6.00898 5.94095
#
# Compressibility (1/GPa) = 0.02519935
#
# Stress axis : x y z
#
# Youngs Moduli (GPa) = 75.81478 72.24715 72.61730
#
# Poissons Ratio (x) = -0.00610 0.22556
# Poissons Ratio (y) = -0.00640 0.34709
# Poissons Ratio (z) = 0.23549 0.34532
#
# Static dielectric constant tensor:
#      x y z
#    x 4.149330 0.000000 0.000000 
#    y 0.000000 3.308620 0.000000 
#    z 0.000000 0.000000 3.994080 
# 
# 
# High freq. dielectric constant tensor:
#      x y z
#    x 1.876930 0.000000 0.000000 
#    y 0.000000 1.800370 0.000000 
#    z 0.000000 0.000000 1.848570 
# 
# From -- ./inp_files/17621.got.cif
#   From: 2010.03.12/outbox.cif.g09.slc.cpg/sg20_9_cif.got.tgz:17621.got - 2010.04.14 01:38:04.
