data_PCOD8158119
_publ_section_title
;
Structure prediction by ZEFSAII (Michael W. Deem and Ramdas Pophale) SiO2 
 PCOD8158119
Probable space group: C 2 2 21
;
_chemical_formula_sum "Si O2"
_cell_formula_units_Z 64
_cell_length_a 14.547142
_cell_length_b 13.379382
_cell_length_c 18.396963
_cell_angle_alpha 90.000000
_cell_angle_beta 90.000000
_cell_angle_gamma 90.000000
_cell_volume 3580.633468
_symmetry_space_group_name_H-M "C 2 2 21"
_symmetry_group_IT_number 20
_symmetry_cell_setting 'orthorhombic'
loop_
_space_group_symop_operation_xyz
x,y,z
-x,-y,1/2+z
x,-y,-z
-x,y,1/2-z
1/2+x,1/2+y,z
1/2-x,1/2-y,1/2+z
1/2+x,1/2-y,-z
1/2-x,1/2+y,1/2-z
loop_
_atom_site_type_symbol
_atom_site_label
_atom_site_fract_x
_atom_site_fract_y
_atom_site_fract_z
Si Si1 0.029358 0.135811 0.829351
Si Si2 0.810490 0.604890 0.531669
Si Si3 0.817915 0.008738 0.282331
Si Si4 0.769119 0.217904 0.239758
Si Si5 0.671753 0.366113 0.345070
Si Si6 0.948062 0.528404 0.642901
Si Si7 0.365215 0.913485 0.204172
Si Si8 0.366068 0.821308 0.616252
O O1 0.089765 0.034150 0.820985
O O2 0.088315 0.214871 0.872842
O O3 0.000000 0.175993 0.750000
O O4 0.933621 0.124515 0.872279
O O5 0.775641 0.500000 0.500000
O O6 0.731832 0.647673 0.583386
O O7 0.904120 0.591294 0.577350
O O8 0.827009 0.680839 0.465667
O O9 0.808021 0.967146 0.199917
O O10 0.725822 0.971405 0.323934
O O11 0.822113 0.129181 0.282532
O O12 0.694429 0.273015 0.291277
O O13 0.845125 0.294998 0.209278
O O14 0.716534 0.165570 0.173173
O O15 0.893705 0.549481 0.716463
O O16 0.940027 0.410281 0.626229
O O17 0.053973 0.562417 0.647378
#
# Coordination Sequence:
#
# PCOD8158119 Si02
#       8
#     8   8   8   8   8   8   8   8
#     4  10  20  35  55  86 114 145 195 243 276 346
#     4  10  20  39  58  79 117 149 191 243 296 353
#     4  10  18  34  56  86 116 144 190 248 283 340
#     4  11  19  35  60  88 112 153 191 238 305 331
#     4  10  20  38  58  82 116 150 197 240 285 352
#     4  10  20  34  54  86 111 149 188 249 290 341
#     4  10  19  32  56  83 118 138 194 244 289 333
#     4  11  20  33  62  85 110 153 196 238 293 349
#
# _framework density 17.873932
#
# number of rings (size 3 to 8) (size 9 to 14) (size 15 to 20)
#    0.000    1.750    7.500    0.750    3.500    0.000 
#    9.000    0.000    2.750    0.000    0.000    0.000 
#    0.000    0.000    0.000    0.000    0.000    0.000 
#
# Total GULP energy -396667.222362 kJ/mol
# GULP energy per Si atom -12395.850699 kJ/mol
# Density = 1.783325 g / cm^3
# Si number density = 17.873932 Si / 1000 Ang^3
#
#
#
# Elastic Constant Matrix: (Units=GPa)
#
#
# Indices 1 2 3 4 5 6 
#
# 1 125.6014 48.3138 41.0232 0.0000 0.0000 0.0000
# 2 48.3138 96.2663 18.4459 0.0000 0.0000 0.0000
# 3 41.0232 18.4459 78.5514 0.0000 0.0000 0.0000
# 4 0.0000 0.0000 0.0000 18.3431 0.0000 0.0000
# 5 0.0000 0.0000 0.0000 0.0000 24.2280 0.0000
# 6 0.0000 0.0000 0.0000 0.0000 0.0000 25.5977
#
#
#
# Elastic Compliance Matrix: (Units=1/GPa)
#
#
# Indices 1 2 3 4 5 6 
#
# 1 0.011376 -0.004786 -0.004817 0.000000 0.000000 0.000000
# 2 -0.004786 0.012891 -0.000527 0.000000 0.000000 0.000000
# 3 -0.004817 -0.000527 0.015370 0.000000 0.000000 0.000000
# 4 0.000000 0.000000 0.000000 0.054516 0.000000 0.000000
# 5 0.000000 0.000000 0.000000 0.000000 0.041275 0.000000
# 6 0.000000 0.000000 0.000000 0.000000 0.000000 0.039066
#
#
# Mechanical properties :
#
#
# Convention : Reuss Voigt Hill
#
# Bulk Modulus (GPa) = 51.61219 57.33167 54.47193
# Shear Modulus (GPa) = 24.84902 26.47616 25.66259
#
# Velocity S-wave (km/s) = 3.73263 3.85291 3.79325
# Velocity P-wave (km/s) = 6.89312 7.20683 7.05172
#
# Compressibility (1/GPa) = 0.01937527
#
# Stress axis : x y z
#
# Youngs Moduli (GPa) = 87.90272 77.57284 65.06114
#
# Poissons Ratio (x) = 0.37130 0.31341
# Poissons Ratio (y) = 0.42074 0.03432
# Poissons Ratio (z) = 0.42345 0.04092
#
# Static dielectric constant tensor:
#      x y z
#    x 3.635050 0.000000 0.000000 
#    y 0.000000 3.178270 0.000000 
#    z 0.000000 0.000000 3.172730 
# 
# 
# High freq. dielectric constant tensor:
#      x y z
#    x 1.698240 0.000000 0.000000 
#    y 0.000000 1.683210 0.000000 
#    z 0.000000 0.000000 1.659460 
# 
# From -- ./inp_files/25029.got.cif
#   From: 2010.03.12/outbox.cif.g09.slc.cpg/sg20_13_cif.got.tgz:25029.got - 2010.04.14 01:38:04.
