data_PCOD8158194
_publ_section_title
;
Structure prediction by ZEFSAII (Michael W. Deem and Ramdas Pophale) SiO2 
 PCOD8158194
Probable space group: C 2 2 21
;
_chemical_formula_sum "Si O2"
_cell_formula_units_Z 52
_cell_length_a 8.336160
_cell_length_b 29.761197
_cell_length_c 11.373488
_cell_angle_alpha 90.000000
_cell_angle_beta 90.000000
_cell_angle_gamma 90.000000
_cell_volume 2821.695269
_symmetry_space_group_name_H-M "C 2 2 21"
_symmetry_group_IT_number 20
_symmetry_cell_setting 'orthorhombic'
loop_
_space_group_symop_operation_xyz
x,y,z
-x,-y,1/2+z
x,-y,-z
-x,y,1/2-z
1/2+x,1/2+y,z
1/2-x,1/2-y,1/2+z
1/2+x,1/2-y,-z
1/2-x,1/2+y,1/2-z
loop_
_atom_site_type_symbol
_atom_site_label
_atom_site_fract_x
_atom_site_fract_y
_atom_site_fract_z
Si Si1 0.543982 0.878717 0.884361
Si Si2 0.249424 0.191427 0.516182
Si Si3 0.945779 0.117079 0.880389
Si Si4 0.000000 0.921169 0.750000
Si Si5 0.218159 0.049137 0.454383
Si Si6 0.955361 0.231015 0.382912
Si Si7 0.694609 0.638582 0.075121
O O1 0.500000 0.872120 0.750000
O O2 0.674741 0.841306 0.918335
O O3 0.617091 0.927794 0.910772
O O4 0.378740 0.872416 0.955337
O O5 0.168719 0.160978 0.618120
O O6 0.383523 0.222610 0.571183
O O7 0.115747 0.221530 0.454886
O O8 0.000000 0.105251 0.750000
O O9 0.851979 0.074871 0.933236
O O10 0.101912 0.126206 0.957541
O O11 0.909428 0.951801 0.846428
O O12 0.868588 0.889676 0.687070
O O13 0.260832 0.000000 0.500000
O O14 0.826741 0.191049 0.395192
O O15 0.000000 0.239228 0.250000
#
# Coordination Sequence:
#
# PCOD8158194 Si02
#       7
#     8   8   8   4   8   8   8
#     4  11  20  38  61  85 119 158 194 248 304 355
#     4  10  23  35  53  87 115 156 205 241 298 346
#     4   9  21  40  59  80 119 158 193 239 301 358
#     4  10  18  38  62  88 112 156 194 242 296 350
#     4  10  22  38  62  92 119 146 201 246 296 362
#     4  11  21  36  56  84 118 153 204 253 283 347
#     4  10  19  36  63  85 114 159 201 233 297 352
#
# _framework density 18.428637999999999
#
# number of rings (size 3 to 8) (size 9 to 14) (size 15 to 20)
#    0.000    1.846    2.308    2.769    1.077    3.692 
#    0.000    8.462    0.000    0.000    0.000    0.000 
#    0.000    0.000    0.000    0.000    0.000    0.000 
#
# Total GULP energy -322457.335485 kJ/mol
# GULP energy per Si atom -12402.205211 kJ/mol
# Density = 1.838669 g / cm^3
# Si number density = 18.428638 Si / 1000 Ang^3
#
#
#
# Elastic Constant Matrix: (Units=GPa)
#
#
# Indices 1 2 3 4 5 6 
#
# 1 107.4686 36.9456 24.7870 0.0000 0.0000 0.0000
# 2 36.9456 95.1761 33.5581 0.0000 0.0000 0.0000
# 3 24.7870 33.5581 104.3831 0.0000 0.0000 0.0000
# 4 0.0000 0.0000 0.0000 21.7906 0.0000 0.0000
# 5 0.0000 0.0000 0.0000 0.0000 20.2104 0.0000
# 6 0.0000 0.0000 0.0000 0.0000 0.0000 27.1306
#
#
#
# Elastic Compliance Matrix: (Units=1/GPa)
#
#
# Indices 1 2 3 4 5 6 
#
# 1 0.010913 -0.003747 -0.001387 0.000000 0.000000 0.000000
# 2 -0.003747 0.013137 -0.003334 0.000000 0.000000 0.000000
# 3 -0.001387 -0.003334 0.010981 0.000000 0.000000 0.000000
# 4 0.000000 0.000000 0.000000 0.045891 0.000000 0.000000
# 5 0.000000 0.000000 0.000000 0.000000 0.049480 0.000000
# 6 0.000000 0.000000 0.000000 0.000000 0.000000 0.036859
#
#
# Mechanical properties :
#
#
# Convention : Reuss Voigt Hill
#
# Bulk Modulus (GPa) = 55.26107 55.28992 55.27549
# Shear Modulus (GPa) = 26.28427 27.94211 27.11319
#
# Velocity S-wave (km/s) = 3.78070 3.89811 3.83985
# Velocity P-wave (km/s) = 7.00784 7.09420 7.05115
#
# Compressibility (1/GPa) = 0.01809592
#
# Stress axis : x y z
#
# Youngs Moduli (GPa) = 91.63256 76.12170 91.06569
#
# Poissons Ratio (x) = 0.28525 0.12628
# Poissons Ratio (y) = 0.34338 0.30357
# Poissons Ratio (z) = 0.12707 0.25375
#
# Static dielectric constant tensor:
#      x y z
#    x 3.683250 0.000000 0.000000 
#    y 0.000000 3.276120 0.000000 
#    z 0.000000 0.000000 3.285510 
# 
# 
# High freq. dielectric constant tensor:
#      x y z
#    x 1.723960 0.000000 0.000000 
#    y 0.000000 1.705620 0.000000 
#    z 0.000000 0.000000 1.712320 
# 
# From -- ./inp_files/13238.got.cif
#   From: 2010.03.12/outbox.cif.g09.slc.cpg/sg20_7_cif.got.tgz:13238.got - 2010.04.14 01:38:04.
