data_PCOD8158099
_publ_section_title
;
Structure prediction by ZEFSAII (Michael W. Deem and Ramdas Pophale) SiO2 
 PCOD8158099
Probable space group: C 2 2 21
;
_chemical_formula_sum "Si O2"
_cell_formula_units_Z 60
_cell_length_a 8.484323
_cell_length_b 19.442211
_cell_length_c 19.104772
_cell_angle_alpha 90.000000
_cell_angle_beta 90.000000
_cell_angle_gamma 90.000000
_cell_volume 3151.408521
_symmetry_space_group_name_H-M "C 2 2 21"
_symmetry_group_IT_number 20
_symmetry_cell_setting 'orthorhombic'
loop_
_space_group_symop_operation_xyz
x,y,z
-x,-y,1/2+z
x,-y,-z
-x,y,1/2-z
1/2+x,1/2+y,z
1/2-x,1/2-y,1/2+z
1/2+x,1/2-y,-z
1/2-x,1/2+y,1/2-z
loop_
_atom_site_type_symbol
_atom_site_label
_atom_site_fract_x
_atom_site_fract_y
_atom_site_fract_z
Si Si1 0.000000 0.649419 0.750000
Si Si2 0.300624 0.031816 0.072273
Si Si3 0.437605 0.483612 0.321273
Si Si4 0.133419 0.673015 0.487945
Si Si5 0.942518 0.197467 0.554068
Si Si6 0.843010 0.166672 0.705966
Si Si7 0.635885 0.439133 0.444661
Si Si8 0.024797 0.588879 0.898555
O O1 0.831542 0.690508 0.764080
O O2 0.956614 0.603980 0.682984
O O3 0.369655 0.107600 0.063341
O O4 0.169765 0.034534 0.133066
O O5 0.444900 0.984862 0.094968
O O6 0.226163 0.000000 0.000000
O O7 0.500000 0.519933 0.250000
O O8 0.336058 0.416208 0.300599
O O9 0.588834 0.463384 0.367103
O O10 0.309034 0.701326 0.495496
O O11 0.040592 0.733502 0.451412
O O12 0.073159 0.650110 0.564766
O O13 0.865848 0.199357 0.630382
O O14 0.036209 0.128120 0.535306
O O15 0.000000 0.188497 0.750000
O O16 0.609348 0.500000 0.500000
O O17 0.814521 0.415231 0.441433
#
# Coordination Sequence:
#
# PCOD8158099 Si02
#       8
#     4   8   8   8   8   8   8   8
#     4  12  18  36  62  94 122 152 202 260 316 370
#     4  10  19  36  58  86 123 154 195 249 317 363
#     4  10  18  33  54  88 120 153 197 247 306 372
#     4  11  22  38  60  83 120 162 201 259 297 376
#     4  11  22  39  58  89 119 162 215 247 315 370
#     4  10  20  35  59  90 123 155 202 261 307 374
#     4  11  21  35  58  91 123 157 199 263 313 365
#     4  11  21  34  60  93 118 154 201 253 313 368
#
# _framework density 19.039107000000001
#
# number of rings (size 3 to 8) (size 9 to 14) (size 15 to 20)
#    0.000    1.333    2.667    8.000    0.000    0.000 
#    0.000    0.000    1.467    3.200    3.467    0.000 
#    0.000    0.000    0.000    0.000    0.000    0.000 
#
# Total GULP energy -371829.391336 kJ/mol
# GULP energy per Si atom -12394.313045 kJ/mol
# Density = 1.899577 g / cm^3
# Si number density = 19.039107 Si / 1000 Ang^3
#
#
#
# Elastic Constant Matrix: (Units=GPa)
#
#
# Indices 1 2 3 4 5 6 
#
# 1 139.4374 50.6152 43.2284 0.0000 0.0000 0.0000
# 2 50.6152 99.0847 55.3498 0.0000 0.0000 0.0000
# 3 43.2284 55.3498 111.3998 0.0000 0.0000 0.0000
# 4 0.0000 0.0000 0.0000 16.1142 0.0000 0.0000
# 5 0.0000 0.0000 0.0000 0.0000 31.0108 0.0000
# 6 0.0000 0.0000 0.0000 0.0000 0.0000 35.8572
#
#
#
# Elastic Compliance Matrix: (Units=1/GPa)
#
#
# Indices 1 2 3 4 5 6 
#
# 1 0.009025 -0.003673 -0.001677 0.000000 0.000000 0.000000
# 2 -0.003673 0.015465 -0.006258 0.000000 0.000000 0.000000
# 3 -0.001677 -0.006258 0.012737 0.000000 0.000000 0.000000
# 4 0.000000 0.000000 0.000000 0.062057 0.000000 0.000000
# 5 0.000000 0.000000 0.000000 0.000000 0.032247 0.000000
# 6 0.000000 0.000000 0.000000 0.000000 0.000000 0.027888
#
#
# Mechanical properties :
#
#
# Convention : Reuss Voigt Hill
#
# Bulk Modulus (GPa) = 71.38129 72.03430 71.70779
# Shear Modulus (GPa) = 26.69423 29.97833 28.33628
#
# Velocity S-wave (km/s) = 3.74849 3.97239 3.86206
# Velocity P-wave (km/s) = 7.50388 7.67834 7.59161
#
# Compressibility (1/GPa) = 0.01400927
#
# Stress axis : x y z
#
# Youngs Moduli (GPa) = 110.80307 64.66262 78.51186
#
# Poissons Ratio (x) = 0.23754 0.13166
# Poissons Ratio (y) = 0.40703 0.49136
# Poissons Ratio (z) = 0.18581 0.40468
#
# Static dielectric constant tensor:
#      x y z
#    x 3.775010 0.000000 0.000000 
#    y 0.000000 3.158000 0.000000 
#    z 0.000000 0.000000 3.619730 
# 
# 
# High freq. dielectric constant tensor:
#      x y z
#    x 1.763010 0.000000 0.000000 
#    y 0.000000 1.696470 0.000000 
#    z 0.000000 0.000000 1.743630 
# 
# From -- ./inp_files/23923.got.cif
#   From: 2010.03.12/outbox.cif.g09.slc.cpg/sg20_12_cif.got.tgz:23923.got - 2010.04.14 01:38:04.
