data_PCOD8158164
_publ_section_title
;
Structure prediction by ZEFSAII (Michael W. Deem and Ramdas Pophale) SiO2 
 PCOD8158164
Probable space group: C 2 2 21
;
_chemical_formula_sum "Si O2"
_cell_formula_units_Z 60
_cell_length_a 30.301409
_cell_length_b 8.734619
_cell_length_c 11.103158
_cell_angle_alpha 90.000000
_cell_angle_beta 90.000000
_cell_angle_gamma 90.000000
_cell_volume 2938.686849
_symmetry_space_group_name_H-M "C 2 2 21"
_symmetry_group_IT_number 20
_symmetry_cell_setting 'orthorhombic'
loop_
_space_group_symop_operation_xyz
x,y,z
-x,-y,1/2+z
x,-y,-z
-x,y,1/2-z
1/2+x,1/2+y,z
1/2-x,1/2-y,1/2+z
1/2+x,1/2-y,-z
1/2-x,1/2+y,1/2-z
loop_
_atom_site_type_symbol
_atom_site_label
_atom_site_fract_x
_atom_site_fract_y
_atom_site_fract_z
Si Si1 0.877153 0.440054 0.132508
Si Si2 0.955070 0.627489 0.712050
Si Si3 0.691053 0.731245 0.261102
Si Si4 0.239362 0.490299 0.859784
Si Si5 0.347183 0.820247 0.677173
Si Si6 0.600319 0.000000 0.000000
Si Si7 0.028360 0.038039 0.137058
Si Si8 0.369389 0.493862 0.636602
O O1 0.921405 0.350133 0.175543
O O2 0.833555 0.331137 0.135665
O O3 0.871142 0.586959 0.217435
O O4 0.884929 0.500000 0.000000
O O5 0.930268 0.537225 0.610175
O O6 0.973063 0.781199 0.651578
O O7 0.000000 0.537342 0.750000
O O8 0.715624 0.578351 0.305041
O O9 0.649859 0.667597 0.183057
O O10 0.724648 0.842582 0.189102
O O11 0.203678 0.363453 0.827174
O O12 0.247610 0.500000 0.000000
O O13 0.349134 0.640488 0.705246
O O14 0.368672 0.860714 0.545958
O O15 0.000000 0.965109 0.250000
O O16 0.078489 0.984877 0.152303
O O17 0.010890 0.000000 0.000000
O O18 0.354270 0.500000 0.500000
#
# Coordination Sequence:
#
# PCOD8158164 Si02
#       8
#     8   8   8   8   8   4   8   8
#     4  10  23  43  62  87 131 171 210 262 323 390
#     4  10  21  38  63  91 124 168 209 264 319 377
#     4  11  24  40  62  93 123 164 216 258 328 386
#     4  11  23  40  63  90 125 158 205 270 315 381
#     4  10  21  38  64  91 122 161 211 256 320 374
#     4  10  18  36  62  92 120 158 212 262 304 380
#     4  10  21  40  62  92 131 172 217 269 325 389
#     4  11  21  38  65  91 121 167 213 262 325 387
#
# _framework density 20.417282
#
# number of rings (size 3 to 8) (size 9 to 14) (size 15 to 20)
#    0.000    1.600    2.000    3.200    2.800    3.200 
#    4.800    5.333    0.000    0.000    0.000    0.000 
#    0.000    0.000    0.000    0.000    0.000    0.000 
#
# Total GULP energy -371760.006647 kJ/mol
# GULP energy per Si atom -12392.000222 kJ/mol
# Density = 2.037081 g / cm^3
# Si number density = 20.417282 Si / 1000 Ang^3
#
#
#
# Elastic Constant Matrix: (Units=GPa)
#
#
# Indices 1 2 3 4 5 6 
#
# 1 88.3541 25.1364 51.0291 0.0000 0.0000 0.0000
# 2 25.1364 90.3493 33.9294 0.0000 0.0000 0.0000
# 3 51.0291 33.9294 132.6026 0.0000 0.0000 0.0000
# 4 0.0000 0.0000 0.0000 23.5295 0.0000 0.0000
# 5 0.0000 0.0000 0.0000 0.0000 24.3006 0.0000
# 6 0.0000 0.0000 0.0000 0.0000 0.0000 26.9150
#
#
#
# Elastic Compliance Matrix: (Units=1/GPa)
#
#
# Indices 1 2 3 4 5 6 
#
# 1 0.014941 -0.002210 -0.005184 0.000000 0.000000 0.000000
# 2 -0.002210 0.012572 -0.002366 0.000000 0.000000 0.000000
# 3 -0.005184 -0.002366 0.010142 0.000000 0.000000 0.000000
# 4 0.000000 0.000000 0.000000 0.042500 0.000000 0.000000
# 5 0.000000 0.000000 0.000000 0.000000 0.041151 0.000000
# 6 0.000000 0.000000 0.000000 0.000000 0.000000 0.037154
#
#
# Mechanical properties :
#
#
# Convention : Reuss Voigt Hill
#
# Bulk Modulus (GPa) = 55.14647 59.05508 57.10078
# Shear Modulus (GPa) = 27.17022 28.36308 27.76665
#
# Velocity S-wave (km/s) = 3.65190 3.73120 3.69176
# Velocity P-wave (km/s) = 6.69702 6.89560 6.79704
#
# Compressibility (1/GPa) = 0.01813353
#
# Stress axis : x y z
#
# Youngs Moduli (GPa) = 66.92998 79.54428 98.60142
#
# Poissons Ratio (x) = 0.17579 0.51117
# Poissons Ratio (y) = 0.14791 0.23332
# Poissons Ratio (z) = 0.34698 0.18823
#
# Static dielectric constant tensor:
#      x y z
#    x 4.164260 0.000000 0.000000 
#    y 0.000000 3.616950 0.000000 
#    z 0.000000 0.000000 3.854880 
# 
# 
# High freq. dielectric constant tensor:
#      x y z
#    x 1.807870 0.000000 0.000000 
#    y 0.000000 1.792420 0.000000 
#    z 0.000000 0.000000 1.789220 
# 
# From -- ./inp_files/17211.got.cif
#   From: 2010.03.12/outbox.cif.g09.slc.cpg/sg20_9_cif.got.tgz:17211.got - 2010.04.14 01:38:04.
