data_PCOD8158606
_publ_section_title
;
Structure prediction by ZEFSAII (Michael W. Deem and Ramdas Pophale) SiO2 
 PCOD8158606
Probable space group: C 2 2 21
;
_chemical_formula_sum "Si O2"
_cell_formula_units_Z 48
_cell_length_a 9.435924
_cell_length_b 18.142843
_cell_length_c 14.856273
_cell_angle_alpha 90.000000
_cell_angle_beta 90.000000
_cell_angle_gamma 90.000000
_cell_volume 2543.312045
_symmetry_space_group_name_H-M "C 2 2 21"
_symmetry_group_IT_number 20
_symmetry_cell_setting 'orthorhombic'
loop_
_space_group_symop_operation_xyz
x,y,z
-x,-y,1/2+z
x,-y,-z
-x,y,1/2-z
1/2+x,1/2+y,z
1/2-x,1/2-y,1/2+z
1/2+x,1/2-y,-z
1/2-x,1/2+y,1/2-z
loop_
_atom_site_type_symbol
_atom_site_label
_atom_site_fract_x
_atom_site_fract_y
_atom_site_fract_z
Si Si1 0.806561 0.414218 0.484697
Si Si2 0.646157 0.834628 0.204621
Si Si3 0.481712 0.585964 0.494752
Si Si4 0.099835 0.833767 0.173062
Si Si5 0.820346 0.796666 0.585944
Si Si6 0.987302 0.294049 0.561714
O O1 0.836026 0.500000 0.500000
O O2 0.825293 0.388582 0.380588
O O3 0.647084 0.393510 0.514239
O O4 0.915853 0.374438 0.553054
O O5 0.500000 0.854014 0.250000
O O6 0.744535 0.846326 0.290379
O O7 0.666799 0.748273 0.178690
O O8 0.456652 0.500000 0.500000
O O9 0.415772 0.617813 0.585129
O O10 0.391027 0.621455 0.411328
O O11 0.057402 0.747995 0.153411
O O12 0.000000 0.865973 0.250000
O O13 0.923269 0.753002 0.519042
O O14 0.657445 0.800119 0.553280
#
# Coordination Sequence:
#
# PCOD8158606 Si02
#       6
#     8   8   8   8   8   8
#     4  10  22  41  59  83 119 158 192 231 291 354
#     4  11  23  36  59  88 113 149 196 247 290 334
#     4  10  22  39  60  84 117 160 193 231 289 356
#     4  11  19  38  59  82 115 148 190 244 294 332
#     4  10  20  36  56  85 110 145 193 228 282 344
#     4  10  20  34  59  82 110 150 186 234 282 340
#
# _framework density 18.873028000000001
#
# number of rings (size 3 to 8) (size 9 to 14) (size 15 to 20)
#    0.000    1.667    3.333    3.000   11.667    0.667 
#    0.000    3.333    0.000    0.000    0.000    0.000 
#    0.000    0.000    0.000    0.000    0.000    0.000 
#
# Total GULP energy -297352.770255 kJ/mol
# GULP energy per Si atom -12389.698761 kJ/mol
# Density = 1.883007 g / cm^3
# Si number density = 18.873028 Si / 1000 Ang^3
#
#
#
# Elastic Constant Matrix: (Units=GPa)
#
#
# Indices 1 2 3 4 5 6 
#
# 1 148.7599 60.0375 22.9104 0.0000 0.0000 0.0000
# 2 60.0375 120.3437 34.8136 0.0000 0.0000 0.0000
# 3 22.9104 34.8136 53.1596 0.0000 0.0000 0.0000
# 4 0.0000 0.0000 0.0000 22.0025 0.0000 0.0000
# 5 0.0000 0.0000 0.0000 0.0000 25.8933 0.0000
# 6 0.0000 0.0000 0.0000 0.0000 0.0000 32.2541
#
#
#
# Elastic Compliance Matrix: (Units=1/GPa)
#
#
# Indices 1 2 3 4 5 6 
#
# 1 0.008468 -0.003909 -0.001089 0.000000 0.000000 0.000000
# 2 -0.003909 0.012057 -0.006211 0.000000 0.000000 0.000000
# 3 -0.001089 -0.006211 0.023348 0.000000 0.000000 0.000000
# 4 0.000000 0.000000 0.000000 0.045449 0.000000 0.000000
# 5 0.000000 0.000000 0.000000 0.000000 0.038620 0.000000
# 6 0.000000 0.000000 0.000000 0.000000 0.000000 0.031004
#
#
# Mechanical properties :
#
#
# Convention : Reuss Voigt Hill
#
# Bulk Modulus (GPa) = 46.61217 61.97621 54.29419
# Shear Modulus (GPa) = 26.52299 29.66342 28.09321
#
# Velocity S-wave (km/s) = 3.75285 3.96881 3.86234
# Velocity P-wave (km/s) = 6.59772 7.34246 6.98003
#
# Compressibility (1/GPa) = 0.02145362
#
# Stress axis : x y z
#
# Youngs Moduli (GPa) = 118.09527 82.94250 42.82998
#
# Poissons Ratio (x) = 0.32425 0.04665
# Poissons Ratio (y) = 0.46167 0.26601
# Poissons Ratio (z) = 0.12863 0.51515
#
# Static dielectric constant tensor:
#      x y z
#    x 3.732170 0.000000 0.000000 
#    y 0.000000 3.954370 0.000000 
#    z 0.000000 0.000000 3.247240 
# 
# 
# High freq. dielectric constant tensor:
#      x y z
#    x 1.753950 0.000000 0.000000 
#    y 0.000000 1.722720 0.000000 
#    z 0.000000 0.000000 1.716690 
# 
# From -- ./inp_files/18918.got.cif
#   From: 2010.03.12/outbox.cif.g09.slc.cpg/sg20_10_cif.got.tgz:18918.got - 2010.04.14 01:38:04.
