data_PCOD8158847
_publ_section_title
;
Structure prediction by ZEFSAII (Michael W. Deem and Ramdas Pophale) SiO2 
 PCOD8158847
Probable space group: C 2 2 21
;
_chemical_formula_sum "Si O2"
_cell_formula_units_Z 60
_cell_length_a 32.020813
_cell_length_b 10.961456
_cell_length_c 8.299392
_cell_angle_alpha 90.000000
_cell_angle_beta 90.000000
_cell_angle_gamma 90.000000
_cell_volume 2913.042877
_symmetry_space_group_name_H-M "C 2 2 21"
_symmetry_group_IT_number 20
_symmetry_cell_setting 'orthorhombic'
loop_
_space_group_symop_operation_xyz
x,y,z
-x,-y,1/2+z
x,-y,-z
-x,y,1/2-z
1/2+x,1/2+y,z
1/2-x,1/2-y,1/2+z
1/2+x,1/2-y,-z
1/2-x,1/2+y,1/2-z
loop_
_atom_site_type_symbol
_atom_site_label
_atom_site_fract_x
_atom_site_fract_y
_atom_site_fract_z
Si Si1 0.951544 0.233142 0.239365
Si Si2 0.372207 0.833785 0.370983
Si Si3 0.899032 0.788268 0.077667
Si Si4 0.302244 0.311383 0.791794
Si Si5 0.457837 0.466604 0.187963
Si Si6 0.665110 0.500000 0.500000
Si Si7 0.648645 0.897848 0.775557
Si Si8 0.771445 0.632131 0.070735
O O1 0.922056 0.306823 0.363716
O O2 0.000000 0.279375 0.250000
O O3 0.949756 0.090175 0.289175
O O4 0.931564 0.248527 0.062051
O O5 0.347562 0.731054 0.271680
O O6 0.356426 0.832154 0.553445
O O7 0.363364 0.961575 0.285039
O O8 0.922749 0.864708 0.217259
O O9 0.882074 0.662319 0.145834
O O10 0.861449 0.877913 0.028863
O O11 0.305722 0.453092 0.852926
O O12 0.269901 0.307636 0.645176
O O13 0.287930 0.222067 0.934031
O O14 0.500000 0.404762 0.250000
O O15 0.459571 0.500000 0.000000
O O16 0.695819 0.882478 0.716469
O O17 0.760998 0.500000 0.000000
#
# Coordination Sequence:
#
# PCOD8158847 Si02
#       8
#     8   8   8   8   8   4   8   8
#     4  10  20  38  65  94 134 174 224 281 336 388
#     4  11  23  46  64  96 129 182 223 277 331 391
#     4  11  20  40  64  95 128 177 220 264 339 397
#     4  12  26  42  72  93 137 166 220 281 325 411
#     4   9  18  33  57  89 128 165 211 271 333 384
#     4  12  22  40  66  96 126 166 218 262 336 400
#     4  11  25  42  69  92 133 178 229 265 333 407
#     4  12  26  45  68 102 128 176 221 268 345 389
#
# _framework density 20.597017999999998
#
# number of rings (size 3 to 8) (size 9 to 14) (size 15 to 20)
#    0.000    1.067    6.000    0.800    1.867    5.333 
#    0.000    4.667    0.000    0.000    0.000    0.000 
#    0.000    0.000    0.000    0.000    0.000    0.000 
#
# Total GULP energy -371899.277815 kJ/mol
# GULP energy per Si atom -12396.642594 kJ/mol
# Density = 2.055014 g / cm^3
# Si number density = 20.597018 Si / 1000 Ang^3
#
#
#
# Elastic Constant Matrix: (Units=GPa)
#
#
# Indices 1 2 3 4 5 6 
#
# 1 122.5818 31.5013 39.5254 0.0000 0.0000 0.0000
# 2 31.5013 69.2966 41.1554 0.0000 0.0000 0.0000
# 3 39.5254 41.1554 76.4422 0.0000 0.0000 0.0000
# 4 0.0000 0.0000 0.0000 34.4256 0.0000 0.0000
# 5 0.0000 0.0000 0.0000 0.0000 39.5814 0.0000
# 6 0.0000 0.0000 0.0000 0.0000 0.0000 26.9382
#
#
#
# Elastic Compliance Matrix: (Units=1/GPa)
#
#
# Indices 1 2 3 4 5 6 
#
# 1 0.010007 -0.002170 -0.004006 0.000000 0.000000 0.000000
# 2 -0.002170 0.021684 -0.010553 0.000000 0.000000 0.000000
# 3 -0.004006 -0.010553 0.020835 0.000000 0.000000 0.000000
# 4 0.000000 0.000000 0.000000 0.029048 0.000000 0.000000
# 5 0.000000 0.000000 0.000000 0.000000 0.025264 0.000000
# 6 0.000000 0.000000 0.000000 0.000000 0.000000 0.037122
#
#
# Mechanical properties :
#
#
# Convention : Reuss Voigt Hill
#
# Bulk Modulus (GPa) = 52.44135 54.74276 53.59206
# Shear Modulus (GPa) = 27.20733 30.59826 28.90279
#
# Velocity S-wave (km/s) = 3.63841 3.85849 3.75006
# Velocity P-wave (km/s) = 6.57013 6.81808 6.69526
#
# Compressibility (1/GPa) = 0.01906892
#
# Stress axis : x y z
#
# Youngs Moduli (GPa) = 99.92836 46.11624 47.99727
#
# Poissons Ratio (x) = 0.10007 0.19228
# Poissons Ratio (y) = 0.21684 0.50649
# Poissons Ratio (z) = 0.40032 0.48664
#
# Static dielectric constant tensor:
#      x y z
#    x 3.954850 0.000000 0.000000 
#    y 0.000000 3.846290 0.000000 
#    z 0.000000 0.000000 3.749610 
# 
# 
# High freq. dielectric constant tensor:
#      x y z
#    x 1.815720 0.000000 0.000000 
#    y 0.000000 1.801260 0.000000 
#    z 0.000000 0.000000 1.798610 
# 
# From -- ./inp_files/11573.got.cif
#   From: 2010.03.12/outbox.cif.g09.slc.cpg/sg20_6_cif.got.tgz:11573.got - 2010.04.14 01:38:04.
