data_PCOD8158109
_publ_section_title
;
Structure prediction by ZEFSAII (Michael W. Deem and Ramdas Pophale) SiO2 
 PCOD8158109
Probable space group: C 2 2 21
;
_chemical_formula_sum "Si O2"
_cell_formula_units_Z 44
_cell_length_a 24.780379
_cell_length_b 11.489792
_cell_length_c 8.116291
_cell_angle_alpha 90.000000
_cell_angle_beta 90.000000
_cell_angle_gamma 90.000000
_cell_volume 2310.881740
_symmetry_space_group_name_H-M "C 2 2 21"
_symmetry_group_IT_number 20
_symmetry_cell_setting 'orthorhombic'
loop_
_space_group_symop_operation_xyz
x,y,z
-x,-y,1/2+z
x,-y,-z
-x,y,1/2-z
1/2+x,1/2+y,z
1/2-x,1/2-y,1/2+z
1/2+x,1/2-y,-z
1/2-x,1/2+y,1/2-z
loop_
_atom_site_type_symbol
_atom_site_label
_atom_site_fract_x
_atom_site_fract_y
_atom_site_fract_z
Si Si1 0.824035 0.500000 0.500000
Si Si2 0.121007 0.707990 0.830942
Si Si3 0.803159 0.316961 0.758009
Si Si4 0.483379 0.879234 0.435226
Si Si5 0.707413 0.636260 0.007226
Si Si6 0.099699 0.636140 0.476027
O O1 0.858075 0.419073 0.379490
O O2 0.789456 0.415517 0.620416
O O3 0.062984 0.720349 0.925160
O O4 0.117562 0.711401 0.634011
O O5 0.159038 0.812715 0.884268
O O6 0.793206 0.190789 0.676007
O O7 0.765012 0.333649 0.913962
O O8 0.865742 0.322044 0.817939
O O9 0.500000 0.907817 0.250000
O O10 0.535170 0.841464 0.546870
O O11 0.458212 0.000000 0.500000
O O12 0.698428 0.500000 0.000000
O O13 0.110868 0.500000 0.500000
#
# Coordination Sequence:
#
# PCOD8158109 Si02
#       6
#     4   8   8   8   8   8
#     4  10  20  32  58  82 112 152 188 232 298 356
#     4  10  19  36  54  85 121 156 191 242 292 355
#     4  11  23  39  61  85 117 152 197 248 305 348
#     4   9  18  29  55  88 122 151 190 247 304 355
#     4  11  26  40  57  83 116 159 198 244 290 360
#     4  10  18  33  59  92 122 150 190 251 306 357
#
# _framework density 19.040351000000001
#
# number of rings (size 3 to 8) (size 9 to 14) (size 15 to 20)
#    0.000    1.818    2.727    1.636    5.091    0.000 
#    0.000    0.000    0.000    6.545    0.000    0.000 
#    0.000    0.000    0.000    0.000    0.000    0.000 
#
# Total GULP energy -272669.774550 kJ/mol
# GULP energy per Si atom -12394.080661 kJ/mol
# Density = 1.899701 g / cm^3
# Si number density = 19.040351 Si / 1000 Ang^3
#
#
#
# Elastic Constant Matrix: (Units=GPa)
#
#
# Indices 1 2 3 4 5 6 
#
# 1 96.6129 31.8642 29.8507 0.0000 0.0000 0.0000
# 2 31.8642 100.2475 23.2400 0.0000 0.0000 0.0000
# 3 29.8507 23.2400 53.7244 0.0000 0.0000 0.0000
# 4 0.0000 0.0000 0.0000 26.6395 0.0000 0.0000
# 5 0.0000 0.0000 0.0000 0.0000 33.9491 0.0000
# 6 0.0000 0.0000 0.0000 0.0000 0.0000 18.4548
#
#
#
# Elastic Compliance Matrix: (Units=1/GPa)
#
#
# Indices 1 2 3 4 5 6 
#
# 1 0.013150 -0.002763 -0.006111 0.000000 0.000000 0.000000
# 2 -0.002763 0.011668 -0.003512 0.000000 0.000000 0.000000
# 3 -0.006111 -0.003512 0.023528 0.000000 0.000000 0.000000
# 4 0.000000 0.000000 0.000000 0.037538 0.000000 0.000000
# 5 0.000000 0.000000 0.000000 0.000000 0.029456 0.000000
# 6 0.000000 0.000000 0.000000 0.000000 0.000000 0.054186
#
#
# Mechanical properties :
#
#
# Convention : Reuss Voigt Hill
#
# Bulk Modulus (GPa) = 42.42055 46.72162 44.57109
# Shear Modulus (GPa) = 24.73323 26.85068 25.79195
#
# Velocity S-wave (km/s) = 3.60806 3.75934 3.68447
# Velocity P-wave (km/s) = 6.29961 6.59052 6.44671
#
# Compressibility (1/GPa) = 0.02357348
#
# Stress axis : x y z
#
# Youngs Moduli (GPa) = 76.04504 85.70646 42.50196
#
# Poissons Ratio (x) = 0.23681 0.25974
# Poissons Ratio (y) = 0.21012 0.14927
# Poissons Ratio (z) = 0.46473 0.30100
#
# Static dielectric constant tensor:
#      x y z
#    x 3.782130 0.000000 0.000000 
#    y 0.000000 3.120900 0.000000 
#    z 0.000000 0.000000 3.653330 
# 
# 
# High freq. dielectric constant tensor:
#      x y z
#    x 1.747130 0.000000 0.000000 
#    y 0.000000 1.692840 0.000000 
#    z 0.000000 0.000000 1.750840 
# 
# From -- ./inp_files/10596.got.cif
#   From: 2010.03.12/outbox.cif.g09.slc.cpg/sg20_6_cif.got.tgz:10596.got - 2010.04.14 01:38:04.
