data_PCOD8158125
_publ_section_title
;
Structure prediction by ZEFSAII (Michael W. Deem and Ramdas Pophale) SiO2 
 PCOD8158125
Probable space group: C 2 2 21
;
_chemical_formula_sum "Si O2"
_cell_formula_units_Z 60
_cell_length_a 22.116562
_cell_length_b 11.812698
_cell_length_c 11.407946
_cell_angle_alpha 90.000000
_cell_angle_beta 90.000000
_cell_angle_gamma 90.000000
_cell_volume 2980.397394
_symmetry_space_group_name_H-M "C 2 2 21"
_symmetry_group_IT_number 20
_symmetry_cell_setting 'orthorhombic'
loop_
_space_group_symop_operation_xyz
x,y,z
-x,-y,1/2+z
x,-y,-z
-x,y,1/2-z
1/2+x,1/2+y,z
1/2-x,1/2-y,1/2+z
1/2+x,1/2-y,-z
1/2-x,1/2+y,1/2-z
loop_
_atom_site_type_symbol
_atom_site_label
_atom_site_fract_x
_atom_site_fract_y
_atom_site_fract_z
Si Si1 0.141357 0.176161 0.753827
Si Si2 0.825518 0.611930 0.830796
Si Si3 0.035490 0.291067 0.631078
Si Si4 0.441217 0.625640 0.532153
Si Si5 0.919003 0.500000 0.000000
Si Si6 0.341321 0.713947 0.364463
Si Si7 0.265114 0.779716 0.577067
Si Si8 0.777480 0.026388 0.219010
O O1 0.102753 0.245230 0.658509
O O2 0.098540 0.119021 0.850643
O O3 0.188023 0.261045 0.815952
O O4 0.178079 0.077402 0.687331
O O5 0.855423 0.701735 0.741653
O O6 0.783139 0.677709 0.923563
O O7 0.786883 0.517858 0.763637
O O8 0.879331 0.551368 0.896710
O O9 0.038155 0.404650 0.555237
O O10 0.000000 0.318742 0.750000
O O11 0.001236 0.197916 0.553602
O O12 0.462421 0.500000 0.500000
O O13 0.403725 0.681141 0.426372
O O14 0.297556 0.782409 0.452556
O O15 0.307537 0.601224 0.321811
O O16 0.232859 0.899778 0.601546
#
# Coordination Sequence:
#
# PCOD8158125 Si02
#       8
#     8   8   8   8   4   8   8   8
#     4   9  18  36  61  86 119 158 198 246 302 365
#     4  10  22  35  58  89 122 162 193 241 294 379
#     4  10  24  43  63  87 114 157 208 257 310 357
#     4  10  19  39  64  88 112 157 205 254 307 354
#     4  12  24  44  62  82 124 158 198 248 316 366
#     4  10  20  36  58  90 119 152 212 243 301 360
#     4   9  19  33  57  88 122 158 198 240 295 371
#     4  10  18  34  58  86 124 163 193 242 304 363
#
# _framework density 20.131544000000002
#
# number of rings (size 3 to 8) (size 9 to 14) (size 15 to 20)
#    0.000    2.133    1.333    1.600    0.000    3.733 
#    4.800    1.333    0.000    0.000    0.000    0.000 
#    0.000    0.000    0.000    0.000    0.000    0.000 
#
# Total GULP energy -372110.789953 kJ/mol
# GULP energy per Si atom -12403.692998 kJ/mol
# Density = 2.008572 g / cm^3
# Si number density = 20.131544 Si / 1000 Ang^3
#
#
#
# Elastic Constant Matrix: (Units=GPa)
#
#
# Indices 1 2 3 4 5 6 
#
# 1 79.5684 42.2400 27.1772 0.0000 0.0000 0.0000
# 2 42.2400 120.1421 42.8247 0.0000 0.0000 0.0000
# 3 27.1772 42.8247 64.3364 0.0000 0.0000 0.0000
# 4 0.0000 0.0000 0.0000 30.0298 0.0000 0.0000
# 5 0.0000 0.0000 0.0000 0.0000 23.7698 0.0000
# 6 0.0000 0.0000 0.0000 0.0000 0.0000 30.4149
#
#
#
# Elastic Compliance Matrix: (Units=1/GPa)
#
#
# Indices 1 2 3 4 5 6 
#
# 1 0.016201 -0.004270 -0.004002 0.000000 0.000000 0.000000
# 2 -0.004270 0.012038 -0.006209 0.000000 0.000000 0.000000
# 3 -0.004002 -0.006209 0.021367 0.000000 0.000000 0.000000
# 4 0.000000 0.000000 0.000000 0.033300 0.000000 0.000000
# 5 0.000000 0.000000 0.000000 0.000000 0.042070 0.000000
# 6 0.000000 0.000000 0.000000 0.000000 0.000000 0.032879
#
#
# Mechanical properties :
#
#
# Convention : Reuss Voigt Hill
#
# Bulk Modulus (GPa) = 48.43871 54.28119 51.35995
# Shear Modulus (GPa) = 25.81337 26.96322 26.38829
#
# Velocity S-wave (km/s) = 3.58472 3.66369 3.62442
# Velocity P-wave (km/s) = 6.42238 6.70213 6.56374
#
# Compressibility (1/GPa) = 0.02064465
#
# Stress axis : x y z
#
# Youngs Moduli (GPa) = 61.72360 83.07077 46.80144
#
# Poissons Ratio (x) = 0.35469 0.18729
# Poissons Ratio (y) = 0.26354 0.29060
# Poissons Ratio (z) = 0.24700 0.51581
#
# Static dielectric constant tensor:
#      x y z
#    x 3.585110 0.000000 0.000000 
#    y 0.000000 3.701310 0.000000 
#    z 0.000000 0.000000 3.511010 
# 
# 
# High freq. dielectric constant tensor:
#      x y z
#    x 1.776030 0.000000 0.000000 
#    y 0.000000 1.795820 0.000000 
#    z 0.000000 0.000000 1.777970 
# 
# From -- ./inp_files/16362.got.cif
#   From: 2010.03.12/outbox.cif.g09.slc.cpg/sg20_9_cif.got.tgz:16362.got - 2010.04.14 01:38:04.
