data_PCOD8158723
_publ_section_title
;
Structure prediction by ZEFSAII (Michael W. Deem and Ramdas Pophale) SiO2 
 PCOD8158723
Probable space group: C 2 2 21
;
_chemical_formula_sum "Si O2"
_cell_formula_units_Z 48
_cell_length_a 15.671869
_cell_length_b 8.254582
_cell_length_c 18.995201
_cell_angle_alpha 90.000000
_cell_angle_beta 90.000000
_cell_angle_gamma 90.000000
_cell_volume 2457.309006
_symmetry_space_group_name_H-M "C 2 2 21"
_symmetry_group_IT_number 20
_symmetry_cell_setting 'orthorhombic'
loop_
_space_group_symop_operation_xyz
x,y,z
-x,-y,1/2+z
x,-y,-z
-x,y,1/2-z
1/2+x,1/2+y,z
1/2-x,1/2-y,1/2+z
1/2+x,1/2-y,-z
1/2-x,1/2+y,1/2-z
loop_
_atom_site_type_symbol
_atom_site_label
_atom_site_fract_x
_atom_site_fract_y
_atom_site_fract_z
Si Si1 0.835773 0.555101 0.273843
Si Si2 0.500000 0.750789 0.750000
Si Si3 0.596433 0.840120 0.450450
Si Si4 0.537730 0.500000 0.500000
Si Si5 0.751497 0.341066 0.154374
Si Si6 0.960415 0.323940 0.325986
Si Si7 0.569248 0.526031 0.862645
O O1 0.912483 0.652919 0.236509
O O2 0.788730 0.454793 0.214292
O O3 0.764791 0.664884 0.311776
O O4 0.878117 0.440689 0.334014
O O5 0.509660 0.646230 0.819635
O O6 0.590719 0.669558 0.493931
O O7 0.687095 0.830442 0.412305
O O8 0.523717 0.855197 0.390815
O O9 0.590731 0.000000 0.500000
O O10 0.474751 0.493462 0.435934
O O11 0.663547 0.409593 0.124956
O O12 0.000000 0.368318 0.250000
O O13 0.926166 0.142739 0.321683
#
# Coordination Sequence:
#
# PCOD8158723 Si02
#       7
#     8   4   8   4   8   8   8
#     4  11  22  38  65  98 128 162 216 274 336 387
#     4  10  20  36  66  88 122 168 210 260 314 404
#     4  11  26  45  67  93 136 180 225 272 341 408
#     4  10  26  44  64  90 126 180 222 260 330 420
#     4  11  24  39  63 100 132 166 214 285 339 389
#     4  11  20  42  67  94 126 170 221 267 323 404
#     4  10  23  40  63  93 125 164 213 268 328 391
#
# _framework density 19.533563999999998
#
# number of rings (size 3 to 8) (size 9 to 14) (size 15 to 20)
#    0.000    1.333    3.333    1.000    8.167    1.333 
#    3.000    0.000    0.000    0.000    0.000    0.000 
#    0.000    0.000    0.000    0.000    0.000    0.000 
#
# Total GULP energy -297501.029157 kJ/mol
# GULP energy per Si atom -12395.876215 kJ/mol
# Density = 1.948911 g / cm^3
# Si number density = 19.533564 Si / 1000 Ang^3
#
#
#
# Elastic Constant Matrix: (Units=GPa)
#
#
# Indices 1 2 3 4 5 6 
#
# 1 73.8503 44.4728 24.5354 0.0000 0.0000 0.0000
# 2 44.4728 154.9161 45.6235 0.0000 0.0000 0.0000
# 3 24.5354 45.6235 63.8331 0.0000 0.0000 0.0000
# 4 0.0000 0.0000 0.0000 29.6330 0.0000 0.0000
# 5 0.0000 0.0000 0.0000 0.0000 28.1272 0.0000
# 6 0.0000 0.0000 0.0000 0.0000 0.0000 55.1337
#
#
#
# Elastic Compliance Matrix: (Units=1/GPa)
#
#
# Indices 1 2 3 4 5 6 
#
# 1 0.017098 -0.003766 -0.003880 0.000000 0.000000 0.000000
# 2 -0.003766 0.009005 -0.004989 0.000000 0.000000 0.000000
# 3 -0.003880 -0.004989 0.020723 0.000000 0.000000 0.000000
# 4 0.000000 0.000000 0.000000 0.033746 0.000000 0.000000
# 5 0.000000 0.000000 0.000000 0.000000 0.035553 0.000000
# 6 0.000000 0.000000 0.000000 0.000000 0.000000 0.018138
#
#
# Mechanical properties :
#
#
# Convention : Reuss Voigt Hill
#
# Bulk Modulus (GPa) = 46.39042 57.98476 52.18759
# Shear Modulus (GPa) = 29.99065 34.44331 32.21698
#
# Velocity S-wave (km/s) = 3.92259 4.20371 4.06558
# Velocity P-wave (km/s) = 6.65705 7.30142 6.98666
#
# Compressibility (1/GPa) = 0.02155617
#
# Stress axis : x y z
#
# Youngs Moduli (GPa) = 58.48720 111.04428 48.25500
#
# Poissons Ratio (x) = 0.41814 0.18725
# Poissons Ratio (y) = 0.22024 0.24075
# Poissons Ratio (z) = 0.22696 0.55401
#
# Static dielectric constant tensor:
#      x y z
#    x 3.631650 0.000000 0.000000 
#    y 0.000000 4.289220 0.000000 
#    z 0.000000 0.000000 3.443610 
# 
# 
# High freq. dielectric constant tensor:
#      x y z
#    x 1.765920 0.000000 0.000000 
#    y 0.000000 1.786970 0.000000 
#    z 0.000000 0.000000 1.751030 
# 
# From -- ./inp_files/24862.got.cif
#   From: 2010.03.12/outbox.cif.g09.slc.cpg/sg20_13_cif.got.tgz:24862.got - 2010.04.14 01:38:04.
