data_PCOD8158705
_publ_section_title
;
Structure prediction by ZEFSAII (Michael W. Deem and Ramdas Pophale) SiO2 
 PCOD8158705
Probable space group: C 2 2 21
;
_chemical_formula_sum "Si O2"
_cell_formula_units_Z 40
_cell_length_a 15.884357
_cell_length_b 10.495054
_cell_length_c 12.509106
_cell_angle_alpha 90.000000
_cell_angle_beta 90.000000
_cell_angle_gamma 90.000000
_cell_volume 2085.357842
_symmetry_space_group_name_H-M "C 2 2 21"
_symmetry_group_IT_number 20
_symmetry_cell_setting 'orthorhombic'
loop_
_space_group_symop_operation_xyz
x,y,z
-x,-y,1/2+z
x,-y,-z
-x,y,1/2-z
1/2+x,1/2+y,z
1/2-x,1/2-y,1/2+z
1/2+x,1/2-y,-z
1/2-x,1/2+y,1/2-z
loop_
_atom_site_type_symbol
_atom_site_label
_atom_site_fract_x
_atom_site_fract_y
_atom_site_fract_z
Si Si1 0.000000 0.369888 0.250000
Si Si2 0.433322 0.253289 0.943525
Si Si3 0.572184 0.670169 0.671327
Si Si4 0.653142 0.062052 0.276501
Si Si5 0.844225 0.500000 0.000000
Si Si6 0.197612 0.957538 0.617453
O O1 0.995987 0.277002 0.354229
O O2 0.084368 0.453808 0.250678
O O3 0.358057 0.330287 0.887117
O O4 0.465628 0.328255 0.049417
O O5 0.403767 0.120131 0.989498
O O6 0.500000 0.620402 0.750000
O O7 0.605439 0.804946 0.712605
O O8 0.648111 0.570196 0.676719
O O9 0.718368 0.074346 0.181411
O O10 0.704152 0.023777 0.387127
O O11 0.226234 0.000000 0.500000
#
# Coordination Sequence:
#
# PCOD8158705 Si02
#       6
#     4   8   8   8   4   8
#     4  10  20  36  62  88 112 152 200 240 280 348
#     4   9  20  38  59  84 117 151 189 242 286 336
#     4  10  21  39  58  83 120 155 188 240 294 341
#     4  10  20  37  59  86 115 154 194 238 285 344
#     4   8  18  36  58  78 116 148 186 238 284 322
#     4  10  23  39  58  85 122 153 190 240 294 343
#
# _framework density 19.181359
#
# number of rings (size 3 to 8) (size 9 to 14) (size 15 to 20)
#    0.000    2.400    1.000    0.000    7.000    1.600 
#    1.800    2.000    0.000    0.000    0.000    0.000 
#    0.000    0.000    0.000    0.000    0.000    0.000 
#
# Total GULP energy -247802.623326 kJ/mol
# GULP energy per Si atom -12390.131166 kJ/mol
# Density = 1.913770 g / cm^3
# Si number density = 19.181359 Si / 1000 Ang^3
#
#
#
# Elastic Constant Matrix: (Units=GPa)
#
#
# Indices 1 2 3 4 5 6 
#
# 1 75.1092 19.7497 71.2067 0.0000 0.0000 0.0000
# 2 19.7497 51.7756 31.9396 0.0000 0.0000 0.0000
# 3 71.2067 31.9396 138.6439 0.0000 0.0000 0.0000
# 4 0.0000 0.0000 0.0000 23.2609 0.0000 0.0000
# 5 0.0000 0.0000 0.0000 0.0000 41.9262 0.0000
# 6 0.0000 0.0000 0.0000 0.0000 0.0000 8.3860
#
#
#
# Elastic Compliance Matrix: (Units=1/GPa)
#
#
# Indices 1 2 3 4 5 6 
#
# 1 0.026119 -0.001967 -0.012961 0.000000 0.000000 0.000000
# 2 -0.001967 0.022662 -0.004210 0.000000 0.000000 0.000000
# 3 -0.012961 -0.004210 0.014840 0.000000 0.000000 0.000000
# 4 0.000000 0.000000 0.000000 0.042991 0.000000 0.000000
# 5 0.000000 0.000000 0.000000 0.000000 0.023851 0.000000
# 6 0.000000 0.000000 0.000000 0.000000 0.000000 0.119247
#
#
# Mechanical properties :
#
#
# Convention : Reuss Voigt Hill
#
# Bulk Modulus (GPa) = 39.45937 56.81338 48.13638
# Shear Modulus (GPa) = 16.86708 24.22346 20.54527
#
# Velocity S-wave (km/s) = 2.96860 3.55754 3.27633
# Velocity P-wave (km/s) = 5.68915 6.82335 6.28190
#
# Compressibility (1/GPa) = 0.02534252
#
# Stress axis : x y z
#
# Youngs Moduli (GPa) = 38.28585 44.12719 67.38742
#
# Poissons Ratio (x) = 0.08682 0.87344
# Poissons Ratio (y) = 0.07532 0.28371
# Poissons Ratio (z) = 0.49624 0.18578
#
# Static dielectric constant tensor:
#      x y z
#    x 3.008290 0.000000 0.000000 
#    y 0.000000 3.703460 0.000000 
#    z 0.000000 0.000000 4.799770 
# 
# 
# High freq. dielectric constant tensor:
#      x y z
#    x 1.693890 0.000000 0.000000 
#    y 0.000000 1.762880 0.000000 
#    z 0.000000 0.000000 1.770840 
# 
# From -- ./inp_files/13927.got.cif
#   From: 2010.03.12/outbox.cif.g09.slc.cpg/sg20_7_cif.got.tgz:13927.got - 2010.04.14 01:38:04.
