data_PCOD8158794
_publ_section_title
;
Structure prediction by ZEFSAII (Michael W. Deem and Ramdas Pophale) SiO2 
 PCOD8158794
Probable space group: C 2 2 21
;
_chemical_formula_sum "Si O2"
_cell_formula_units_Z 28
_cell_length_a 17.088522
_cell_length_b 7.135535
_cell_length_c 13.303441
_cell_angle_alpha 90.000000
_cell_angle_beta 90.000000
_cell_angle_gamma 90.000000
_cell_volume 1622.165014
_symmetry_space_group_name_H-M "C 2 2 21"
_symmetry_group_IT_number 20
_symmetry_cell_setting 'orthorhombic'
loop_
_space_group_symop_operation_xyz
x,y,z
-x,-y,1/2+z
x,-y,-z
-x,y,1/2-z
1/2+x,1/2+y,z
1/2-x,1/2-y,1/2+z
1/2+x,1/2-y,-z
1/2-x,1/2+y,1/2-z
loop_
_atom_site_type_symbol
_atom_site_label
_atom_site_fract_x
_atom_site_fract_y
_atom_site_fract_z
Si Si1 0.334389 0.285451 0.248334
Si Si2 0.292199 0.934106 0.112197
Si Si3 0.500000 0.407448 0.250000
Si Si4 0.388428 0.419458 0.890107
O O1 0.281476 0.315433 0.346673
O O2 0.426272 0.275868 0.281870
O O3 0.323889 0.465586 0.174972
O O4 0.310797 0.102138 0.187081
O O5 0.368122 0.800053 0.109136
O O6 0.271434 0.000000 0.000000
O O7 0.525637 0.544405 0.341854
O O8 0.388349 0.500000 0.000000
#
# Coordination Sequence:
#
# PCOD8158794 Si02
#       4
#     8   8   4   8
#     4  10  21  37  56  87 117 148 198 240 287 351
#     4  12  21  36  64  87 115 161 193 244 294 342
#     4   8  20  38  54  80 114 152 180 252 276 344
#     4  10  20  38  58  82 120 151 194 240 293 345
#
# _framework density 17.260884000000001
#
# number of rings (size 3 to 8) (size 9 to 14) (size 15 to 20)
#    1.714    0.000    5.714    0.000    0.000    2.286 
#    0.000    0.000    0.000    1.714    0.000    0.000 
#    0.000    0.000    0.000    0.000    0.000    0.000 
#
# Total GULP energy -173433.348626 kJ/mol
# GULP energy per Si atom -12388.096330 kJ/mol
# Density = 1.722160 g / cm^3
# Si number density = 17.260884 Si / 1000 Ang^3
#
#
#
# Elastic Constant Matrix: (Units=GPa)
#
#
# Indices 1 2 3 4 5 6 
#
# 1 108.2091 38.6571 51.9046 0.0000 0.0000 0.0000
# 2 38.6571 100.4253 49.2005 0.0000 0.0000 0.0000
# 3 51.9046 49.2005 109.5091 0.0000 0.0000 0.0000
# 4 0.0000 0.0000 0.0000 27.9985 0.0000 0.0000
# 5 0.0000 0.0000 0.0000 0.0000 24.4289 0.0000
# 6 0.0000 0.0000 0.0000 0.0000 0.0000 11.0146
#
#
#
# Elastic Compliance Matrix: (Units=1/GPa)
#
#
# Indices 1 2 3 4 5 6 
#
# 1 0.012406 -0.002429 -0.004789 0.000000 0.000000 0.000000
# 2 -0.002429 0.013244 -0.004799 0.000000 0.000000 0.000000
# 3 -0.004789 -0.004799 0.013557 0.000000 0.000000 0.000000
# 4 0.000000 0.000000 0.000000 0.035716 0.000000 0.000000
# 5 0.000000 0.000000 0.000000 0.000000 0.040935 0.000000
# 6 0.000000 0.000000 0.000000 0.000000 0.000000 0.090788
#
#
# Mechanical properties :
#
#
# Convention : Reuss Voigt Hill
#
# Bulk Modulus (GPa) = 65.90380 66.40752 66.15566
# Shear Modulus (GPa) = 21.20989 24.58049 22.89519
#
# Velocity S-wave (km/s) = 3.50920 3.77776 3.64596
# Velocity P-wave (km/s) = 7.39481 7.58848 7.49227
#
# Compressibility (1/GPa) = 0.01517363
#
# Stress axis : x y z
#
# Youngs Moduli (GPa) = 80.60415 75.50687 73.76062
#
# Poissons Ratio (x) = 0.18344 0.35322
# Poissons Ratio (y) = 0.19583 0.35395
# Poissons Ratio (z) = 0.38599 0.36233
#
# Static dielectric constant tensor:
#      x y z
#    x 4.677000 0.000000 0.000000 
#    y 0.000000 3.184960 0.000000 
#    z 0.000000 0.000000 3.167340 
# 
# 
# High freq. dielectric constant tensor:
#      x y z
#    x 1.651030 0.000000 0.000000 
#    y 0.000000 1.664720 0.000000 
#    z 0.000000 0.000000 1.667430 
# 
# From -- ./inp_files/11857.got.cif
#   From: 2010.03.12/outbox.cif.g09.slc.cpg/sg20_6_cif.got.tgz:11857.got - 2010.04.14 01:38:04.
