data_PCOD8158088
_publ_section_title
;
Structure prediction by ZEFSAII (Michael W. Deem and Ramdas Pophale) SiO2 
 PCOD8158088
Probable space group: C 2 2 21
;
_chemical_formula_sum "Si O2"
_cell_formula_units_Z 60
_cell_length_a 22.655723
_cell_length_b 5.533866
_cell_length_c 25.987665
_cell_angle_alpha 90.000000
_cell_angle_beta 90.000000
_cell_angle_gamma 90.000000
_cell_volume 3258.170631
_symmetry_space_group_name_H-M "C 2 2 21"
_symmetry_group_IT_number 20
_symmetry_cell_setting 'orthorhombic'
loop_
_space_group_symop_operation_xyz
x,y,z
-x,-y,1/2+z
x,-y,-z
-x,y,1/2-z
1/2+x,1/2+y,z
1/2-x,1/2-y,1/2+z
1/2+x,1/2-y,-z
1/2-x,1/2+y,1/2-z
loop_
_atom_site_type_symbol
_atom_site_label
_atom_site_fract_x
_atom_site_fract_y
_atom_site_fract_z
Si Si1 0.131518 0.362875 0.675552
Si Si2 0.337889 0.242585 0.902718
Si Si3 0.338912 0.829337 0.268524
Si Si4 0.927947 0.121004 0.947979
Si Si5 0.652459 0.000000 0.500000
Si Si6 0.490085 0.707998 0.850032
Si Si7 0.274435 0.480911 0.814969
Si Si8 0.535118 0.786013 0.196313
O O1 0.124215 0.541012 0.627180
O O2 0.129623 0.491700 0.729697
O O3 0.193423 0.227563 0.670542
O O4 0.074651 0.191748 0.675985
O O5 0.384089 0.454010 0.914249
O O6 0.310030 0.153739 0.957935
O O7 0.283622 0.309568 0.864703
O O8 0.302586 0.624575 0.237647
O O9 0.294574 0.971035 0.306636
O O10 0.394670 0.733628 0.300023
O O11 0.889135 0.345980 0.963771
O O12 0.982534 0.205565 0.912326
O O13 0.953277 0.000000 0.000000
O O14 0.518838 0.454089 0.835104
O O15 0.523230 0.956855 0.832917
O O16 0.500000 0.791065 0.250000
#
# Coordination Sequence:
#
# PCOD8158088 Si02
#       8
#     8   8   8   8   4   8   8   8
#     4  11  20  36  55  83 119 160 199 239 305 360
#     4  10  19  33  53  90 118 154 188 251 315 370
#     4  11  24  37  55  86 117 167 213 247 297 368
#     4  10  21  34  59  89 120 150 197 254 317 370
#     4  10  18  32  56  88 124 144 188 252 316 380
#     4  12  23  40  59  86 126 162 199 252 310 364
#     4  11  21  36  59  79 120 158 203 256 304 357
#     4  12  26  38  58  86 126 170 205 245 298 368
#
# _framework density 18.415243
#
# number of rings (size 3 to 8) (size 9 to 14) (size 15 to 20)
#    0.000    1.067    5.333    2.000    3.733    0.000 
#    0.000    0.000    0.000    0.000    1.733    1.867 
#    0.000    0.000    0.000    0.000    0.000    0.000 
#
# Total GULP energy -371679.890483 kJ/mol
# GULP energy per Si atom -12389.329683 kJ/mol
# Density = 1.837333 g / cm^3
# Si number density = 18.415243 Si / 1000 Ang^3
#
#
#
# Elastic Constant Matrix: (Units=GPa)
#
#
# Indices 1 2 3 4 5 6 
#
# 1 104.5575 32.4267 52.2760 0.0000 0.0000 0.0000
# 2 32.4267 100.6162 50.3850 0.0000 0.0000 0.0000
# 3 52.2760 50.3850 118.1984 0.0000 0.0000 0.0000
# 4 0.0000 0.0000 0.0000 33.3774 0.0000 0.0000
# 5 0.0000 0.0000 0.0000 0.0000 18.7176 0.0000
# 6 0.0000 0.0000 0.0000 0.0000 0.0000 -41.4326
#
#
#
# Elastic Compliance Matrix: (Units=1/GPa)
#
#
# Indices 1 2 3 4 5 6 
#
# 1 0.012479 -0.001599 -0.004837 0.000000 0.000000 0.000000
# 2 -0.001599 0.012841 -0.004766 0.000000 0.000000 0.000000
# 3 -0.004837 -0.004766 0.012632 0.000000 0.000000 0.000000
# 4 0.000000 0.000000 0.000000 0.029960 0.000000 0.000000
# 5 0.000000 0.000000 0.000000 0.000000 0.053426 0.000000
# 6 0.000000 0.000000 0.000000 0.000000 0.000000 -0.024136
#
#
# Mechanical properties :
#
#
# Convention : Reuss Voigt Hill
#
# Bulk Modulus (GPa) = 64.32852 65.94970 65.13911
# Shear Modulus (GPa) = 40.06751 14.68479 27.37615
#
# Velocity S-wave (km/s) = 4.66959 2.82694 3.85983
# Velocity P-wave (km/s) = 8.00509 6.82244 7.43731
#
# Compressibility (1/GPa) = 0.01554520
#
# Stress axis : x y z
#
# Youngs Moduli (GPa) = 80.13734 77.87509 79.16685
#
# Poissons Ratio (x) = 0.12455 0.38295
# Poissons Ratio (y) = 0.12816 0.37735
# Poissons Ratio (z) = 0.38764 0.37119
#
# Static dielectric constant tensor:
#      x y z
#    x 3.110540 0.000000 0.000000 
#    y 0.000000 3.657930 0.000000 
#    z 0.000000 0.000000 4.847790 
# 
# 
# High freq. dielectric constant tensor:
#      x y z
#    x 1.669640 0.000000 0.000000 
#    y 0.000000 1.736370 0.000000 
#    z 0.000000 0.000000 1.718710 
# 
# From -- ./inp_files/29540.got.cif
#   From: 2010.03.12/outbox.cif.g09.slc.cpg/sg20_15_cif.got.tgz:29540.got - 2010.04.14 01:38:04.
