data_PCOD8158658
_publ_section_title
;
Structure prediction by ZEFSAII (Michael W. Deem and Ramdas Pophale) SiO2 
 PCOD8158658
Probable space group: C 2 2 21
;
_chemical_formula_sum "Si O2"
_cell_formula_units_Z 56
_cell_length_a 8.258117
_cell_length_b 13.726284
_cell_length_c 23.440052
_cell_angle_alpha 90.000000
_cell_angle_beta 90.000000
_cell_angle_gamma 90.000000
_cell_volume 2657.006291
_symmetry_space_group_name_H-M "C 2 2 21"
_symmetry_group_IT_number 20
_symmetry_cell_setting 'orthorhombic'
loop_
_space_group_symop_operation_xyz
x,y,z
-x,-y,1/2+z
x,-y,-z
-x,y,1/2-z
1/2+x,1/2+y,z
1/2-x,1/2-y,1/2+z
1/2+x,1/2-y,-z
1/2-x,1/2+y,1/2-z
loop_
_atom_site_type_symbol
_atom_site_label
_atom_site_fract_x
_atom_site_fract_y
_atom_site_fract_z
Si Si1 0.451528 0.857616 0.984119
Si Si2 0.281806 0.901914 0.162505
Si Si3 0.185811 0.728019 0.234622
Si Si4 0.555536 0.970668 0.087160
Si Si5 0.800814 0.884858 0.870814
Si Si6 0.317824 0.288254 0.440075
Si Si7 0.608892 0.408001 0.803270
O O1 0.271820 0.845066 0.008892
O O2 0.574223 0.897406 0.033515
O O3 0.446822 0.935736 0.932606
O O4 0.510377 0.752056 0.961733
O O5 0.277229 0.826487 0.215052
O O6 0.160368 0.861705 0.113183
O O7 0.463349 0.912523 0.137507
O O8 0.231506 0.006320 0.184268
O O9 0.195601 0.648144 0.184198
O O10 0.284603 0.688196 0.289491
O O11 0.000000 0.749510 0.250000
O O12 0.729625 0.010418 0.108729
O O13 0.787936 0.805523 0.920894
O O14 0.991256 0.890889 0.857014
O O15 0.500000 0.439407 0.750000
#
# Coordination Sequence:
#
# PCOD8158658 Si02
#       7
#     8   8   8   8   8   8   8
#     4   9  18  33  53  78 108 143 181 223 273 325
#     4  10  20  36  56  80 107 142 185 226 276 331
#     4  10  20  37  57  79 111 147 184 230 278 330
#     4   9  18  35  56  76 106 146 182 221 276 331
#     4   9  19  36  54  79 112 143 182 231 276 326
#     4   9  19  34  52  78 109 141 182 225 272 328
#     4  10  21  37  55  80 110 142 185 232 275 333
#
# _framework density 21.076352
#
# number of rings (size 3 to 8) (size 9 to 14) (size 15 to 20)
#    0.000    2.571    0.000    1.286    0.000    2.286 
#    0.000   27.857    0.000    0.000    0.000    0.000 
#    0.000    0.000    0.000    0.000    0.000    0.000 
#
# Total GULP energy -347113.218699 kJ/mol
# GULP energy per Si atom -12396.900668 kJ/mol
# Density = 2.102838 g / cm^3
# Si number density = 21.076352 Si / 1000 Ang^3
#
#
#
# Elastic Constant Matrix: (Units=GPa)
#
#
# Indices 1 2 3 4 5 6 
#
# 1 63.6583 34.3896 28.0905 0.0000 0.0000 0.0000
# 2 34.3896 87.3561 35.7683 0.0000 0.0000 0.0000
# 3 28.0905 35.7683 50.8582 0.0000 0.0000 0.0000
# 4 0.0000 0.0000 0.0000 33.8528 0.0000 0.0000
# 5 0.0000 0.0000 0.0000 0.0000 30.4885 0.0000
# 6 0.0000 0.0000 0.0000 0.0000 0.0000 30.8917
#
#
#
# Elastic Compliance Matrix: (Units=1/GPa)
#
#
# Indices 1 2 3 4 5 6 
#
# 1 0.022371 -0.005263 -0.008655 0.000000 0.000000 0.000000
# 2 -0.005263 0.017315 -0.009271 0.000000 0.000000 0.000000
# 3 -0.008655 -0.009271 0.030963 0.000000 0.000000 0.000000
# 4 0.000000 0.000000 0.000000 0.029540 0.000000 0.000000
# 5 0.000000 0.000000 0.000000 0.000000 0.032799 0.000000
# 6 0.000000 0.000000 0.000000 0.000000 0.000000 0.032371
#
#
# Mechanical properties :
#
#
# Convention : Reuss Voigt Hill
#
# Bulk Modulus (GPa) = 41.19963 44.26325 42.73144
# Shear Modulus (GPa) = 22.74513 25.95488 24.35001
#
# Velocity S-wave (km/s) = 3.28865 3.51304 3.40269
# Velocity P-wave (km/s) = 5.83185 6.12391 5.97966
#
# Compressibility (1/GPa) = 0.02427206
#
# Stress axis : x y z
#
# Youngs Moduli (GPa) = 44.70033 57.75242 32.29686
#
# Poissons Ratio (x) = 0.30396 0.27952
# Poissons Ratio (y) = 0.23527 0.29942
# Poissons Ratio (z) = 0.38687 0.53541
#
# Static dielectric constant tensor:
#      x y z
#    x 3.424830 0.000000 0.000000 
#    y 0.000000 3.841300 0.000000 
#    z 0.000000 0.000000 3.893410 
# 
# 
# High freq. dielectric constant tensor:
#      x y z
#    x 1.790680 0.000000 0.000000 
#    y 0.000000 1.825310 0.000000 
#    z 0.000000 0.000000 1.825130 
# 
# From -- ./inp_files/26699.got.cif
#   From: 2010.03.12/outbox.cif.g09.slc.cpg/sg20_14_cif.got.tgz:26699.got - 2010.04.14 01:38:04.
