data_PCOD8158314
_publ_section_title
;
Structure prediction by ZEFSAII (Michael W. Deem and Ramdas Pophale) SiO2 
 PCOD8158314
Probable space group: C 2 2 21
;
_chemical_formula_sum "Si O2"
_cell_formula_units_Z 64
_cell_length_a 20.243126
_cell_length_b 26.847557
_cell_length_c 5.426673
_cell_angle_alpha 90.000000
_cell_angle_beta 90.000000
_cell_angle_gamma 90.000000
_cell_volume 2949.279989
_symmetry_space_group_name_H-M "C 2 2 21"
_symmetry_group_IT_number 20
_symmetry_cell_setting 'orthorhombic'
loop_
_space_group_symop_operation_xyz
x,y,z
-x,-y,1/2+z
x,-y,-z
-x,y,1/2-z
1/2+x,1/2+y,z
1/2-x,1/2-y,1/2+z
1/2+x,1/2-y,-z
1/2-x,1/2+y,1/2-z
loop_
_atom_site_type_symbol
_atom_site_label
_atom_site_fract_x
_atom_site_fract_y
_atom_site_fract_z
Si Si1 0.741912 0.023868 0.749694
Si Si2 0.800023 0.801761 0.076452
Si Si3 0.534890 0.792691 0.999226
Si Si4 0.390847 0.515289 0.247071
Si Si5 0.668989 0.200025 0.229186
Si Si6 0.966943 0.174956 0.501378
Si Si7 0.645225 0.624754 0.222942
Si Si8 0.768849 0.371333 0.059965
O O1 0.719409 0.082549 0.747373
O O2 0.711214 0.000000 0.500000
O O3 0.820907 0.015291 0.751995
O O4 0.711159 0.000000 0.000000
O O5 0.843423 0.752002 0.125832
O O6 0.765953 0.823944 0.316741
O O7 0.741816 0.792233 0.880448
O O8 0.852956 0.840336 0.964086
O O9 0.500000 0.813263 0.750000
O O10 0.612370 0.808708 0.978073
O O11 0.530537 0.733870 0.004256
O O12 0.500000 0.814127 0.250000
O O13 0.428009 0.500000 0.500000
O O14 0.390526 0.574018 0.216954
O O15 0.430371 0.500000 0.000000
O O16 0.667851 0.152296 0.416946
O O17 0.891621 0.154993 0.496469
O O18 0.000000 0.153871 0.750000
O O19 0.000000 0.153375 0.250000
O O20 0.718571 0.607712 0.144896
#
# Coordination Sequence:
#
# PCOD8158314 Si02
#       8
#     8   8   8   8   8   8   8   8
#     4  10  19  35  54  82 117 155 209 246 304 388
#     4  11  23  36  57  90 131 166 202 261 334 397
#     4  10  24  42  64  82 119 176 224 264 300 364
#     4  10  19  34  55  85 111 148 208 250 308 394
#     4  11  24  37  57  93 131 169 213 263 330 394
#     4  10  24  40  58  85 113 155 221 283 312 366
#     4  11  23  36  62  84 117 165 211 265 332 384
#     4  11  22  36  58  89 122 168 200 263 326 399
#
# _framework density 21.700212000000001
#
# number of rings (size 3 to 8) (size 9 to 14) (size 15 to 20)
#    0.000    1.500    3.750    2.250   12.250    0.000 
#    0.000    0.000    0.000    1.500    0.000    0.000 
#    0.000    0.000    4.250    0.000    0.000    0.000 
#
# Total GULP energy -396536.825031 kJ/mol
# GULP energy per Si atom -12391.775782 kJ/mol
# Density = 2.165082 g / cm^3
# Si number density = 21.700212 Si / 1000 Ang^3
#
#
#
# Elastic Constant Matrix: (Units=GPa)
#
#
# Indices 1 2 3 4 5 6 
#
# 1 57.4749 17.6215 35.1221 0.0000 0.0000 0.0000
# 2 17.6215 78.4861 35.6718 0.0000 0.0000 0.0000
# 3 35.1221 35.6718 169.0911 0.0000 0.0000 0.0000
# 4 0.0000 0.0000 0.0000 28.8586 0.0000 0.0000
# 5 0.0000 0.0000 0.0000 0.0000 26.2533 0.0000
# 6 0.0000 0.0000 0.0000 0.0000 0.0000 7.5896
#
#
#
# Elastic Compliance Matrix: (Units=1/GPa)
#
#
# Indices 1 2 3 4 5 6 
#
# 1 0.020530 -0.002954 -0.003641 0.000000 0.000000 0.000000
# 2 -0.002954 0.014517 -0.002449 0.000000 0.000000 0.000000
# 3 -0.003641 -0.002449 0.007187 0.000000 0.000000 0.000000
# 4 0.000000 0.000000 0.000000 0.034652 0.000000 0.000000
# 5 0.000000 0.000000 0.000000 0.000000 0.038090 0.000000
# 6 0.000000 0.000000 0.000000 0.000000 0.000000 0.131759
#
#
# Mechanical properties :
#
#
# Convention : Reuss Voigt Hill
#
# Bulk Modulus (GPa) = 41.41598 53.54254 47.47926
# Shear Modulus (GPa) = 18.32356 26.98275 22.65316
#
# Velocity S-wave (km/s) = 2.90900 3.53006 3.23447
# Velocity P-wave (km/s) = 5.51453 6.42981 5.98967
#
# Compressibility (1/GPa) = 0.02414527
#
# Stress axis : x y z
#
# Youngs Moduli (GPa) = 48.71000 68.88243 139.14247
#
# Poissons Ratio (x) = 0.20351 0.50661
# Poissons Ratio (y) = 0.14391 0.34075
# Poissons Ratio (z) = 0.17735 0.16869
#
# Static dielectric constant tensor:
#      x y z
#    x 3.584360 0.000000 0.000000 
#    y 0.000000 3.765520 0.000000 
#    z 0.000000 0.000000 4.585410 
# 
# 
# High freq. dielectric constant tensor:
#      x y z
#    x 1.793420 0.000000 0.000000 
#    y 0.000000 1.831920 0.000000 
#    z 0.000000 0.000000 1.877610 
# 
# From -- ./inp_files/3392.got.cif
#   From: 2010.03.12/outbox.cif.g09.slc.cpg/sg20_2_cif.got.tgz:3392.got - 2010.04.14 01:38:04.
