data_PCOD8158583
_publ_section_title
;
Structure prediction by ZEFSAII (Michael W. Deem and Ramdas Pophale) SiO2 
 PCOD8158583
Probable space group: C 2 2 21
;
_chemical_formula_sum "Si O2"
_cell_formula_units_Z 48
_cell_length_a 29.399091
_cell_length_b 20.372791
_cell_length_c 4.972774
_cell_angle_alpha 90.000000
_cell_angle_beta 90.000000
_cell_angle_gamma 90.000000
_cell_volume 2978.400900
_symmetry_space_group_name_H-M "C 2 2 21"
_symmetry_group_IT_number 20
_symmetry_cell_setting 'orthorhombic'
loop_
_space_group_symop_operation_xyz
x,y,z
-x,-y,1/2+z
x,-y,-z
-x,y,1/2-z
1/2+x,1/2+y,z
1/2-x,1/2-y,1/2+z
1/2+x,1/2-y,-z
1/2-x,1/2+y,1/2-z
loop_
_atom_site_type_symbol
_atom_site_label
_atom_site_fract_x
_atom_site_fract_y
_atom_site_fract_z
Si Si1 0.237371 0.541808 0.761835
Si Si2 0.873687 0.135517 0.440270
Si Si3 0.335156 0.570678 0.928655
Si Si4 0.716403 0.822628 0.445705
Si Si5 0.310632 0.746197 0.547042
Si Si6 0.531430 0.575181 0.001773
O O1 0.251969 0.500000 0.500000
O O2 0.280386 0.570480 0.928681
O O3 0.207820 0.601803 0.640369
O O4 0.211250 0.500000 0.000000
O O5 0.850943 0.081205 0.626485
O O6 0.858232 0.206603 0.558583
O O7 0.927676 0.127206 0.469565
O O8 0.854949 0.124734 0.136659
O O9 0.355712 0.500000 0.000000
O O10 0.695226 0.804704 0.736084
O O11 0.770164 0.807187 0.425963
O O12 0.688881 0.777435 0.244369
O O13 0.500000 0.591681 0.750000
O O14 0.549640 0.500000 0.000000
O O15 0.500000 0.588216 0.250000
#
# Coordination Sequence:
#
# PCOD8158583 Si02
#       6
#     8   8   8   8   8   8
#     4  11  21  32  48  67  93 125 162 203 248 282
#     4  12  21  34  50  70  89 120 169 200 248 299
#     4  11  21  29  45  67  92 116 153 210 247 273
#     4  10  20  34  46  65  96 122 159 197 247 286
#     4  10  21  31  49  65  90 128 155 200 244 286
#     4  10  21  36  51  68  93 124 156 204 263 302
#
# _framework density 16.116029999999999
#
# number of rings (size 3 to 8) (size 9 to 14) (size 15 to 20)
#    0.000    1.333    1.667    6.500    4.667    1.333 
#    0.000    0.000    0.000    0.000    0.000    0.000 
#    0.000    0.000    0.000    0.000    0.000   46.667 
#
# Total GULP energy -297455.639785 kJ/mol
# GULP energy per Si atom -12393.984991 kJ/mol
# Density = 1.607935 g / cm^3
# Si number density = 16.116030 Si / 1000 Ang^3
#
#
#
# Elastic Constant Matrix: (Units=GPa)
#
#
# Indices 1 2 3 4 5 6 
#
# 1 71.9009 38.8014 21.6736 0.0000 0.0000 0.0000
# 2 38.8014 66.8704 16.8747 0.0000 0.0000 0.0000
# 3 21.6736 16.8747 84.2058 0.0000 0.0000 0.0000
# 4 0.0000 0.0000 0.0000 22.9417 0.0000 0.0000
# 5 0.0000 0.0000 0.0000 0.0000 20.5659 0.0000
# 6 0.0000 0.0000 0.0000 0.0000 0.0000 24.6882
#
#
#
# Elastic Compliance Matrix: (Units=1/GPa)
#
#
# Indices 1 2 3 4 5 6 
#
# 1 0.020999 -0.011397 -0.003121 0.000000 0.000000 0.000000
# 2 -0.011397 0.021937 -0.001463 0.000000 0.000000 0.000000
# 3 -0.003121 -0.001463 0.012972 0.000000 0.000000 0.000000
# 4 0.000000 0.000000 0.000000 0.043589 0.000000 0.000000
# 5 0.000000 0.000000 0.000000 0.000000 0.048624 0.000000
# 6 0.000000 0.000000 0.000000 0.000000 0.000000 0.040505
#
#
# Mechanical properties :
#
#
# Convention : Reuss Voigt Hill
#
# Bulk Modulus (GPa) = 41.75985 41.96406 41.86195
# Shear Modulus (GPa) = 21.87514 23.34765 22.61139
#
# Velocity S-wave (km/s) = 3.68822 3.81034 3.74978
# Velocity P-wave (km/s) = 6.64120 6.74192 6.69175
#
# Compressibility (1/GPa) = 0.02394645
#
# Stress axis : x y z
#
# Youngs Moduli (GPa) = 47.62043 45.58588 77.08869
#
# Poissons Ratio (x) = 0.51955 0.24060
# Poissons Ratio (y) = 0.54274 0.11274
# Poissons Ratio (z) = 0.14862 0.06667
#
# Static dielectric constant tensor:
#      x y z
#    x 2.655000 0.000000 0.000000 
#    y 0.000000 3.006510 0.000000 
#    z 0.000000 0.000000 3.310350 
# 
# 
# High freq. dielectric constant tensor:
#      x y z
#    x 1.556050 0.000000 0.000000 
#    y 0.000000 1.600660 0.000000 
#    z 0.000000 0.000000 1.652300 
# 
# From -- ./inp_files/4254.got.cif
#   From: 2010.03.12/outbox.cif.g09.slc.cpg/sg20_3_cif.got.tgz:4254.got - 2010.04.14 01:38:04.
