data_PCOD8158674
_publ_section_title
;
Structure prediction by ZEFSAII (Michael W. Deem and Ramdas Pophale) SiO2 
 PCOD8158674
Probable space group: C 2 2 21
;
_chemical_formula_sum "Si O2"
_cell_formula_units_Z 44
_cell_length_a 14.453475
_cell_length_b 11.076115
_cell_length_c 14.335011
_cell_angle_alpha 90.000000
_cell_angle_beta 90.000000
_cell_angle_gamma 90.000000
_cell_volume 2294.868276
_symmetry_space_group_name_H-M "C 2 2 21"
_symmetry_group_IT_number 20
_symmetry_cell_setting 'orthorhombic'
loop_
_space_group_symop_operation_xyz
x,y,z
-x,-y,1/2+z
x,-y,-z
-x,y,1/2-z
1/2+x,1/2+y,z
1/2-x,1/2-y,1/2+z
1/2+x,1/2-y,-z
1/2-x,1/2+y,1/2-z
loop_
_atom_site_type_symbol
_atom_site_label
_atom_site_fract_x
_atom_site_fract_y
_atom_site_fract_z
Si Si1 0.088456 0.504976 0.899396
Si Si2 0.000000 0.655429 0.750000
Si Si3 0.893567 0.878875 0.243647
Si Si4 0.245682 0.299615 0.097799
Si Si5 0.848163 0.849874 0.747343
Si Si6 0.202097 0.282942 0.886076
O O1 0.011791 0.564136 0.835155
O O2 0.183030 0.581632 0.895050
O O3 0.110976 0.365918 0.878939
O O4 0.041772 0.500000 0.000000
O O5 0.085448 0.739597 0.726350
O O6 0.845344 0.834006 0.145825
O O7 0.829063 0.837342 0.330893
O O8 0.000000 0.831316 0.250000
O O9 0.899689 0.022888 0.256687
O O10 0.202474 0.183899 0.150513
O O11 0.245629 0.259308 0.988938
O O12 0.778310 0.858901 0.831987
#
# Coordination Sequence:
#
# PCOD8158674 Si02
#       6
#     8   4   8   8   8   8
#     4   9  18  36  61  80 110 155 200 232 286 357
#     4  10  20  36  58  84 116 150 194 250 292 342
#     4  11  22  38  61  94 119 148 199 259 291 343
#     4   9  20  40  60  80 114 166 193 229 300 366
#     4  10  20  38  60  83 121 157 193 238 307 354
#     4  10  21  39  60  81 118 161 196 234 298 362
#
# _framework density 19.173214999999999
#
# number of rings (size 3 to 8) (size 9 to 14) (size 15 to 20)
#    0.000    2.182    2.727    0.000    1.273    0.727 
#    9.818    1.818    0.000    0.000    0.000    0.000 
#    0.000    0.000    0.000    0.000    0.000    0.000 
#
# Total GULP energy -272544.601896 kJ/mol
# GULP energy per Si atom -12388.390995 kJ/mol
# Density = 1.912958 g / cm^3
# Si number density = 19.173215 Si / 1000 Ang^3
#
#
#
# Elastic Constant Matrix: (Units=GPa)
#
#
# Indices 1 2 3 4 5 6 
#
# 1 55.4262 30.4860 47.8116 0.0000 0.0000 0.0000
# 2 30.4860 69.7014 51.4448 0.0000 0.0000 0.0000
# 3 47.8116 51.4448 157.5885 0.0000 0.0000 0.0000
# 4 0.0000 0.0000 0.0000 22.6282 0.0000 0.0000
# 5 0.0000 0.0000 0.0000 0.0000 25.9694 0.0000
# 6 0.0000 0.0000 0.0000 0.0000 0.0000 16.3618
#
#
#
# Elastic Compliance Matrix: (Units=1/GPa)
#
#
# Indices 1 2 3 4 5 6 
#
# 1 0.027221 -0.007655 -0.005760 0.000000 0.000000 0.000000
# 2 -0.007655 0.021054 -0.004551 0.000000 0.000000 0.000000
# 3 -0.005760 -0.004551 0.009579 0.000000 0.000000 0.000000
# 4 0.000000 0.000000 0.000000 0.044193 0.000000 0.000000
# 5 0.000000 0.000000 0.000000 0.000000 0.038507 0.000000
# 6 0.000000 0.000000 0.000000 0.000000 0.000000 0.061118
#
#
# Mechanical properties :
#
#
# Convention : Reuss Voigt Hill
#
# Bulk Modulus (GPa) = 45.61426 60.24456 52.92941
# Shear Modulus (GPa) = 20.41582 23.19013 21.80297
#
# Velocity S-wave (km/s) = 3.26668 3.48157 3.37584
# Velocity P-wave (km/s) = 6.17013 6.90298 6.54682
#
# Compressibility (1/GPa) = 0.02192297
#
# Stress axis : x y z
#
# Youngs Moduli (GPa) = 36.73659 47.49791 104.39879
#
# Poissons Ratio (x) = 0.36358 0.60132
# Poissons Ratio (y) = 0.28121 0.47507
# Poissons Ratio (z) = 0.21160 0.21614
#
# Static dielectric constant tensor:
#      x y z
#    x 3.405460 0.000000 0.000000 
#    y 0.000000 3.422110 0.000000 
#    z 0.000000 0.000000 4.142690 
# 
# 
# High freq. dielectric constant tensor:
#      x y z
#    x 1.731920 0.000000 0.000000 
#    y 0.000000 1.748830 0.000000 
#    z 0.000000 0.000000 1.745950 
# 
# From -- ./inp_files/19844.got.cif
#   From: 2010.03.12/outbox.cif.g09.slc.cpg/sg20_10_cif.got.tgz:19844.got - 2010.04.14 01:38:04.
