data_PCOD8158648
_publ_section_title
;
Structure prediction by ZEFSAII (Michael W. Deem and Ramdas Pophale) SiO2 
 PCOD8158648
Probable space group: C 2 2 21
;
_chemical_formula_sum "Si O2"
_cell_formula_units_Z 48
_cell_length_a 28.022075
_cell_length_b 9.216605
_cell_length_c 9.175215
_cell_angle_alpha 90.000000
_cell_angle_beta 90.000000
_cell_angle_gamma 90.000000
_cell_volume 2369.668066
_symmetry_space_group_name_H-M "C 2 2 21"
_symmetry_group_IT_number 20
_symmetry_cell_setting 'orthorhombic'
loop_
_space_group_symop_operation_xyz
x,y,z
-x,-y,1/2+z
x,-y,-z
-x,y,1/2-z
1/2+x,1/2+y,z
1/2-x,1/2-y,1/2+z
1/2+x,1/2-y,-z
1/2-x,1/2+y,1/2-z
loop_
_atom_site_type_symbol
_atom_site_label
_atom_site_fract_x
_atom_site_fract_y
_atom_site_fract_z
Si Si1 0.891546 0.138773 0.601324
Si Si2 0.785053 0.205580 0.588294
Si Si3 0.521420 0.858241 0.910518
Si Si4 0.631554 0.441167 0.651577
Si Si5 0.227957 0.100126 0.216701
Si Si6 0.469974 0.639420 0.101423
O O1 0.841428 0.211519 0.556492
O O2 0.932429 0.257057 0.596440
O O3 0.903506 0.000000 0.500000
O O4 0.887262 0.083980 0.765646
O O5 0.759664 0.183153 0.432791
O O6 0.766592 0.353473 0.662102
O O7 0.770427 0.072937 0.694858
O O8 0.500000 0.892422 0.750000
O O9 0.482069 0.781261 0.009704
O O10 0.536747 0.000000 0.000000
O O11 0.651894 0.500000 0.500000
O O12 0.674218 0.357135 0.732946
O O13 0.585844 0.336621 0.637817
O O14 0.500000 0.623070 0.250000
O O15 0.478987 0.500000 0.000000
#
# Coordination Sequence:
#
# PCOD8158648 Si02
#       6
#     8   8   8   8   8   8
#     4  11  21  43  68  90 125 164 216 261 305 373
#     4  10  22  42  63  94 122 167 205 264 311 373
#     4  12  26  44  62  92 133 170 207 264 326 384
#     4  10  20  35  62  95 120 160 209 260 301 360
#     4  10  22  40  62  91 130 159 210 259 314 370
#     4  11  21  37  66  97 124 166 217 261 312 372
#
# _framework density 20.256001000000001
#
# number of rings (size 3 to 8) (size 9 to 14) (size 15 to 20)
#    0.000    1.333    3.333    5.500    4.667    0.000 
#    3.000    0.000    0.000    0.000    0.000    0.000 
#    0.000    0.000    0.000    0.000    0.000    0.000 
#
# Total GULP energy -297557.625911 kJ/mol
# GULP energy per Si atom -12398.234413 kJ/mol
# Density = 2.020990 g / cm^3
# Si number density = 20.256001 Si / 1000 Ang^3
#
#
#
# Elastic Constant Matrix: (Units=GPa)
#
#
# Indices 1 2 3 4 5 6 
#
# 1 87.5151 44.1213 36.8840 0.0000 0.0000 0.0000
# 2 44.1213 80.1557 43.1480 0.0000 0.0000 0.0000
# 3 36.8840 43.1480 128.1146 0.0000 0.0000 0.0000
# 4 0.0000 0.0000 0.0000 35.2683 0.0000 0.0000
# 5 0.0000 0.0000 0.0000 0.0000 34.0440 0.0000
# 6 0.0000 0.0000 0.0000 0.0000 0.0000 26.4942
#
#
#
# Elastic Compliance Matrix: (Units=1/GPa)
#
#
# Indices 1 2 3 4 5 6 
#
# 1 0.016238 -0.007844 -0.002033 0.000000 0.000000 0.000000
# 2 -0.007844 0.019027 -0.004150 0.000000 0.000000 0.000000
# 3 -0.002033 -0.004150 0.009789 0.000000 0.000000 0.000000
# 4 0.000000 0.000000 0.000000 0.028354 0.000000 0.000000
# 5 0.000000 0.000000 0.000000 0.000000 0.029374 0.000000
# 6 0.000000 0.000000 0.000000 0.000000 0.000000 0.037744
#
#
# Mechanical properties :
#
#
# Convention : Reuss Voigt Hill
#
# Bulk Modulus (GPa) = 58.82370 60.45469 59.63919
# Shear Modulus (GPa) = 28.69506 30.60342 29.64924
#
# Velocity S-wave (km/s) = 3.76788 3.89116 3.83002
# Velocity P-wave (km/s) = 6.93054 7.07801 7.00467
#
# Compressibility (1/GPa) = 0.01699995
#
# Stress axis : x y z
#
# Youngs Moduli (GPa) = 61.58422 52.55644 102.15995
#
# Poissons Ratio (x) = 0.41223 0.20771
# Poissons Ratio (y) = 0.48304 0.42397
# Poissons Ratio (z) = 0.12521 0.21811
#
# Static dielectric constant tensor:
#      x y z
#    x 3.707590 0.000000 0.000000 
#    y 0.000000 3.409080 0.000000 
#    z 0.000000 0.000000 4.035320 
# 
# 
# High freq. dielectric constant tensor:
#      x y z
#    x 1.792710 0.000000 0.000000 
#    y 0.000000 1.756580 0.000000 
#    z 0.000000 0.000000 1.818680 
# 
# From -- ./inp_files/6502.got.cif
#   From: 2010.03.12/outbox.cif.g09.slc.cpg/sg20_4_cif.got.tgz:6502.got - 2010.04.14 01:38:04.
