data_PCOD8158832
_publ_section_title
;
Structure prediction by ZEFSAII (Michael W. Deem and Ramdas Pophale) SiO2 
 PCOD8158832
Probable space group: C 2 2 21
;
_chemical_formula_sum "Si O2"
_cell_formula_units_Z 40
_cell_length_a 8.452229
_cell_length_b 11.135748
_cell_length_c 18.488213
_cell_angle_alpha 90.000000
_cell_angle_beta 90.000000
_cell_angle_gamma 90.000000
_cell_volume 1740.145591
_symmetry_space_group_name_H-M "C 2 2 21"
_symmetry_group_IT_number 20
_symmetry_cell_setting 'orthorhombic'
loop_
_space_group_symop_operation_xyz
x,y,z
-x,-y,1/2+z
x,-y,-z
-x,y,1/2-z
1/2+x,1/2+y,z
1/2-x,1/2-y,1/2+z
1/2+x,1/2-y,-z
1/2-x,1/2+y,1/2-z
loop_
_atom_site_type_symbol
_atom_site_label
_atom_site_fract_x
_atom_site_fract_y
_atom_site_fract_z
Si Si1 0.156991 0.622376 0.563015
Si Si2 0.534898 0.740883 0.956905
Si Si3 0.925603 0.298647 0.323757
Si Si4 0.082276 0.926833 0.917053
Si Si5 0.410161 0.617388 0.825274
O O1 0.274480 0.738957 0.556013
O O2 0.256433 0.498998 0.564028
O O3 0.030001 0.638584 0.496522
O O4 0.062374 0.624771 0.637595
O O5 0.451831 0.727207 0.879191
O O6 0.505192 0.620257 0.007220
O O7 0.864548 0.190496 0.373245
O O8 0.776422 0.385427 0.308910
O O9 0.000000 0.248687 0.250000
O O10 0.959236 0.996124 0.866421
O O11 0.500000 0.633305 0.750000
#
# Coordination Sequence:
#
# PCOD8158832 Si02
#       5
#     8   8   8   8   8
#     4  10  20  38  63  89 122 159 204 255 308 368
#     4  10  20  38  63  91 120 159 207 257 309 367
#     4  11  23  40  62  92 128 166 209 256 310 375
#     4  10  22  42  65  89 123 164 207 261 315 364
#     4  11  22  40  64  89 125 166 205 255 314 370
#
# _framework density 22.986581999999999
#
# number of rings (size 3 to 8) (size 9 to 14) (size 15 to 20)
#    0.000    1.600    0.000    7.800    0.000    0.000 
#    0.000   25.000    0.000    2.400    0.000    0.000 
#    0.000    0.000    0.000    0.000    0.000    0.000 
#
# Total GULP energy -247808.991490 kJ/mol
# GULP energy per Si atom -12390.449575 kJ/mol
# Density = 2.293426 g / cm^3
# Si number density = 22.986582 Si / 1000 Ang^3
#
#
#
# Elastic Constant Matrix: (Units=GPa)
#
#
# Indices 1 2 3 4 5 6 
#
# 1 146.4339 33.5318 55.2903 0.0000 0.0000 0.0000
# 2 33.5318 77.1829 28.4944 0.0000 0.0000 0.0000
# 3 55.2903 28.4944 173.1625 0.0000 0.0000 0.0000
# 4 0.0000 0.0000 0.0000 25.7309 0.0000 0.0000
# 5 0.0000 0.0000 0.0000 0.0000 49.7418 0.0000
# 6 0.0000 0.0000 0.0000 0.0000 0.0000 36.9322
#
#
#
# Elastic Compliance Matrix: (Units=1/GPa)
#
#
# Indices 1 2 3 4 5 6 
#
# 1 0.008296 -0.002796 -0.002189 0.000000 0.000000 0.000000
# 2 -0.002796 0.014737 -0.001532 0.000000 0.000000 0.000000
# 3 -0.002189 -0.001532 0.006726 0.000000 0.000000 0.000000
# 4 0.000000 0.000000 0.000000 0.038864 0.000000 0.000000
# 5 0.000000 0.000000 0.000000 0.000000 0.020104 0.000000
# 6 0.000000 0.000000 0.000000 0.000000 0.000000 0.027077
#
#
# Mechanical properties :
#
#
# Convention : Reuss Voigt Hill
#
# Bulk Modulus (GPa) = 59.79291 70.15694 64.97492
# Shear Modulus (GPa) = 37.19930 41.11180 39.15555
#
# Velocity S-wave (km/s) = 4.02718 4.23367 4.13172
# Velocity P-wave (km/s) = 6.90600 7.38144 7.14767
#
# Compressibility (1/GPa) = 0.01672439
#
# Stress axis : x y z
#
# Youngs Moduli (GPa) = 120.54465 67.85820 148.67908
#
# Poissons Ratio (x) = 0.18973 0.32541
# Poissons Ratio (y) = 0.33704 0.22781
# Poissons Ratio (z) = 0.26384 0.10397
#
# Static dielectric constant tensor:
#      x y z
#    x 4.292780 0.000000 0.000000 
#    y 0.000000 3.798920 0.000000 
#    z 0.000000 0.000000 4.506000 
# 
# 
# High freq. dielectric constant tensor:
#      x y z
#    x 1.912290 0.000000 0.000000 
#    y 0.000000 1.876880 0.000000 
#    z 0.000000 0.000000 1.929690 
# 
# From -- ./inp_files/26508.got.cif
#   From: 2010.03.12/outbox.cif.g09.slc.cpg/sg20_14_cif.got.tgz:26508.got - 2010.04.14 01:38:04.
