data_PCOD8158521
_publ_section_title
;
Structure prediction by ZEFSAII (Michael W. Deem and Ramdas Pophale) SiO2 
 PCOD8158521
Probable space group: C 2 2 21
;
_chemical_formula_sum "Si O2"
_cell_formula_units_Z 60
_cell_length_a 17.374330
_cell_length_b 20.048997
_cell_length_c 8.291087
_cell_angle_alpha 90.000000
_cell_angle_beta 90.000000
_cell_angle_gamma 90.000000
_cell_volume 2888.099752
_symmetry_space_group_name_H-M "C 2 2 21"
_symmetry_group_IT_number 20
_symmetry_cell_setting 'orthorhombic'
loop_
_space_group_symop_operation_xyz
x,y,z
-x,-y,1/2+z
x,-y,-z
-x,y,1/2-z
1/2+x,1/2+y,z
1/2-x,1/2-y,1/2+z
1/2+x,1/2-y,-z
1/2-x,1/2+y,1/2-z
loop_
_atom_site_type_symbol
_atom_site_label
_atom_site_fract_x
_atom_site_fract_y
_atom_site_fract_z
Si Si1 0.057669 0.380502 0.391281
Si Si2 0.185991 0.719116 0.732483
Si Si3 0.663816 0.000000 0.500000
Si Si4 0.548460 0.206672 0.104397
Si Si5 0.761821 0.965574 0.827372
Si Si6 0.429252 0.314062 0.646393
Si Si7 0.078865 0.031162 0.170932
Si Si8 0.716067 0.821539 0.923668
O O1 0.118854 0.324052 0.345150
O O2 0.107077 0.438974 0.468998
O O3 0.000000 0.405397 0.250000
O O4 0.999742 0.350678 0.519540
O O5 0.151042 0.790893 0.779209
O O6 0.252605 0.746382 0.615978
O O7 0.218512 0.675790 0.881375
O O8 0.713348 0.011808 0.333628
O O9 0.500000 0.232959 0.250000
O O10 0.630040 0.173217 0.146791
O O11 0.563483 0.276601 0.020759
O O12 0.850907 0.983641 0.792809
O O13 0.758853 0.885804 0.851293
O O14 0.736426 0.000000 0.000000
O O15 0.500000 0.286772 0.750000
O O16 0.431452 0.392155 0.627185
O O17 0.000000 0.003046 0.250000
O O18 0.097633 0.000000 0.000000
#
# Coordination Sequence:
#
# PCOD8158521 Si02
#       8
#     8   8   4   8   8   8   8   8
#     4  12  24  49  72 101 145 187 237 298 369 432
#     4  11  22  42  69 100 136 177 232 292 360 416
#     4  12  30  44  80 104 148 204 238 302 366 456
#     4  11  23  40  66 103 138 175 235 293 342 426
#     4  12  26  49  70 105 148 190 244 299 363 433
#     4  10  19  40  68  92 131 180 220 284 356 401
#     4  11  24  45  71 100 142 189 242 297 362 442
#     4  11  25  41  69 102 136 182 232 295 350 421
#
# _framework density 20.774906999999999
#
# number of rings (size 3 to 8) (size 9 to 14) (size 15 to 20)
#    0.000    0.800    6.000    2.000    3.733    2.133 
#    4.800    0.000    0.000    0.000    0.000    0.000 
#    0.000    0.000    0.000    0.000    0.000    0.000 
#
# Total GULP energy -371652.407832 kJ/mol
# GULP energy per Si atom -12388.413594 kJ/mol
# Density = 2.072762 g / cm^3
# Si number density = 20.774907 Si / 1000 Ang^3
#
#
#
# Elastic Constant Matrix: (Units=GPa)
#
#
# Indices 1 2 3 4 5 6 
#
# 1 130.1244 34.9660 55.7851 0.0000 0.0000 0.0000
# 2 34.9660 74.0390 33.0406 0.0000 0.0000 0.0000
# 3 55.7851 33.0406 80.4809 0.0000 0.0000 0.0000
# 4 0.0000 0.0000 0.0000 44.0789 0.0000 0.0000
# 5 0.0000 0.0000 0.0000 0.0000 42.3539 0.0000
# 6 0.0000 0.0000 0.0000 0.0000 0.0000 -185.2134
#
#
#
# Elastic Compliance Matrix: (Units=1/GPa)
#
#
# Indices 1 2 3 4 5 6 
#
# 1 0.011230 -0.002240 -0.006864 0.000000 0.000000 0.000000
# 2 -0.002240 0.016983 -0.005419 0.000000 0.000000 0.000000
# 3 -0.006864 -0.005419 0.019408 0.000000 0.000000 0.000000
# 4 0.000000 0.000000 0.000000 0.022687 0.000000 0.000000
# 5 0.000000 0.000000 0.000000 0.000000 0.023611 0.000000
# 6 0.000000 0.000000 0.000000 0.000000 0.000000 -0.005399
#
#
# Mechanical properties :
#
#
# Convention : Reuss Voigt Hill
#
# Bulk Modulus (GPa) = 53.84111 59.13642 56.48877
# Shear Modulus (GPa) = 40.40190 -9.03262 15.68464
#
# Velocity S-wave (km/s) = 4.41471 -2.08741 2.75067
# Velocity P-wave (km/s) = 7.20825 4.76628 6.11049
#
# Compressibility (1/GPa) = 0.01857317
#
# Stress axis : x y z
#
# Youngs Moduli (GPa) = 89.05040 58.88315 51.52524
#
# Poissons Ratio (x) = 0.13191 0.35367
# Poissons Ratio (y) = 0.19949 0.27923
# Poissons Ratio (z) = 0.61125 0.31911
#
# Static dielectric constant tensor:
#      x y z
#    x 4.025680 0.000000 0.000000 
#    y 0.000000 4.173750 0.000000 
#    z 0.000000 0.000000 3.946850 
# 
# 
# High freq. dielectric constant tensor:
#      x y z
#    x 1.832620 0.000000 0.000000 
#    y 0.000000 1.810940 0.000000 
#    z 0.000000 0.000000 1.815370 
# 
# From -- ./inp_files/9604.got.cif
#   From: 2010.03.12/outbox.cif.g09.slc.cpg/sg20_5_cif.got.tgz:9604.got - 2010.04.14 01:38:04.
