data_PCOD8158354
_publ_section_title
;
Structure prediction by ZEFSAII (Michael W. Deem and Ramdas Pophale) SiO2 
 PCOD8158354
Probable space group: C 2 2 21
;
_chemical_formula_sum "Si O2"
_cell_formula_units_Z 64
_cell_length_a 19.688221
_cell_length_b 18.389939
_cell_length_c 9.411414
_cell_angle_alpha 90.000000
_cell_angle_beta 90.000000
_cell_angle_gamma 90.000000
_cell_volume 3407.545334
_symmetry_space_group_name_H-M "C 2 2 21"
_symmetry_group_IT_number 20
_symmetry_cell_setting 'orthorhombic'
loop_
_space_group_symop_operation_xyz
x,y,z
-x,-y,1/2+z
x,-y,-z
-x,y,1/2-z
1/2+x,1/2+y,z
1/2-x,1/2-y,1/2+z
1/2+x,1/2-y,-z
1/2-x,1/2+y,1/2-z
loop_
_atom_site_type_symbol
_atom_site_label
_atom_site_fract_x
_atom_site_fract_y
_atom_site_fract_z
Si Si1 0.959758 0.432015 0.604650
Si Si2 0.816391 0.076779 0.971922
Si Si3 0.012217 0.302056 0.088658
Si Si4 0.879256 0.221344 0.053798
Si Si5 0.658344 0.232693 0.855253
Si Si6 0.807702 0.569327 0.312325
Si Si7 0.723246 0.170434 0.446524
Si Si8 0.279660 0.090581 0.761323
O O1 0.961453 0.500000 0.500000
O O2 0.998126 0.367133 0.522387
O O3 0.882332 0.408017 0.635008
O O4 0.000000 0.449040 0.750000
O O5 0.795533 0.085234 0.806814
O O6 0.870104 0.138834 0.005641
O O7 0.745426 0.075697 0.059303
O O8 0.854109 0.000000 0.000000
O O9 0.085675 0.265560 0.068265
O O10 0.000000 0.331068 0.250000
O O11 0.958796 0.238439 0.055547
O O12 0.843954 0.226085 0.206239
O O13 0.843224 0.279020 0.950134
O O14 0.712361 0.275022 0.952520
O O15 0.676864 0.148567 0.828919
O O16 0.779736 0.624266 0.195403
O O17 0.815236 0.488073 0.248413
O O18 0.727429 0.114432 0.576350
#
# Coordination Sequence:
#
# PCOD8158354 Si02
#       8
#     8   8   8   8   8   8   8   8
#     4  12  25  39  59  85 123 168 201 238 291 365
#     4  10  19  35  59  83 113 147 193 243 302 356
#     4  10  22  40  59  83 119 157 204 246 298 356
#     4  10  20  36  57  87 112 152 197 246 296 356
#     4  10  19  35  58  85 114 158 191 244 298 361
#     4  11  22  38  59  86 118 156 198 243 296 359
#     4  11  21  34  60  86 119 151 199 248 302 347
#     4  10  21  35  56  88 119 153 191 250 295 351
#
# _framework density 18.781846999999999
#
# number of rings (size 3 to 8) (size 9 to 14) (size 15 to 20)
#    0.000    1.500    2.500    4.125    0.000    3.000 
#    2.250    0.000    0.000    1.500    0.000    0.000 
#    0.000    0.000    0.000    0.000    0.000    0.000 
#
# Total GULP energy -396810.624018 kJ/mol
# GULP energy per Si atom -12400.332001 kJ/mol
# Density = 1.873910 g / cm^3
# Si number density = 18.781847 Si / 1000 Ang^3
#
#
#
# Elastic Constant Matrix: (Units=GPa)
#
#
# Indices 1 2 3 4 5 6 
#
# 1 88.9846 36.5222 26.6420 0.0000 0.0000 0.0000
# 2 36.5222 104.2406 39.7326 0.0000 0.0000 0.0000
# 3 26.6420 39.7326 73.5580 0.0000 0.0000 0.0000
# 4 0.0000 0.0000 0.0000 30.0660 0.0000 0.0000
# 5 0.0000 0.0000 0.0000 0.0000 21.8411 0.0000
# 6 0.0000 0.0000 0.0000 0.0000 0.0000 23.6956
#
#
#
# Elastic Compliance Matrix: (Units=1/GPa)
#
#
# Indices 1 2 3 4 5 6 
#
# 1 0.013621 -0.003642 -0.002966 0.000000 0.000000 0.000000
# 2 -0.003642 0.013054 -0.005732 0.000000 0.000000 0.000000
# 3 -0.002966 -0.005732 0.017765 0.000000 0.000000 0.000000
# 4 0.000000 0.000000 0.000000 0.033260 0.000000 0.000000
# 5 0.000000 0.000000 0.000000 0.000000 0.045785 0.000000
# 6 0.000000 0.000000 0.000000 0.000000 0.000000 0.042202
#
#
# Mechanical properties :
#
#
# Convention : Reuss Voigt Hill
#
# Bulk Modulus (GPa) = 50.60763 52.50855 51.55809
# Shear Modulus (GPa) = 25.38664 26.04629 25.71647
#
# Velocity S-wave (km/s) = 3.68048 3.72799 3.70431
# Velocity P-wave (km/s) = 6.71302 6.82263 6.76805
#
# Compressibility (1/GPa) = 0.01975987
#
# Stress axis : x y z
#
# Youngs Moduli (GPa) = 73.41811 76.60506 56.28940
#
# Poissons Ratio (x) = 0.27896 0.16697
# Poissons Ratio (y) = 0.26736 0.32266
# Poissons Ratio (z) = 0.21778 0.43912
#
# Static dielectric constant tensor:
#      x y z
#    x 3.257910 0.000000 0.000000 
#    y 0.000000 3.501840 0.000000 
#    z 0.000000 0.000000 3.512150 
# 
# 
# High freq. dielectric constant tensor:
#      x y z
#    x 1.710010 0.000000 0.000000 
#    y 0.000000 1.732550 0.000000 
#    z 0.000000 0.000000 1.733620 
# 
# From -- ./inp_files/10346.got.cif
#   From: 2010.03.12/outbox.cif.g09.slc.cpg/sg20_6_cif.got.tgz:10346.got - 2010.04.14 01:38:04.
