data_PCOD8158647
_publ_section_title
;
Structure prediction by ZEFSAII (Michael W. Deem and Ramdas Pophale) SiO2 
 PCOD8158647
Probable space group: C 2 2 21
;
_chemical_formula_sum "Si O2"
_cell_formula_units_Z 40
_cell_length_a 9.600223
_cell_length_b 11.949837
_cell_length_c 16.854960
_cell_angle_alpha 90.000000
_cell_angle_beta 90.000000
_cell_angle_gamma 90.000000
_cell_volume 1933.619552
_symmetry_space_group_name_H-M "C 2 2 21"
_symmetry_group_IT_number 20
_symmetry_cell_setting 'orthorhombic'
loop_
_space_group_symop_operation_xyz
x,y,z
-x,-y,1/2+z
x,-y,-z
-x,y,1/2-z
1/2+x,1/2+y,z
1/2-x,1/2-y,1/2+z
1/2+x,1/2-y,-z
1/2-x,1/2+y,1/2-z
loop_
_atom_site_type_symbol
_atom_site_label
_atom_site_fract_x
_atom_site_fract_y
_atom_site_fract_z
Si Si1 0.982578 0.611671 0.661638
Si Si2 0.823339 0.300504 0.034292
Si Si3 0.911923 0.946347 0.416554
Si Si4 0.666892 0.910178 0.622053
Si Si5 0.682707 0.336505 0.387992
O O1 0.820986 0.600411 0.639219
O O2 0.000000 0.659997 0.750000
O O3 0.058232 0.699209 0.602166
O O4 0.046960 0.486806 0.659499
O O5 0.672664 0.329397 0.071614
O O6 0.859454 0.401476 0.972900
O O7 0.816691 0.184668 0.984477
O O8 0.051586 0.915469 0.367780
O O9 0.955411 0.000000 0.500000
O O10 0.817580 0.030935 0.364363
O O11 0.670159 0.783897 0.657851
#
# Coordination Sequence:
#
# PCOD8158647 Si02
#       5
#     8   8   8   8   8
#     4  11  21  38  60  88 121 151 193 259 304 340
#     4   8  18  37  60  76 116 153 189 238 291 344
#     4   9  16  33  54  86 106 138 191 243 267 330
#     4   8  20  38  58  76 118 152 190 238 295 347
#     4  10  20  35  61  82 110 155 201 228 292 365
#
# _framework density 20.686592000000001
#
# number of rings (size 3 to 8) (size 9 to 14) (size 15 to 20)
#    1.200    1.600    0.000    3.000    0.000    1.600 
#    0.000   10.000    0.000    0.000    0.000    0.000 
#    0.000    0.000    0.000    0.000    0.000    0.000 
#
# Total GULP energy -247767.024601 kJ/mol
# GULP energy per Si atom -12388.351230 kJ/mol
# Density = 2.063951 g / cm^3
# Si number density = 20.686592 Si / 1000 Ang^3
#
#
#
# Elastic Constant Matrix: (Units=GPa)
#
#
# Indices 1 2 3 4 5 6 
#
# 1 144.9764 60.4523 33.9518 0.0000 0.0000 0.0000
# 2 60.4523 78.6100 5.6025 0.0000 0.0000 0.0000
# 3 33.9518 5.6025 67.1846 0.0000 0.0000 0.0000
# 4 0.0000 0.0000 0.0000 7.3153 0.0000 0.0000
# 5 0.0000 0.0000 0.0000 0.0000 16.0877 0.0000
# 6 0.0000 0.0000 0.0000 0.0000 0.0000 26.6292
#
#
#
# Elastic Compliance Matrix: (Units=1/GPa)
#
#
# Indices 1 2 3 4 5 6 
#
# 1 0.011719 -0.008642 -0.005202 0.000000 0.000000 0.000000
# 2 -0.008642 0.019169 0.002768 0.000000 0.000000 0.000000
# 3 -0.005202 0.002768 0.017282 0.000000 0.000000 0.000000
# 4 0.000000 0.000000 0.000000 0.136700 0.000000 0.000000
# 5 0.000000 0.000000 0.000000 0.000000 0.062159 0.000000
# 6 0.000000 0.000000 0.000000 0.000000 0.000000 0.037553
#
#
# Mechanical properties :
#
#
# Convention : Reuss Voigt Hill
#
# Bulk Modulus (GPa) = 38.43036 54.53156 46.48096
# Shear Modulus (GPa) = 15.85260 22.72407 19.28834
#
# Velocity S-wave (km/s) = 2.77126 3.31795 3.05685
# Velocity P-wave (km/s) = 5.37192 6.41065 5.91414
#
# Compressibility (1/GPa) = 0.02602110
#
# Stress axis : x y z
#
# Youngs Moduli (GPa) = 85.33017 52.16708 57.86310
#
# Poissons Ratio (x) = 0.45080 0.30099
# Poissons Ratio (y) = 0.73738 -0.16019
# Poissons Ratio (z) = 0.44386 -0.14442
#
# Static dielectric constant tensor:
#      x y z
#    x 3.605530 0.000000 0.000000 
#    y 0.000000 3.425810 0.000000 
#    z 0.000000 0.000000 3.282950 
# 
# 
# High freq. dielectric constant tensor:
#      x y z
#    x 1.811640 0.000000 0.000000 
#    y 0.000000 1.786760 0.000000 
#    z 0.000000 0.000000 1.760050 
# 
# From -- ./inp_files/23301.got.cif
#   From: 2010.03.12/outbox.cif.g09.slc.cpg/sg20_12_cif.got.tgz:23301.got - 2010.04.14 01:38:04.
