data_PCOD8158184
_publ_section_title
;
Structure prediction by ZEFSAII (Michael W. Deem and Ramdas Pophale) SiO2 
 PCOD8158184
Probable space group: C 2 2 21
;
_chemical_formula_sum "Si O2"
_cell_formula_units_Z 56
_cell_length_a 11.430908
_cell_length_b 16.077177
_cell_length_c 14.486836
_cell_angle_alpha 90.000000
_cell_angle_beta 90.000000
_cell_angle_gamma 90.000000
_cell_volume 2662.343365
_symmetry_space_group_name_H-M "C 2 2 21"
_symmetry_group_IT_number 20
_symmetry_cell_setting 'orthorhombic'
loop_
_space_group_symop_operation_xyz
x,y,z
-x,-y,1/2+z
x,-y,-z
-x,y,1/2-z
1/2+x,1/2+y,z
1/2-x,1/2-y,1/2+z
1/2+x,1/2-y,-z
1/2-x,1/2+y,1/2-z
loop_
_atom_site_type_symbol
_atom_site_label
_atom_site_fract_x
_atom_site_fract_y
_atom_site_fract_z
Si Si1 0.787502 0.728356 0.685669
Si Si2 0.637265 0.402803 0.755720
Si Si3 0.573389 0.661586 0.589764
Si Si4 0.325720 0.827652 0.119764
Si Si5 0.733425 0.638179 0.428615
Si Si6 0.449220 0.190442 0.515825
Si Si7 0.872594 0.956636 0.402466
O O1 0.787826 0.825326 0.709077
O O2 0.652640 0.700963 0.670762
O O3 0.840628 0.672372 0.768872
O O4 0.860056 0.722094 0.592806
O O5 0.500000 0.379353 0.750000
O O6 0.690223 0.421944 0.654043
O O7 0.661117 0.479202 0.822618
O O8 0.655948 0.614078 0.516707
O O9 0.494316 0.732043 0.542869
O O10 0.488241 0.591768 0.631919
O O11 0.288728 0.735271 0.091759
O O12 0.444566 0.855237 0.067836
O O13 0.232405 0.892983 0.083796
O O14 0.873005 0.628024 0.450323
O O15 0.897147 0.000000 0.500000
#
# Coordination Sequence:
#
# PCOD8158184 Si02
#       7
#     8   8   8   8   8   8   8
#     4  10  21  39  67  96 124 171 234 271 323 409
#     4  11  23  39  65  97 139 166 216 283 349 399
#     4  10  21  37  65  97 130 170 221 283 331 408
#     4  10  21  37  63  95 130 170 223 274 334 407
#     4   9  19  39  64  95 121 174 228 273 327 412
#     4  10  18  37  68  87 126 169 235 269 321 390
#     4  12  25  39  64  99 138 171 217 283 363 395
#
# _framework density 21.034101
#
# number of rings (size 3 to 8) (size 9 to 14) (size 15 to 20)
#    0.000    1.714    1.429    4.714    6.000    0.000 
#    0.000    0.000    6.286    0.000    0.000    0.000 
#    0.000    0.000    0.000    0.000    0.000    0.000 
#
# Total GULP energy -347142.950473 kJ/mol
# GULP energy per Si atom -12397.962517 kJ/mol
# Density = 2.098623 g / cm^3
# Si number density = 21.034101 Si / 1000 Ang^3
#
#
#
# Elastic Constant Matrix: (Units=GPa)
#
#
# Indices 1 2 3 4 5 6 
#
# 1 142.7058 37.9214 52.4000 0.0000 0.0000 0.0000
# 2 37.9214 57.0316 24.0842 0.0000 0.0000 0.0000
# 3 52.4000 24.0842 100.6719 0.0000 0.0000 0.0000
# 4 0.0000 0.0000 0.0000 27.6967 0.0000 0.0000
# 5 0.0000 0.0000 0.0000 0.0000 42.3565 0.0000
# 6 0.0000 0.0000 0.0000 0.0000 0.0000 25.9858
#
#
#
# Elastic Compliance Matrix: (Units=1/GPa)
#
#
# Indices 1 2 3 4 5 6 
#
# 1 0.009722 -0.004814 -0.003909 0.000000 0.000000 0.000000
# 2 -0.004814 0.021888 -0.002731 0.000000 0.000000 0.000000
# 3 -0.003909 -0.002731 0.012621 0.000000 0.000000 0.000000
# 4 0.000000 0.000000 0.000000 0.036105 0.000000 0.000000
# 5 0.000000 0.000000 0.000000 0.000000 0.023609 0.000000
# 6 0.000000 0.000000 0.000000 0.000000 0.000000 0.038483
#
#
# Mechanical properties :
#
#
# Convention : Reuss Voigt Hill
#
# Bulk Modulus (GPa) = 46.89417 58.80229 52.84823
# Shear Modulus (GPa) = 28.99521 31.60804 30.30163
#
# Velocity S-wave (km/s) = 3.71682 3.88068 3.79964
# Velocity P-wave (km/s) = 6.38455 6.93512 6.66552
#
# Compressibility (1/GPa) = 0.02132461
#
# Stress axis : x y z
#
# Youngs Moduli (GPa) = 102.86222 45.68708 79.23289
#
# Poissons Ratio (x) = 0.21992 0.30969
# Poissons Ratio (y) = 0.49514 0.21638
# Poissons Ratio (z) = 0.40205 0.12477
#
# Static dielectric constant tensor:
#      x y z
#    x 4.113070 0.000000 0.000000 
#    y 0.000000 3.456880 0.000000 
#    z 0.000000 0.000000 4.209610 
# 
# 
# High freq. dielectric constant tensor:
#      x y z
#    x 1.830340 0.000000 0.000000 
#    y 0.000000 1.788850 0.000000 
#    z 0.000000 0.000000 1.838890 
# 
# From -- ./inp_files/20038.got.cif
#   From: 2010.03.12/outbox.cif.g09.slc.cpg/sg20_11_cif.got.tgz:20038.got - 2010.04.14 01:38:04.
