data_PCOD8158806
_publ_section_title
;
Structure prediction by ZEFSAII (Michael W. Deem and Ramdas Pophale) SiO2 
 PCOD8158806
Probable space group: C 2 2 21
;
_chemical_formula_sum "Si O2"
_cell_formula_units_Z 40
_cell_length_a 26.350609
_cell_length_b 8.389786
_cell_length_c 9.108133
_cell_angle_alpha 90.000000
_cell_angle_beta 90.000000
_cell_angle_gamma 90.000000
_cell_volume 2013.589342
_symmetry_space_group_name_H-M "C 2 2 21"
_symmetry_group_IT_number 20
_symmetry_cell_setting 'orthorhombic'
loop_
_space_group_symop_operation_xyz
x,y,z
-x,-y,1/2+z
x,-y,-z
-x,y,1/2-z
1/2+x,1/2+y,z
1/2-x,1/2-y,1/2+z
1/2+x,1/2-y,-z
1/2-x,1/2+y,1/2-z
loop_
_atom_site_type_symbol
_atom_site_label
_atom_site_fract_x
_atom_site_fract_y
_atom_site_fract_z
Si Si1 0.951899 0.081707 0.151971
Si Si2 0.360934 0.620175 0.760777
Si Si3 0.693764 0.175088 0.046465
Si Si4 0.372774 0.178077 0.953772
Si Si5 0.208258 0.182288 0.260004
O O1 0.922838 0.246551 0.119669
O O2 0.000000 0.123955 0.250000
O O3 0.915887 0.962716 0.244966
O O4 0.968964 0.000000 0.000000
O O5 0.354119 0.730285 0.616498
O O6 0.316777 0.490388 0.771172
O O7 0.355195 0.721955 0.907011
O O8 0.736717 0.167480 0.169789
O O9 0.715524 0.270964 0.908670
O O10 0.675055 0.000000 0.000000
O O11 0.326346 0.183341 0.838524
O O12 0.386090 0.000000 0.000000
#
# Coordination Sequence:
#
# PCOD8158806 Si02
#       5
#     8   8   8   8   8
#     4   9  20  39  64  85 110 148 188 231 284 343
#     4  10  22  40  58  82 115 152 192 229 279 342
#     4  12  23  35  55  85 117 153 193 236 278 326
#     4  10  20  38  60  85 115 147 187 238 283 328
#     4  11  22  36  56  81 116 158 192 228 277 339
#
# _framework density 19.865023000000001
#
# number of rings (size 3 to 8) (size 9 to 14) (size 15 to 20)
#    0.000    1.600    0.000    7.200    0.000    4.800 
#    0.000    4.000    0.000    6.000    0.000    0.000 
#    0.000    0.000    0.000    0.000    0.000    0.000 
#
# Total GULP energy -248090.411593 kJ/mol
# GULP energy per Si atom -12404.520580 kJ/mol
# Density = 1.981981 g / cm^3
# Si number density = 19.865023 Si / 1000 Ang^3
#
#
#
# Elastic Constant Matrix: (Units=GPa)
#
#
# Indices 1 2 3 4 5 6 
#
# 1 77.4696 49.0873 46.2112 0.0000 0.0000 0.0000
# 2 49.0873 137.7526 55.9856 0.0000 0.0000 0.0000
# 3 46.2112 55.9856 118.2473 0.0000 0.0000 0.0000
# 4 0.0000 0.0000 0.0000 29.8980 0.0000 0.0000
# 5 0.0000 0.0000 0.0000 0.0000 38.0764 0.0000
# 6 0.0000 0.0000 0.0000 0.0000 0.0000 14.0697
#
#
#
# Elastic Compliance Matrix: (Units=1/GPa)
#
#
# Indices 1 2 3 4 5 6 
#
# 1 0.018955 -0.004636 -0.005213 0.000000 0.000000 0.000000
# 2 -0.004636 0.010123 -0.002981 0.000000 0.000000 0.000000
# 3 -0.005213 -0.002981 0.011905 0.000000 0.000000 0.000000
# 4 0.000000 0.000000 0.000000 0.033447 0.000000 0.000000
# 5 0.000000 0.000000 0.000000 0.000000 0.026263 0.000000
# 6 0.000000 0.000000 0.000000 0.000000 0.000000 0.071075
#
#
# Mechanical properties :
#
#
# Convention : Reuss Voigt Hill
#
# Bulk Modulus (GPa) = 65.25729 70.67084 67.96407
# Shear Modulus (GPa) = 24.68696 28.55451 26.62074
#
# Velocity S-wave (km/s) = 3.52907 3.79545 3.66468
# Velocity P-wave (km/s) = 7.03757 7.40676 7.22452
#
# Compressibility (1/GPa) = 0.01532396
#
# Stress axis : x y z
#
# Youngs Moduli (GPa) = 52.75582 98.78508 83.99518
#
# Poissons Ratio (x) = 0.45797 0.43785
# Poissons Ratio (y) = 0.24458 0.25040
# Poissons Ratio (z) = 0.27500 0.29449
#
# Static dielectric constant tensor:
#      x y z
#    x 3.387520 0.000000 0.000000 
#    y 0.000000 4.344030 0.000000 
#    z 0.000000 0.000000 3.827070 
# 
# 
# High freq. dielectric constant tensor:
#      x y z
#    x 1.751920 0.000000 0.000000 
#    y 0.000000 1.780430 0.000000 
#    z 0.000000 0.000000 1.788870 
# 
# From -- ./inp_files/6073.got.cif
#   From: 2010.03.12/outbox.cif.g09.slc.cpg/sg20_4_cif.got.tgz:6073.got - 2010.04.14 01:38:04.
