data_PCOD8158972
_publ_section_title
;
Structure prediction by ZEFSAII (Michael W. Deem and Ramdas Pophale) SiO2 
 PCOD8158972
Probable space group: C 2 2 21
;
_chemical_formula_sum "Si O2"
_cell_formula_units_Z 48
_cell_length_a 8.422454
_cell_length_b 16.249345
_cell_length_c 16.478754
_cell_angle_alpha 90.000000
_cell_angle_beta 90.000000
_cell_angle_gamma 90.000000
_cell_volume 2255.271739
_symmetry_space_group_name_H-M "C 2 2 21"
_symmetry_group_IT_number 20
_symmetry_cell_setting 'orthorhombic'
loop_
_space_group_symop_operation_xyz
x,y,z
-x,-y,1/2+z
x,-y,-z
-x,y,1/2-z
1/2+x,1/2+y,z
1/2-x,1/2-y,1/2+z
1/2+x,1/2-y,-z
1/2-x,1/2+y,1/2-z
loop_
_atom_site_type_symbol
_atom_site_label
_atom_site_fract_x
_atom_site_fract_y
_atom_site_fract_z
Si Si1 0.572343 0.500000 0.500000
Si Si2 0.500000 0.824210 0.750000
Si Si3 0.000000 0.946669 0.250000
Si Si4 0.000000 0.214263 0.250000
Si Si5 0.503248 0.072707 0.393898
Si Si6 0.768540 0.192267 0.799975
Si Si7 0.378204 0.580286 0.370877
Si Si8 0.142084 0.408088 0.065158
O O1 0.462332 0.568472 0.457276
O O2 0.684443 0.550133 0.561157
O O3 0.585560 0.883655 0.816731
O O4 0.392015 0.767184 0.807867
O O5 0.147636 0.891988 0.277739
O O6 0.075838 0.999883 0.179277
O O7 0.147358 0.275384 0.269688
O O8 0.049672 0.160717 0.172131
O O9 0.690543 0.088902 0.383801
O O10 0.432174 0.112078 0.476698
O O11 0.472497 0.974731 0.390974
O O12 0.665555 0.175283 0.882491
#
# Coordination Sequence:
#
# PCOD8158972 Si02
#       8
#     4   4   4   4   8   8   8   8
#     4  10  20  40  70  90 126 170 238 264 324 386
#     4  11  24  44  70  95 140 180 220 281 348 402
#     4  10  24  40  70  94 132 178 226 276 326 394
#     4  11  26  40  66  97 134 166 222 267 352 390
#     4  10  23  42  70  96 133 179 231 271 341 399
#     4  11  24  45  59 102 134 175 218 277 343 398
#     4  11  22  43  67  99 126 178 224 277 322 409
#     4  10  24  42  68  99 130 182 225 281 328 401
#
# _framework density 21.283465
#
# number of rings (size 3 to 8) (size 9 to 14) (size 15 to 20)
#    0.000    1.667    3.333    1.000    9.333    0.000 
#    3.000    0.000    0.000    0.000    0.000    0.000 
#    0.000    0.000    0.000    0.000    0.000    0.000 
#
# Total GULP energy -297349.922582 kJ/mol
# GULP energy per Si atom -12389.580108 kJ/mol
# Density = 2.123502 g / cm^3
# Si number density = 21.283465 Si / 1000 Ang^3
#
#
#
# Elastic Constant Matrix: (Units=GPa)
#
#
# Indices 1 2 3 4 5 6 
#
# 1 103.5190 45.6925 47.3094 0.0000 0.0000 0.0000
# 2 45.6925 103.9821 71.2423 0.0000 0.0000 0.0000
# 3 47.3094 71.2423 109.7366 0.0000 0.0000 0.0000
# 4 0.0000 0.0000 0.0000 29.8250 0.0000 0.0000
# 5 0.0000 0.0000 0.0000 0.0000 35.5878 0.0000
# 6 0.0000 0.0000 0.0000 0.0000 0.0000 37.5132
#
#
#
# Elastic Compliance Matrix: (Units=1/GPa)
#
#
# Indices 1 2 3 4 5 6 
#
# 1 0.012620 -0.003274 -0.003315 0.000000 0.000000 0.000000
# 2 -0.003274 0.018171 -0.010385 0.000000 0.000000 0.000000
# 3 -0.003315 -0.010385 0.017284 0.000000 0.000000 0.000000
# 4 0.000000 0.000000 0.000000 0.033529 0.000000 0.000000
# 5 0.000000 0.000000 0.000000 0.000000 0.028099 0.000000
# 6 0.000000 0.000000 0.000000 0.000000 0.000000 0.026657
#
#
# Mechanical properties :
#
#
# Convention : Reuss Voigt Hill
#
# Bulk Modulus (GPa) = 70.79052 71.74732 71.26892
# Shear Modulus (GPa) = 28.56812 30.78477 29.67645
#
# Velocity S-wave (km/s) = 3.66767 3.80731 3.73814
# Velocity P-wave (km/s) = 7.16022 7.28773 7.22426
#
# Compressibility (1/GPa) = 0.01412619
#
# Stress axis : x y z
#
# Youngs Moduli (GPa) = 79.23676 55.03163 57.85620
#
# Poissons Ratio (x) = 0.18020 0.19180
# Poissons Ratio (y) = 0.25946 0.60086
# Poissons Ratio (z) = 0.26267 0.57153
#
# Static dielectric constant tensor:
#      x y z
#    x 4.074830 0.000000 0.000000 
#    y 0.000000 3.989920 0.000000 
#    z 0.000000 0.000000 3.871220 
# 
# 
# High freq. dielectric constant tensor:
#      x y z
#    x 1.844190 0.000000 0.000000 
#    y 0.000000 1.836600 0.000000 
#    z 0.000000 0.000000 1.820620 
# 
# From -- ./inp_files/23543.got.cif
#   From: 2010.03.12/outbox.cif.g09.slc.cpg/sg20_12_cif.got.tgz:23543.got - 2010.04.14 01:38:04.
