data_PCOD8158157
_publ_section_title
;
Structure prediction by ZEFSAII (Michael W. Deem and Ramdas Pophale) SiO2 
 PCOD8158157
Probable space group: C 2 2 21
;
_chemical_formula_sum "Si O2"
_cell_formula_units_Z 56
_cell_length_a 19.920518
_cell_length_b 12.891750
_cell_length_c 11.240018
_cell_angle_alpha 90.000000
_cell_angle_beta 90.000000
_cell_angle_gamma 90.000000
_cell_volume 2886.552821
_symmetry_space_group_name_H-M "C 2 2 21"
_symmetry_group_IT_number 20
_symmetry_cell_setting 'orthorhombic'
loop_
_space_group_symop_operation_xyz
x,y,z
-x,-y,1/2+z
x,-y,-z
-x,y,1/2-z
1/2+x,1/2+y,z
1/2-x,1/2-y,1/2+z
1/2+x,1/2-y,-z
1/2-x,1/2+y,1/2-z
loop_
_atom_site_type_symbol
_atom_site_label
_atom_site_fract_x
_atom_site_fract_y
_atom_site_fract_z
Si Si1 0.000000 0.271960 0.250000
Si Si2 0.846331 0.314005 0.656844
Si Si3 0.867717 0.198452 0.139691
Si Si4 0.256943 0.855627 0.181699
Si Si5 0.538245 0.122869 0.990737
Si Si6 0.320678 0.000000 0.000000
Si Si7 0.235682 0.022838 0.364182
Si Si8 0.902774 0.311903 0.909010
O O1 0.940993 0.197974 0.200434
O O2 0.970953 0.345973 0.353154
O O3 0.800460 0.215885 0.624622
O O4 0.891342 0.336472 0.541639
O O5 0.798763 0.412090 0.686396
O O6 0.889803 0.282967 0.772398
O O7 0.823480 0.286928 0.205291
O O8 0.833921 0.085889 0.154521
O O9 0.872916 0.225317 0.998907
O O10 0.270446 0.946268 0.089971
O O11 0.231839 0.910621 0.302031
O O12 0.481872 0.176591 0.071532
O O13 0.534627 0.000000 0.000000
O O14 0.368828 0.078228 0.067531
O O15 0.249281 0.000000 0.500000
#
# Coordination Sequence:
#
# PCOD8158157 Si02
#       8
#     4   8   8   8   8   4   8   8
#     4  10  24  42  62  86 124 162 198 250 300 354
#     4  11  23  36  58  94 124 153 206 247 296 360
#     4   9  22  39  62  86 120 160 201 246 304 361
#     4  10  22  37  59  90 120 160 196 255 295 355
#     4  11  24  35  60  92 124 157 195 245 307 368
#     4  10  18  36  58  78 116 162 202 226 312 352
#     4  11  22  38  61  89 122 160 201 251 304 358
#     4  10  19  38  57  84 120 158 194 246 300 361
#
# _framework density 19.400303000000001
#
# number of rings (size 3 to 8) (size 9 to 14) (size 15 to 20)
#    0.000    1.714    2.143    1.714    6.000    1.143 
#    0.000    0.000    9.429    0.000    0.000    0.000 
#    0.000    0.000    0.000    0.000    0.000    0.000 
#
# Total GULP energy -347239.673184 kJ/mol
# GULP energy per Si atom -12401.416899 kJ/mol
# Density = 1.935615 g / cm^3
# Si number density = 19.400303 Si / 1000 Ang^3
#
#
#
# Elastic Constant Matrix: (Units=GPa)
#
#
# Indices 1 2 3 4 5 6 
#
# 1 106.0038 25.9913 34.1084 0.0000 0.0000 0.0000
# 2 25.9913 47.3671 13.5835 0.0000 0.0000 0.0000
# 3 34.1084 13.5835 84.1829 0.0000 0.0000 0.0000
# 4 0.0000 0.0000 0.0000 21.8434 0.0000 0.0000
# 5 0.0000 0.0000 0.0000 0.0000 16.6096 0.0000
# 6 0.0000 0.0000 0.0000 0.0000 0.0000 22.2628
#
#
#
# Elastic Compliance Matrix: (Units=1/GPa)
#
#
# Indices 1 2 3 4 5 6 
#
# 1 0.012064 -0.005471 -0.004005 0.000000 0.000000 0.000000
# 2 -0.005471 0.024617 -0.001755 0.000000 0.000000 0.000000
# 3 -0.004005 -0.001755 0.013785 0.000000 0.000000 0.000000
# 4 0.000000 0.000000 0.000000 0.045780 0.000000 0.000000
# 5 0.000000 0.000000 0.000000 0.000000 0.060206 0.000000
# 6 0.000000 0.000000 0.000000 0.000000 0.000000 0.044918
#
#
# Mechanical properties :
#
#
# Convention : Reuss Voigt Hill
#
# Bulk Modulus (GPa) = 35.71091 42.76890 39.23991
# Shear Modulus (GPa) = 21.44378 23.06787 22.25583
#
# Velocity S-wave (km/s) = 3.32826 3.45200 3.39069
# Velocity P-wave (km/s) = 5.76343 6.16293 5.96652
#
# Compressibility (1/GPa) = 0.02800265
#
# Stress axis : x y z
#
# Youngs Moduli (GPa) = 82.89266 40.62201 72.54320
#
# Poissons Ratio (x) = 0.22225 0.29054
# Poissons Ratio (y) = 0.45352 0.12734
# Poissons Ratio (z) = 0.33199 0.07131
#
# Static dielectric constant tensor:
#      x y z
#    x 3.657400 0.000000 0.000000 
#    y 0.000000 3.715920 0.000000 
#    z 0.000000 0.000000 3.515900 
# 
# 
# High freq. dielectric constant tensor:
#      x y z
#    x 1.759350 0.000000 0.000000 
#    y 0.000000 1.739340 0.000000 
#    z 0.000000 0.000000 1.757490 
# 
# From -- ./inp_files/14341.got.cif
#   From: 2010.03.12/outbox.cif.g09.slc.cpg/sg20_8_cif.got.tgz:14341.got - 2010.04.14 01:38:04.
