data_PCOD8158036
_publ_section_title
;
Structure prediction by ZEFSAII (Michael W. Deem and Ramdas Pophale) SiO2 
 PCOD8158036
Probable space group: C 2 2 21
;
_chemical_formula_sum "Si O2"
_cell_formula_units_Z 44
_cell_length_a 16.652639
_cell_length_b 32.520885
_cell_length_c 5.163205
_cell_angle_alpha 90.000000
_cell_angle_beta 90.000000
_cell_angle_gamma 90.000000
_cell_volume 2796.177854
_symmetry_space_group_name_H-M "C 2 2 21"
_symmetry_group_IT_number 20
_symmetry_cell_setting 'orthorhombic'
loop_
_space_group_symop_operation_xyz
x,y,z
-x,-y,1/2+z
x,-y,-z
-x,y,1/2-z
1/2+x,1/2+y,z
1/2-x,1/2-y,1/2+z
1/2+x,1/2-y,-z
1/2-x,1/2+y,1/2-z
loop_
_atom_site_type_symbol
_atom_site_label
_atom_site_fract_x
_atom_site_fract_y
_atom_site_fract_z
Si Si1 0.425450 0.218647 0.110767
Si Si2 0.207701 0.765596 0.647197
Si Si3 0.500000 0.153965 0.750000
Si Si4 0.661878 0.112988 0.774507
Si Si5 0.209216 0.340879 0.745708
Si Si6 0.907511 0.526984 0.750507
O O1 0.500000 0.242553 0.250000
O O2 0.357841 0.195677 0.286812
O O3 0.383233 0.250241 0.911041
O O4 0.471044 0.181033 0.983938
O O5 0.257782 0.762373 0.378719
O O6 0.208638 0.813679 0.738947
O O7 0.571884 0.125645 0.846701
O O8 0.699433 0.135797 0.526000
O O9 0.657030 0.064064 0.737239
O O10 0.712936 0.125549 0.026676
O O11 0.889037 0.500000 0.500000
O O12 0.000000 0.542635 0.750000
O O13 0.890149 0.500000 0.000000
#
# Coordination Sequence:
#
# PCOD8158036 Si02
#       6
#     8   8   4   8   8   8
#     4  10  19  29  45  63  89 111 156 197 235 263
#     4  10  20  33  45  60  89 119 146 194 244 276
#     4  10  18  28  40  66  82 110 152 192 226 254
#     4  11  19  31  47  61  86 110 152 188 227 266
#     4  10  20  31  44  64  83 116 151 190 232 266
#     4  10  20  32  44  63  87 112 139 182 241 280
#
# _framework density 15.735765000000001
#
# number of rings (size 3 to 8) (size 9 to 14) (size 15 to 20)
#    0.000    1.818    2.727    4.364    2.545    0.000 
#    0.000    0.000    0.000    0.000    0.000    0.000 
#    0.000    0.000    0.000    0.000    0.000    5.455 
#
# Total GULP energy -272542.670229 kJ/mol
# GULP energy per Si atom -12388.303192 kJ/mol
# Density = 1.569995 g / cm^3
# Si number density = 15.735765 Si / 1000 Ang^3
#
#
#
# Elastic Constant Matrix: (Units=GPa)
#
#
# Indices 1 2 3 4 5 6 
#
# 1 26.2636 20.7505 16.7840 0.0000 0.0000 0.0000
# 2 20.7505 98.6854 38.9040 0.0000 0.0000 0.0000
# 3 16.7840 38.9040 105.1864 0.0000 0.0000 0.0000
# 4 0.0000 0.0000 0.0000 13.6452 0.0000 0.0000
# 5 0.0000 0.0000 0.0000 0.0000 22.6942 0.0000
# 6 0.0000 0.0000 0.0000 0.0000 0.0000 -110.4684
#
#
#
# Elastic Compliance Matrix: (Units=1/GPa)
#
#
# Indices 1 2 3 4 5 6 
#
# 1 0.047446 -0.008185 -0.004543 0.000000 0.000000 0.000000
# 2 -0.008185 0.013275 -0.003604 0.000000 0.000000 0.000000
# 3 -0.004543 -0.003604 0.011565 0.000000 0.000000 0.000000
# 4 0.000000 0.000000 0.000000 0.073286 0.000000 0.000000
# 5 0.000000 0.000000 0.000000 0.000000 0.044064 0.000000
# 6 0.000000 0.000000 0.000000 0.000000 0.000000 -0.009052
#
#
# Mechanical properties :
#
#
# Convention : Reuss Voigt Hill
#
# Bulk Modulus (GPa) = 25.23914 42.55694 33.89804
# Shear Modulus (GPa) = 22.07938 -4.57934 8.75002
#
# Velocity S-wave (km/s) = 3.74991 -1.70777 2.36065
# Velocity P-wave (km/s) = 5.90112 4.81818 5.38693
#
# Compressibility (1/GPa) = 0.03962100
#
# Stress axis : x y z
#
# Youngs Moduli (GPa) = 21.07654 75.32937 86.46963
#
# Poissons Ratio (x) = 0.61660 0.39285
# Poissons Ratio (y) = 0.17252 0.31162
# Poissons Ratio (z) = 0.09576 0.27147
#
# Static dielectric constant tensor:
#      x y z
#    x 4.694960 0.000000 0.000000 
#    y 0.000000 2.948210 0.000000 
#    z 0.000000 0.000000 3.447310 
# 
# 
# High freq. dielectric constant tensor:
#      x y z
#    x 1.549220 0.000000 0.000000 
#    y 0.000000 1.586940 0.000000 
#    z 0.000000 0.000000 1.624270 
# 
# From -- ./inp_files/2162.got.cif
#   From: 2010.03.12/outbox.cif.g09.slc.cpg/sg20_2_cif.got.tgz:2162.got - 2010.04.14 01:38:04.
