data_PCOD8158054
_publ_section_title
;
Structure prediction by ZEFSAII (Michael W. Deem and Ramdas Pophale) SiO2 
 PCOD8158054
Probable space group: C 2 2 21
;
_chemical_formula_sum "Si O2"
_cell_formula_units_Z 48
_cell_length_a 18.456968
_cell_length_b 15.745832
_cell_length_c 9.297388
_cell_angle_alpha 90.000000
_cell_angle_beta 90.000000
_cell_angle_gamma 90.000000
_cell_volume 2702.009851
_symmetry_space_group_name_H-M "C 2 2 21"
_symmetry_group_IT_number 20
_symmetry_cell_setting 'orthorhombic'
loop_
_space_group_symop_operation_xyz
x,y,z
-x,-y,1/2+z
x,-y,-z
-x,y,1/2-z
1/2+x,1/2+y,z
1/2-x,1/2-y,1/2+z
1/2+x,1/2-y,-z
1/2-x,1/2+y,1/2-z
loop_
_atom_site_type_symbol
_atom_site_label
_atom_site_fract_x
_atom_site_fract_y
_atom_site_fract_z
Si Si1 0.290356 0.749413 0.333651
Si Si2 0.643220 0.500000 0.000000
Si Si3 0.433859 0.652843 0.361097
Si Si4 0.805662 0.107932 0.745229
Si Si5 0.195264 0.662757 0.121932
Si Si6 0.430805 0.269350 0.339842
Si Si7 0.238934 0.000000 0.500000
O O1 0.371266 0.715733 0.299333
O O2 0.269362 0.838491 0.255439
O O3 0.236500 0.677415 0.272712
O O4 0.278171 0.765821 0.504228
O O5 0.594896 0.442659 0.891721
O O6 0.696119 0.557997 0.904812
O O7 0.500000 0.648908 0.250000
O O8 0.459923 0.690136 0.512712
O O9 0.876497 0.167802 0.745972
O O10 0.812325 0.044606 0.881790
O O11 0.109582 0.679167 0.137382
O O12 0.207747 0.567110 0.074172
O O13 0.500000 0.247108 0.250000
#
# Coordination Sequence:
#
# PCOD8158054 Si02
#       7
#     8   4   8   8   8   8   4
#     4   9  18  34  51  72  98 132 170 200 238 292
#     4  10  20  34  49  74 109 132 156 206 256 290
#     4  10  21  34  50  72 102 135 165 202 246 295
#     4   9  19  33  52  76 102 130 164 204 245 293
#     4   9  18  32  52  74  99 129 165 207 245 290
#     4   9  19  35  51  71  99 134 170 201 239 293
#     4  10  18  30  53  80  99 124 162 210 254 288
#
# _framework density 17.764554
#
# number of rings (size 3 to 8) (size 9 to 14) (size 15 to 20)
#    0.000    2.667    0.000    2.000    0.000    8.000 
#    0.000    1.667    0.000    9.000    0.000    5.833 
#    0.000    0.000    0.000    0.000    0.000    0.000 
#
# Total GULP energy -297385.761778 kJ/mol
# GULP energy per Si atom -12391.073407 kJ/mol
# Density = 1.772412 g / cm^3
# Si number density = 17.764554 Si / 1000 Ang^3
#
#
#
# Elastic Constant Matrix: (Units=GPa)
#
#
# Indices 1 2 3 4 5 6 
#
# 1 99.0652 47.3273 63.6520 0.0000 0.0000 0.0000
# 2 47.3273 75.4216 42.1028 0.0000 0.0000 0.0000
# 3 63.6520 42.1028 84.0427 0.0000 0.0000 0.0000
# 4 0.0000 0.0000 0.0000 27.7666 0.0000 0.0000
# 5 0.0000 0.0000 0.0000 0.0000 38.1636 0.0000
# 6 0.0000 0.0000 0.0000 0.0000 0.0000 12.1574
#
#
#
# Elastic Compliance Matrix: (Units=1/GPa)
#
#
# Indices 1 2 3 4 5 6 
#
# 1 0.021520 -0.006116 -0.013235 0.000000 0.000000 0.000000
# 2 -0.006116 0.020144 -0.005460 0.000000 0.000000 0.000000
# 3 -0.013235 -0.005460 0.024658 0.000000 0.000000 0.000000
# 4 0.000000 0.000000 0.000000 0.036015 0.000000 0.000000
# 5 0.000000 0.000000 0.000000 0.000000 0.026203 0.000000
# 6 0.000000 0.000000 0.000000 0.000000 0.000000 0.082254
#
#
# Mechanical properties :
#
#
# Convention : Reuss Voigt Hill
#
# Bulk Modulus (GPa) = 59.87616 62.74375 61.30995
# Shear Modulus (GPa) = 18.79834 22.64734 20.72284
#
# Velocity S-wave (km/s) = 3.25652 3.57439 3.41915
# Velocity P-wave (km/s) = 6.92232 7.24095 7.08342
#
# Compressibility (1/GPa) = 0.01670114
#
# Stress axis : x y z
#
# Youngs Moduli (GPa) = 46.46887 49.64206 40.55528
#
# Poissons Ratio (x) = 0.30359 0.53674
# Poissons Ratio (y) = 0.28419 0.22142
# Poissons Ratio (z) = 0.61501 0.27104
#
# Static dielectric constant tensor:
#      x y z
#    x 3.063490 0.000000 0.000000 
#    y 0.000000 3.469400 0.000000 
#    z 0.000000 0.000000 3.518340 
# 
# 
# High freq. dielectric constant tensor:
#      x y z
#    x 1.656890 0.000000 0.000000 
#    y 0.000000 1.686760 0.000000 
#    z 0.000000 0.000000 1.697730 
# 
# From -- ./inp_files/9471.got.cif
#   From: 2010.03.12/outbox.cif.g09.slc.cpg/sg20_5_cif.got.tgz:9471.got - 2010.04.14 01:38:04.
