data_PCOD8158155
_publ_section_title
;
Structure prediction by ZEFSAII (Michael W. Deem and Ramdas Pophale) SiO2 
 PCOD8158155
Probable space group: C 2 2 21
;
_chemical_formula_sum "Si O2"
_cell_formula_units_Z 52
_cell_length_a 8.643611
_cell_length_b 15.874990
_cell_length_c 20.160623
_cell_angle_alpha 90.000000
_cell_angle_beta 90.000000
_cell_angle_gamma 90.000000
_cell_volume 2766.385008
_symmetry_space_group_name_H-M "C 2 2 21"
_symmetry_group_IT_number 20
_symmetry_cell_setting 'orthorhombic'
loop_
_space_group_symop_operation_xyz
x,y,z
-x,-y,1/2+z
x,-y,-z
-x,y,1/2-z
1/2+x,1/2+y,z
1/2-x,1/2-y,1/2+z
1/2+x,1/2-y,-z
1/2-x,1/2+y,1/2-z
loop_
_atom_site_type_symbol
_atom_site_label
_atom_site_fract_x
_atom_site_fract_y
_atom_site_fract_z
Si Si1 0.921482 0.000000 0.500000
Si Si2 0.741586 0.589860 0.662823
Si Si3 0.643393 0.672455 0.962330
Si Si4 0.500000 0.847714 0.250000
Si Si5 0.000000 0.183034 0.750000
Si Si6 0.773016 0.753050 0.833369
Si Si7 0.776551 0.820277 0.033203
Si Si8 0.822947 0.079024 0.091100
O O1 0.813927 0.074126 0.528334
O O2 0.018136 0.042033 0.439369
O O3 0.871384 0.591708 0.718955
O O4 0.578432 0.621231 0.694838
O O5 0.791979 0.650433 0.602783
O O6 0.748429 0.496842 0.632557
O O7 0.725662 0.699480 0.896206
O O8 0.460370 0.683750 0.960716
O O9 0.709637 0.727360 0.022730
O O10 0.573235 0.787432 0.304649
O O11 0.870818 0.245826 0.718438
O O12 0.827530 0.846493 0.854493
O O13 0.728174 0.884555 0.973015
#
# Coordination Sequence:
#
# PCOD8158155 Si02
#       8
#     4   8   8   4   4   8   8   8
#     4  10  18  36  56  94 106 148 186 234 298 352
#     4  11  20  39  58  84 115 156 191 241 279 345
#     4  10  20  36  60  87 114 147 187 241 294 343
#     4  10  26  36  58  82 118 162 198 230 282 346
#     4  10  20  38  60  76 116 164 196 224 286 344
#     4  10  21  39  57  85 115 156 195 235 284 352
#     4  10  20  35  63  85 114 145 188 239 301 342
#     4  10  19  35  62  85 113 142 192 245 294 337
#
# _framework density 18.797094000000001
#
# number of rings (size 3 to 8) (size 9 to 14) (size 15 to 20)
#    0.000    1.846    4.615    0.000    6.462    1.231 
#    0.000    3.077    0.000    0.000    0.000    0.000 
#    0.000    0.000    0.000    0.000    0.000    0.000 
#
# Total GULP energy -322131.170945 kJ/mol
# GULP energy per Si atom -12389.660421 kJ/mol
# Density = 1.875431 g / cm^3
# Si number density = 18.797094 Si / 1000 Ang^3
#
#
#
# Elastic Constant Matrix: (Units=GPa)
#
#
# Indices 1 2 3 4 5 6 
#
# 1 55.4375 37.6346 26.3924 0.0000 0.0000 0.0000
# 2 37.6346 153.9169 62.8256 0.0000 0.0000 0.0000
# 3 26.3924 62.8256 94.0655 0.0000 0.0000 0.0000
# 4 0.0000 0.0000 0.0000 28.3277 0.0000 0.0000
# 5 0.0000 0.0000 0.0000 0.0000 26.6150 0.0000
# 6 0.0000 0.0000 0.0000 0.0000 0.0000 23.2273
#
#
#
# Elastic Compliance Matrix: (Units=1/GPa)
#
#
# Indices 1 2 3 4 5 6 
#
# 1 0.022494 -0.004020 -0.003626 0.000000 0.000000 0.000000
# 2 -0.004020 0.009650 -0.005318 0.000000 0.000000 0.000000
# 3 -0.003626 -0.005318 0.015200 0.000000 0.000000 0.000000
# 4 0.000000 0.000000 0.000000 0.035301 0.000000 0.000000
# 5 0.000000 0.000000 0.000000 0.000000 0.037573 0.000000
# 6 0.000000 0.000000 0.000000 0.000000 0.000000 0.043053
#
#
# Mechanical properties :
#
#
# Convention : Reuss Voigt Hill
#
# Bulk Modulus (GPa) = 46.69289 61.90278 54.29784
# Shear Modulus (GPa) = 25.46641 27.40515 26.43578
#
# Velocity S-wave (km/s) = 3.68476 3.82245 3.75424
# Velocity P-wave (km/s) = 6.55726 7.24466 6.90951
#
# Compressibility (1/GPa) = 0.02141654
#
# Stress axis : x y z
#
# Youngs Moduli (GPa) = 44.45703 103.62238 65.78974
#
# Poissons Ratio (x) = 0.41654 0.23858
# Poissons Ratio (y) = 0.17871 0.34984
# Poissons Ratio (z) = 0.16122 0.55102
#
# Static dielectric constant tensor:
#      x y z
#    x 3.273360 0.000000 0.000000 
#    y 0.000000 3.830990 0.000000 
#    z 0.000000 0.000000 3.750670 
# 
# 
# High freq. dielectric constant tensor:
#      x y z
#    x 1.705410 0.000000 0.000000 
#    y 0.000000 1.731630 0.000000 
#    z 0.000000 0.000000 1.745770 
# 
# From -- ./inp_files/25246.got.cif
#   From: 2010.03.12/outbox.cif.g09.slc.cpg/sg20_13_cif.got.tgz:25246.got - 2010.04.14 01:38:04.
