data_PCOD8158668
_publ_section_title
;
Structure prediction by ZEFSAII (Michael W. Deem and Ramdas Pophale) SiO2 
 PCOD8158668
Probable space group: C 2 2 21
;
_chemical_formula_sum "Si O2"
_cell_formula_units_Z 60
_cell_length_a 13.570950
_cell_length_b 8.974395
_cell_length_c 24.251113
_cell_angle_alpha 90.000000
_cell_angle_beta 90.000000
_cell_angle_gamma 90.000000
_cell_volume 2953.568900
_symmetry_space_group_name_H-M "C 2 2 21"
_symmetry_group_IT_number 20
_symmetry_cell_setting 'orthorhombic'
loop_
_space_group_symop_operation_xyz
x,y,z
-x,-y,1/2+z
x,-y,-z
-x,y,1/2-z
1/2+x,1/2+y,z
1/2-x,1/2-y,1/2+z
1/2+x,1/2-y,-z
1/2-x,1/2+y,1/2-z
loop_
_atom_site_type_symbol
_atom_site_label
_atom_site_fract_x
_atom_site_fract_y
_atom_site_fract_z
Si Si1 0.936778 0.623422 0.954659
Si Si2 0.132558 0.306869 0.094874
Si Si3 0.773624 0.848910 0.688567
Si Si4 0.262248 0.672089 0.004203
Si Si5 0.869095 0.652447 0.393876
Si Si6 0.573891 0.097777 0.361076
Si Si7 0.306130 0.307386 0.288723
Si Si8 0.000000 0.338637 0.750000
O O1 0.031776 0.721860 0.938747
O O2 0.855164 0.730589 0.979261
O O3 0.898696 0.544481 0.898479
O O4 0.967277 0.500000 0.000000
O O5 0.137210 0.202617 0.148970
O O6 0.136333 0.476017 0.115731
O O7 0.223951 0.269957 0.054586
O O8 0.674185 0.814160 0.652852
O O9 0.774440 0.757649 0.745893
O O10 0.784485 0.020054 0.703838
O O11 0.172708 0.696055 0.046773
O O12 0.294229 0.500000 0.000000
O O13 0.799592 0.729167 0.348374
O O14 0.986507 0.696735 0.390486
O O15 0.527675 0.053063 0.301077
O O16 0.413275 0.275984 0.264253
#
# Coordination Sequence:
#
# PCOD8158668 Si02
#       8
#     8   8   8   8   8   8   8   4
#     4  11  21  38  60  84 111 147 190 230 275 335
#     4  10  21  37  56  81 112 149 186 227 276 331
#     4  11  21  36  57  85 115 148 190 232 281 332
#     4  10  21  38  59  83 113 145 181 228 282 330
#     4   9  18  37  60  82 110 144 183 228 281 334
#     4   9  18  34  59  84 107 144 186 227 273 335
#     4  10  20  36  57  82 112 148 187 234 280 334
#     4   8  18  36  56  80 112 146 184 228 288 330
#
# _framework density 20.314408
#
# number of rings (size 3 to 8) (size 9 to 14) (size 15 to 20)
#    0.000    2.133    0.000    4.400    0.000    1.067 
#    0.000   19.333    0.000    0.000    0.000    0.000 
#    0.000    0.000    0.000    0.000    0.000    0.000 
#
# Total GULP energy -371786.957354 kJ/mol
# GULP energy per Si atom -12392.898578 kJ/mol
# Density = 2.026817 g / cm^3
# Si number density = 20.314408 Si / 1000 Ang^3
#
#
#
# Elastic Constant Matrix: (Units=GPa)
#
#
# Indices 1 2 3 4 5 6 
#
# 1 64.7965 30.5466 21.7094 0.0000 0.0000 0.0000
# 2 30.5466 81.1351 45.5330 0.0000 0.0000 0.0000
# 3 21.7094 45.5330 93.8806 0.0000 0.0000 0.0000
# 4 0.0000 0.0000 0.0000 42.2111 0.0000 0.0000
# 5 0.0000 0.0000 0.0000 0.0000 35.1149 0.0000
# 6 0.0000 0.0000 0.0000 0.0000 0.0000 20.8774
#
#
#
# Elastic Compliance Matrix: (Units=1/GPa)
#
#
# Indices 1 2 3 4 5 6 
#
# 1 0.018871 -0.006397 -0.001261 0.000000 0.000000 0.000000
# 2 -0.006397 0.019103 -0.007786 0.000000 0.000000 0.000000
# 3 -0.001261 -0.007786 0.014720 0.000000 0.000000 0.000000
# 4 0.000000 0.000000 0.000000 0.023690 0.000000 0.000000
# 5 0.000000 0.000000 0.000000 0.000000 0.028478 0.000000
# 6 0.000000 0.000000 0.000000 0.000000 0.000000 0.047899
#
#
# Mechanical properties :
#
#
# Convention : Reuss Voigt Hill
#
# Bulk Modulus (GPa) = 45.85971 48.37668 47.11820
# Shear Modulus (GPa) = 26.18929 29.10888 27.64909
#
# Velocity S-wave (km/s) = 3.59444 3.78950 3.69325
# Velocity P-wave (km/s) = 6.31273 6.55841 6.43674
#
# Compressibility (1/GPa) = 0.02180563
#
# Stress axis : x y z
#
# Youngs Moduli (GPa) = 52.99080 52.34797 67.93618
#
# Poissons Ratio (x) = 0.33487 0.08568
# Poissons Ratio (y) = 0.33898 0.52894
# Poissons Ratio (z) = 0.06683 0.40757
#
# Static dielectric constant tensor:
#      x y z
#    x 3.833230 0.000000 0.000000 
#    y 0.000000 3.277050 0.000000 
#    z 0.000000 0.000000 4.121760 
# 
# 
# High freq. dielectric constant tensor:
#      x y z
#    x 1.791950 0.000000 0.000000 
#    y 0.000000 1.751940 0.000000 
#    z 0.000000 0.000000 1.822910 
# 
# From -- ./inp_files/29317.got.cif
#   From: 2010.03.12/outbox.cif.g09.slc.cpg/sg20_15_cif.got.tgz:29317.got - 2010.04.14 01:38:04.
