data_PCOD8158880
_publ_section_title
;
Structure prediction by ZEFSAII (Michael W. Deem and Ramdas Pophale) SiO2 
 PCOD8158880
Probable space group: C 2 2 21
;
_chemical_formula_sum "Si O2"
_cell_formula_units_Z 48
_cell_length_a 8.637269
_cell_length_b 11.648342
_cell_length_c 23.933618
_cell_angle_alpha 90.000000
_cell_angle_beta 90.000000
_cell_angle_gamma 90.000000
_cell_volume 2407.958034
_symmetry_space_group_name_H-M "C 2 2 21"
_symmetry_group_IT_number 20
_symmetry_cell_setting 'orthorhombic'
loop_
_space_group_symop_operation_xyz
x,y,z
-x,-y,1/2+z
x,-y,-z
-x,y,1/2-z
1/2+x,1/2+y,z
1/2-x,1/2-y,1/2+z
1/2+x,1/2-y,-z
1/2-x,1/2+y,1/2-z
loop_
_atom_site_type_symbol
_atom_site_label
_atom_site_fract_x
_atom_site_fract_y
_atom_site_fract_z
Si Si1 0.724273 0.612270 0.467266
Si Si2 0.062287 0.663277 0.507612
Si Si3 0.851887 0.522413 0.091736
Si Si4 0.884710 0.101526 0.666051
Si Si5 0.646514 0.496326 0.723465
Si Si6 0.138767 0.369578 0.853628
O O1 0.670840 0.500000 0.500000
O O2 0.594751 0.705338 0.479964
O O3 0.740541 0.590185 0.401285
O O4 0.888851 0.658770 0.486503
O O5 0.072089 0.590561 0.564336
O O6 0.175288 0.614229 0.458428
O O7 0.691632 0.484792 0.120573
O O8 0.969603 0.575024 0.137644
O O9 0.798270 0.081889 0.726231
O O10 0.869756 0.232360 0.646953
O O11 0.068327 0.071385 0.672882
O O12 0.500000 0.422543 0.750000
O O13 0.788522 0.417582 0.704014
#
# Coordination Sequence:
#
# PCOD8158880 Si02
#       6
#     8   8   8   8   8   8
#     4  11  22  40  60  90 127 159 199 243 302 355
#     4  10  21  40  57  93 126 154 200 249 282 374
#     4  10  20  39  62  88 123 158 201 238 306 355
#     4   9  21  41  59  87 119 156 198 255 296 353
#     4   8  23  43  55  89 121 140 215 246 293 358
#     4  11  20  40  65  82 125 159 193 257 297 356
#
# _framework density 19.933900999999999
#
# number of rings (size 3 to 8) (size 9 to 14) (size 15 to 20)
#    1.000    1.000    5.000    0.000    0.000    7.333 
#    6.000    0.000    0.000    0.000    0.000    0.000 
#    0.000    0.000    0.000    0.000    0.000    0.000 
#
# Total GULP energy -297321.220748 kJ/mol
# GULP energy per Si atom -12388.384198 kJ/mol
# Density = 1.988853 g / cm^3
# Si number density = 19.933901 Si / 1000 Ang^3
#
#
#
# Elastic Constant Matrix: (Units=GPa)
#
#
# Indices 1 2 3 4 5 6 
#
# 1 27.6689 14.7009 15.6007 0.0000 0.0000 0.0000
# 2 14.7009 87.8745 8.1997 0.0000 0.0000 0.0000
# 3 15.6007 8.1997 51.2620 0.0000 0.0000 0.0000
# 4 0.0000 0.0000 0.0000 28.8566 0.0000 0.0000
# 5 0.0000 0.0000 0.0000 0.0000 31.1284 0.0000
# 6 0.0000 0.0000 0.0000 0.0000 0.0000 26.4665
#
#
#
# Elastic Compliance Matrix: (Units=1/GPa)
#
#
# Indices 1 2 3 4 5 6 
#
# 1 0.047169 -0.006651 -0.013291 0.000000 0.000000 0.000000
# 2 -0.006651 0.012490 0.000026 0.000000 0.000000 0.000000
# 3 -0.013291 0.000026 0.023548 0.000000 0.000000 0.000000
# 4 0.000000 0.000000 0.000000 0.034654 0.000000 0.000000
# 5 0.000000 0.000000 0.000000 0.000000 0.032125 0.000000
# 6 0.000000 0.000000 0.000000 0.000000 0.000000 0.037784
#
#
# Mechanical properties :
#
#
# Convention : Reuss Voigt Hill
#
# Bulk Modulus (GPa) = 23.05431 27.08978 25.07205
# Shear Modulus (GPa) = 20.65591 25.84391 23.24991
#
# Velocity S-wave (km/s) = 3.22253 3.60457 3.41889
# Velocity P-wave (km/s) = 5.04349 5.56266 5.30942
#
# Compressibility (1/GPa) = 0.04337584
#
# Stress axis : x y z
#
# Youngs Moduli (GPa) = 21.20015 80.06349 42.46568
#
# Poissons Ratio (x) = 0.53250 0.56443
# Poissons Ratio (y) = 0.14100 -0.00111
# Poissons Ratio (z) = 0.28178 -0.00210
#
# Static dielectric constant tensor:
#      x y z
#    x 3.299480 0.000000 0.000000 
#    y 0.000000 3.479350 0.000000 
#    z 0.000000 0.000000 3.898680 
# 
# 
# High freq. dielectric constant tensor:
#      x y z
#    x 1.753220 0.000000 0.000000 
#    y 0.000000 1.765290 0.000000 
#    z 0.000000 0.000000 1.784060 
# 
# From -- ./inp_files/30077.got.cif
#   From: 2010.03.12/outbox.cif.g09.slc.cpg/sg20_16_cif.got.tgz:30077.got - 2010.04.14 01:38:04.
