data_PCOD8158165
_publ_section_title
;
Structure prediction by ZEFSAII (Michael W. Deem and Ramdas Pophale) SiO2 
 PCOD8158165
Probable space group: C 2 2 21
;
_chemical_formula_sum "Si O2"
_cell_formula_units_Z 48
_cell_length_a 9.789246
_cell_length_b 16.997008
_cell_length_c 14.218781
_cell_angle_alpha 90.000000
_cell_angle_beta 90.000000
_cell_angle_gamma 90.000000
_cell_volume 2365.833006
_symmetry_space_group_name_H-M "C 2 2 21"
_symmetry_group_IT_number 20
_symmetry_cell_setting 'orthorhombic'
loop_
_space_group_symop_operation_xyz
x,y,z
-x,-y,1/2+z
x,-y,-z
-x,y,1/2-z
1/2+x,1/2+y,z
1/2-x,1/2-y,1/2+z
1/2+x,1/2-y,-z
1/2-x,1/2+y,1/2-z
loop_
_atom_site_type_symbol
_atom_site_label
_atom_site_fract_x
_atom_site_fract_y
_atom_site_fract_z
Si Si1 0.493125 0.788922 0.359536
Si Si2 0.783120 0.592909 0.845283
Si Si3 0.685327 0.959019 0.907989
Si Si4 0.000000 0.481381 0.750000
Si Si5 0.115506 0.000000 0.000000
Si Si6 0.427160 0.638607 0.028885
Si Si7 0.786106 0.120886 0.848709
O O1 0.500000 0.765361 0.250000
O O2 0.624704 0.839485 0.392406
O O3 0.498856 0.711400 0.422830
O O4 0.355021 0.836606 0.379665
O O5 0.705176 0.544291 0.923032
O O6 0.685058 0.631531 0.763615
O O7 0.883057 0.536709 0.788527
O O8 0.566820 0.930673 0.834860
O O9 0.776719 0.882187 0.930028
O O10 0.781566 0.027204 0.866342
O O11 0.616228 0.000000 0.000000
O O12 0.023655 0.935272 0.949027
O O13 0.407788 0.654161 0.915951
#
# Coordination Sequence:
#
# PCOD8158165 Si02
#       7
#     8   8   8   4   4   8   8
#     4  10  21  40  65  87 121 170 215 260 323 380
#     4  10  21  39  63  90 122 165 217 260 311 385
#     4   9  17  35  61  82 118 159 205 252 310 371
#     4  10  18  36  64  86 110 172 210 248 314 378
#     4  12  26  36  60 102 124 162 216 262 322 388
#     4  11  23  39  60  95 127 163 208 265 328 378
#     4   9  18  41  64  81 123 175 201 253 329 376
#
# _framework density 20.288837000000001
#
# number of rings (size 3 to 8) (size 9 to 14) (size 15 to 20)
#    0.000    2.000    6.667    0.000    3.500    3.333 
#    0.000    0.000   14.667    0.000    0.000    0.000 
#    0.000    0.000    0.000    0.000    0.000    0.000 
#
# Total GULP energy -297342.977643 kJ/mol
# GULP energy per Si atom -12389.290735 kJ/mol
# Density = 2.024266 g / cm^3
# Si number density = 20.288837 Si / 1000 Ang^3
#
#
#
# Elastic Constant Matrix: (Units=GPa)
#
#
# Indices 1 2 3 4 5 6 
#
# 1 58.3035 30.5668 51.8753 0.0000 0.0000 0.0000
# 2 30.5668 89.0082 42.6191 0.0000 0.0000 0.0000
# 3 51.8753 42.6191 109.5582 0.0000 0.0000 0.0000
# 4 0.0000 0.0000 0.0000 37.2924 0.0000 0.0000
# 5 0.0000 0.0000 0.0000 0.0000 42.1379 0.0000
# 6 0.0000 0.0000 0.0000 0.0000 0.0000 27.4608
#
#
#
# Elastic Compliance Matrix: (Units=1/GPa)
#
#
# Indices 1 2 3 4 5 6 
#
# 1 0.031007 -0.004447 -0.012952 0.000000 0.000000 0.000000
# 2 -0.004447 0.014444 -0.003514 0.000000 0.000000 0.000000
# 3 -0.012952 -0.003514 0.016627 0.000000 0.000000 0.000000
# 4 0.000000 0.000000 0.000000 0.026815 0.000000 0.000000
# 5 0.000000 0.000000 0.000000 0.000000 0.023732 0.000000
# 6 0.000000 0.000000 0.000000 0.000000 0.000000 0.036416
#
#
# Mechanical properties :
#
#
# Convention : Reuss Voigt Hill
#
# Bulk Modulus (GPa) = 49.37251 56.33247 52.85249
# Shear Modulus (GPa) = 25.30172 30.16548 27.73360
#
# Velocity S-wave (km/s) = 3.53523 3.86009 3.70122
# Velocity P-wave (km/s) = 6.40714 6.90598 6.66123
#
# Compressibility (1/GPa) = 0.02025419
#
# Stress axis : x y z
#
# Youngs Moduli (GPa) = 32.25123 69.23146 60.14340
#
# Poissons Ratio (x) = 0.30784 0.77896
# Poissons Ratio (y) = 0.14341 0.21132
# Poissons Ratio (z) = 0.41771 0.24325
#
# Static dielectric constant tensor:
#      x y z
#    x 3.389410 0.000000 0.000000 
#    y 0.000000 3.410680 0.000000 
#    z 0.000000 0.000000 4.108770 
# 
# 
# High freq. dielectric constant tensor:
#      x y z
#    x 1.779380 0.000000 0.000000 
#    y 0.000000 1.760220 0.000000 
#    z 0.000000 0.000000 1.801070 
# 
# From -- ./inp_files/18973.got.cif
#   From: 2010.03.12/outbox.cif.g09.slc.cpg/sg20_10_cif.got.tgz:18973.got - 2010.04.14 01:38:04.
