data_PCOD8158375
_publ_section_title
;
Structure prediction by ZEFSAII (Michael W. Deem and Ramdas Pophale) SiO2 
 PCOD8158375
Probable space group: C 2 2 21
;
_chemical_formula_sum "Si O2"
_cell_formula_units_Z 48
_cell_length_a 7.556333
_cell_length_b 14.182505
_cell_length_c 17.214604
_cell_angle_alpha 90.000000
_cell_angle_beta 90.000000
_cell_angle_gamma 90.000000
_cell_volume 1844.850043
_symmetry_space_group_name_H-M "C 2 2 21"
_symmetry_group_IT_number 20
_symmetry_cell_setting 'orthorhombic'
loop_
_space_group_symop_operation_xyz
x,y,z
-x,-y,1/2+z
x,-y,-z
-x,y,1/2-z
1/2+x,1/2+y,z
1/2-x,1/2-y,1/2+z
1/2+x,1/2-y,-z
1/2-x,1/2+y,1/2-z
loop_
_atom_site_type_symbol
_atom_site_label
_atom_site_fract_x
_atom_site_fract_y
_atom_site_fract_z
Si Si1 0.253493 0.021157 0.340222
Si Si2 0.437825 0.200240 0.337441
Si Si3 0.060901 0.869145 0.912798
Si Si4 0.246503 0.521153 0.659779
Si Si5 0.437827 0.799765 0.162559
Si Si6 0.439103 0.369149 0.087199
O O1 0.423049 0.088707 0.360878
O O2 0.079021 0.083686 0.354358
O O3 0.265460 0.999997 0.250001
O O4 0.245182 0.924190 0.391866
O O5 0.500000 0.211283 0.250000
O O6 0.250000 0.250003 0.349583
O O7 0.573991 0.257042 0.394111
O O8 0.073993 0.757037 0.894111
O O9 0.245187 0.924183 0.891861
O O10 0.000001 0.888333 0.999998
O O11 0.076948 0.588703 0.639121
O O12 0.420976 0.583679 0.645637
O O13 0.500000 0.788721 0.250000
#
# Coordination Sequence:
#
# PCOD8158375 Si02
#       6
#     8   8   8   8   8   8
#     4  10  19  35  61  88 121 163 212 260 309 371
#     4  10  21  39  63  94 126 164 217 266 316 380
#     4  10  19  36  62  92 129 170 207 259 328 389
#     4  10  19  35  61  88 121 163 212 260 309 371
#     4  10  21  39  63  94 126 164 217 266 316 380
#     4  10  19  36  62  92 129 170 207 259 328 389
#
# _framework density 26.018374000000001
#
# number of rings (size 3 to 8) (size 9 to 14) (size 15 to 20)
#    0.000    2.000    0.000    8.000    0.000    0.667 
#    0.000   18.333    0.000    0.000    0.000    0.000 
#    0.000    0.000    0.000    0.000    0.000    0.000 
#
# Total GULP energy -297342.455959 kJ/mol
# GULP energy per Si atom -12389.268998 kJ/mol
# Density = 2.595915 g / cm^3
# Si number density = 26.018374 Si / 1000 Ang^3
#
#
#
# Elastic Constant Matrix: (Units=GPa)
#
#
# Indices 1 2 3 4 5 6 
#
# 1 57.6657 38.6064 36.5954 0.0000 0.0000 0.0000
# 2 38.6064 260.2008 97.8876 0.0000 0.0000 0.0000
# 3 36.5954 97.8876 138.3263 0.0000 0.0000 0.0000
# 4 0.0000 0.0000 0.0000 11.4642 0.0000 0.0000
# 5 0.0000 0.0000 0.0000 0.0000 4.8907 0.0000
# 6 0.0000 0.0000 0.0000 0.0000 0.0000 -291.0570
#
#
#
# Elastic Compliance Matrix: (Units=1/GPa)
#
#
# Indices 1 2 3 4 5 6 
#
# 1 0.021214 -0.001412 -0.004613 0.000000 0.000000 0.000000
# 2 -0.001412 0.005332 -0.003399 0.000000 0.000000 0.000000
# 3 -0.004613 -0.003399 0.010855 0.000000 0.000000 0.000000
# 4 0.000000 0.000000 0.000000 0.087228 0.000000 0.000000
# 5 0.000000 0.000000 0.000000 0.000000 0.204469 0.000000
# 6 0.000000 0.000000 0.000000 0.000000 0.000000 -0.003436
#
#
# Mechanical properties :
#
#
# Convention : Reuss Voigt Hill
#
# Bulk Modulus (GPa) = 53.90262 89.15240 71.52751
# Shear Modulus (GPa) = 14.25738 -36.06687 -10.90475
#
# Velocity S-wave (km/s) = 2.34342 -3.72722 -2.04946
# Velocity P-wave (km/s) = 5.29946 3.97702 4.68513
#
# Compressibility (1/GPa) = 0.01855197
#
# Stress axis : x y z
#
# Youngs Moduli (GPa) = 47.13802 187.56364 92.12120
#
# Poissons Ratio (x) = 0.26487 0.42497
# Poissons Ratio (y) = 0.06657 0.31315
# Poissons Ratio (z) = 0.21745 0.63758
#
# Static dielectric constant tensor:
#      x y z
#    x 5.223650 0.000000 0.000000 
#    y 0.000000 6.717500 0.000000 
#    z 0.000000 0.000000 4.315580 
# 
# 
# High freq. dielectric constant tensor:
#      x y z
#    x 2.039380 0.000000 0.000000 
#    y 0.000000 2.083320 0.000000 
#    z 0.000000 0.000000 1.999220 
# 
# From -- ./inp_files/23474.got.cif
#   From: 2010.03.12/outbox.cif.g09.slc.cpg/sg20_12_cif.got.tgz:23474.got - 2010.04.14 01:38:04.
