data_PCOD8158205
_publ_section_title
;
Structure prediction by ZEFSAII (Michael W. Deem and Ramdas Pophale) SiO2 
 PCOD8158205
Probable space group: C 2 2 21
;
_chemical_formula_sum "Si O2"
_cell_formula_units_Z 40
_cell_length_a 7.725305
_cell_length_b 28.286030
_cell_length_c 7.622873
_cell_angle_alpha 90.000000
_cell_angle_beta 90.000000
_cell_angle_gamma 90.000000
_cell_volume 1665.736555
_symmetry_space_group_name_H-M "C 2 2 21"
_symmetry_group_IT_number 20
_symmetry_cell_setting 'orthorhombic'
loop_
_space_group_symop_operation_xyz
x,y,z
-x,-y,1/2+z
x,-y,-z
-x,y,1/2-z
1/2+x,1/2+y,z
1/2-x,1/2-y,1/2+z
1/2+x,1/2-y,-z
1/2-x,1/2+y,1/2-z
loop_
_atom_site_type_symbol
_atom_site_label
_atom_site_fract_x
_atom_site_fract_y
_atom_site_fract_z
Si Si1 0.322339 0.976638 0.313278
Si Si2 0.000000 0.359354 0.750000
Si Si3 0.000000 0.255114 0.250000
Si Si4 0.237726 0.807517 0.503562
Si Si5 0.909487 0.904211 0.024650
Si Si6 0.741520 0.571700 0.149379
O O1 0.500000 0.951756 0.250000
O O2 0.172146 0.937771 0.326577
O O3 0.352953 0.000000 0.500000
O O4 0.277105 0.015796 0.165307
O O5 0.868560 0.325372 0.651682
O O6 0.908956 0.395540 0.889215
O O7 0.096936 0.225874 0.402299
O O8 0.848602 0.284669 0.346330
O O9 0.124632 0.850181 0.418902
O O10 0.827189 0.910758 0.835359
O O11 0.111086 0.918144 0.010184
#
# Coordination Sequence:
#
# PCOD8158205 Si02
#       6
#     8   4   4   8   8   8
#     4  10  20  37  64  96 135 186 236 281 331 406
#     4  10  18  38  73  98 134 186 237 288 360 446
#     4  12  26  46  73 108 144 182 241 308 380 440
#     4  11  24  43  72 104 140 185 237 304 369 440
#     4   9  20  37  65  94 140 176 237 291 346 414
#     4   9  17  36  64  96 132 191 228 279 347 418
#
# _framework density 24.013400000000001
#
# number of rings (size 3 to 8) (size 9 to 14) (size 15 to 20)
#    0.000    2.000    1.000    3.600    1.400    0.000 
#    0.000    7.000    0.000   21.600    0.000    0.000 
#    0.000    0.000    0.000    0.000    0.000    0.000 
#
# Total GULP energy -247848.627022 kJ/mol
# GULP energy per Si atom -12392.431351 kJ/mol
# Density = 2.395874 g / cm^3
# Si number density = 24.013400 Si / 1000 Ang^3
#
#
#
# Elastic Constant Matrix: (Units=GPa)
#
#
# Indices 1 2 3 4 5 6 
#
# 1 151.7706 64.4504 33.1677 0.0000 0.0000 0.0000
# 2 64.4504 143.1458 39.3695 0.0000 0.0000 0.0000
# 3 33.1677 39.3695 85.1399 0.0000 0.0000 0.0000
# 4 0.0000 0.0000 0.0000 1.2676 0.0000 0.0000
# 5 0.0000 0.0000 0.0000 0.0000 51.7343 0.0000
# 6 0.0000 0.0000 0.0000 0.0000 0.0000 -14.8099
#
#
#
# Elastic Compliance Matrix: (Units=1/GPa)
#
#
# Indices 1 2 3 4 5 6 
#
# 1 0.008365 -0.003288 -0.001738 0.000000 0.000000 0.000000
# 2 -0.003288 0.009296 -0.003018 0.000000 0.000000 0.000000
# 3 -0.001738 -0.003018 0.013818 0.000000 0.000000 0.000000
# 4 0.000000 0.000000 0.000000 0.788875 0.000000 0.000000
# 5 0.000000 0.000000 0.000000 0.000000 0.019330 0.000000
# 6 0.000000 0.000000 0.000000 0.000000 0.000000 -0.067522
#
#
# Mechanical properties :
#
#
# Convention : Reuss Voigt Hill
#
# Bulk Modulus (GPa) = 64.97316 72.67017 68.82166
# Shear Modulus (GPa) = 6.30215 23.84300 15.07257
#
# Velocity S-wave (km/s) = 1.62177 3.15446 2.50806
# Velocity P-wave (km/s) = 5.53377 6.60269 6.09172
#
# Compressibility (1/GPa) = 0.01539097
#
# Stress axis : x y z
#
# Youngs Moduli (GPa) = 119.54349 107.56873 72.36952
#
# Poissons Ratio (x) = 0.35372 0.12580
# Poissons Ratio (y) = 0.39309 0.21839
# Poissons Ratio (z) = 0.20780 0.32461
#
# Static dielectric constant tensor:
#      x y z
#    x 4.787000 0.000000 0.000000 
#    y 0.000000 4.584390 0.000000 
#    z 0.000000 0.000000 4.092680 
# 
# 
# High freq. dielectric constant tensor:
#      x y z
#    x 1.970170 0.000000 0.000000 
#    y 0.000000 1.949330 0.000000 
#    z 0.000000 0.000000 1.944790 
# 
# From -- ./inp_files/6131.got.cif
#   From: 2010.03.12/outbox.cif.g09.slc.cpg/sg20_4_cif.got.tgz:6131.got - 2010.04.14 01:38:04.
