data_PCOD8158232
_publ_section_title
;
Structure prediction by ZEFSAII (Michael W. Deem and Ramdas Pophale) SiO2 
 PCOD8158232
Probable space group: C 2 2 21
;
_chemical_formula_sum "Si O2"
_cell_formula_units_Z 48
_cell_length_a 8.654583
_cell_length_b 21.443044
_cell_length_c 12.691551
_cell_angle_alpha 90.000000
_cell_angle_beta 90.000000
_cell_angle_gamma 90.000000
_cell_volume 2355.305701
_symmetry_space_group_name_H-M "C 2 2 21"
_symmetry_group_IT_number 20
_symmetry_cell_setting 'orthorhombic'
loop_
_space_group_symop_operation_xyz
x,y,z
-x,-y,1/2+z
x,-y,-z
-x,y,1/2-z
1/2+x,1/2+y,z
1/2-x,1/2-y,1/2+z
1/2+x,1/2-y,-z
1/2-x,1/2+y,1/2-z
loop_
_atom_site_type_symbol
_atom_site_label
_atom_site_fract_x
_atom_site_fract_y
_atom_site_fract_z
Si Si1 0.695347 0.673180 0.984512
Si Si2 0.654255 0.706467 0.565134
Si Si3 0.730360 0.659107 0.352662
Si Si4 0.748092 0.545048 0.097610
Si Si5 0.500000 0.091171 0.250000
Si Si6 0.675267 0.797904 0.274384
Si Si7 0.500000 0.564856 0.250000
O O1 0.528255 0.701273 0.955142
O O2 0.778966 0.659464 0.873859
O O3 0.792017 0.722204 0.053342
O O4 0.691417 0.612014 0.055705
O O5 0.738808 0.663721 0.478773
O O6 0.708434 0.683688 0.679965
O O7 0.686089 0.725159 0.302362
O O8 0.606366 0.607797 0.322038
O O9 0.897647 0.637872 0.317512
O O10 0.607137 0.522004 0.173457
O O11 0.902611 0.548501 0.168576
O O12 0.777917 0.500000 0.000000
O O13 0.500000 0.815477 0.250000
#
# Coordination Sequence:
#
# PCOD8158232 Si02
#       7
#     8   8   8   8   4   8   4
#     4  11  24  38  65  94 133 170 204 269 317 388
#     4  11  21  37  60  97 135 166 206 255 330 388
#     4  10  20  35  63  89 128 162 216 246 308 385
#     4  11  25  48  66  93 126 167 226 267 312 382
#     4  10  24  38  70  92 116 176 210 262 312 376
#     4  11  23  35  56  97 139 172 198 259 327 386
#     4  10  18  44  68  88 112 170 214 262 300 372
#
# _framework density 20.379519999999999
#
# number of rings (size 3 to 8) (size 9 to 14) (size 15 to 20)
#    0.000    1.333    2.500    4.500   11.667    0.000 
#    4.500    3.333    0.000    0.000    0.000    0.000 
#    0.000    0.000    0.000    0.000    0.000    0.000 
#
# Total GULP energy -297573.108089 kJ/mol
# GULP energy per Si atom -12398.879504 kJ/mol
# Density = 2.033314 g / cm^3
# Si number density = 20.379520 Si / 1000 Ang^3
#
#
#
# Elastic Constant Matrix: (Units=GPa)
#
#
# Indices 1 2 3 4 5 6 
#
# 1 139.9040 20.8876 42.7722 0.0000 0.0000 0.0000
# 2 20.8876 32.1865 14.3126 0.0000 0.0000 0.0000
# 3 42.7722 14.3126 128.4725 0.0000 0.0000 0.0000
# 4 0.0000 0.0000 0.0000 26.3815 0.0000 0.0000
# 5 0.0000 0.0000 0.0000 0.0000 38.2771 0.0000
# 6 0.0000 0.0000 0.0000 0.0000 0.0000 10.0018
#
#
#
# Elastic Compliance Matrix: (Units=1/GPa)
#
#
# Indices 1 2 3 4 5 6 
#
# 1 0.008535 -0.004498 -0.002340 0.000000 0.000000 0.000000
# 2 -0.004498 0.035059 -0.002408 0.000000 0.000000 0.000000
# 3 -0.002340 -0.002408 0.008831 0.000000 0.000000 0.000000
# 4 0.000000 0.000000 0.000000 0.037905 0.000000 0.000000
# 5 0.000000 0.000000 0.000000 0.000000 0.026125 0.000000
# 6 0.000000 0.000000 0.000000 0.000000 0.000000 0.099982
#
#
# Mechanical properties :
#
#
# Convention : Reuss Voigt Hill
#
# Bulk Modulus (GPa) = 29.47107 50.72309 40.09708
# Shear Modulus (GPa) = 20.30529 29.77145 25.03837
#
# Velocity S-wave (km/s) = 3.15994 3.82625 3.50895
# Velocity P-wave (km/s) = 5.27315 6.66810 6.01123
#
# Compressibility (1/GPa) = 0.03393158
#
# Stress axis : x y z
#
# Youngs Moduli (GPa) = 117.16710 28.52355 113.23438
#
# Poissons Ratio (x) = 0.12830 0.26501
# Poissons Ratio (y) = 0.52702 0.27270
# Poissons Ratio (z) = 0.27422 0.06869
#
# Static dielectric constant tensor:
#      x y z
#    x 4.111130 0.000000 0.000000 
#    y 0.000000 3.200170 0.000000 
#    z 0.000000 0.000000 6.863770 
# 
# 
# High freq. dielectric constant tensor:
#      x y z
#    x 1.815080 0.000000 0.000000 
#    y 0.000000 1.742070 0.000000 
#    z 0.000000 0.000000 1.822270 
# 
# From -- ./inp_files/13145.got.cif
#   From: 2010.03.12/outbox.cif.g09.slc.cpg/sg20_7_cif.got.tgz:13145.got - 2010.04.14 01:38:04.
