data_PCOD8158611
_publ_section_title
;
Structure prediction by ZEFSAII (Michael W. Deem and Ramdas Pophale) SiO2 
 PCOD8158611
Probable space group: C 2 2 21
;
_chemical_formula_sum "Si O2"
_cell_formula_units_Z 56
_cell_length_a 9.264781
_cell_length_b 20.299520
_cell_length_c 15.389039
_cell_angle_alpha 90.000000
_cell_angle_beta 90.000000
_cell_angle_gamma 90.000000
_cell_volume 2894.225909
_symmetry_space_group_name_H-M "C 2 2 21"
_symmetry_group_IT_number 20
_symmetry_cell_setting 'orthorhombic'
loop_
_space_group_symop_operation_xyz
x,y,z
-x,-y,1/2+z
x,-y,-z
-x,y,1/2-z
1/2+x,1/2+y,z
1/2-x,1/2-y,1/2+z
1/2+x,1/2-y,-z
1/2-x,1/2+y,1/2-z
loop_
_atom_site_type_symbol
_atom_site_label
_atom_site_fract_x
_atom_site_fract_y
_atom_site_fract_z
Si Si1 0.430497 0.306352 0.425589
Si Si2 0.543635 0.061395 0.941110
Si Si3 0.090252 0.706654 0.330817
Si Si4 0.500000 0.097903 0.750000
Si Si5 0.204935 0.838300 0.253398
Si Si6 0.866468 0.085874 0.914474
Si Si7 0.211739 0.624218 0.469170
Si Si8 0.587369 0.500000 0.000000
O O1 0.480863 0.231622 0.407844
O O2 0.392778 0.338831 0.331818
O O3 0.562156 0.350731 0.462408
O O4 0.295122 0.312740 0.489462
O O5 0.520968 0.052291 0.836481
O O6 0.711508 0.075694 0.960652
O O7 0.435201 0.117720 0.975151
O O8 0.495985 0.000000 0.000000
O O9 0.191094 0.767878 0.302355
O O10 0.179347 0.645503 0.369899
O O11 0.000000 0.678470 0.250000
O O12 0.629466 0.148405 0.731162
O O13 0.154756 0.899390 0.312858
O O14 0.978083 0.024556 0.924155
O O15 0.310065 0.558859 0.466927
#
# Coordination Sequence:
#
# PCOD8158611 Si02
#       8
#     8   8   8   4   8   8   8   4
#     4   9  18  35  58  87 107 147 201 246 295 356
#     4  11  21  37  55  90 118 154 204 249 300 357
#     4   9  20  37  59  85 122 153 190 251 309 365
#     4  10  20  34  62  88 116 156 206 262 294 362
#     4   9  17  35  59  87 110 150 200 251 299 354
#     4   9  18  32  58  81 116 147 193 248 291 344
#     4  11  21  36  60  86 118 160 200 243 301 362
#     4  10  20  36  56  84 122 160 202 236 288 374
#
# _framework density 19.348869000000001
#
# number of rings (size 3 to 8) (size 9 to 14) (size 15 to 20)
#    0.000    2.286    2.857    1.286    0.000    3.429 
#    1.286    0.000    3.143    0.000    0.000    0.000 
#    0.000    0.000    0.000    0.000    0.000    0.000 
#
# Total GULP energy -346874.343126 kJ/mol
# GULP energy per Si atom -12388.369397 kJ/mol
# Density = 1.930483 g / cm^3
# Si number density = 19.348869 Si / 1000 Ang^3
#
#
#
# Elastic Constant Matrix: (Units=GPa)
#
#
# Indices 1 2 3 4 5 6 
#
# 1 127.8936 46.0498 35.8678 0.0000 0.0000 0.0000
# 2 46.0498 65.6389 45.4233 0.0000 0.0000 0.0000
# 3 35.8678 45.4233 91.3836 0.0000 0.0000 0.0000
# 4 0.0000 0.0000 0.0000 24.7744 0.0000 0.0000
# 5 0.0000 0.0000 0.0000 0.0000 28.8665 0.0000
# 6 0.0000 0.0000 0.0000 0.0000 0.0000 12.3757
#
#
#
# Elastic Compliance Matrix: (Units=1/GPa)
#
#
# Indices 1 2 3 4 5 6 
#
# 1 0.010491 -0.006876 -0.000700 0.000000 0.000000 0.000000
# 2 -0.006876 0.027729 -0.011084 0.000000 0.000000 0.000000
# 3 -0.000700 -0.011084 0.016727 0.000000 0.000000 0.000000
# 4 0.000000 0.000000 0.000000 0.040364 0.000000 0.000000
# 5 0.000000 0.000000 0.000000 0.000000 0.034642 0.000000
# 6 0.000000 0.000000 0.000000 0.000000 0.000000 0.080803
#
#
# Mechanical properties :
#
#
# Convention : Reuss Voigt Hill
#
# Bulk Modulus (GPa) = 56.73055 59.95533 58.34294
# Shear Modulus (GPa) = 19.68866 23.70835 21.69851
#
# Velocity S-wave (km/s) = 3.19338 3.50424 3.35242
# Velocity P-wave (km/s) = 6.55594 6.88670 6.72336
#
# Compressibility (1/GPa) = 0.01762719
#
# Stress axis : x y z
#
# Youngs Moduli (GPa) = 95.31983 36.06306 59.78238
#
# Poissons Ratio (x) = 0.24796 0.04185
# Poissons Ratio (y) = 0.65538 0.66266
# Poissons Ratio (z) = 0.06673 0.39974
#
# Static dielectric constant tensor:
#      x y z
#    x 3.917870 0.000000 0.000000 
#    y 0.000000 3.221780 0.000000 
#    z 0.000000 0.000000 3.418820 
# 
# 
# High freq. dielectric constant tensor:
#      x y z
#    x 1.775530 0.000000 0.000000 
#    y 0.000000 1.721570 0.000000 
#    z 0.000000 0.000000 1.734300 
# 
# From -- ./inp_files/19261.got.cif
#   From: 2010.03.12/outbox.cif.g09.slc.cpg/sg20_10_cif.got.tgz:19261.got - 2010.04.14 01:38:04.
