data_PCOD8158605
_publ_section_title
;
Structure prediction by ZEFSAII (Michael W. Deem and Ramdas Pophale) SiO2 
 PCOD8158605
Probable space group: C 2 2 21
;
_chemical_formula_sum "Si O2"
_cell_formula_units_Z 40
_cell_length_a 30.232173
_cell_length_b 12.901392
_cell_length_c 5.007553
_cell_angle_alpha 90.000000
_cell_angle_beta 90.000000
_cell_angle_gamma 90.000000
_cell_volume 1953.131525
_symmetry_space_group_name_H-M "C 2 2 21"
_symmetry_group_IT_number 20
_symmetry_cell_setting 'orthorhombic'
loop_
_space_group_symop_operation_xyz
x,y,z
-x,-y,1/2+z
x,-y,-z
-x,y,1/2-z
1/2+x,1/2+y,z
1/2-x,1/2-y,1/2+z
1/2+x,1/2-y,-z
1/2-x,1/2+y,1/2-z
loop_
_atom_site_type_symbol
_atom_site_label
_atom_site_fract_x
_atom_site_fract_y
_atom_site_fract_z
Si Si1 0.227205 0.210189 0.779476
Si Si2 0.930044 0.255018 0.302065
Si Si3 0.375345 0.285801 0.176225
Si Si4 0.500000 0.575882 0.250000
Si Si5 0.647086 0.500000 0.500000
Si Si6 0.295405 0.500000 0.500000
Si Si7 0.500000 0.070592 0.750000
O O1 0.252637 0.212023 0.497699
O O2 0.175967 0.237929 0.731802
O O3 0.234209 0.094568 0.894743
O O4 0.904993 0.241563 0.575967
O O5 0.957499 0.151207 0.233932
O O6 0.959430 0.356905 0.333811
O O7 0.893714 0.278601 0.074087
O O8 0.382695 0.406956 0.108051
O O9 0.497708 0.500000 0.500000
O O10 0.675821 0.542470 0.249756
O O11 0.513435 0.000000 0.500000
#
# Coordination Sequence:
#
# PCOD8158605 Si02
#       7
#     8   8   8   4   4   4   4
#     4  11  22  39  64  88 126 170 207 261 311 360
#     4  11  24  40  64  96 126 161 212 258 300 384
#     4  11  22  38  63  95 131 161 214 246 313 375
#     4  11  24  39  56  94 140 165 184 235 314 378
#     4  10  20  34  58  92 125 172 194 248 293 390
#     4  10  20  38  58  90 117 160 228 242 299 390
#     4  11  24  47  74  88 116 171 220 273 322 360
#
# _framework density 20.479932999999999
#
# number of rings (size 3 to 8) (size 9 to 14) (size 15 to 20)
#    0.000    1.200    0.000    8.400    4.200    3.200 
#    0.000    0.000   22.000    0.000    0.000    0.000 
#    0.000    0.000    0.000    0.000    0.000    0.000 
#
# Total GULP energy -247997.156611 kJ/mol
# GULP energy per Si atom -12399.857831 kJ/mol
# Density = 2.043332 g / cm^3
# Si number density = 20.479933 Si / 1000 Ang^3
#
#
#
# Elastic Constant Matrix: (Units=GPa)
#
#
# Indices 1 2 3 4 5 6 
#
# 1 146.3235 36.1788 64.9765 0.0000 0.0000 0.0000
# 2 36.1788 103.5777 41.8327 0.0000 0.0000 0.0000
# 3 64.9765 41.8327 160.4166 0.0000 0.0000 0.0000
# 4 0.0000 0.0000 0.0000 66.5799 0.0000 0.0000
# 5 0.0000 0.0000 0.0000 0.0000 51.6223 0.0000
# 6 0.0000 0.0000 0.0000 0.0000 0.0000 13.3521
#
#
#
# Elastic Compliance Matrix: (Units=1/GPa)
#
#
# Indices 1 2 3 4 5 6 
#
# 1 0.008620 -0.001789 -0.003025 0.000000 0.000000 0.000000
# 2 -0.001789 0.011162 -0.002186 0.000000 0.000000 0.000000
# 3 -0.003025 -0.002186 0.008029 0.000000 0.000000 0.000000
# 4 0.000000 0.000000 0.000000 0.015020 0.000000 0.000000
# 5 0.000000 0.000000 0.000000 0.000000 0.019371 0.000000
# 6 0.000000 0.000000 0.000000 0.000000 0.000000 0.074894
#
#
# Mechanical properties :
#
#
# Convention : Reuss Voigt Hill
#
# Bulk Modulus (GPa) = 72.40648 77.36599 74.88624
# Shear Modulus (GPa) = 32.11288 44.13284 38.12286
#
# Velocity S-wave (km/s) = 3.96412 4.64716 4.31916
# Velocity P-wave (km/s) = 7.50892 8.16415 7.84338
#
# Compressibility (1/GPa) = 0.01381092
#
# Stress axis : x y z
#
# Youngs Moduli (GPa) = 116.01251 89.58585 124.54699
#
# Poissons Ratio (x) = 0.16028 0.37674
# Poissons Ratio (y) = 0.20756 0.27229
# Poissons Ratio (z) = 0.35092 0.19585
#
# Static dielectric constant tensor:
#      x y z
#    x 3.723690 0.000000 0.000000 
#    y 0.000000 3.646260 0.000000 
#    z 0.000000 0.000000 4.001600 
# 
# 
# High freq. dielectric constant tensor:
#      x y z
#    x 1.794900 0.000000 0.000000 
#    y 0.000000 1.785860 0.000000 
#    z 0.000000 0.000000 1.832170 
# 
# From -- ./inp_files/4139.got.cif
#   From: 2010.03.12/outbox.cif.g09.slc.cpg/sg20_3_cif.got.tgz:4139.got - 2010.04.14 01:38:04.
