data_PCOD8158424
_publ_section_title
;
Structure prediction by ZEFSAII (Michael W. Deem and Ramdas Pophale) SiO2 
 PCOD8158424
Probable space group: C 2 2 21
;
_chemical_formula_sum "Si O2"
_cell_formula_units_Z 64
_cell_length_a 24.033121
_cell_length_b 8.600720
_cell_length_c 15.165979
_cell_angle_alpha 90.000000
_cell_angle_beta 90.000000
_cell_angle_gamma 90.000000
_cell_volume 3134.840382
_symmetry_space_group_name_H-M "C 2 2 21"
_symmetry_group_IT_number 20
_symmetry_cell_setting 'orthorhombic'
loop_
_space_group_symop_operation_xyz
x,y,z
-x,-y,1/2+z
x,-y,-z
-x,y,1/2-z
1/2+x,1/2+y,z
1/2-x,1/2-y,1/2+z
1/2+x,1/2-y,-z
1/2-x,1/2+y,1/2-z
loop_
_atom_site_type_symbol
_atom_site_label
_atom_site_fract_x
_atom_site_fract_y
_atom_site_fract_z
Si Si1 0.872469 0.172488 0.896878
Si Si2 0.300716 0.817865 0.513980
Si Si3 0.923506 0.814702 0.499021
Si Si4 0.126607 0.823973 0.600389
Si Si5 0.993169 0.816524 0.151534
Si Si6 0.263202 0.820950 0.850714
Si Si7 0.505859 0.314041 0.650979
Si Si8 0.733481 0.819639 0.330116
O O1 0.933755 0.242681 0.883266
O O2 0.828944 0.284971 0.849101
O O3 0.868174 0.997146 0.857312
O O4 0.858018 0.166276 0.998862
O O5 0.364440 0.767711 0.505152
O O6 0.264123 0.729724 0.442059
O O7 0.276618 0.778767 0.610647
O O8 0.295105 0.000000 0.500000
O O9 0.958354 0.757551 0.413548
O O10 0.955912 0.757303 0.587295
O O11 0.915570 0.000000 0.500000
O O12 0.064790 0.755574 0.613204
O O13 0.169620 0.706901 0.644245
O O14 0.000000 0.749244 0.250000
O O15 0.994602 0.001231 0.151134
O O16 0.236231 0.727146 0.771285
O O17 0.251263 0.001435 0.839666
O O18 0.500000 0.247152 0.750000
#
# Coordination Sequence:
#
# PCOD8158424 Si02
#       8
#     8   8   8   8   8   8   8   8
#     4  10  19  36  62  90 124 164 210 260 307 363
#     4  12  26  45  64  91 131 170 212 262 317 374
#     4  10  20  37  60  89 123 162 210 254 303 370
#     4  10  19  36  62  90 124 164 210 260 307 363
#     4   9  18  33  57  90 123 161 206 251 302 368
#     4  12  26  44  66  94 126 166 213 262 320 379
#     4   9  18  33  57  90 123 161 206 251 302 368
#     4  12  26  44  66  94 126 166 213 262 320 379
#
# _framework density 20.415713
#
# number of rings (size 3 to 8) (size 9 to 14) (size 15 to 20)
#    0.000    1.500    2.500    3.375    3.500    0.000 
#    0.000    1.250    0.000    1.500    0.000    0.000 
#    0.000    0.000    0.000    0.000    0.000    0.000 
#
# Total GULP energy -396849.776133 kJ/mol
# GULP energy per Si atom -12401.555504 kJ/mol
# Density = 2.036925 g / cm^3
# Si number density = 20.415713 Si / 1000 Ang^3
#
#
#
# Elastic Constant Matrix: (Units=GPa)
#
#
# Indices 1 2 3 4 5 6 
#
# 1 112.8267 16.8000 9.5187 0.0000 0.0000 0.0000
# 2 16.8000 73.6502 4.9673 0.0000 0.0000 0.0000
# 3 9.5187 4.9673 80.9572 0.0000 0.0000 0.0000
# 4 0.0000 0.0000 0.0000 21.6630 0.0000 0.0000
# 5 0.0000 0.0000 0.0000 0.0000 35.2452 0.0000
# 6 0.0000 0.0000 0.0000 0.0000 0.0000 41.6368
#
#
#
# Elastic Compliance Matrix: (Units=1/GPa)
#
#
# Indices 1 2 3 4 5 6 
#
# 1 0.009249 -0.002045 -0.000962 0.000000 0.000000 0.000000
# 2 -0.002045 0.014086 -0.000624 0.000000 0.000000 0.000000
# 3 -0.000962 -0.000624 0.012504 0.000000 0.000000 0.000000
# 4 0.000000 0.000000 0.000000 0.046162 0.000000 0.000000
# 5 0.000000 0.000000 0.000000 0.000000 0.028373 0.000000
# 6 0.000000 0.000000 0.000000 0.000000 0.000000 0.024017
#
#
# Mechanical properties :
#
#
# Convention : Reuss Voigt Hill
#
# Bulk Modulus (GPa) = 34.99285 36.66732 35.83008
# Shear Modulus (GPa) = 33.07379 35.45221 34.26300
#
# Velocity S-wave (km/s) = 4.02931 4.17167 4.10111
# Velocity P-wave (km/s) = 6.23093 6.41897 6.32565
#
# Compressibility (1/GPa) = 0.02857727
#
# Stress axis : x y z
#
# Youngs Moduli (GPa) = 108.12231 70.99146 79.97705
#
# Poissons Ratio (x) = 0.14516 0.07694
# Poissons Ratio (y) = 0.22109 0.04989
# Poissons Ratio (z) = 0.10401 0.04429
#
# Static dielectric constant tensor:
#      x y z
#    x 3.851670 0.000000 0.000000 
#    y 0.000000 3.390020 0.000000 
#    z 0.000000 0.000000 3.912940 
# 
# 
# High freq. dielectric constant tensor:
#      x y z
#    x 1.813030 0.000000 0.000000 
#    y 0.000000 1.762810 0.000000 
#    z 0.000000 0.000000 1.805770 
# 
# From -- ./inp_files/22044.got.cif
#   From: 2010.03.12/outbox.cif.g09.slc.cpg/sg20_12_cif.got.tgz:22044.got - 2010.04.14 01:38:04.
