data_PCOD8158176
_publ_section_title
;
Structure prediction by ZEFSAII (Michael W. Deem and Ramdas Pophale) SiO2 
 PCOD8158176
Probable space group: C 2 2 21
;
_chemical_formula_sum "Si O2"
_cell_formula_units_Z 56
_cell_length_a 12.932212
_cell_length_b 20.996434
_cell_length_c 11.335392
_cell_angle_alpha 90.000000
_cell_angle_beta 90.000000
_cell_angle_gamma 90.000000
_cell_volume 3077.902795
_symmetry_space_group_name_H-M "C 2 2 21"
_symmetry_group_IT_number 20
_symmetry_cell_setting 'orthorhombic'
loop_
_space_group_symop_operation_xyz
x,y,z
-x,-y,1/2+z
x,-y,-z
-x,y,1/2-z
1/2+x,1/2+y,z
1/2-x,1/2-y,1/2+z
1/2+x,1/2-y,-z
1/2-x,1/2+y,1/2-z
loop_
_atom_site_type_symbol
_atom_site_label
_atom_site_fract_x
_atom_site_fract_y
_atom_site_fract_z
Si Si1 0.650732 0.279030 0.434031
Si Si2 0.662456 0.168896 0.803872
Si Si3 0.810340 0.897883 0.375294
Si Si4 0.262076 0.856267 0.877982
Si Si5 0.500000 0.657832 0.750000
Si Si6 0.393755 0.301148 0.794219
Si Si7 0.000000 0.575179 0.750000
Si Si8 0.167323 0.508208 0.370567
O O1 0.757342 0.318396 0.410991
O O2 0.667744 0.203505 0.417498
O O3 0.562420 0.297949 0.340780
O O4 0.613741 0.296718 0.564695
O O5 0.725250 0.145043 0.690078
O O6 0.607031 0.233133 0.767632
O O7 0.568492 0.120459 0.838258
O O8 0.810690 0.876853 0.512344
O O9 0.923933 0.888067 0.322693
O O10 0.778991 0.972226 0.359219
O O11 0.199660 0.841728 0.759073
O O12 0.329361 0.917260 0.838527
O O13 0.500000 0.333898 0.750000
O O14 0.082384 0.527386 0.701637
O O15 0.124227 0.500000 0.500000
#
# Coordination Sequence:
#
# PCOD8158176 Si02
#       8
#     8   8   8   8   4   8   4   8
#     4  10  21  35  54  85 118 143 186 234 283 334
#     4   9  18  33  55  79 107 145 183 232 274 330
#     4   9  17  36  57  76 108 142 189 222 269 333
#     4  10  20  36  54  81 116 145 178 231 290 325
#     4  10  20  35  60  83 104 150 188 224 276 338
#     4  11  20  33  54  82 112 148 184 233 285 335
#     4  10  18  37  58  81 104 146 200 216 272 344
#     4   9  20  36  57  78 109 150 179 229 274 328
#
# _framework density 18.194208
#
# number of rings (size 3 to 8) (size 9 to 14) (size 15 to 20)
#    0.000    2.286    2.143    0.857    0.000    0.571 
#    3.857    0.000    0.000    0.000    0.000    0.000 
#    0.000    0.000    0.000    0.000    0.000    0.000 
#
# Total GULP energy -346909.920546 kJ/mol
# GULP energy per Si atom -12389.640020 kJ/mol
# Density = 1.815280 g / cm^3
# Si number density = 18.194208 Si / 1000 Ang^3
#
#
#
# Elastic Constant Matrix: (Units=GPa)
#
#
# Indices 1 2 3 4 5 6 
#
# 1 79.7360 37.6949 43.6546 0.0000 0.0000 0.0000
# 2 37.6949 114.0828 39.1699 0.0000 0.0000 0.0000
# 3 43.6546 39.1699 102.7989 0.0000 0.0000 0.0000
# 4 0.0000 0.0000 0.0000 16.8832 0.0000 0.0000
# 5 0.0000 0.0000 0.0000 0.0000 19.5238 0.0000
# 6 0.0000 0.0000 0.0000 0.0000 0.0000 17.0632
#
#
#
# Elastic Compliance Matrix: (Units=1/GPa)
#
#
# Indices 1 2 3 4 5 6 
#
# 1 0.017629 -0.003744 -0.006060 0.000000 0.000000 0.000000
# 2 -0.003744 0.010880 -0.002556 0.000000 0.000000 0.000000
# 3 -0.006060 -0.002556 0.013275 0.000000 0.000000 0.000000
# 4 0.000000 0.000000 0.000000 0.059230 0.000000 0.000000
# 5 0.000000 0.000000 0.000000 0.000000 0.051220 0.000000
# 6 0.000000 0.000000 0.000000 0.000000 0.000000 0.058606
#
#
# Mechanical properties :
#
#
# Convention : Reuss Voigt Hill
#
# Bulk Modulus (GPa) = 58.60018 59.73961 59.16989
# Shear Modulus (GPa) = 20.72560 22.43392 21.57976
#
# Velocity S-wave (km/s) = 3.37876 3.51526 3.44769
# Velocity P-wave (km/s) = 6.89199 7.02721 6.95993
#
# Compressibility (1/GPa) = 0.01706480
#
# Stress axis : x y z
#
# Youngs Moduli (GPa) = 56.72426 91.90959 75.33067
#
# Poissons Ratio (x) = 0.34415 0.45648
# Poissons Ratio (y) = 0.21240 0.19252
# Poissons Ratio (z) = 0.34373 0.23489
#
# Static dielectric constant tensor:
#      x y z
#    x 3.534640 0.000000 0.000000 
#    y 0.000000 3.004450 0.000000 
#    z 0.000000 0.000000 3.280080 
# 
# 
# High freq. dielectric constant tensor:
#      x y z
#    x 1.705590 0.000000 0.000000 
#    y 0.000000 1.705080 0.000000 
#    z 0.000000 0.000000 1.692760 
# 
# From -- ./inp_files/14360.got.cif
#   From: 2010.03.12/outbox.cif.g09.slc.cpg/sg20_8_cif.got.tgz:14360.got - 2010.04.14 01:38:04.
