data_PCOD8158919
_publ_section_title
;
Structure prediction by ZEFSAII (Michael W. Deem and Ramdas Pophale) SiO2 
 PCOD8158919
Probable space group: C 2 2 21
;
_chemical_formula_sum "Si O2"
_cell_formula_units_Z 52
_cell_length_a 8.031326
_cell_length_b 25.155071
_cell_length_c 11.989381
_cell_angle_alpha 90.000000
_cell_angle_beta 90.000000
_cell_angle_gamma 90.000000
_cell_volume 2422.197568
_symmetry_space_group_name_H-M "C 2 2 21"
_symmetry_group_IT_number 20
_symmetry_cell_setting 'orthorhombic'
loop_
_space_group_symop_operation_xyz
x,y,z
-x,-y,1/2+z
x,-y,-z
-x,y,1/2-z
1/2+x,1/2+y,z
1/2-x,1/2-y,1/2+z
1/2+x,1/2-y,-z
1/2-x,1/2+y,1/2-z
loop_
_atom_site_type_symbol
_atom_site_label
_atom_site_fract_x
_atom_site_fract_y
_atom_site_fract_z
Si Si1 0.327320 0.617826 0.577976
Si Si2 0.000000 0.270261 0.750000
Si Si3 0.691547 0.474938 0.240809
Si Si4 0.201257 0.413686 0.654670
Si Si5 0.185174 0.302998 0.262519
Si Si6 0.292706 0.387168 0.098300
Si Si7 0.631594 0.135598 0.128359
O O1 0.262339 0.566852 0.644661
O O2 0.321397 0.603285 0.446878
O O3 0.222363 0.670583 0.614802
O O4 0.515397 0.628046 0.617536
O O5 0.167470 0.236852 0.726709
O O6 0.043736 0.306393 0.859616
O O7 0.500000 0.490988 0.250000
O O8 0.786363 0.527610 0.205162
O O9 0.741242 0.448314 0.361243
O O10 0.234532 0.373266 0.757016
O O11 0.011768 0.408486 0.612360
O O12 0.178243 0.350245 0.173615
O O13 0.000000 0.276391 0.250000
O O14 0.257365 0.373416 0.971108
#
# Coordination Sequence:
#
# PCOD8158919 Si02
#       7
#     8   4   8   8   8   8   8
#     4  10  20  39  68  96 136 172 222 281 328 414
#     4  10  22  50  62  96 140 166 236 280 342 408
#     4   9  20  37  64  95 127 175 225 272 336 410
#     4  10  21  41  58  90 137 169 220 273 336 394
#     4  11  21  43  73 101 129 176 223 286 350 404
#     4  10  21  43  66  96 134 177 227 278 343 408
#     4  10  25  45  59  91 137 177 222 291 329 409
#
# _framework density 21.468108999999998
#
# number of rings (size 3 to 8) (size 9 to 14) (size 15 to 20)
#    0.000    2.154    1.538    2.308    2.154    0.615 
#   36.000    0.000    0.000    0.000    0.000    0.000 
#    0.000    0.000    0.000    0.000    0.000    0.000 
#
# Total GULP energy -322097.122674 kJ/mol
# GULP energy per Si atom -12388.350872 kJ/mol
# Density = 2.141925 g / cm^3
# Si number density = 21.468109 Si / 1000 Ang^3
#
#
#
# Elastic Constant Matrix: (Units=GPa)
#
#
# Indices 1 2 3 4 5 6 
#
# 1 101.3024 48.9671 23.0045 0.0000 0.0000 0.0000
# 2 48.9671 108.6135 28.8778 0.0000 0.0000 0.0000
# 3 23.0045 28.8778 121.7249 0.0000 0.0000 0.0000
# 4 0.0000 0.0000 0.0000 24.5334 0.0000 0.0000
# 5 0.0000 0.0000 0.0000 0.0000 33.5434 0.0000
# 6 0.0000 0.0000 0.0000 0.0000 0.0000 29.3172
#
#
#
# Elastic Compliance Matrix: (Units=1/GPa)
#
#
# Indices 1 2 3 4 5 6 
#
# 1 0.012763 -0.005457 -0.001117 0.000000 0.000000 0.000000
# 2 -0.005457 0.012160 -0.001854 0.000000 0.000000 0.000000
# 3 -0.001117 -0.001854 0.008866 0.000000 0.000000 0.000000
# 4 0.000000 0.000000 0.000000 0.040761 0.000000 0.000000
# 5 0.000000 0.000000 0.000000 0.000000 0.029812 0.000000
# 6 0.000000 0.000000 0.000000 0.000000 0.000000 0.034110
#
#
# Mechanical properties :
#
#
# Convention : Reuss Voigt Hill
#
# Bulk Modulus (GPa) = 59.05531 59.25998 59.15764
# Shear Modulus (GPa) = 31.06135 32.86490 31.96312
#
# Velocity S-wave (km/s) = 3.80789 3.91688 3.86277
# Velocity P-wave (km/s) = 6.84846 6.93683 6.89279
#
# Compressibility (1/GPa) = 0.01693328
#
# Stress axis : x y z
#
# Youngs Moduli (GPa) = 78.35198 82.23725 112.78846
#
# Poissons Ratio (x) = 0.44876 0.12604
# Poissons Ratio (y) = 0.42756 0.20906
# Poissons Ratio (z) = 0.08755 0.15243
#
# Static dielectric constant tensor:
#      x y z
#    x 3.729040 0.000000 0.000000 
#    y 0.000000 3.880540 0.000000 
#    z 0.000000 0.000000 3.880830 
# 
# 
# High freq. dielectric constant tensor:
#      x y z
#    x 1.838820 0.000000 0.000000 
#    y 0.000000 1.832160 0.000000 
#    z 0.000000 0.000000 1.837550 
# 
# From -- ./inp_files/13244.got.cif
#   From: 2010.03.12/outbox.cif.g09.slc.cpg/sg20_7_cif.got.tgz:13244.got - 2010.04.14 01:38:04.
