data_PCOD8158159
_publ_section_title
;
Structure prediction by ZEFSAII (Michael W. Deem and Ramdas Pophale) SiO2 
 PCOD8158159
Probable space group: C 2 2 21
;
_chemical_formula_sum "Si O2"
_cell_formula_units_Z 64
_cell_length_a 11.044013
_cell_length_b 18.180211
_cell_length_c 16.507611
_cell_angle_alpha 90.000000
_cell_angle_beta 90.000000
_cell_angle_gamma 90.000000
_cell_volume 3314.439185
_symmetry_space_group_name_H-M "C 2 2 21"
_symmetry_group_IT_number 20
_symmetry_cell_setting 'orthorhombic'
loop_
_space_group_symop_operation_xyz
x,y,z
-x,-y,1/2+z
x,-y,-z
-x,y,1/2-z
1/2+x,1/2+y,z
1/2-x,1/2-y,1/2+z
1/2+x,1/2-y,-z
1/2-x,1/2+y,1/2-z
loop_
_atom_site_type_symbol
_atom_site_label
_atom_site_fract_x
_atom_site_fract_y
_atom_site_fract_z
Si Si1 0.427353 0.633779 0.675684
Si Si2 0.254262 0.558873 0.571197
Si Si3 0.428637 0.181025 0.940748
Si Si4 0.641989 0.983442 0.259165
Si Si5 0.201783 0.728676 0.709746
Si Si6 0.140795 0.349276 0.732511
Si Si7 0.333092 0.854321 0.358793
Si Si8 0.886830 0.238411 0.901807
O O1 0.500000 0.593906 0.750000
O O2 0.391702 0.578852 0.601502
O O3 0.298747 0.662237 0.707756
O O4 0.503374 0.703969 0.648341
O O5 0.265784 0.500000 0.500000
O O6 0.179842 0.626606 0.532818
O O7 0.176308 0.537585 0.649698
O O8 0.391503 0.228435 0.863050
O O9 0.554800 0.138741 0.921911
O O10 0.442803 0.239671 0.012306
O O11 0.500000 0.973940 0.250000
O O12 0.685149 0.067624 0.253984
O O13 0.696578 0.932507 0.186615
O O14 0.272460 0.805587 0.706089
O O15 0.131443 0.708887 0.792894
O O16 0.161283 0.312113 0.644019
O O17 0.000000 0.342300 0.750000
O O18 0.216910 0.824450 0.409073
#
# Coordination Sequence:
#
# PCOD8158159 Si02
#       8
#     8   8   8   8   8   8   8   8
#     4  11  18  38  66  86 114 163 213 242 296 385
#     4  11  23  38  61  92 125 158 208 261 323 363
#     4  11  23  35  60  88 124 151 201 264 312 359
#     4  11  19  36  59  90 125 165 201 253 309 389
#     4  10  18  36  60  87 113 156 208 247 293 370
#     4  10  19  32  60  87 119 150 209 251 296 366
#     4  11  20  38  63  87 119 165 208 248 312 383
#     4  11  22  36  60  92 120 159 208 257 312 357
#
# _framework density 19.309449999999998
#
# number of rings (size 3 to 8) (size 9 to 14) (size 15 to 20)
#    0.000    1.250    7.500    1.125    3.500    0.000 
#    0.000    0.000    5.500    1.500    0.000    0.000 
#    0.000    0.000    0.000    0.000    0.000    0.000 
#
# Total GULP energy -396426.642716 kJ/mol
# GULP energy per Si atom -12388.332585 kJ/mol
# Density = 1.926550 g / cm^3
# Si number density = 19.309450 Si / 1000 Ang^3
#
#
#
# Elastic Constant Matrix: (Units=GPa)
#
#
# Indices 1 2 3 4 5 6 
#
# 1 65.9008 31.0052 33.0160 0.0000 0.0000 0.0000
# 2 31.0052 104.7948 32.9587 0.0000 0.0000 0.0000
# 3 33.0160 32.9587 93.5060 0.0000 0.0000 0.0000
# 4 0.0000 0.0000 0.0000 37.5234 0.0000 0.0000
# 5 0.0000 0.0000 0.0000 0.0000 26.7333 0.0000
# 6 0.0000 0.0000 0.0000 0.0000 0.0000 25.5557
#
#
#
# Elastic Compliance Matrix: (Units=1/GPa)
#
#
# Indices 1 2 3 4 5 6 
#
# 1 0.019913 -0.004139 -0.005572 0.000000 0.000000 0.000000
# 2 -0.004139 0.011593 -0.002625 0.000000 0.000000 0.000000
# 3 -0.005572 -0.002625 0.013587 0.000000 0.000000 0.000000
# 4 0.000000 0.000000 0.000000 0.026650 0.000000 0.000000
# 5 0.000000 0.000000 0.000000 0.000000 0.037406 0.000000
# 6 0.000000 0.000000 0.000000 0.000000 0.000000 0.039130
#
#
# Mechanical properties :
#
#
# Convention : Reuss Voigt Hill
#
# Bulk Modulus (GPa) = 48.96919 50.90682 49.93801
# Shear Modulus (GPa) = 27.81504 29.11060 28.46282
#
# Velocity S-wave (km/s) = 3.79949 3.88697 3.84348
# Velocity P-wave (km/s) = 6.68307 6.82390 6.75386
#
# Compressibility (1/GPa) = 0.02042100
#
# Stress axis : x y z
#
# Youngs Moduli (GPa) = 50.21744 86.26225 73.59907
#
# Poissons Ratio (x) = 0.35705 0.41011
# Poissons Ratio (y) = 0.20786 0.19317
# Poissons Ratio (z) = 0.27982 0.22640
#
# Static dielectric constant tensor:
#      x y z
#    x 3.558070 0.000000 0.000000 
#    y 0.000000 3.700740 0.000000 
#    z 0.000000 0.000000 3.558390 
# 
# 
# High freq. dielectric constant tensor:
#      x y z
#    x 1.747840 0.000000 0.000000 
#    y 0.000000 1.734260 0.000000 
#    z 0.000000 0.000000 1.743100 
# 
# From -- ./inp_files/20261.got.cif
#   From: 2010.03.12/outbox.cif.g09.slc.cpg/sg20_11_cif.got.tgz:20261.got - 2010.04.14 01:38:04.
