data_PCOD8158258
_publ_section_title
;
Structure prediction by ZEFSAII (Michael W. Deem and Ramdas Pophale) SiO2 
 PCOD8158258
Probable space group: C 2 2 21
;
_chemical_formula_sum "Si O2"
_cell_formula_units_Z 48
_cell_length_a 22.928118
_cell_length_b 5.347029
_cell_length_c 19.722231
_cell_angle_alpha 90.000000
_cell_angle_beta 90.000000
_cell_angle_gamma 90.000000
_cell_volume 2417.892505
_symmetry_space_group_name_H-M "C 2 2 21"
_symmetry_group_IT_number 20
_symmetry_cell_setting 'orthorhombic'
loop_
_space_group_symop_operation_xyz
x,y,z
-x,-y,1/2+z
x,-y,-z
-x,y,1/2-z
1/2+x,1/2+y,z
1/2-x,1/2-y,1/2+z
1/2+x,1/2-y,-z
1/2-x,1/2+y,1/2-z
loop_
_atom_site_type_symbol
_atom_site_label
_atom_site_fract_x
_atom_site_fract_y
_atom_site_fract_z
Si Si1 0.995223 0.846247 0.669025
Si Si2 0.364935 0.560290 0.356444
Si Si3 0.958224 0.649222 0.184765
Si Si4 0.193282 0.753291 0.041299
Si Si5 0.268530 0.951244 0.344943
Si Si6 0.332516 0.759371 0.767410
O O1 0.026380 0.596303 0.640293
O O2 0.000000 0.841030 0.750000
O O3 0.929212 0.827573 0.643027
O O4 0.028382 0.096410 0.642434
O O5 0.362868 0.342199 0.413990
O O6 0.315749 0.761265 0.377339
O O7 0.350794 0.467228 0.281062
O O8 0.891043 0.616063 0.204859
O O9 0.000000 0.658511 0.250000
O O10 0.240718 0.671932 0.099190
O O11 0.177688 0.500000 0.000000
O O12 0.215929 0.000000 0.000000
O O13 0.205385 0.833202 0.331372
O O14 0.293946 0.040450 0.272953
#
# Coordination Sequence:
#
# PCOD8158258 Si02
#       6
#     8   8   8   8   8   8
#     4  10  19  32  52  80 119 162 184 228 288 362
#     4  11  21  37  60  87 127 161 204 252 313 377
#     4  10  19  32  49  76 126 161 187 221 273 379
#     4  11  24  43  60  85 121 164 220 261 308 366
#     4  11  22  35  60  89 129 164 194 262 312 381
#     4  11  21  33  54  93 133 162 196 237 323 383
#
# _framework density 19.852
#
# number of rings (size 3 to 8) (size 9 to 14) (size 15 to 20)
#    0.000    1.333    6.667    2.000    2.333    0.000 
#    0.000    0.000    0.000    0.000    0.000    1.167 
#   10.000    0.000    0.000    0.000    0.000    0.000 
#
# Total GULP energy -297341.281148 kJ/mol
# GULP energy per Si atom -12389.220048 kJ/mol
# Density = 1.980682 g / cm^3
# Si number density = 19.852000 Si / 1000 Ang^3
#
#
#
# Elastic Constant Matrix: (Units=GPa)
#
#
# Indices 1 2 3 4 5 6 
#
# 1 130.5729 49.8655 42.2587 0.0000 0.0000 0.0000
# 2 49.8655 163.7158 40.9945 0.0000 0.0000 0.0000
# 3 42.2587 40.9945 68.7763 0.0000 0.0000 0.0000
# 4 0.0000 0.0000 0.0000 27.9320 0.0000 0.0000
# 5 0.0000 0.0000 0.0000 0.0000 9.3481 0.0000
# 6 0.0000 0.0000 0.0000 0.0000 0.0000 -1.5526
#
#
#
# Elastic Compliance Matrix: (Units=1/GPa)
#
#
# Indices 1 2 3 4 5 6 
#
# 1 0.009977 -0.001768 -0.005076 0.000000 0.000000 0.000000
# 2 -0.001768 0.007493 -0.003380 0.000000 0.000000 0.000000
# 3 -0.005076 -0.003380 0.019674 0.000000 0.000000 0.000000
# 4 0.000000 0.000000 0.000000 0.035801 0.000000 0.000000
# 5 0.000000 0.000000 0.000000 0.000000 0.106974 0.000000
# 6 0.000000 0.000000 0.000000 0.000000 0.000000 -0.644066
#
#
# Mechanical properties :
#
#
# Convention : Reuss Voigt Hill
#
# Bulk Modulus (GPa) = 59.89809 69.92250 64.91029
# Shear Modulus (GPa) = -11.41201 22.47524 5.53162
#
# Velocity S-wave (km/s) = -2.40021 3.36838 1.67107
# Velocity P-wave (km/s) = 4.74936 7.10115 6.04081
#
# Compressibility (1/GPa) = 0.01669502
#
# Stress axis : x y z
#
# Youngs Moduli (GPa) = 100.23550 133.45946 50.82920
#
# Poissons Ratio (x) = 0.23590 0.25803
# Poissons Ratio (y) = 0.17717 0.17181
# Poissons Ratio (z) = 0.50883 0.45111
#
# Static dielectric constant tensor:
#      x y z
#    x 3.412580 0.000000 0.000000 
#    y 0.000000 5.491370 0.000000 
#    z 0.000000 0.000000 3.511870 
# 
# 
# High freq. dielectric constant tensor:
#      x y z
#    x 1.749430 0.000000 0.000000 
#    y 0.000000 1.805630 0.000000 
#    z 0.000000 0.000000 1.719930 
# 
# From -- ./inp_files/22822.got.cif
#   From: 2010.03.12/outbox.cif.g09.slc.cpg/sg20_12_cif.got.tgz:22822.got - 2010.04.14 01:38:04.
