data_PCOD8158918
_publ_section_title
;
Structure prediction by ZEFSAII (Michael W. Deem and Ramdas Pophale) SiO2 
 PCOD8158918
Probable space group: C 2 2 21
;
_chemical_formula_sum "Si O2"
_cell_formula_units_Z 48
_cell_length_a 16.864444
_cell_length_b 11.532595
_cell_length_c 12.219761
_cell_angle_alpha 90.000000
_cell_angle_beta 90.000000
_cell_angle_gamma 90.000000
_cell_volume 2376.631124
_symmetry_space_group_name_H-M "C 2 2 21"
_symmetry_group_IT_number 20
_symmetry_cell_setting 'orthorhombic'
loop_
_space_group_symop_operation_xyz
x,y,z
-x,-y,1/2+z
x,-y,-z
-x,y,1/2-z
1/2+x,1/2+y,z
1/2-x,1/2-y,1/2+z
1/2+x,1/2-y,-z
1/2-x,1/2+y,1/2-z
loop_
_atom_site_type_symbol
_atom_site_label
_atom_site_fract_x
_atom_site_fract_y
_atom_site_fract_z
Si Si1 0.860016 0.094030 0.370524
Si Si2 0.936613 0.862714 0.412616
Si Si3 0.176937 0.744788 0.681318
Si Si4 0.650008 0.764512 0.737560
Si Si5 0.680226 0.989566 0.625011
Si Si6 0.617935 0.369296 0.469774
O O1 0.874925 0.155574 0.487379
O O2 0.872936 0.187656 0.274477
O O3 0.772819 0.040586 0.368364
O O4 0.923384 0.989593 0.357796
O O5 0.921253 0.766268 0.320275
O O6 0.024371 0.851635 0.458216
O O7 0.269559 0.771201 0.693780
O O8 0.161754 0.607488 0.690452
O O9 0.149988 0.784863 0.562464
O O10 0.629785 0.887844 0.682544
O O11 0.659739 0.665812 0.644065
O O12 0.652398 0.000000 0.500000
O O13 0.641298 0.500000 0.500000
#
# Coordination Sequence:
#
# PCOD8158918 Si02
#       6
#     8   8   8   8   8   8
#     4  10  20  39  68  95 134 166 213 273 334 376
#     4  11  21  43  66  95 132 173 210 278 346 378
#     4  11  24  39  65 100 129 173 224 268 321 394
#     4  11  24  39  67  96 135 171 220 268 330 390
#     4  11  19  41  65  92 129 181 217 260 325 386
#     4  12  25  40  68 102 124 164 226 277 327 393
#
# _framework density 20.196656999999998
#
# number of rings (size 3 to 8) (size 9 to 14) (size 15 to 20)
#    0.000    1.000    6.667    1.500    4.667    0.667 
#    0.000    0.833   11.000    0.000    0.000    0.000 
#    0.000    0.000    0.000    0.000    0.000    0.000 
#
# Total GULP energy -297654.218159 kJ/mol
# GULP energy per Si atom -12402.259090 kJ/mol
# Density = 2.015069 g / cm^3
# Si number density = 20.196657 Si / 1000 Ang^3
#
#
#
# Elastic Constant Matrix: (Units=GPa)
#
#
# Indices 1 2 3 4 5 6 
#
# 1 67.3435 39.1908 42.3795 0.0000 0.0000 0.0000
# 2 39.1908 115.7663 56.2297 0.0000 0.0000 0.0000
# 3 42.3795 56.2297 120.7225 0.0000 0.0000 0.0000
# 4 0.0000 0.0000 0.0000 47.3289 0.0000 0.0000
# 5 0.0000 0.0000 0.0000 0.0000 32.3713 0.0000
# 6 0.0000 0.0000 0.0000 0.0000 0.0000 23.8475
#
#
#
# Elastic Compliance Matrix: (Units=1/GPa)
#
#
# Indices 1 2 3 4 5 6 
#
# 1 0.020729 -0.004501 -0.005180 0.000000 0.000000 0.000000
# 2 -0.004501 0.012141 -0.004075 0.000000 0.000000 0.000000
# 3 -0.005180 -0.004075 0.012000 0.000000 0.000000 0.000000
# 4 0.000000 0.000000 0.000000 0.021129 0.000000 0.000000
# 5 0.000000 0.000000 0.000000 0.000000 0.030892 0.000000
# 6 0.000000 0.000000 0.000000 0.000000 0.000000 0.041933
#
#
# Mechanical properties :
#
#
# Convention : Reuss Voigt Hill
#
# Bulk Modulus (GPa) = 57.61338 64.38137 60.99738
# Shear Modulus (GPa) = 29.04923 31.77837 30.41380
#
# Velocity S-wave (km/s) = 3.79663 3.97097 3.88478
# Velocity P-wave (km/s) = 6.91429 7.27814 7.09854
#
# Compressibility (1/GPa) = 0.01735708
#
# Stress axis : x y z
#
# Youngs Moduli (GPa) = 48.24238 82.36441 83.33363
#
# Poissons Ratio (x) = 0.37074 0.43168
# Poissons Ratio (y) = 0.21715 0.33958
# Poissons Ratio (z) = 0.24991 0.33563
#
# Static dielectric constant tensor:
#      x y z
#    x 3.446280 0.000000 0.000000 
#    y 0.000000 4.011420 0.000000 
#    z 0.000000 0.000000 3.946890 
# 
# 
# High freq. dielectric constant tensor:
#      x y z
#    x 1.763490 0.000000 0.000000 
#    y 0.000000 1.787640 0.000000 
#    z 0.000000 0.000000 1.804610 
# 
# From -- ./inp_files/14124.got.cif
#   From: 2010.03.12/outbox.cif.g09.slc.cpg/sg20_8_cif.got.tgz:14124.got - 2010.04.14 01:38:04.
