data_PCOD8158104
_publ_section_title
;
Structure prediction by ZEFSAII (Michael W. Deem and Ramdas Pophale) SiO2 
 PCOD8158104
Probable space group: C 2 2 21
;
_chemical_formula_sum "Si O2"
_cell_formula_units_Z 64
_cell_length_a 19.966006
_cell_length_b 10.020043
_cell_length_c 17.695275
_cell_angle_alpha 90.000000
_cell_angle_beta 90.000000
_cell_angle_gamma 90.000000
_cell_volume 3540.120940
_symmetry_space_group_name_H-M "C 2 2 21"
_symmetry_group_IT_number 20
_symmetry_cell_setting 'orthorhombic'
loop_
_space_group_symop_operation_xyz
x,y,z
-x,-y,1/2+z
x,-y,-z
-x,y,1/2-z
1/2+x,1/2+y,z
1/2-x,1/2-y,1/2+z
1/2+x,1/2-y,-z
1/2-x,1/2+y,1/2-z
loop_
_atom_site_type_symbol
_atom_site_label
_atom_site_fract_x
_atom_site_fract_y
_atom_site_fract_z
Si Si1 0.563351 0.283514 0.203495
Si Si2 0.615484 0.122106 0.947698
Si Si3 0.600793 0.375077 0.045314
Si Si4 0.434615 0.975695 0.293590
Si Si5 0.295769 0.015973 0.784516
Si Si6 0.228276 0.135559 0.538801
Si Si7 0.696687 0.292988 0.299440
Si Si8 0.242753 0.612364 0.556349
O O1 0.500000 0.336157 0.250000
O O2 0.562853 0.361850 0.124544
O O3 0.555645 0.128705 0.181968
O O4 0.628969 0.312612 0.252834
O O5 0.695045 0.124089 0.933459
O O6 0.577859 0.113024 0.867747
O O7 0.589567 0.252033 0.989849
O O8 0.594811 0.000000 0.000000
O O9 0.677954 0.395642 0.066443
O O10 0.571117 0.500000 0.000000
O O11 0.500000 0.921169 0.250000
O O12 0.372426 0.966567 0.237634
O O13 0.275529 0.858503 0.787831
O O14 0.248945 0.094467 0.726367
O O15 0.291373 0.087984 0.864268
O O16 0.184140 0.178285 0.611482
O O17 0.220220 0.244322 0.473367
O O18 0.202377 0.000000 0.500000
O O19 0.216226 0.500000 0.500000
#
# Coordination Sequence:
#
# PCOD8158104 Si02
#       8
#     8   8   8   8   8   8   8   8
#     4  10  21  39  59  82 116 155 192 228 283 352
#     4  10  18  33  57  81 110 142 192 234 274 334
#     4  10  20  33  57  84 110 148 188 232 280 343
#     4  10  21  38  58  86 116 151 193 236 284 337
#     4  11  22  35  59  86 117 147 189 239 290 341
#     4  10  21  33  55  85 114 148 189 238 286 334
#     4  11  22  36  58  88 114 147 189 238 292 336
#     4  10  19  35  53  83 117 144 188 238 286 333
#
# _framework density 18.078479000000002
#
# number of rings (size 3 to 8) (size 9 to 14) (size 15 to 20)
#    0.000    1.750    5.000    0.000    1.750    0.000 
#    0.000    3.125    0.000    0.000    0.000    0.000 
#    0.000    0.000    0.000    0.000    0.000    0.000 
#
# Total GULP energy -396829.426618 kJ/mol
# GULP energy per Si atom -12400.919582 kJ/mol
# Density = 1.803733 g / cm^3
# Si number density = 18.078479 Si / 1000 Ang^3
#
#
#
# Elastic Constant Matrix: (Units=GPa)
#
#
# Indices 1 2 3 4 5 6 
#
# 1 57.3510 37.9858 42.4177 0.0000 0.0000 0.0000
# 2 37.9858 122.5836 61.9165 0.0000 0.0000 0.0000
# 3 42.4177 61.9165 151.4588 0.0000 0.0000 0.0000
# 4 0.0000 0.0000 0.0000 30.5132 0.0000 0.0000
# 5 0.0000 0.0000 0.0000 0.0000 28.4809 0.0000
# 6 0.0000 0.0000 0.0000 0.0000 0.0000 18.4267
#
#
#
# Elastic Compliance Matrix: (Units=1/GPa)
#
#
# Indices 1 2 3 4 5 6 
#
# 1 0.024337 -0.005165 -0.004704 0.000000 0.000000 0.000000
# 2 -0.005165 0.011377 -0.003204 0.000000 0.000000 0.000000
# 3 -0.004704 -0.003204 0.009230 0.000000 0.000000 0.000000
# 4 0.000000 0.000000 0.000000 0.032773 0.000000 0.000000
# 5 0.000000 0.000000 0.000000 0.000000 0.035111 0.000000
# 6 0.000000 0.000000 0.000000 0.000000 0.000000 0.054269
#
#
# Mechanical properties :
#
#
# Convention : Reuss Voigt Hill
#
# Bulk Modulus (GPa) = 53.20292 68.44815 60.82554
# Shear Modulus (GPa) = 25.06144 28.08906 26.57525
#
# Velocity S-wave (km/s) = 3.72729 3.94601 3.83821
# Velocity P-wave (km/s) = 6.92938 7.66193 7.30485
#
# Compressibility (1/GPa) = 0.01879596
#
# Stress axis : x y z
#
# Youngs Moduli (GPa) = 41.08958 87.89845 108.34461
#
# Poissons Ratio (x) = 0.45403 0.50968
# Poissons Ratio (y) = 0.21224 0.34716
# Poissons Ratio (z) = 0.19330 0.28164
#
# Static dielectric constant tensor:
#      x y z
#    x 3.069710 0.000000 0.000000 
#    y 0.000000 3.418890 0.000000 
#    z 0.000000 0.000000 3.480910 
# 
# 
# High freq. dielectric constant tensor:
#      x y z
#    x 1.663430 0.000000 0.000000 
#    y 0.000000 1.702890 0.000000 
#    z 0.000000 0.000000 1.718970 
# 
# From -- ./inp_files/25514.got.cif
#   From: 2010.03.12/outbox.cif.g09.slc.cpg/sg20_13_cif.got.tgz:25514.got - 2010.04.14 01:38:04.
