data_PCOD8158257
_publ_section_title
;
Structure prediction by ZEFSAII (Michael W. Deem and Ramdas Pophale) SiO2 
 PCOD8158257
Probable space group: C 2 2 21
;
_chemical_formula_sum "Si O2"
_cell_formula_units_Z 40
_cell_length_a 32.012350
_cell_length_b 13.861926
_cell_length_c 5.088966
_cell_angle_alpha 90.000000
_cell_angle_beta 90.000000
_cell_angle_gamma 90.000000
_cell_volume 2258.243048
_symmetry_space_group_name_H-M "C 2 2 21"
_symmetry_group_IT_number 20
_symmetry_cell_setting 'orthorhombic'
loop_
_space_group_symop_operation_xyz
x,y,z
-x,-y,1/2+z
x,-y,-z
-x,y,1/2-z
1/2+x,1/2+y,z
1/2-x,1/2-y,1/2+z
1/2+x,1/2-y,-z
1/2-x,1/2+y,1/2-z
loop_
_atom_site_type_symbol
_atom_site_label
_atom_site_fract_x
_atom_site_fract_y
_atom_site_fract_z
Si Si1 0.696118 0.108105 0.468408
Si Si2 0.119397 0.114018 0.962729
Si Si3 0.338390 0.301228 0.960790
Si Si4 0.024337 0.114783 0.999929
Si Si5 0.748928 0.392309 0.468482
O O1 0.658368 0.184879 0.508902
O O2 0.714676 0.125548 0.179261
O O3 0.677471 0.000000 0.500000
O O4 0.732944 0.123764 0.678857
O O5 0.133681 0.141555 0.670290
O O6 0.147979 0.168818 0.170627
O O7 0.072022 0.149827 0.000486
O O8 0.123992 0.000000 0.000000
O O9 0.289327 0.320467 0.994437
O O10 0.000000 0.156957 0.250000
O O11 0.000000 0.156792 0.750000
O O12 0.023122 0.000000 0.000000
O O13 0.730775 0.500000 0.500000
#
# Coordination Sequence:
#
# PCOD8158257 Si02
#       5
#     8   8   8   8   8
#     4  10  21  35  50  68  93 130 175 210 240 284
#     4  11  22  33  49  76 104 129 158 194 239 291
#     4  12  21  33  50  72 101 129 162 206 251 282
#     4   9  17  31  49  68  96 131 157 180 221 285
#     4  10  19  32  49  68  94 131 167 202 246 292
#
# _framework density 17.712883999999999
#
# number of rings (size 3 to 8) (size 9 to 14) (size 15 to 20)
#    0.000    1.600    0.000    6.600    0.000    4.800 
#    0.000    0.000    0.000    0.000    0.000    0.000 
#    0.000   16.000    0.000    0.000    0.000    0.000 
#
# Total GULP energy -248055.934868 kJ/mol
# GULP energy per Si atom -12402.796743 kJ/mol
# Density = 1.767257 g / cm^3
# Si number density = 17.712884 Si / 1000 Ang^3
#
#
#
# Elastic Constant Matrix: (Units=GPa)
#
#
# Indices 1 2 3 4 5 6 
#
# 1 54.7411 31.0992 6.7397 0.0000 0.0000 0.0000
# 2 31.0992 84.6959 11.8881 0.0000 0.0000 0.0000
# 3 6.7397 11.8881 79.4409 0.0000 0.0000 0.0000
# 4 0.0000 0.0000 0.0000 21.9803 0.0000 0.0000
# 5 0.0000 0.0000 0.0000 0.0000 1.4198 0.0000
# 6 0.0000 0.0000 0.0000 0.0000 0.0000 9.9142
#
#
#
# Elastic Compliance Matrix: (Units=1/GPa)
#
#
# Indices 1 2 3 4 5 6 
#
# 1 0.023122 -0.008391 -0.000706 0.000000 0.000000 0.000000
# 2 -0.008391 0.015105 -0.001549 0.000000 0.000000 0.000000
# 3 -0.000706 -0.001549 0.012880 0.000000 0.000000 0.000000
# 4 0.000000 0.000000 0.000000 0.045495 0.000000 0.000000
# 5 0.000000 0.000000 0.000000 0.000000 0.704347 0.000000
# 6 0.000000 0.000000 0.000000 0.000000 0.000000 0.100865
#
#
# Mechanical properties :
#
#
# Convention : Reuss Voigt Hill
#
# Bulk Modulus (GPa) = 33.53930 35.37022 34.45476
# Shear Modulus (GPa) = 5.35880 17.93958 11.64919
#
# Velocity S-wave (km/s) = 1.74125 3.18590 2.56729
# Velocity P-wave (km/s) = 4.79778 5.79183 5.31808
#
# Compressibility (1/GPa) = 0.02981577
#
# Stress axis : x y z
#
# Youngs Moduli (GPa) = 43.24935 66.20172 77.64211
#
# Poissons Ratio (x) = 0.55549 0.05481
# Poissons Ratio (y) = 0.36290 0.12024
# Poissons Ratio (z) = 0.03053 0.10252
#
# Static dielectric constant tensor:
#      x y z
#    x 3.088850 0.000000 0.000000 
#    y 0.000000 3.315630 0.000000 
#    z 0.000000 0.000000 3.470500 
# 
# 
# High freq. dielectric constant tensor:
#      x y z
#    x 1.655450 0.000000 0.000000 
#    y 0.000000 1.663250 0.000000 
#    z 0.000000 0.000000 1.710360 
# 
# From -- ./inp_files/4173.got.cif
#   From: 2010.03.12/outbox.cif.g09.slc.cpg/sg20_3_cif.got.tgz:4173.got - 2010.04.14 01:38:04.
