data_PCOD8158682
_publ_section_title
;
Structure prediction by ZEFSAII (Michael W. Deem and Ramdas Pophale) SiO2 
 PCOD8158682
Probable space group: C 2 2 21
;
_chemical_formula_sum "Si O2"
_cell_formula_units_Z 48
_cell_length_a 10.519560
_cell_length_b 8.918283
_cell_length_c 24.440488
_cell_angle_alpha 90.000000
_cell_angle_beta 90.000000
_cell_angle_gamma 90.000000
_cell_volume 2292.918919
_symmetry_space_group_name_H-M "C 2 2 21"
_symmetry_group_IT_number 20
_symmetry_cell_setting 'orthorhombic'
loop_
_space_group_symop_operation_xyz
x,y,z
-x,-y,1/2+z
x,-y,-z
-x,y,1/2-z
1/2+x,1/2+y,z
1/2-x,1/2-y,1/2+z
1/2+x,1/2-y,-z
1/2-x,1/2+y,1/2-z
loop_
_atom_site_type_symbol
_atom_site_label
_atom_site_fract_x
_atom_site_fract_y
_atom_site_fract_z
Si Si1 0.386159 0.541751 0.437092
Si Si2 0.896744 0.152825 0.894971
Si Si3 0.402704 0.046359 0.059474
Si Si4 0.633270 0.146988 0.761820
Si Si5 0.873930 0.686903 0.221634
Si Si6 0.376209 0.871509 0.390370
O O1 0.421231 0.500000 0.500000
O O2 0.482358 0.456684 0.395714
O O3 0.240552 0.491561 0.425251
O O4 0.403068 0.715771 0.421929
O O5 0.914372 0.274607 0.942482
O O6 0.879633 0.255063 0.840498
O O7 0.763866 0.066027 0.908348
O O8 0.507257 0.981915 0.100422
O O9 0.445027 0.000000 0.000000
O O10 0.500000 0.231923 0.750000
O O11 0.753717 0.247136 0.744657
O O12 0.637624 0.131277 0.826078
O O13 0.635526 0.992929 0.726810
O O14 0.000000 0.749298 0.250000
#
# Coordination Sequence:
#
# PCOD8158682 Si02
#       6
#     8   8   8   8   8   8
#     4  10  22  39  59  86 118 152 193 239 288 345
#     4  10  22  38  56  84 116 147 193 239 282 346
#     4  10  20  36  59  85 116 153 191 237 290 341
#     4  10  22  39  58  83 116 150 194 240 284 344
#     4  10  22  38  57  82 112 149 191 236 286 340
#     4  10  22  38  57  86 116 149 194 237 284 346
#
# _framework density 20.934014999999999
#
# number of rings (size 3 to 8) (size 9 to 14) (size 15 to 20)
#    0.000    2.000    0.000    3.000    0.000   10.667 
#    0.000    0.000    0.000    0.000    0.000    0.000 
#    0.000    0.000    0.000    0.000    0.000    0.000 
#
# Total GULP energy -297324.964158 kJ/mol
# GULP energy per Si atom -12388.540173 kJ/mol
# Density = 2.088637 g / cm^3
# Si number density = 20.934015 Si / 1000 Ang^3
#
#
#
# Elastic Constant Matrix: (Units=GPa)
#
#
# Indices 1 2 3 4 5 6 
#
# 1 168.9071 37.3789 7.8467 0.0000 0.0000 0.0000
# 2 37.3789 34.3415 3.0071 0.0000 0.0000 0.0000
# 3 7.8467 3.0071 37.4611 0.0000 0.0000 0.0000
# 4 0.0000 0.0000 0.0000 32.2065 0.0000 0.0000
# 5 0.0000 0.0000 0.0000 0.0000 32.7270 0.0000
# 6 0.0000 0.0000 0.0000 0.0000 0.0000 19.4474
#
#
#
# Elastic Compliance Matrix: (Units=1/GPa)
#
#
# Indices 1 2 3 4 5 6 
#
# 1 0.007833 -0.008442 -0.000963 0.000000 0.000000 0.000000
# 2 -0.008442 0.038423 -0.001316 0.000000 0.000000 0.000000
# 3 -0.000963 -0.001316 0.027002 0.000000 0.000000 0.000000
# 4 0.000000 0.000000 0.000000 0.031050 0.000000 0.000000
# 5 0.000000 0.000000 0.000000 0.000000 0.030556 0.000000
# 6 0.000000 0.000000 0.000000 0.000000 0.000000 0.051421
#
#
# Mechanical properties :
#
#
# Convention : Reuss Voigt Hill
#
# Bulk Modulus (GPa) = 19.29903 37.46388 28.38145
# Shear Modulus (GPa) = 22.22237 29.70797 25.96517
#
# Velocity S-wave (km/s) = 3.26167 3.77121 3.52566
# Velocity P-wave (km/s) = 4.83980 6.07435 5.49188
#
# Compressibility (1/GPa) = 0.05181609
#
# Stress axis : x y z
#
# Youngs Moduli (GPa) = 127.65969 26.02604 37.03465
#
# Poissons Ratio (x) = 0.21971 0.03567
# Poissons Ratio (y) = 1.07768 0.04874
# Poissons Ratio (z) = 0.12295 0.03425
#
# Static dielectric constant tensor:
#      x y z
#    x 4.735970 0.000000 0.000000 
#    y 0.000000 3.834180 0.000000 
#    z 0.000000 0.000000 3.687710 
# 
# 
# High freq. dielectric constant tensor:
#      x y z
#    x 1.850630 0.000000 0.000000 
#    y 0.000000 1.794480 0.000000 
#    z 0.000000 0.000000 1.816320 
# 
# From -- ./inp_files/29092.got.cif
#   From: 2010.03.12/outbox.cif.g09.slc.cpg/sg20_15_cif.got.tgz:29092.got - 2010.04.14 01:38:04.
