data_PCOD8158307
_publ_section_title
;
Structure prediction by ZEFSAII (Michael W. Deem and Ramdas Pophale) SiO2 
 PCOD8158307
Probable space group: C 2 2 21
;
_chemical_formula_sum "Si O2"
_cell_formula_units_Z 64
_cell_length_a 8.266768
_cell_length_b 11.357406
_cell_length_c 33.082747
_cell_angle_alpha 90.000000
_cell_angle_beta 90.000000
_cell_angle_gamma 90.000000
_cell_volume 3106.107372
_symmetry_space_group_name_H-M "C 2 2 21"
_symmetry_group_IT_number 20
_symmetry_cell_setting 'orthorhombic'
loop_
_space_group_symop_operation_xyz
x,y,z
-x,-y,1/2+z
x,-y,-z
-x,y,1/2-z
1/2+x,1/2+y,z
1/2-x,1/2-y,1/2+z
1/2+x,1/2-y,-z
1/2-x,1/2+y,1/2-z
loop_
_atom_site_type_symbol
_atom_site_label
_atom_site_fract_x
_atom_site_fract_y
_atom_site_fract_z
Si Si1 0.857342 0.121523 0.520102
Si Si2 0.500461 0.875056 0.510651
Si Si3 0.056515 0.598463 0.792919
Si Si4 0.762404 0.471067 0.158906
Si Si5 0.510362 0.385111 0.391960
Si Si6 0.040502 0.632001 0.395182
Si Si7 0.270763 0.557041 0.151404
Si Si8 0.951346 0.862124 0.706555
O O1 0.664363 0.124080 0.515682
O O2 0.914929 0.110149 0.565977
O O3 0.914954 0.248518 0.500933
O O4 0.926019 0.000000 0.500000
O O5 0.526040 0.889681 0.557839
O O6 0.406676 0.000000 0.500000
O O7 0.199818 0.525186 0.813187
O O8 0.117499 0.731106 0.786819
O O9 0.000000 0.543045 0.750000
O O10 0.903393 0.606482 0.822485
O O11 0.619269 0.387289 0.144315
O O12 0.699705 0.562010 0.192143
O O13 0.827420 0.541493 0.120210
O O14 0.608010 0.263361 0.388329
O O15 0.641169 0.487117 0.385098
O O16 0.870231 0.627355 0.371139
O O17 0.401664 0.638644 0.174012
O O18 0.000000 0.914971 0.750000
#
# Coordination Sequence:
#
# PCOD8158307 Si02
#       8
#     8   8   8   8   8   8   8   8
#     4  10  22  39  58  83 113 145 185 231 280 333
#     4  10  22  39  58  83 113 145 185 231 280 333
#     4  10  20  34  53  78 107 140 178 219 265 318
#     4  10  19  34  55  76 106 142 176 220 271 316
#     4  10  21  37  56  80 109 141 180 224 271 324
#     4  10  21  37  56  80 109 141 180 224 271 324
#     4  10  21  36  55  80 108 140 180 220 267 320
#     4  10  20  34  53  78 107 140 178 219 265 318
#
# _framework density 20.604565999999998
#
# number of rings (size 3 to 8) (size 9 to 14) (size 15 to 20)
#    0.000    2.000    0.000    3.750    0.000    4.500 
#    0.000    6.250    0.000   12.000    0.000    0.000 
#    0.000    0.000    0.000    0.000    0.000    0.000 
#
# Total GULP energy -396534.645792 kJ/mol
# GULP energy per Si atom -12391.707681 kJ/mol
# Density = 2.055767 g / cm^3
# Si number density = 20.604566 Si / 1000 Ang^3
#
#
#
# Elastic Constant Matrix: (Units=GPa)
#
#
# Indices 1 2 3 4 5 6 
#
# 1 41.3041 1.6663 -2.3784 0.0000 0.0000 0.0000
# 2 1.6663 109.5759 15.2168 0.0000 0.0000 0.0000
# 3 -2.3784 15.2168 60.6503 0.0000 0.0000 0.0000
# 4 0.0000 0.0000 0.0000 16.8914 0.0000 0.0000
# 5 0.0000 0.0000 0.0000 0.0000 29.3413 0.0000
# 6 0.0000 0.0000 0.0000 0.0000 0.0000 14.3904
#
#
#
# Elastic Compliance Matrix: (Units=1/GPa)
#
#
# Indices 1 2 3 4 5 6 
#
# 1 0.024294 -0.000520 0.001083 0.000000 0.000000 0.000000
# 2 -0.000520 0.009467 -0.002396 0.000000 0.000000 0.000000
# 3 0.001083 -0.002396 0.017131 0.000000 0.000000 0.000000
# 4 0.000000 0.000000 0.000000 0.059202 0.000000 0.000000
# 5 0.000000 0.000000 0.000000 0.000000 0.034082 0.000000
# 6 0.000000 0.000000 0.000000 0.000000 0.000000 0.069491
#
#
# Mechanical properties :
#
#
# Convention : Reuss Voigt Hill
#
# Bulk Modulus (GPa) = 21.17405 26.72663 23.95034
# Shear Modulus (GPa) = 21.45247 25.25965 23.35606
#
# Velocity S-wave (km/s) = 3.23019 3.50512 3.37046
# Velocity P-wave (km/s) = 4.92045 5.42038 5.17646
#
# Compressibility (1/GPa) = 0.04722763
#
# Stress axis : x y z
#
# Youngs Moduli (GPa) = 41.16243 105.63379 58.37212
#
# Poissons Ratio (x) = 0.05491 -0.06322
# Poissons Ratio (y) = 0.02140 0.13983
# Poissons Ratio (z) = -0.04458 0.25305
#
# Static dielectric constant tensor:
#      x y z
#    x 3.590360 0.000000 0.000000 
#    y 0.000000 3.997600 0.000000 
#    z 0.000000 0.000000 3.719890 
# 
# 
# High freq. dielectric constant tensor:
#      x y z
#    x 1.791280 0.000000 0.000000 
#    y 0.000000 1.816160 0.000000 
#    z 0.000000 0.000000 1.812610 
# 
# From -- ./inp_files/17252.got.cif
#   From: 2010.03.12/outbox.cif.g09.slc.cpg/sg20_9_cif.got.tgz:17252.got - 2010.04.14 01:38:04.
