data_PCOD8158890
_publ_section_title
;
Structure prediction by ZEFSAII (Michael W. Deem and Ramdas Pophale) SiO2 
 PCOD8158890
Probable space group: C 2 2 21
;
_chemical_formula_sum "Si O2"
_cell_formula_units_Z 64
_cell_length_a 9.045246
_cell_length_b 23.281714
_cell_length_c 15.616273
_cell_angle_alpha 90.000000
_cell_angle_beta 90.000000
_cell_angle_gamma 90.000000
_cell_volume 3288.612667
_symmetry_space_group_name_H-M "C 2 2 21"
_symmetry_group_IT_number 20
_symmetry_cell_setting 'orthorhombic'
loop_
_space_group_symop_operation_xyz
x,y,z
-x,-y,1/2+z
x,-y,-z
-x,y,1/2-z
1/2+x,1/2+y,z
1/2-x,1/2-y,1/2+z
1/2+x,1/2-y,-z
1/2-x,1/2+y,1/2-z
loop_
_atom_site_type_symbol
_atom_site_label
_atom_site_fract_x
_atom_site_fract_y
_atom_site_fract_z
Si Si1 0.639159 0.565663 0.099430
Si Si2 0.548688 0.769395 0.415268
Si Si3 0.595443 0.344477 0.329112
Si Si4 0.205378 0.739132 0.415841
Si Si5 0.626953 0.565887 0.900603
Si Si6 0.088865 0.155607 0.330824
Si Si7 0.161238 0.364339 0.712384
Si Si8 0.856192 0.369847 0.210619
O O1 0.600022 0.500326 0.122108
O O2 0.500703 0.603648 0.127385
O O3 0.789302 0.584539 0.148271
O O4 0.663284 0.575095 0.999358
O O5 0.373401 0.760488 0.429508
O O6 0.634591 0.791094 0.500398
O O7 0.617832 0.706995 0.396321
O O8 0.589085 0.812743 0.338876
O O9 0.500000 0.321478 0.250000
O O10 0.602712 0.294461 0.398970
O O11 0.520206 0.400368 0.371563
O O12 0.758609 0.356007 0.293951
O O13 0.191296 0.695734 0.336175
O O14 0.771659 0.587267 0.851535
O O15 0.244306 0.131522 0.299146
O O16 0.000000 0.181402 0.250000
O O17 0.000000 0.372885 0.750000
O O18 0.000000 0.401165 0.250000
#
# Coordination Sequence:
#
# PCOD8158890 Si02
#       8
#     8   8   8   8   8   8   8   8
#     4  10  21  44  67  88 119 161 207 256 302 364
#     4  12  24  37  60  90 129 167 202 246 310 367
#     4  10  22  37  61  87 121 160 206 249 298 366
#     4  12  24  38  58  92 129 166 206 249 309 368
#     4  10  23  42  66  90 120 160 209 252 304 364
#     4  10  20  39  64  84 119 162 204 249 302 365
#     4  11  24  39  61  93 123 160 203 256 307 359
#     4  11  22  39  59  88 126 163 197 251 304 363
#
# _framework density 19.461095
#
# number of rings (size 3 to 8) (size 9 to 14) (size 15 to 20)
#    0.000    1.250    3.750    3.000    5.250    5.000 
#    0.000    0.000    0.000    3.000    0.000    0.000 
#    0.000    0.000    0.000    0.000    0.000    0.000 
#
# Total GULP energy -396746.495090 kJ/mol
# GULP energy per Si atom -12398.327972 kJ/mol
# Density = 1.941680 g / cm^3
# Si number density = 19.461095 Si / 1000 Ang^3
#
#
#
# Elastic Constant Matrix: (Units=GPa)
#
#
# Indices 1 2 3 4 5 6 
#
# 1 115.8613 36.8173 44.7494 0.0000 0.0000 0.0000
# 2 36.8173 110.9573 49.7808 0.0000 0.0000 0.0000
# 3 44.7494 49.7808 87.8940 0.0000 0.0000 0.0000
# 4 0.0000 0.0000 0.0000 27.8796 0.0000 0.0000
# 5 0.0000 0.0000 0.0000 0.0000 28.3618 0.0000
# 6 0.0000 0.0000 0.0000 0.0000 0.0000 27.9331
#
#
#
# Elastic Compliance Matrix: (Units=1/GPa)
#
#
# Indices 1 2 3 4 5 6 
#
# 1 0.010930 -0.001515 -0.004707 0.000000 0.000000 0.000000
# 2 -0.001515 0.012293 -0.006191 0.000000 0.000000 0.000000
# 3 -0.004707 -0.006191 0.017280 0.000000 0.000000 0.000000
# 4 0.000000 0.000000 0.000000 0.035868 0.000000 0.000000
# 5 0.000000 0.000000 0.000000 0.000000 0.035259 0.000000
# 6 0.000000 0.000000 0.000000 0.000000 0.000000 0.035800
#
#
# Mechanical properties :
#
#
# Convention : Reuss Voigt Hill
#
# Bulk Modulus (GPa) = 63.78573 64.15641 63.97107
# Shear Modulus (GPa) = 28.17188 29.05923 28.61555
#
# Velocity S-wave (km/s) = 3.80886 3.86838 3.83874
# Velocity P-wave (km/s) = 7.22429 7.27946 7.25193
#
# Compressibility (1/GPa) = 0.01567749
#
# Stress axis : x y z
#
# Youngs Moduli (GPa) = 91.48779 81.34879 57.87011
#
# Poissons Ratio (x) = 0.12326 0.27239
# Poissons Ratio (y) = 0.13862 0.35827
# Poissons Ratio (z) = 0.43062 0.50362
#
# Static dielectric constant tensor:
#      x y z
#    x 3.816280 0.000000 0.000000 
#    y 0.000000 3.462280 0.000000 
#    z 0.000000 0.000000 3.777850 
# 
# 
# High freq. dielectric constant tensor:
#      x y z
#    x 1.761500 0.000000 0.000000 
#    y 0.000000 1.744860 0.000000 
#    z 0.000000 0.000000 1.771560 
# 
# From -- ./inp_files/19382.got.cif
#   From: 2010.03.12/outbox.cif.g09.slc.cpg/sg20_10_cif.got.tgz:19382.got - 2010.04.14 01:38:04.
