data_PCOD8158448
_publ_section_title
;
Structure prediction by ZEFSAII (Michael W. Deem and Ramdas Pophale) SiO2 
 PCOD8158448
Probable space group: C 2 2 21
;
_chemical_formula_sum "Si O2"
_cell_formula_units_Z 60
_cell_length_a 19.789299
_cell_length_b 8.113999
_cell_length_c 19.801470
_cell_angle_alpha 90.000000
_cell_angle_beta 90.000000
_cell_angle_gamma 90.000000
_cell_volume 3179.529014
_symmetry_space_group_name_H-M "C 2 2 21"
_symmetry_group_IT_number 20
_symmetry_cell_setting 'orthorhombic'
loop_
_space_group_symop_operation_xyz
x,y,z
-x,-y,1/2+z
x,-y,-z
-x,y,1/2-z
1/2+x,1/2+y,z
1/2-x,1/2-y,1/2+z
1/2+x,1/2-y,-z
1/2-x,1/2+y,1/2-z
loop_
_atom_site_type_symbol
_atom_site_label
_atom_site_fract_x
_atom_site_fract_y
_atom_site_fract_z
Si Si1 0.706093 0.456260 0.423166
Si Si2 0.190171 0.579834 0.178016
Si Si3 0.097558 0.837741 0.651348
Si Si4 0.296816 0.925283 0.929050
Si Si5 0.223267 0.631588 0.697151
Si Si6 0.500000 0.535507 0.750000
Si Si7 0.050658 0.475890 0.424928
Si Si8 0.036783 0.356689 0.814908
O O1 0.699782 0.500000 0.500000
O O2 0.772186 0.545652 0.392712
O O3 0.635921 0.517025 0.389239
O O4 0.719765 0.263918 0.418346
O O5 0.220492 0.456889 0.232131
O O6 0.209427 0.760806 0.203043
O O7 0.110068 0.565508 0.173357
O O8 0.154089 0.732158 0.689282
O O9 0.054813 0.715076 0.601345
O O10 0.049561 0.919001 0.707395
O O11 0.262095 0.015718 0.866644
O O12 0.376254 0.944910 0.924959
O O13 0.269126 0.000000 0.000000
O O14 0.539575 0.657537 0.802710
O O15 0.020098 0.500000 0.500000
O O16 0.005625 0.594730 0.379683
O O17 0.000000 0.440924 0.750000
#
# Coordination Sequence:
#
# PCOD8158448 Si02
#       8
#     8   8   8   8   8   4   8   8
#     4  11  22  39  62  90 124 157 207 255 306 367
#     4  11  23  37  59  87 116 158 199 253 309 364
#     4  10  22  37  61  95 119 159 210 256 312 363
#     4  10  19  37  62  88 119 158 201 249 301 360
#     4  10  22  35  58  85 119 149 199 252 303 364
#     4  10  24  36  62  88 130 158 206 264 304 382
#     4  10  20  37  62  89 122 163 209 252 310 378
#     4  10  23  39  59  85 123 165 199 253 314 374
#
# _framework density 18.870719000000001
#
# number of rings (size 3 to 8) (size 9 to 14) (size 15 to 20)
#    0.400    1.333    0.000    6.400    8.400    0.533 
#    0.000    0.000    0.000    1.600    0.000    0.000 
#    0.000    0.000    0.000    0.000    0.000    0.000 
#
# Total GULP energy -371846.427893 kJ/mol
# GULP energy per Si atom -12394.880930 kJ/mol
# Density = 1.882777 g / cm^3
# Si number density = 18.870719 Si / 1000 Ang^3
#
#
#
# Elastic Constant Matrix: (Units=GPa)
#
#
# Indices 1 2 3 4 5 6 
#
# 1 60.8902 19.7450 32.9062 0.0000 0.0000 0.0000
# 2 19.7450 96.4040 20.1528 0.0000 0.0000 0.0000
# 3 32.9062 20.1528 93.8532 0.0000 0.0000 0.0000
# 4 0.0000 0.0000 0.0000 37.0153 0.0000 0.0000
# 5 0.0000 0.0000 0.0000 0.0000 32.2381 0.0000
# 6 0.0000 0.0000 0.0000 0.0000 0.0000 18.9159
#
#
#
# Elastic Compliance Matrix: (Units=1/GPa)
#
#
# Indices 1 2 3 4 5 6 
#
# 1 0.021005 -0.002892 -0.006744 0.000000 0.000000 0.000000
# 2 -0.002892 0.011259 -0.001403 0.000000 0.000000 0.000000
# 3 -0.006744 -0.001403 0.013321 0.000000 0.000000 0.000000
# 4 0.000000 0.000000 0.000000 0.027016 0.000000 0.000000
# 5 0.000000 0.000000 0.000000 0.000000 0.031019 0.000000
# 6 0.000000 0.000000 0.000000 0.000000 0.000000 0.052866
#
#
# Mechanical properties :
#
#
# Convention : Reuss Voigt Hill
#
# Bulk Modulus (GPa) = 42.54280 44.08392 43.31336
# Shear Modulus (GPa) = 26.82403 29.52342 28.17373
#
# Velocity S-wave (km/s) = 3.77432 3.95968 3.86811
# Velocity P-wave (km/s) = 6.44882 6.65711 6.55379
#
# Compressibility (1/GPa) = 0.02350574
#
# Stress axis : x y z
#
# Youngs Moduli (GPa) = 47.60687 88.81928 75.07104
#
# Poissons Ratio (x) = 0.25691 0.50626
# Poissons Ratio (y) = 0.13770 0.10536
# Poissons Ratio (z) = 0.32105 0.12465
#
# Static dielectric constant tensor:
#      x y z
#    x 3.254970 0.000000 0.000000 
#    y 0.000000 3.497580 0.000000 
#    z 0.000000 0.000000 3.680860 
# 
# 
# High freq. dielectric constant tensor:
#      x y z
#    x 1.711600 0.000000 0.000000 
#    y 0.000000 1.743590 0.000000 
#    z 0.000000 0.000000 1.742450 
# 
# From -- ./inp_files/25267.got.cif
#   From: 2010.03.12/outbox.cif.g09.slc.cpg/sg20_13_cif.got.tgz:25267.got - 2010.04.14 01:38:04.
