data_PCOD8158320
_publ_section_title
;
Structure prediction by ZEFSAII (Michael W. Deem and Ramdas Pophale) SiO2 
 PCOD8158320
Probable space group: C 2 2 21
;
_chemical_formula_sum "Si O2"
_cell_formula_units_Z 40
_cell_length_a 24.437493
_cell_length_b 8.917264
_cell_length_c 8.081564
_cell_angle_alpha 90.000000
_cell_angle_beta 90.000000
_cell_angle_gamma 90.000000
_cell_volume 1761.098679
_symmetry_space_group_name_H-M "C 2 2 21"
_symmetry_group_IT_number 20
_symmetry_cell_setting 'orthorhombic'
loop_
_space_group_symop_operation_xyz
x,y,z
-x,-y,1/2+z
x,-y,-z
-x,y,1/2-z
1/2+x,1/2+y,z
1/2-x,1/2-y,1/2+z
1/2+x,1/2-y,-z
1/2-x,1/2+y,1/2-z
loop_
_atom_site_type_symbol
_atom_site_label
_atom_site_fract_x
_atom_site_fract_y
_atom_site_fract_z
Si Si1 0.316794 0.518652 0.822308
Si Si2 0.130895 0.511303 0.316862
Si Si3 0.712419 0.207123 0.810389
Si Si4 0.371785 0.720028 0.593635
Si Si5 0.039777 0.362750 0.104979
O O1 0.285434 0.365741 0.781082
O O2 0.273648 0.653788 0.848514
O O3 0.359744 0.553927 0.671216
O O4 0.347506 0.500000 0.000000
O O5 0.106402 0.500000 0.500000
O O6 0.187888 0.421038 0.310357
O O7 0.133458 0.682635 0.261185
O O8 0.092450 0.430269 0.187848
O O9 0.677203 0.224292 0.977185
O O10 0.433296 0.732193 0.512452
O O11 0.000000 0.298719 0.250000
O O12 0.011503 0.500000 0.000000
#
# Coordination Sequence:
#
# PCOD8158320 Si02
#       5
#     8   8   8   8   8
#     4  12  23  36  56  83 121 169 214 250 297 354
#     4  10  19  34  56  86 120 153 197 249 299 353
#     4  11  22  36  55  81 120 167 210 248 292 350
#     4  10  22  38  55  86 125 159 201 255 302 356
#     4   9  18  34  59  90 122 152 192 248 310 363
#
# _framework density 22.713096
#
# number of rings (size 3 to 8) (size 9 to 14) (size 15 to 20)
#    0.000    1.600    0.000    7.800    0.000    1.600 
#    0.000    0.000    0.000    0.000    0.000  145.600 
#    0.000    0.000    0.000    0.000    0.000    0.000 
#
# Total GULP energy -247810.427773 kJ/mol
# GULP energy per Si atom -12390.521389 kJ/mol
# Density = 2.266140 g / cm^3
# Si number density = 22.713096 Si / 1000 Ang^3
#
#
#
# Elastic Constant Matrix: (Units=GPa)
#
#
# Indices 1 2 3 4 5 6 
#
# 1 73.7317 19.2387 28.0270 0.0000 0.0000 0.0000
# 2 19.2387 60.2181 24.5450 0.0000 0.0000 0.0000
# 3 28.0270 24.5450 133.8281 0.0000 0.0000 0.0000
# 4 0.0000 0.0000 0.0000 35.9438 0.0000 0.0000
# 5 0.0000 0.0000 0.0000 0.0000 34.1474 0.0000
# 6 0.0000 0.0000 0.0000 0.0000 0.0000 119.3937
#
#
#
# Elastic Compliance Matrix: (Units=1/GPa)
#
#
# Indices 1 2 3 4 5 6 
#
# 1 0.015553 -0.003936 -0.002535 0.000000 0.000000 0.000000
# 2 -0.003936 0.018944 -0.002650 0.000000 0.000000 0.000000
# 3 -0.002535 -0.002650 0.008489 0.000000 0.000000 0.000000
# 4 0.000000 0.000000 0.000000 0.027821 0.000000 0.000000
# 5 0.000000 0.000000 0.000000 0.000000 0.029285 0.000000
# 6 0.000000 0.000000 0.000000 0.000000 0.000000 0.008376
#
#
# Mechanical properties :
#
#
# Convention : Reuss Voigt Hill
#
# Bulk Modulus (GPa) = 40.41374 45.71102 43.06238
# Shear Modulus (GPa) = 37.04833 50.96146 44.00489
#
# Velocity S-wave (km/s) = 4.04312 4.74191 4.40639
# Velocity P-wave (km/s) = 6.29504 7.08167 6.69991
#
# Compressibility (1/GPa) = 0.02474406
#
# Stress axis : x y z
#
# Youngs Moduli (GPa) = 64.29475 52.78744 117.79485
#
# Poissons Ratio (x) = 0.20775 0.29866
# Poissons Ratio (y) = 0.25304 0.31218
# Poissons Ratio (z) = 0.16302 0.13990
#
# Static dielectric constant tensor:
#      x y z
#    x 3.777960 0.000000 0.000000 
#    y 0.000000 4.504550 0.000000 
#    z 0.000000 0.000000 -0.091250 
# 
# 
# High freq. dielectric constant tensor:
#      x y z
#    x 1.855660 0.000000 0.000000 
#    y 0.000000 1.881010 0.000000 
#    z 0.000000 0.000000 1.916240 
# 
# From -- ./inp_files/6059.got.cif
#   From: 2010.03.12/outbox.cif.g09.slc.cpg/sg20_4_cif.got.tgz:6059.got - 2010.04.14 01:38:04.
