data_PCOD8158449
_publ_section_title
;
Structure prediction by ZEFSAII (Michael W. Deem and Ramdas Pophale) SiO2 
 PCOD8158449
Probable space group: C 2 2 21
;
_chemical_formula_sum "Si O2"
_cell_formula_units_Z 64
_cell_length_a 9.877946
_cell_length_b 19.558597
_cell_length_c 17.726972
_cell_angle_alpha 90.000000
_cell_angle_beta 90.000000
_cell_angle_gamma 90.000000
_cell_volume 3424.829098
_symmetry_space_group_name_H-M "C 2 2 21"
_symmetry_group_IT_number 20
_symmetry_cell_setting 'orthorhombic'
loop_
_space_group_symop_operation_xyz
x,y,z
-x,-y,1/2+z
x,-y,-z
-x,y,1/2-z
1/2+x,1/2+y,z
1/2-x,1/2-y,1/2+z
1/2+x,1/2-y,-z
1/2-x,1/2+y,1/2-z
loop_
_atom_site_type_symbol
_atom_site_label
_atom_site_fract_x
_atom_site_fract_y
_atom_site_fract_z
Si Si1 0.753211 0.285340 0.668241
Si Si2 0.746789 0.785340 0.168241
Si Si3 0.909651 0.076583 0.679551
Si Si4 0.653169 0.923198 0.227430
Si Si5 0.523348 0.299141 0.912089
Si Si6 0.909651 0.923417 0.679551
Si Si7 0.023348 0.200859 0.912089
Si Si8 0.153169 0.423198 0.772570
O O1 0.750000 0.250000 0.750000
O O2 0.606770 0.275282 0.633514
O O3 0.856071 0.249816 0.611964
O O4 0.794299 0.365546 0.669962
O O5 0.705701 0.865546 0.169962
O O6 0.643929 0.749816 0.111964
O O7 0.893230 0.775282 0.133514
O O8 0.750216 0.079959 0.699287
O O9 0.937605 0.122898 0.607227
O O10 0.000000 0.103667 0.750000
O O11 0.955388 1.000000 0.658920
O O12 0.500000 0.906031 0.250000
O O13 0.662411 0.000000 0.191577
O O14 0.562395 0.377102 0.892773
O O15 0.495058 0.292837 0.000000
O O16 0.750216 0.920041 0.699287
O O17 0.000000 0.896333 0.750000
O O18 0.000000 0.406031 0.750000
#
# Coordination Sequence:
#
# PCOD8158449 Si02
#       8
#     8   8   8   8   8   8   8   8
#     4  12  22  40  63  87 115 163 206 248 294 363
#     4  12  22  40  63  87 115 163 206 248 294 363
#     4  10  19  37  62  89 117 152 202 247 288 356
#     4  10  20  35  61  93 116 145 202 257 291 340
#     4  12  25  39  57  89 125 157 196 252 315 361
#     4  10  19  37  62  89 117 152 202 247 288 356
#     4  12  25  39  57  89 125 157 196 252 315 361
#     4  10  20  35  61  93 116 145 202 257 291 340
#
# _framework density 18.687065
#
# number of rings (size 3 to 8) (size 9 to 14) (size 15 to 20)
#    0.000    1.000    5.000    3.000    0.000    0.500 
#    0.000    0.000    0.000    2.250    0.000    0.000 
#    0.000    0.000    0.000    0.000    0.000    0.000 
#
# Total GULP energy -396813.614923 kJ/mol
# GULP energy per Si atom -12400.425466 kJ/mol
# Density = 1.864453 g / cm^3
# Si number density = 18.687065 Si / 1000 Ang^3
#
#
#
# Elastic Constant Matrix: (Units=GPa)
#
#
# Indices 1 2 3 4 5 6 
#
# 1 120.6439 18.3062 23.0446 0.0000 0.0000 0.0000
# 2 18.3062 109.4864 34.6219 0.0000 0.0000 0.0000
# 3 23.0446 34.6219 93.0163 0.0000 0.0000 0.0000
# 4 0.0000 0.0000 0.0000 23.9128 0.0000 0.0000
# 5 0.0000 0.0000 0.0000 0.0000 23.4286 0.0000
# 6 0.0000 0.0000 0.0000 0.0000 0.0000 30.7552
#
#
#
# Elastic Compliance Matrix: (Units=1/GPa)
#
#
# Indices 1 2 3 4 5 6 
#
# 1 0.008775 -0.000884 -0.001845 0.000000 0.000000 0.000000
# 2 -0.000884 0.010441 -0.003667 0.000000 0.000000 0.000000
# 3 -0.001845 -0.003667 0.012573 0.000000 0.000000 0.000000
# 4 0.000000 0.000000 0.000000 0.041819 0.000000 0.000000
# 5 0.000000 0.000000 0.000000 0.000000 0.042683 0.000000
# 6 0.000000 0.000000 0.000000 0.000000 0.000000 0.032515
#
#
# Mechanical properties :
#
#
# Convention : Reuss Voigt Hill
#
# Bulk Modulus (GPa) = 52.64021 52.78801 52.71411
# Shear Modulus (GPa) = 29.77423 32.09758 30.93591
#
# Velocity S-wave (km/s) = 3.99596 4.14893 4.07316
# Velocity P-wave (km/s) = 7.03709 7.15970 7.09866
#
# Compressibility (1/GPa) = 0.01899688
#
# Stress axis : x y z
#
# Youngs Moduli (GPa) = 113.95491 95.77614 79.53574
#
# Poissons Ratio (x) = 0.08465 0.14675
# Poissons Ratio (y) = 0.10071 0.29168
# Poissons Ratio (z) = 0.21026 0.35124
#
# Static dielectric constant tensor:
#      x y z
#    x 3.715900 0.000000 0.000000 
#    y 0.000000 3.814030 0.000000 
#    z 0.000000 0.000000 3.131510 
# 
# 
# High freq. dielectric constant tensor:
#      x y z
#    x 1.751990 0.000000 0.000000 
#    y 0.000000 1.746890 0.000000 
#    z 0.000000 0.000000 1.674860 
# 
# From -- ./inp_files/23917.got.cif
#   From: 2010.03.12/outbox.cif.g09.slc.cpg/sg20_12_cif.got.tgz:23917.got - 2010.04.14 01:38:04.
