data_PCOD8158703
_publ_section_title
;
Structure prediction by ZEFSAII (Michael W. Deem and Ramdas Pophale) SiO2 
 PCOD8158703
Probable space group: C 2 2 21
;
_chemical_formula_sum "Si O2"
_cell_formula_units_Z 36
_cell_length_a 13.456063
_cell_length_b 23.256228
_cell_length_c 5.083564
_cell_angle_alpha 90.000000
_cell_angle_beta 90.000000
_cell_angle_gamma 90.000000
_cell_volume 1590.836636
_symmetry_space_group_name_H-M "C 2 2 21"
_symmetry_group_IT_number 20
_symmetry_cell_setting 'orthorhombic'
loop_
_space_group_symop_operation_xyz
x,y,z
-x,-y,1/2+z
x,-y,-z
-x,y,1/2-z
1/2+x,1/2+y,z
1/2-x,1/2-y,1/2+z
1/2+x,1/2-y,-z
1/2-x,1/2+y,1/2-z
loop_
_atom_site_type_symbol
_atom_site_label
_atom_site_fract_x
_atom_site_fract_y
_atom_site_fract_z
Si Si1 0.099301 0.221561 0.637550
Si Si2 0.277018 0.177100 0.948194
Si Si3 0.566332 0.000000 0.000000
Si Si4 0.217516 0.399824 0.962568
Si Si5 0.938688 0.903339 0.995335
O O1 0.167347 0.199868 0.879905
O O2 0.152297 0.267399 0.450814
O O3 0.069770 0.165631 0.469543
O O4 0.000000 0.251208 0.750000
O O5 0.315458 0.133946 0.724060
O O6 0.277396 0.145534 0.226315
O O7 0.635422 0.947652 0.905524
O O8 0.500000 0.982107 0.250000
O O9 0.326492 0.428944 0.000525
O O10 0.000000 0.928173 0.750000
O O11 0.000000 0.923065 0.250000
#
# Coordination Sequence:
#
# PCOD8158703 Si02
#       5
#     8   8   4   8   8
#     4  10  21  37  59  90 131 170 203 247 310 382
#     4  11  23  39  63  94 130 169 214 260 315 385
#     4  12  28  50  72  92 122 172 226 280 340 382
#     4  11  24  44  64  90 126 165 217 277 321 377
#     4  10  20  36  61  92 125 161 194 240 314 386
#
# _framework density 22.629604
#
# number of rings (size 3 to 8) (size 9 to 14) (size 15 to 20)
#    0.000    1.333    0.000    8.000    0.000    6.222 
#    0.000    3.333    0.000    0.000    0.000    0.000 
#    0.000    0.000    0.000    0.000    0.000    0.000 
#
# Total GULP energy -223228.437822 kJ/mol
# GULP energy per Si atom -12401.579879 kJ/mol
# Density = 2.257810 g / cm^3
# Si number density = 22.629604 Si / 1000 Ang^3
#
#
#
# Elastic Constant Matrix: (Units=GPa)
#
#
# Indices 1 2 3 4 5 6 
#
# 1 130.1847 37.9919 29.8915 0.0000 0.0000 0.0000
# 2 37.9919 53.6623 4.4381 0.0000 0.0000 0.0000
# 3 29.8915 4.4381 105.3023 0.0000 0.0000 0.0000
# 4 0.0000 0.0000 0.0000 24.5051 0.0000 0.0000
# 5 0.0000 0.0000 0.0000 0.0000 38.0468 0.0000
# 6 0.0000 0.0000 0.0000 0.0000 0.0000 30.2950
#
#
#
# Elastic Compliance Matrix: (Units=1/GPa)
#
#
# Indices 1 2 3 4 5 6 
#
# 1 0.010366 -0.007120 -0.002642 0.000000 0.000000 0.000000
# 2 -0.007120 0.023591 0.001027 0.000000 0.000000 0.000000
# 3 -0.002642 0.001027 0.010203 0.000000 0.000000 0.000000
# 4 0.000000 0.000000 0.000000 0.040808 0.000000 0.000000
# 5 0.000000 0.000000 0.000000 0.000000 0.026283 0.000000
# 6 0.000000 0.000000 0.000000 0.000000 0.000000 0.033009
#
#
# Mechanical properties :
#
#
# Convention : Reuss Voigt Hill
#
# Bulk Modulus (GPa) = 37.46899 48.19917 42.83408
# Shear Modulus (GPa) = 29.30336 33.02457 31.16397
#
# Velocity S-wave (km/s) = 3.60239 3.82429 3.71500
# Velocity P-wave (km/s) = 5.82207 6.39106 6.11319
#
# Compressibility (1/GPa) = 0.02668873
#
# Stress axis : x y z
#
# Youngs Moduli (GPa) = 96.46831 42.38850 98.00767
#
# Poissons Ratio (x) = 0.30183 0.25898
# Poissons Ratio (y) = 0.68690 -0.10065
# Poissons Ratio (z) = 0.25491 -0.04353
#
# Static dielectric constant tensor:
#      x y z
#    x 4.537760 0.000000 0.000000 
#    y 0.000000 3.740310 0.000000 
#    z 0.000000 0.000000 4.089740 
# 
# 
# High freq. dielectric constant tensor:
#      x y z
#    x 1.906390 0.000000 0.000000 
#    y 0.000000 1.867060 0.000000 
#    z 0.000000 0.000000 1.899360 
# 
# From -- ./inp_files/1212.got.cif
#   From: 2010.03.12/outbox.cif.g09.slc.cpg/sg20_1_cif.got.tgz:1212.got - 2010.04.14 01:38:04.
