data_PCOD8158412
_publ_section_title
;
Structure prediction by ZEFSAII (Michael W. Deem and Ramdas Pophale) SiO2 
 PCOD8158412
Probable space group: C 2 2 21
;
_chemical_formula_sum "Si O2"
_cell_formula_units_Z 64
_cell_length_a 8.800638
_cell_length_b 20.931191
_cell_length_c 16.880233
_cell_angle_alpha 90.000000
_cell_angle_beta 90.000000
_cell_angle_gamma 90.000000
_cell_volume 3109.471174
_symmetry_space_group_name_H-M "C 2 2 21"
_symmetry_group_IT_number 20
_symmetry_cell_setting 'orthorhombic'
loop_
_space_group_symop_operation_xyz
x,y,z
-x,-y,1/2+z
x,-y,-z
-x,y,1/2-z
1/2+x,1/2+y,z
1/2-x,1/2-y,1/2+z
1/2+x,1/2-y,-z
1/2-x,1/2+y,1/2-z
loop_
_atom_site_type_symbol
_atom_site_label
_atom_site_fract_x
_atom_site_fract_y
_atom_site_fract_z
Si Si1 0.277686 0.654724 0.812516
Si Si2 0.168350 0.086427 0.277851
Si Si3 0.380261 0.170844 0.532494
Si Si4 0.662149 0.461077 0.209636
Si Si5 0.048736 0.116373 0.921850
Si Si6 0.827909 0.772382 0.779394
Si Si7 0.204948 0.278444 0.453523
Si Si8 0.194878 0.933131 0.539603
O O1 0.140878 0.650747 0.875859
O O2 0.247233 0.597179 0.750705
O O3 0.441223 0.646575 0.853937
O O4 0.277482 0.722171 0.767027
O O5 0.245801 0.156457 0.268567
O O6 0.167743 0.059868 0.367459
O O7 0.000000 0.101019 0.250000
O O8 0.245600 0.030186 0.223257
O O9 0.260996 0.228022 0.518331
O O10 0.551068 0.190719 0.513239
O O11 0.339784 0.112001 0.475373
O O12 0.500000 0.471987 0.250000
O O13 0.637505 0.444357 0.116903
O O14 0.169290 0.167738 0.948250
O O15 0.956116 0.095428 0.998838
O O16 0.826657 0.757789 0.872216
O O17 0.000000 0.765957 0.750000
O O18 0.235156 0.000000 0.500000
#
# Coordination Sequence:
#
# PCOD8158412 Si02
#       8
#     8   8   8   8   8   8   8   8
#     4  10  19  36  60  90 117 157 207 257 313 366
#     4  10  20  34  56  89 126 160 204 254 312 375
#     4  11  23  38  60  90 123 163 206 265 316 377
#     4   9  17  34  57  89 116 152 203 256 299 361
#     4  10  22  37  65  94 119 162 211 266 307 373
#     4  11  21  35  59  91 126 164 204 262 318 370
#     4  12  23  40  60  92 126 159 214 263 319 374
#     4  11  21  39  63  92 125 170 214 255 320 382
#
# _framework density 20.582277999999999
#
# number of rings (size 3 to 8) (size 9 to 14) (size 15 to 20)
#    0.000    1.500    3.750    4.500    0.000    0.000 
#    0.000    0.625    0.000    1.500    6.500    0.000 
#    0.000    0.000    0.000    0.000    0.000    0.000 
#
# Total GULP energy -396723.241010 kJ/mol
# GULP energy per Si atom -12397.601282 kJ/mol
# Density = 2.053543 g / cm^3
# Si number density = 20.582278 Si / 1000 Ang^3
#
#
#
# Elastic Constant Matrix: (Units=GPa)
#
#
# Indices 1 2 3 4 5 6 
#
# 1 74.3165 38.9147 6.6559 0.0000 0.0000 0.0000
# 2 38.9147 167.0599 23.9926 0.0000 0.0000 0.0000
# 3 6.6559 23.9926 54.5599 0.0000 0.0000 0.0000
# 4 0.0000 0.0000 0.0000 32.6765 0.0000 0.0000
# 5 0.0000 0.0000 0.0000 0.0000 19.4708 0.0000
# 6 0.0000 0.0000 0.0000 0.0000 0.0000 3.1840
#
#
#
# Elastic Compliance Matrix: (Units=1/GPa)
#
#
# Indices 1 2 3 4 5 6 
#
# 1 0.015330 -0.003525 -0.000320 0.000000 0.000000 0.000000
# 2 -0.003525 0.007200 -0.002736 0.000000 0.000000 0.000000
# 3 -0.000320 -0.002736 0.019571 0.000000 0.000000 0.000000
# 4 0.000000 0.000000 0.000000 0.030603 0.000000 0.000000
# 5 0.000000 0.000000 0.000000 0.000000 0.051359 0.000000
# 6 0.000000 0.000000 0.000000 0.000000 0.000000 0.314073
#
#
# Mechanical properties :
#
#
# Convention : Reuss Voigt Hill
#
# Bulk Modulus (GPa) = 34.55587 48.34028 41.44807
# Shear Modulus (GPa) = 10.84729 26.15779 18.50254
#
# Velocity S-wave (km/s) = 2.29818 3.56882 3.00151
# Velocity P-wave (km/s) = 4.88547 6.36548 5.67394
#
# Compressibility (1/GPa) = 0.02893865
#
# Stress axis : x y z
#
# Youngs Moduli (GPa) = 65.22952 138.88969 51.09667
#
# Poissons Ratio (x) = 0.48960 0.01635
# Poissons Ratio (y) = 0.22994 0.13981
# Poissons Ratio (z) = 0.02088 0.38002
#
# Static dielectric constant tensor:
#      x y z
#    x 3.363090 0.000000 0.000000 
#    y 0.000000 4.324220 0.000000 
#    z 0.000000 0.000000 3.935850 
# 
# 
# High freq. dielectric constant tensor:
#      x y z
#    x 1.761620 0.000000 0.000000 
#    y 0.000000 1.826820 0.000000 
#    z 0.000000 0.000000 1.805490 
# 
# From -- ./inp_files/23899.got.cif
#   From: 2010.03.12/outbox.cif.g09.slc.cpg/sg20_12_cif.got.tgz:23899.got - 2010.04.14 01:38:04.
