data_PCOD8158783
_publ_section_title
;
Structure prediction by ZEFSAII (Michael W. Deem and Ramdas Pophale) SiO2 
 PCOD8158783
Probable space group: C 2 2 21
;
_chemical_formula_sum "Si O2"
_cell_formula_units_Z 48
_cell_length_a 15.411678
_cell_length_b 12.688681
_cell_length_c 10.650262
_cell_angle_alpha 90.000000
_cell_angle_beta 90.000000
_cell_angle_gamma 90.000000
_cell_volume 2082.699906
_symmetry_space_group_name_H-M "C 2 2 21"
_symmetry_group_IT_number 20
_symmetry_cell_setting 'orthorhombic'
loop_
_space_group_symop_operation_xyz
x,y,z
-x,-y,1/2+z
x,-y,-z
-x,y,1/2-z
1/2+x,1/2+y,z
1/2-x,1/2-y,1/2+z
1/2+x,1/2-y,-z
1/2-x,1/2+y,1/2-z
loop_
_atom_site_type_symbol
_atom_site_label
_atom_site_fract_x
_atom_site_fract_y
_atom_site_fract_z
Si Si1 0.101878 0.162841 0.723028
Si Si2 0.338097 0.147240 0.386656
Si Si3 0.022386 0.500000 0.000000
Si Si4 0.000000 0.617305 0.750000
Si Si5 0.175406 0.056197 0.268633
Si Si6 0.958829 0.115176 0.031292
Si Si7 0.377708 0.264925 0.612551
O O1 0.142693 0.270223 0.774779
O O2 0.109787 0.157549 0.572124
O O3 0.000000 0.149795 0.750000
O O4 0.157232 0.063097 0.776449
O O5 0.263394 0.064449 0.349355
O O6 0.313275 0.207008 0.515265
O O7 0.423814 0.083495 0.419690
O O8 0.972391 0.445234 0.119429
O O9 0.086615 0.686406 0.778642
O O10 0.092029 0.104219 0.339295
O O11 0.181781 0.137471 0.154233
O O12 0.037980 0.195672 0.036614
O O13 0.996844 0.000000 0.000000
#
# Coordination Sequence:
#
# PCOD8158783 Si02
#       7
#     8   8   4   4   8   8   8
#     4  11  23  42  72 104 132 184 239 287 345 424
#     4  11  27  41  67  98 146 180 225 289 363 418
#     4  10  26  46  66  98 136 184 234 288 348 424
#     4  10  22  42  70  94 130 180 234 290 336 416
#     4  11  24  40  66  98 141 177 226 296 351 411
#     4  10  20  37  69  99 133 173 233 290 339 406
#     4  11  21  42  67 100 132 177 235 283 349 418
#
# _framework density 23.047008000000002
#
# number of rings (size 3 to 8) (size 9 to 14) (size 15 to 20)
#    0.000    1.333    3.333    2.000    7.000    1.333 
#    0.000    0.000    0.000    0.000    0.000    0.000 
#    0.000    0.000    0.000    0.000    0.000    0.000 
#
# Total GULP energy -297350.139670 kJ/mol
# GULP energy per Si atom -12389.589153 kJ/mol
# Density = 2.299455 g / cm^3
# Si number density = 23.047008 Si / 1000 Ang^3
#
#
#
# Elastic Constant Matrix: (Units=GPa)
#
#
# Indices 1 2 3 4 5 6 
#
# 1 64.5368 26.4215 10.1637 0.0000 0.0000 0.0000
# 2 26.4215 121.5880 35.3773 0.0000 0.0000 0.0000
# 3 10.1637 35.3773 69.3357 0.0000 0.0000 0.0000
# 4 0.0000 0.0000 0.0000 52.5899 0.0000 0.0000
# 5 0.0000 0.0000 0.0000 0.0000 19.9381 0.0000
# 6 0.0000 0.0000 0.0000 0.0000 0.0000 17.9384
#
#
#
# Elastic Compliance Matrix: (Units=1/GPa)
#
#
# Indices 1 2 3 4 5 6 
#
# 1 0.017038 -0.003495 -0.000715 0.000000 0.000000 0.000000
# 2 -0.003495 0.010375 -0.004781 0.000000 0.000000 0.000000
# 3 -0.000715 -0.004781 0.016967 0.000000 0.000000 0.000000
# 4 0.000000 0.000000 0.000000 0.019015 0.000000 0.000000
# 5 0.000000 0.000000 0.000000 0.000000 0.050155 0.000000
# 6 0.000000 0.000000 0.000000 0.000000 0.000000 0.055746
#
#
# Mechanical properties :
#
#
# Convention : Reuss Voigt Hill
#
# Bulk Modulus (GPa) = 37.87992 44.37615 41.12804
# Shear Modulus (GPa) = 25.50008 30.32648 27.91328
#
# Velocity S-wave (km/s) = 3.32992 3.63140 3.48393
# Velocity P-wave (km/s) = 5.59072 6.07283 5.83675
#
# Compressibility (1/GPa) = 0.02639921
#
# Stress axis : x y z
#
# Youngs Moduli (GPa) = 58.69147 96.38471 58.93801
#
# Poissons Ratio (x) = 0.33682 0.04211
# Poissons Ratio (y) = 0.20510 0.28181
# Poissons Ratio (z) = 0.04194 0.46086
#
# Static dielectric constant tensor:
#      x y z
#    x 3.663210 0.000000 0.000000 
#    y 0.000000 4.592840 0.000000 
#    z 0.000000 0.000000 4.612070 
# 
# 
# High freq. dielectric constant tensor:
#      x y z
#    x 1.865780 0.000000 0.000000 
#    y 0.000000 1.926160 0.000000 
#    z 0.000000 0.000000 1.920280 
# 
# From -- ./inp_files/15760.got.cif
#   From: 2010.03.12/outbox.cif.g09.slc.cpg/sg20_8_cif.got.tgz:15760.got - 2010.04.14 01:38:04.
