data_PCOD8158621
_publ_section_title
;
Structure prediction by ZEFSAII (Michael W. Deem and Ramdas Pophale) SiO2 
 PCOD8158621
Probable space group: C 2 2 21
;
_chemical_formula_sum "Si O2"
_cell_formula_units_Z 64
_cell_length_a 30.242987
_cell_length_b 11.283628
_cell_length_c 9.406244
_cell_angle_alpha 90.000000
_cell_angle_beta 90.000000
_cell_angle_gamma 90.000000
_cell_volume 3209.886549
_symmetry_space_group_name_H-M "C 2 2 21"
_symmetry_group_IT_number 20
_symmetry_cell_setting 'orthorhombic'
loop_
_space_group_symop_operation_xyz
x,y,z
-x,-y,1/2+z
x,-y,-z
-x,y,1/2-z
1/2+x,1/2+y,z
1/2-x,1/2-y,1/2+z
1/2+x,1/2-y,-z
1/2-x,1/2+y,1/2-z
loop_
_atom_site_type_symbol
_atom_site_label
_atom_site_fract_x
_atom_site_fract_y
_atom_site_fract_z
Si Si1 0.880230 0.352591 0.817331
Si Si2 0.746233 0.698131 0.994101
Si Si3 0.850619 0.833035 0.407239
Si Si4 0.761205 0.100647 0.208491
Si Si5 0.688903 0.052508 0.671058
Si Si6 0.886510 0.278618 0.127301
Si Si7 0.858750 0.924044 0.708481
Si Si8 0.455970 0.025945 0.838803
O O1 0.865717 0.285209 0.674234
O O2 0.844532 0.448108 0.870094
O O3 0.926065 0.418006 0.780090
O O4 0.883864 0.270277 0.956006
O O5 0.702384 0.657047 0.910310
O O6 0.758946 0.829788 0.941103
O O7 0.782179 0.596772 0.962075
O O8 0.744786 0.698622 0.165116
O O9 0.863556 0.836172 0.572736
O O10 0.874656 0.944044 0.330160
O O11 0.723343 0.996975 0.208974
O O12 0.809935 0.049923 0.229324
O O13 0.657188 0.165361 0.708073
O O14 0.889360 0.141149 0.175172
O O15 0.929780 0.350448 0.174255
O O16 0.500000 0.036542 0.750000
O O17 0.469148 0.000000 0.000000
#
# Coordination Sequence:
#
# PCOD8158621 Si02
#       8
#     8   8   8   8   8   8   8   8
#     4  10  20  35  56  80 105 138 179 216 262 321
#     4  11  20  31  46  66  98 143 187 223 261 303
#     4  10  21  34  48  72 107 146 185 222 261 303
#     4  11  20  31  46  66  98 143 187 223 261 303
#     4  11  19  32  52  72 104 146 181 224 271 305
#     4  10  20  35  56  80 105 138 179 216 262 321
#     4  10  21  34  48  72 107 146 185 222 261 303
#     4   9  20  38  62  90 112 132 162 208 269 333
#
# _framework density 19.938397999999999
#
# number of rings (size 3 to 8) (size 9 to 14) (size 15 to 20)
#    0.000    1.750    3.750    3.000    0.000    1.500 
#    0.000    3.750    0.000    0.750    0.000    0.000 
#    0.000    0.000    0.000    0.000    0.000    0.000 
#
# Total GULP energy -396460.721303 kJ/mol
# GULP energy per Si atom -12389.397541 kJ/mol
# Density = 1.989302 g / cm^3
# Si number density = 19.938398 Si / 1000 Ang^3
#
#
#
# Elastic Constant Matrix: (Units=GPa)
#
#
# Indices 1 2 3 4 5 6 
#
# 1 90.7425 7.9824 21.2908 0.0000 0.0000 0.0000
# 2 7.9824 26.5539 -0.0282 0.0000 0.0000 0.0000
# 3 21.2908 -0.0282 32.3217 0.0000 0.0000 0.0000
# 4 0.0000 0.0000 0.0000 30.5282 0.0000 0.0000
# 5 0.0000 0.0000 0.0000 0.0000 27.3539 0.0000
# 6 0.0000 0.0000 0.0000 0.0000 0.0000 19.0216
#
#
#
# Elastic Compliance Matrix: (Units=1/GPa)
#
#
# Indices 1 2 3 4 5 6 
#
# 1 0.013458 -0.004055 -0.008868 0.000000 0.000000 0.000000
# 2 -0.004055 0.038881 0.002705 0.000000 0.000000 0.000000
# 3 -0.008868 0.002705 0.036783 0.000000 0.000000 0.000000
# 4 0.000000 0.000000 0.000000 0.032757 0.000000 0.000000
# 5 0.000000 0.000000 0.000000 0.000000 0.036558 0.000000
# 6 0.000000 0.000000 0.000000 0.000000 0.000000 0.052572
#
#
# Mechanical properties :
#
#
# Convention : Reuss Voigt Hill
#
# Bulk Modulus (GPa) = 14.55914 23.12311 18.84113
# Shear Modulus (GPa) = 19.65875 23.40562 21.53219
#
# Velocity S-wave (km/s) = 3.14343 3.42993 3.28980
# Velocity P-wave (km/s) = 4.52690 5.22574 4.88882
#
# Compressibility (1/GPa) = 0.06868536
#
# Stress axis : x y z
#
# Youngs Moduli (GPa) = 74.30711 25.71942 27.18643
#
# Poissons Ratio (x) = 0.10429 0.24110
# Poissons Ratio (y) = 0.30131 -0.07354
# Poissons Ratio (z) = 0.65898 -0.06957
#
# Static dielectric constant tensor:
#      x y z
#    x 3.331630 0.000000 0.000000 
#    y 0.000000 3.569480 0.000000 
#    z 0.000000 0.000000 3.468760 
# 
# 
# High freq. dielectric constant tensor:
#      x y z
#    x 1.736080 0.000000 0.000000 
#    y 0.000000 1.773740 0.000000 
#    z 0.000000 0.000000 1.770520 
# 
# From -- ./inp_files/11629.got.cif
#   From: 2010.03.12/outbox.cif.g09.slc.cpg/sg20_6_cif.got.tgz:11629.got - 2010.04.14 01:38:04.
