data_PCOD8158400
_publ_section_title
;
Structure prediction by ZEFSAII (Michael W. Deem and Ramdas Pophale) SiO2 
 PCOD8158400
Probable space group: C 2 2 21
;
_chemical_formula_sum "Si O2"
_cell_formula_units_Z 40
_cell_length_a 11.691968
_cell_length_b 19.055426
_cell_length_c 10.170390
_cell_angle_alpha 90.000000
_cell_angle_beta 90.000000
_cell_angle_gamma 90.000000
_cell_volume 2265.916424
_symmetry_space_group_name_H-M "C 2 2 21"
_symmetry_group_IT_number 20
_symmetry_cell_setting 'orthorhombic'
loop_
_space_group_symop_operation_xyz
x,y,z
-x,-y,1/2+z
x,-y,-z
-x,y,1/2-z
1/2+x,1/2+y,z
1/2-x,1/2-y,1/2+z
1/2+x,1/2-y,-z
1/2-x,1/2+y,1/2-z
loop_
_atom_site_type_symbol
_atom_site_label
_atom_site_fract_x
_atom_site_fract_y
_atom_site_fract_z
Si Si1 0.208981 0.850174 0.976669
Si Si2 0.179526 0.172634 0.728845
Si Si3 0.000000 0.945068 0.250000
Si Si4 0.443416 0.806614 0.879198
Si Si5 0.411270 0.777156 0.368550
Si Si6 0.598983 0.500000 0.000000
O O1 0.338057 0.853655 0.925364
O O2 0.130807 0.803913 0.878267
O O3 0.174181 0.930678 0.984993
O O4 0.200680 0.811006 0.117408
O O5 0.097987 0.229124 0.660408
O O6 0.302735 0.171872 0.657604
O O7 0.113284 0.099415 0.715011
O O8 0.019212 0.995188 0.126756
O O9 0.500000 0.842170 0.750000
O O10 0.533979 0.802859 0.996251
O O11 0.500000 0.782604 0.250000
#
# Coordination Sequence:
#
# PCOD8158400 Si02
#       6
#     8   8   4   8   8   4
#     4  10  21  35  58  81 114 152 184 227 279 338
#     4  10  19  36  58  83 113 150 174 233 301 326
#     4  10  20  40  60  78 114 148 188 230 276 334
#     4  11  19  35  55  86 115 140 179 238 288 327
#     4  11  21  33  58  90 111 141 185 232 289 339
#     4  10  22  40  56  78 112 152 190 226 264 336
#
# _framework density 17.652902000000001
#
# number of rings (size 3 to 8) (size 9 to 14) (size 15 to 20)
#    0.000    1.600    5.000    1.200    1.400    0.000 
#    3.600    0.000    8.800    0.000    0.000    0.000 
#    0.000    0.000    0.000    0.000    0.000    0.000 
#
# Total GULP energy -247977.317060 kJ/mol
# GULP energy per Si atom -12398.865853 kJ/mol
# Density = 1.761272 g / cm^3
# Si number density = 17.652902 Si / 1000 Ang^3
#
#
#
# Elastic Constant Matrix: (Units=GPa)
#
#
# Indices 1 2 3 4 5 6 
#
# 1 131.7461 36.2895 76.5129 0.0000 0.0000 0.0000
# 2 36.2895 66.3127 42.7218 0.0000 0.0000 0.0000
# 3 76.5129 42.7218 142.5867 0.0000 0.0000 0.0000
# 4 0.0000 0.0000 0.0000 25.0128 0.0000 0.0000
# 5 0.0000 0.0000 0.0000 0.0000 45.4837 0.0000
# 6 0.0000 0.0000 0.0000 0.0000 0.0000 11.3329
#
#
#
# Elastic Compliance Matrix: (Units=1/GPa)
#
#
# Indices 1 2 3 4 5 6 
#
# 1 0.011448 -0.002859 -0.005286 0.000000 0.000000 0.000000
# 2 -0.002859 0.019401 -0.004279 0.000000 0.000000 0.000000
# 3 -0.005286 -0.004279 0.011132 0.000000 0.000000 0.000000
# 4 0.000000 0.000000 0.000000 0.039979 0.000000 0.000000
# 5 0.000000 0.000000 0.000000 0.000000 0.021986 0.000000
# 6 0.000000 0.000000 0.000000 0.000000 0.000000 0.088239
#
#
# Mechanical properties :
#
#
# Convention : Reuss Voigt Hill
#
# Bulk Modulus (GPa) = 58.36806 72.41044 65.38925
# Shear Modulus (GPa) = 22.44714 28.70730 25.57722
#
# Velocity S-wave (km/s) = 3.56980 4.03700 3.81057
# Velocity P-wave (km/s) = 7.08007 7.92704 7.51549
#
# Compressibility (1/GPa) = 0.01713266
#
# Stress axis : x y z
#
# Youngs Moduli (GPa) = 87.35092 51.54288 89.83089
#
# Poissons Ratio (x) = 0.14737 0.47489
# Poissons Ratio (y) = 0.24975 0.38437
# Poissons Ratio (z) = 0.46178 0.22054
#
# Static dielectric constant tensor:
#      x y z
#    x 3.541390 0.000000 0.000000 
#    y 0.000000 2.887960 0.000000 
#    z 0.000000 0.000000 3.639150 
# 
# 
# High freq. dielectric constant tensor:
#      x y z
#    x 1.697620 0.000000 0.000000 
#    y 0.000000 1.643690 0.000000 
#    z 0.000000 0.000000 1.700270 
# 
# From -- ./inp_files/7116.got.cif
#   From: 2010.03.12/outbox.cif.g09.slc.cpg/sg20_4_cif.got.tgz:7116.got - 2010.04.14 01:38:04.
