data_PCOD8158685
_publ_section_title
;
Structure prediction by ZEFSAII (Michael W. Deem and Ramdas Pophale) SiO2 
 PCOD8158685
Probable space group: C 2 2 21
;
_chemical_formula_sum "Si O2"
_cell_formula_units_Z 64
_cell_length_a 33.335218
_cell_length_b 10.874381
_cell_length_c 9.313599
_cell_angle_alpha 90.000000
_cell_angle_beta 90.000000
_cell_angle_gamma 90.000000
_cell_volume 3376.178345
_symmetry_space_group_name_H-M "C 2 2 21"
_symmetry_group_IT_number 20
_symmetry_cell_setting 'orthorhombic'
loop_
_space_group_symop_operation_xyz
x,y,z
-x,-y,1/2+z
x,-y,-z
-x,y,1/2-z
1/2+x,1/2+y,z
1/2-x,1/2-y,1/2+z
1/2+x,1/2-y,-z
1/2-x,1/2+y,1/2-z
loop_
_atom_site_type_symbol
_atom_site_label
_atom_site_fract_x
_atom_site_fract_y
_atom_site_fract_z
Si Si1 0.811647 0.925204 0.287153
Si Si2 0.960682 0.134661 0.835126
Si Si3 0.461982 0.645098 0.166630
Si Si4 0.269676 0.080877 0.638363
Si Si5 0.383174 0.778045 0.194857
Si Si6 0.180524 0.182295 0.094639
Si Si7 0.338541 0.018444 0.161828
Si Si8 0.626213 0.720854 0.628568
O O1 0.769298 0.878479 0.227573
O O2 0.825943 0.859448 0.432412
O O3 0.847490 0.896069 0.176809
O O4 0.804469 0.069858 0.307863
O O5 0.919480 0.211135 0.811700
O O6 0.000000 0.185114 0.750000
O O7 0.950767 0.994505 0.787953
O O8 0.972414 0.146400 0.000003
O O9 0.500000 0.693933 0.250000
O O10 0.429263 0.744496 0.215391
O O11 0.287042 0.210851 0.590903
O O12 0.258024 0.000000 0.500000
O O13 0.301377 0.005653 0.733646
O O14 0.360646 0.726306 0.333866
O O15 0.375462 0.924381 0.188191
O O16 0.370146 0.717040 0.043783
O O17 0.355052 0.154222 0.192423
O O18 0.322409 0.000000 0.000000
#
# Coordination Sequence:
#
# PCOD8158685 Si02
#       8
#     8   8   8   8   8   8   8   8
#     4  11  25  37  57  82 110 143 186 237 284 331
#     4   9  18  32  52  81 111 144 183 229 282 338
#     4   9  17  31  53  80 111 144 182 229 284 339
#     4  11  25  39  59  80 111 151 189 232 289 344
#     4   9  19  37  58  81 112 147 192 230 282 345
#     4  10  24  40  54  81 112 142 185 239 278 338
#     4   9  20  38  59  81 110 153 189 236 287 339
#     4  10  20  36  60  83 112 150 192 235 284 345
#
# _framework density 18.956344999999999
#
# number of rings (size 3 to 8) (size 9 to 14) (size 15 to 20)
#    0.000    2.250    0.000    1.500    7.000    3.000 
#    0.000    3.125    0.000    0.000    0.000    0.000 
#    0.000    0.000    0.000    0.000    0.000    0.000 
#
# Total GULP energy -396705.963634 kJ/mol
# GULP energy per Si atom -12397.061364 kJ/mol
# Density = 1.891320 g / cm^3
# Si number density = 18.956345 Si / 1000 Ang^3
#
#
#
# Elastic Constant Matrix: (Units=GPa)
#
#
# Indices 1 2 3 4 5 6 
#
# 1 117.0664 34.8030 46.8406 0.0000 0.0000 0.0000
# 2 34.8030 74.6659 38.2922 0.0000 0.0000 0.0000
# 3 46.8406 38.2922 70.9397 0.0000 0.0000 0.0000
# 4 0.0000 0.0000 0.0000 21.1821 0.0000 0.0000
# 5 0.0000 0.0000 0.0000 0.0000 33.8292 0.0000
# 6 0.0000 0.0000 0.0000 0.0000 0.0000 24.0718
#
#
#
# Elastic Compliance Matrix: (Units=1/GPa)
#
#
# Indices 1 2 3 4 5 6 
#
# 1 0.011840 -0.002087 -0.006691 0.000000 0.000000 0.000000
# 2 -0.002087 0.018888 -0.008817 0.000000 0.000000 0.000000
# 3 -0.006691 -0.008817 0.023274 0.000000 0.000000 0.000000
# 4 0.000000 0.000000 0.000000 0.047210 0.000000 0.000000
# 5 0.000000 0.000000 0.000000 0.000000 0.029560 0.000000
# 6 0.000000 0.000000 0.000000 0.000000 0.000000 0.041542
#
#
# Mechanical properties :
#
#
# Convention : Reuss Voigt Hill
#
# Bulk Modulus (GPa) = 53.16156 55.83819 54.49988
# Shear Modulus (GPa) = 23.38905 25.33235 24.36070
#
# Velocity S-wave (km/s) = 3.51641 3.65958 3.58871
# Velocity P-wave (km/s) = 6.67772 6.88308 6.78118
#
# Compressibility (1/GPa) = 0.01881058
#
# Stress axis : x y z
#
# Youngs Moduli (GPa) = 84.45999 52.94433 42.96660
#
# Poissons Ratio (x) = 0.11051 0.28749
# Poissons Ratio (y) = 0.17629 0.37884
# Poissons Ratio (z) = 0.56513 0.46682
#
# Static dielectric constant tensor:
#      x y z
#    x 3.398700 0.000000 0.000000 
#    y 0.000000 3.553030 0.000000 
#    z 0.000000 0.000000 3.507240 
# 
# 
# High freq. dielectric constant tensor:
#      x y z
#    x 1.731140 0.000000 0.000000 
#    y 0.000000 1.732950 0.000000 
#    z 0.000000 0.000000 1.740880 
# 
# From -- ./inp_files/11620.got.cif
#   From: 2010.03.12/outbox.cif.g09.slc.cpg/sg20_6_cif.got.tgz:11620.got - 2010.04.14 01:38:04.
