data_PCOD8158661
_publ_section_title
;
Structure prediction by ZEFSAII (Michael W. Deem and Ramdas Pophale) SiO2 
 PCOD8158661
Probable space group: C 2 2 21
;
_chemical_formula_sum "Si O2"
_cell_formula_units_Z 36
_cell_length_a 8.742456
_cell_length_b 14.082697
_cell_length_c 14.281815
_cell_angle_alpha 90.000000
_cell_angle_beta 90.000000
_cell_angle_gamma 90.000000
_cell_volume 1758.339343
_symmetry_space_group_name_H-M "C 2 2 21"
_symmetry_group_IT_number 20
_symmetry_cell_setting 'orthorhombic'
loop_
_space_group_symop_operation_xyz
x,y,z
-x,-y,1/2+z
x,-y,-z
-x,y,1/2-z
1/2+x,1/2+y,z
1/2-x,1/2-y,1/2+z
1/2+x,1/2-y,-z
1/2-x,1/2+y,1/2-z
loop_
_atom_site_type_symbol
_atom_site_label
_atom_site_fract_x
_atom_site_fract_y
_atom_site_fract_z
Si Si1 0.684711 0.728085 0.906808
Si Si2 0.330421 0.684862 0.921717
Si Si3 0.698352 0.000000 0.000000
Si Si4 0.317748 0.892057 0.244690
Si Si5 0.360712 0.916175 0.684457
O O1 0.503843 0.715985 0.909660
O O2 0.762877 0.637395 0.858464
O O3 0.730084 0.820657 0.843414
O O4 0.747230 0.737318 0.012421
O O5 0.251175 0.682034 0.819854
O O6 0.314712 0.582257 0.968819
O O7 0.588627 0.034648 0.085012
O O8 0.500000 0.891432 0.250000
O O9 0.261318 0.001413 0.263172
O O10 0.500000 0.885496 0.750000
#
# Coordination Sequence:
#
# PCOD8158661 Si02
#       5
#     8   8   4   8   8
#     4  11  21  37  59  83 113 147 186 230 276 332
#     4  10  20  36  56  81 112 149 187 232 281 328
#     4   8  18  34  52  76 114 146 186 238 278 320
#     4  10  20  36  56  81 111 146 187 230 278 333
#     4   9  18  34  55  80 110 149 185 225 279 331
#
# _framework density 20.473863000000001
#
# number of rings (size 3 to 8) (size 9 to 14) (size 15 to 20)
#    0.000    2.222    0.000    3.333    0.000    1.778 
#    0.000   13.333    0.000    0.000    0.000    0.000 
#    0.000    0.000    0.000    0.000    0.000    0.000 
#
# Total GULP energy -223027.223492 kJ/mol
# GULP energy per Si atom -12390.401305 kJ/mol
# Density = 2.042726 g / cm^3
# Si number density = 20.473863 Si / 1000 Ang^3
#
#
#
# Elastic Constant Matrix: (Units=GPa)
#
#
# Indices 1 2 3 4 5 6 
#
# 1 92.4215 19.3499 12.0270 0.0000 0.0000 0.0000
# 2 19.3499 55.6039 20.5608 0.0000 0.0000 0.0000
# 3 12.0270 20.5608 57.4397 0.0000 0.0000 0.0000
# 4 0.0000 0.0000 0.0000 37.0190 0.0000 0.0000
# 5 0.0000 0.0000 0.0000 0.0000 38.5120 0.0000
# 6 0.0000 0.0000 0.0000 0.0000 0.0000 19.2090
#
#
#
# Elastic Compliance Matrix: (Units=1/GPa)
#
#
# Indices 1 2 3 4 5 6 
#
# 1 0.011736 -0.003660 -0.001147 0.000000 0.000000 0.000000
# 2 -0.003660 0.021869 -0.007062 0.000000 0.000000 0.000000
# 3 -0.001147 -0.007062 0.020178 0.000000 0.000000 0.000000
# 4 0.000000 0.000000 0.000000 0.027013 0.000000 0.000000
# 5 0.000000 0.000000 0.000000 0.000000 0.025966 0.000000
# 6 0.000000 0.000000 0.000000 0.000000 0.000000 0.052059
#
#
# Mechanical properties :
#
#
# Convention : Reuss Voigt Hill
#
# Bulk Modulus (GPa) = 33.28376 34.37116 33.82746
# Shear Modulus (GPa) = 25.96419 29.18315 27.57367
#
# Velocity S-wave (km/s) = 3.56499 3.77952 3.67382
# Velocity P-wave (km/s) = 5.76520 5.98921 5.87827
#
# Compressibility (1/GPa) = 0.03004468
#
# Stress axis : x y z
#
# Youngs Moduli (GPa) = 85.21148 45.72635 49.55992
#
# Poissons Ratio (x) = 0.16734 0.05686
# Poissons Ratio (y) = 0.31185 0.34999
# Poissons Ratio (z) = 0.09776 0.32291
#
# Static dielectric constant tensor:
#      x y z
#    x 3.227860 0.000000 0.000000 
#    y 0.000000 4.088650 0.000000 
#    z 0.000000 0.000000 4.179430 
# 
# 
# High freq. dielectric constant tensor:
#      x y z
#    x 1.752680 0.000000 0.000000 
#    y 0.000000 1.808860 0.000000 
#    z 0.000000 0.000000 1.820940 
# 
# From -- ./inp_files/18407.got.cif
#   From: 2010.03.12/outbox.cif.g09.slc.cpg/sg20_10_cif.got.tgz:18407.got - 2010.04.14 01:38:04.
