data_PCOD8158207
_publ_section_title
;
Structure prediction by ZEFSAII (Michael W. Deem and Ramdas Pophale) SiO2 
 PCOD8158207
Probable space group: C 2 2 21
;
_chemical_formula_sum "Si O2"
_cell_formula_units_Z 56
_cell_length_a 11.175053
_cell_length_b 15.142447
_cell_length_c 16.077025
_cell_angle_alpha 90.000000
_cell_angle_beta 90.000000
_cell_angle_gamma 90.000000
_cell_volume 2720.516354
_symmetry_space_group_name_H-M "C 2 2 21"
_symmetry_group_IT_number 20
_symmetry_cell_setting 'orthorhombic'
loop_
_space_group_symop_operation_xyz
x,y,z
-x,-y,1/2+z
x,-y,-z
-x,y,1/2-z
1/2+x,1/2+y,z
1/2-x,1/2-y,1/2+z
1/2+x,1/2-y,-z
1/2-x,1/2+y,1/2-z
loop_
_atom_site_type_symbol
_atom_site_label
_atom_site_fract_x
_atom_site_fract_y
_atom_site_fract_z
Si Si1 0.410990 0.216309 0.826255
Si Si2 0.408375 0.400559 0.898026
Si Si3 0.885852 0.841604 0.490411
Si Si4 0.038661 0.650392 0.990886
Si Si5 0.819431 0.569786 0.072561
Si Si6 0.000000 0.005371 0.750000
Si Si7 0.279908 0.000000 0.500000
Si Si8 0.719526 0.577097 0.826415
O O1 0.500000 0.230693 0.750000
O O2 0.359337 0.310510 0.856092
O O3 0.304070 0.155031 0.793743
O O4 0.468558 0.168181 0.905652
O O5 0.495852 0.447381 0.832956
O O6 0.486788 0.378978 0.979397
O O7 0.298891 0.463198 0.923657
O O8 0.783672 0.856165 0.560848
O O9 0.852891 0.892739 0.407506
O O10 0.895845 0.737154 0.474316
O O11 0.949942 0.615352 0.064376
O O12 0.137638 0.578675 0.966397
O O13 0.796492 0.513585 0.157246
O O14 0.806711 0.500000 0.000000
O O15 0.878553 0.062480 0.745384
#
# Coordination Sequence:
#
# PCOD8158207 Si02
#       8
#     8   8   8   8   8   4   4   8
#     4  11  23  41  62  87 129 171 199 246 330 390
#     4  11  24  41  62  90 127 164 204 266 314 367
#     4  10  21  40  64  90 118 164 212 252 312 371
#     4  11  22  38  66  96 120 156 213 265 308 370
#     4  10  18  39  62  86 117 158 202 250 306 364
#     4  12  24  40  58  92 122 168 210 250 318 376
#     4  12  24  38  64 100 122 148 222 276 298 348
#     4  11  22  41  66  88 122 166 213 257 305 384
#
# _framework density 20.584326999999998
#
# number of rings (size 3 to 8) (size 9 to 14) (size 15 to 20)
#    0.000    1.143    5.714    1.714    5.000    0.000 
#    0.000    1.429    0.000    0.000    0.000    0.000 
#    0.000    0.000    0.000    0.000    0.000    0.000 
#
# Total GULP energy -347180.243179 kJ/mol
# GULP energy per Si atom -12399.294399 kJ/mol
# Density = 2.053748 g / cm^3
# Si number density = 20.584327 Si / 1000 Ang^3
#
#
#
# Elastic Constant Matrix: (Units=GPa)
#
#
# Indices 1 2 3 4 5 6 
#
# 1 106.1494 67.5303 16.9368 0.0000 0.0000 0.0000
# 2 67.5303 136.1310 26.7635 0.0000 0.0000 0.0000
# 3 16.9368 26.7635 48.4436 0.0000 0.0000 0.0000
# 4 0.0000 0.0000 0.0000 15.8245 0.0000 0.0000
# 5 0.0000 0.0000 0.0000 0.0000 28.7377 0.0000
# 6 0.0000 0.0000 0.0000 0.0000 0.0000 45.4567
#
#
#
# Elastic Compliance Matrix: (Units=1/GPa)
#
#
# Indices 1 2 3 4 5 6 
#
# 1 0.013824 -0.006627 -0.001172 0.000000 0.000000 0.000000
# 2 -0.006627 0.011418 -0.003991 0.000000 0.000000 0.000000
# 3 -0.001172 -0.003991 0.023257 0.000000 0.000000 0.000000
# 4 0.000000 0.000000 0.000000 0.063193 0.000000 0.000000
# 5 0.000000 0.000000 0.000000 0.000000 0.034797 0.000000
# 6 0.000000 0.000000 0.000000 0.000000 0.000000 0.021999
#
#
# Mechanical properties :
#
#
# Convention : Reuss Voigt Hill
#
# Bulk Modulus (GPa) = 40.13017 57.02059 48.57538
# Shear Modulus (GPa) = 24.95323 29.97002 27.46162
#
# Velocity S-wave (km/s) = 3.48551 3.81985 3.65650
# Velocity P-wave (km/s) = 5.97797 6.87140 6.44020
#
# Compressibility (1/GPa) = 0.02491891
#
# Stress axis : x y z
#
# Youngs Moduli (GPa) = 72.33949 87.58074 42.99750
#
# Poissons Ratio (x) = 0.58041 0.05038
# Poissons Ratio (y) = 0.47940 0.17161
# Poissons Ratio (z) = 0.08476 0.34954
#
# Static dielectric constant tensor:
#      x y z
#    x 3.972970 0.000000 0.000000 
#    y 0.000000 4.149530 0.000000 
#    z 0.000000 0.000000 3.410520 
# 
# 
# High freq. dielectric constant tensor:
#      x y z
#    x 1.809430 0.000000 0.000000 
#    y 0.000000 1.820050 0.000000 
#    z 0.000000 0.000000 1.767760 
# 
# From -- ./inp_files/20091.got.cif
#   From: 2010.03.12/outbox.cif.g09.slc.cpg/sg20_11_cif.got.tgz:20091.got - 2010.04.14 01:38:04.
