data_PCOD8158062
_publ_section_title
;
Structure prediction by ZEFSAII (Michael W. Deem and Ramdas Pophale) SiO2 
 PCOD8158062
Probable space group: C 2 2 21
;
_chemical_formula_sum "Si O2"
_cell_formula_units_Z 48
_cell_length_a 16.462216
_cell_length_b 9.765151
_cell_length_c 17.675375
_cell_angle_alpha 90.000000
_cell_angle_beta 90.000000
_cell_angle_gamma 90.000000
_cell_volume 2841.423026
_symmetry_space_group_name_H-M "C 2 2 21"
_symmetry_group_IT_number 20
_symmetry_cell_setting 'orthorhombic'
loop_
_space_group_symop_operation_xyz
x,y,z
-x,-y,1/2+z
x,-y,-z
-x,y,1/2-z
1/2+x,1/2+y,z
1/2-x,1/2-y,1/2+z
1/2+x,1/2-y,-z
1/2-x,1/2+y,1/2-z
loop_
_atom_site_type_symbol
_atom_site_label
_atom_site_fract_x
_atom_site_fract_y
_atom_site_fract_z
Si Si1 0.505482 0.019400 0.336335
Si Si2 0.832920 0.026799 0.088904
Si Si3 0.082483 0.851544 0.018549
Si Si4 0.070692 0.777105 0.403609
Si Si5 0.153798 0.411435 0.926110
Si Si6 0.946135 0.264052 0.069150
O O1 0.500000 0.972770 0.250000
O O2 0.559901 0.156789 0.342547
O O3 0.415840 0.051450 0.366972
O O4 0.551020 0.901485 0.382543
O O5 0.740482 0.057900 0.112199
O O6 0.890312 0.153098 0.113180
O O7 0.861930 0.884093 0.127674
O O8 0.843079 0.000000 0.000000
O O9 0.151872 0.748016 0.048070
O O10 0.012998 0.863634 0.083700
O O11 0.038413 0.792248 0.942692
O O12 0.121097 0.000000 0.000000
O O13 0.092742 0.707837 0.485462
O O14 0.138088 0.500000 0.000000
#
# Coordination Sequence:
#
# PCOD8158062 Si02
#       6
#     8   8   8   8   8   8
#     4  11  20  31  48  72  98 137 174 199 238 294
#     4   9  16  30  53  75  92 123 166 201 253 302
#     4   9  14  27  51  74  95 118 155 201 251 285
#     4   8  15  30  51  71  91 127 163 201 242 301
#     4  10  18  31  52  76  98 125 159 212 250 286
#     4   9  15  31  51  72  93 126 158 204 253 296
#
# _framework density 16.892944
#
# number of rings (size 3 to 8) (size 9 to 14) (size 15 to 20)
#    1.000    1.667    3.333    0.500    0.000    0.000 
#    0.000    7.500    0.000    0.000    0.000    0.000 
#    0.000    0.000    0.000    0.000    0.000    0.000 
#
# Total GULP energy -297328.777526 kJ/mol
# GULP energy per Si atom -12388.699064 kJ/mol
# Density = 1.685449 g / cm^3
# Si number density = 16.892944 Si / 1000 Ang^3
#
#
#
# Elastic Constant Matrix: (Units=GPa)
#
#
# Indices 1 2 3 4 5 6 
#
# 1 95.4467 61.8537 17.5218 0.0000 0.0000 0.0000
# 2 61.8537 125.9568 23.9111 0.0000 0.0000 0.0000
# 3 17.5218 23.9111 39.4861 0.0000 0.0000 0.0000
# 4 0.0000 0.0000 0.0000 7.1627 0.0000 0.0000
# 5 0.0000 0.0000 0.0000 0.0000 7.6194 0.0000
# 6 0.0000 0.0000 0.0000 0.0000 0.0000 26.1020
#
#
#
# Elastic Compliance Matrix: (Units=1/GPa)
#
#
# Indices 1 2 3 4 5 6 
#
# 1 0.015597 -0.007169 -0.002579 0.000000 0.000000 0.000000
# 2 -0.007169 0.012266 -0.004246 0.000000 0.000000 0.000000
# 3 -0.002579 -0.004246 0.029041 0.000000 0.000000 0.000000
# 4 0.000000 0.000000 0.000000 0.139611 0.000000 0.000000
# 5 0.000000 0.000000 0.000000 0.000000 0.131244 0.000000
# 6 0.000000 0.000000 0.000000 0.000000 0.000000 0.038311
#
#
# Mechanical properties :
#
#
# Convention : Reuss Voigt Hill
#
# Bulk Modulus (GPa) = 34.58581 51.94030 43.26306
# Shear Modulus (GPa) = 12.38547 18.68370 15.53459
#
# Velocity S-wave (km/s) = 2.71066 3.32928 3.03576
# Velocity P-wave (km/s) = 5.50589 6.75220 6.16065
#
# Compressibility (1/GPa) = 0.02891359
#
# Stress axis : x y z
#
# Youngs Moduli (GPa) = 64.11625 81.52607 34.43360
#
# Poissons Ratio (x) = 0.58449 0.08882
# Poissons Ratio (y) = 0.45967 0.14622
# Poissons Ratio (z) = 0.16539 0.34619
#
# Static dielectric constant tensor:
#      x y z
#    x 3.015470 0.000000 0.000000 
#    y 0.000000 3.207920 0.000000 
#    z 0.000000 0.000000 2.644500 
# 
# 
# High freq. dielectric constant tensor:
#      x y z
#    x 1.628710 0.000000 0.000000 
#    y 0.000000 1.663050 0.000000 
#    z 0.000000 0.000000 1.590390 
# 
# From -- ./inp_files/24826.got.cif
#   From: 2010.03.12/outbox.cif.g09.slc.cpg/sg20_13_cif.got.tgz:24826.got - 2010.04.14 01:38:04.
