data_PCOD8158442
_publ_section_title
;
Structure prediction by ZEFSAII (Michael W. Deem and Ramdas Pophale) SiO2 
 PCOD8158442
Probable space group: C 2 2 21
;
_chemical_formula_sum "Si O2"
_cell_formula_units_Z 56
_cell_length_a 16.940093
_cell_length_b 14.310657
_cell_length_c 11.087094
_cell_angle_alpha 90.000000
_cell_angle_beta 90.000000
_cell_angle_gamma 90.000000
_cell_volume 2687.776129
_symmetry_space_group_name_H-M "C 2 2 21"
_symmetry_group_IT_number 20
_symmetry_cell_setting 'orthorhombic'
loop_
_space_group_symop_operation_xyz
x,y,z
-x,-y,1/2+z
x,-y,-z
-x,y,1/2-z
1/2+x,1/2+y,z
1/2-x,1/2-y,1/2+z
1/2+x,1/2-y,-z
1/2-x,1/2+y,1/2-z
loop_
_atom_site_type_symbol
_atom_site_label
_atom_site_fract_x
_atom_site_fract_y
_atom_site_fract_z
Si Si1 0.587679 0.606247 0.985392
Si Si2 0.315777 0.576145 0.751627
Si Si3 0.834570 0.670005 0.840257
Si Si4 0.053407 0.818085 0.364813
Si Si5 0.449270 0.013666 0.865867
Si Si6 0.182198 0.141702 0.220792
Si Si7 0.659121 0.849610 0.607776
O O1 0.645075 0.613751 0.871081
O O2 0.504386 0.661233 0.976706
O O3 0.562553 0.500000 0.000000
O O4 0.632413 0.648433 0.099140
O O5 0.226777 0.618322 0.751270
O O6 0.367336 0.617896 0.862288
O O7 0.318465 0.464286 0.769934
O O8 0.920402 0.619317 0.839428
O O9 0.850958 0.779377 0.810868
O O10 0.802351 0.664622 0.976404
O O11 0.080874 0.711408 0.370490
O O12 0.000000 0.839826 0.250000
O O13 0.500000 0.980210 0.750000
O O14 0.367919 0.955743 0.873220
O O15 0.491270 0.000000 0.000000
O O16 0.272721 0.173077 0.202460
#
# Coordination Sequence:
#
# PCOD8158442 Si02
#       7
#     8   8   8   8   8   8   8
#     4   9  20  36  61  85 121 160 203 250 321 385
#     4  10  19  37  61  89 118 157 211 254 315 386
#     4  11  22  37  62  93 120 159 216 263 314 386
#     4  10  21  37  59  89 120 157 200 258 310 375
#     4  10  23  42  65  93 131 173 216 268 325 388
#     4  11  21  36  63  92 119 164 208 261 314 385
#     4  11  21  37  64  89 125 169 210 257 323 388
#
# _framework density 20.835066999999999
#
# number of rings (size 3 to 8) (size 9 to 14) (size 15 to 20)
#    0.000    1.714    4.286    0.429    0.000    3.429 
#    0.000    5.000    0.000    0.000    0.000    0.000 
#    0.000    0.000    0.000    0.000    0.000    0.000 
#
# Total GULP energy -347001.719903 kJ/mol
# GULP energy per Si atom -12392.918568 kJ/mol
# Density = 2.078765 g / cm^3
# Si number density = 20.835067 Si / 1000 Ang^3
#
#
#
# Elastic Constant Matrix: (Units=GPa)
#
#
# Indices 1 2 3 4 5 6 
#
# 1 71.1080 24.4620 22.5179 0.0000 0.0000 0.0000
# 2 24.4620 110.0200 24.4099 0.0000 0.0000 0.0000
# 3 22.5179 24.4099 63.1626 0.0000 0.0000 0.0000
# 4 0.0000 0.0000 0.0000 30.6845 0.0000 0.0000
# 5 0.0000 0.0000 0.0000 0.0000 25.0184 0.0000
# 6 0.0000 0.0000 0.0000 0.0000 0.0000 35.1253
#
#
#
# Elastic Compliance Matrix: (Units=1/GPa)
#
#
# Indices 1 2 3 4 5 6 
#
# 1 0.016499 -0.002585 -0.004883 0.000000 0.000000 0.000000
# 2 -0.002585 0.010347 -0.003077 0.000000 0.000000 0.000000
# 3 -0.004883 -0.003077 0.018762 0.000000 0.000000 0.000000
# 4 0.000000 0.000000 0.000000 0.032590 0.000000 0.000000
# 5 0.000000 0.000000 0.000000 0.000000 0.039971 0.000000
# 6 0.000000 0.000000 0.000000 0.000000 0.000000 0.028469
#
#
# Mechanical properties :
#
#
# Convention : Reuss Voigt Hill
#
# Bulk Modulus (GPa) = 40.78697 43.00780 41.89739
# Shear Modulus (GPa) = 28.42532 29.69238 29.05885
#
# Velocity S-wave (km/s) = 3.69765 3.77917 3.73863
# Velocity P-wave (km/s) = 6.15214 6.30314 6.22810
#
# Compressibility (1/GPa) = 0.02451763
#
# Stress axis : x y z
#
# Youngs Moduli (GPa) = 60.61100 96.64921 53.29894
#
# Poissons Ratio (x) = 0.24984 0.26025
# Poissons Ratio (y) = 0.15668 0.16400
# Poissons Ratio (z) = 0.29596 0.29739
#
# Static dielectric constant tensor:
#      x y z
#    x 3.682920 0.000000 0.000000 
#    y 0.000000 3.705620 0.000000 
#    z 0.000000 0.000000 3.658380 
# 
# 
# High freq. dielectric constant tensor:
#      x y z
#    x 1.810280 0.000000 0.000000 
#    y 0.000000 1.822430 0.000000 
#    z 0.000000 0.000000 1.790100 
# 
# From -- ./inp_files/15131.got.cif
#   From: 2010.03.12/outbox.cif.g09.slc.cpg/sg20_8_cif.got.tgz:15131.got - 2010.04.14 01:38:04.
