data_PCOD8158032
_publ_section_title
;
Structure prediction by ZEFSAII (Michael W. Deem and Ramdas Pophale) SiO2 
 PCOD8158032
Probable space group: C 2 2 21
;
_chemical_formula_sum "Si O2"
_cell_formula_units_Z 40
_cell_length_a 24.901305
_cell_length_b 17.757214
_cell_length_c 5.366003
_cell_angle_alpha 90.000000
_cell_angle_beta 90.000000
_cell_angle_gamma 90.000000
_cell_volume 2372.727411
_symmetry_space_group_name_H-M "C 2 2 21"
_symmetry_group_IT_number 20
_symmetry_cell_setting 'orthorhombic'
loop_
_space_group_symop_operation_xyz
x,y,z
-x,-y,1/2+z
x,-y,-z
-x,y,1/2-z
1/2+x,1/2+y,z
1/2-x,1/2-y,1/2+z
1/2+x,1/2-y,-z
1/2-x,1/2+y,1/2-z
loop_
_atom_site_type_symbol
_atom_site_label
_atom_site_fract_x
_atom_site_fract_y
_atom_site_fract_z
Si Si1 0.773803 0.415046 0.500014
Si Si2 0.031181 0.588384 0.500000
Si Si3 0.658824 0.231273 0.000008
Si Si4 0.629497 0.804504 0.499992
Si Si5 0.752242 0.855810 0.499986
O O1 0.796831 0.500000 0.500000
O O2 0.823687 0.357037 0.500019
O O3 0.736844 0.403190 0.747413
O O4 0.736842 0.403184 0.252626
O O5 0.041457 0.500000 0.500000
O O6 0.089051 0.626371 0.499998
O O7 0.000000 0.613643 0.250000
O O8 0.000000 0.613643 0.750000
O O9 0.622615 0.245494 0.752418
O O10 0.711948 0.281277 0.999997
O O11 0.622618 0.245497 0.247604
O O12 0.690413 0.832729 0.499977
#
# Coordination Sequence:
#
# PCOD8158032 Si02
#       5
#     8   8   8   8   8
#     4  10  18  27  41  62  88 118 153 189 219 258
#     4  10  21  35  47  63  92 126 162 209 251 271
#     4  10  19  31  47  67  92 119 156 195 240 292
#     4  10  18  29  48  65  80 116 161 193 232 280
#     4  10  19  32  45  65  94 121 154 194 241 289
#
# _framework density 16.858236999999999
#
# number of rings (size 3 to 8) (size 9 to 14) (size 15 to 20)
#    0.000    2.000    0.000    7.800    0.000    6.400 
#    0.000    2.000    0.000    0.000    0.000    0.000 
#    0.000    0.000    0.000    0.000    0.000  678.000 
#
# Total GULP energy -247791.398922 kJ/mol
# GULP energy per Si atom -12389.569946 kJ/mol
# Density = 1.681987 g / cm^3
# Si number density = 16.858237 Si / 1000 Ang^3
#
#
#
# Elastic Constant Matrix: (Units=GPa)
#
#
# Indices 1 2 3 4 5 6 
#
# 1 52.7572 4.6492 19.0266 0.0000 0.0000 0.0000
# 2 4.6492 12.7187 1.3502 0.0000 0.0000 0.0000
# 3 19.0266 1.3502 196.9404 0.0000 0.0000 0.0000
# 4 0.0000 0.0000 0.0000 17.8390 0.0000 0.0000
# 5 0.0000 0.0000 0.0000 0.0000 15.1643 0.0000
# 6 0.0000 0.0000 0.0000 0.0000 0.0000 27.1405
#
#
#
# Elastic Compliance Matrix: (Units=1/GPa)
#
#
# Indices 1 2 3 4 5 6 
#
# 1 0.020279 -0.007210 -0.001910 0.000000 0.000000 0.000000
# 2 -0.007210 0.081245 0.000140 0.000000 0.000000 0.000000
# 3 -0.001910 0.000140 0.005261 0.000000 0.000000 0.000000
# 4 0.000000 0.000000 0.000000 0.056057 0.000000 0.000000
# 5 0.000000 0.000000 0.000000 0.000000 0.065944 0.000000
# 6 0.000000 0.000000 0.000000 0.000000 0.000000 0.036845
#
#
# Mechanical properties :
#
#
# Convention : Reuss Voigt Hill
#
# Bulk Modulus (GPa) = 11.25810 34.71870 22.98840
# Shear Modulus (GPa) = 15.96420 27.85478 21.90949
#
# Velocity S-wave (km/s) = 3.08062 4.06925 3.60895
# Velocity P-wave (km/s) = 4.39844 6.53587 5.57063
#
# Compressibility (1/GPa) = 0.08882494
#
# Stress axis : x y z
#
# Youngs Moduli (GPa) = 49.31246 12.30841 190.06991
#
# Poissons Ratio (x) = 0.08874 0.36298
# Poissons Ratio (y) = 0.35554 -0.02652
# Poissons Ratio (z) = 0.09417 -0.00172
#
# Static dielectric constant tensor:
#      x y z
#    x 2.679080 0.000000 0.000000 
#    y 0.000000 2.830240 0.000000 
#    z 0.000000 0.000000 5.497080 
# 
# 
# High freq. dielectric constant tensor:
#      x y z
#    x 1.589770 0.000000 0.000000 
#    y 0.000000 1.605460 0.000000 
#    z 0.000000 0.000000 1.706000 
# 
# From -- ./inp_files/1880.got.cif
#   From: 2010.03.12/outbox.cif.g09.slc.cpg/sg20_1_cif.got.tgz:1880.got - 2010.04.14 01:38:04.
