data_PCOD8158686
_publ_section_title
;
Structure prediction by ZEFSAII (Michael W. Deem and Ramdas Pophale) SiO2 
 PCOD8158686
Probable space group: C 2 2 21
;
_chemical_formula_sum "Si O2"
_cell_formula_units_Z 36
_cell_length_a 9.224998
_cell_length_b 13.476627
_cell_length_c 14.663041
_cell_angle_alpha 90.000000
_cell_angle_beta 90.000000
_cell_angle_gamma 90.000000
_cell_volume 1822.936488
_symmetry_space_group_name_H-M "C 2 2 21"
_symmetry_group_IT_number 20
_symmetry_cell_setting 'orthorhombic'
loop_
_space_group_symop_operation_xyz
x,y,z
-x,-y,1/2+z
x,-y,-z
-x,y,1/2-z
1/2+x,1/2+y,z
1/2-x,1/2-y,1/2+z
1/2+x,1/2-y,-z
1/2-x,1/2+y,1/2-z
loop_
_atom_site_type_symbol
_atom_site_label
_atom_site_fract_x
_atom_site_fract_y
_atom_site_fract_z
Si Si1 0.561930 0.500000 0.500000
Si Si2 0.165395 0.327649 0.271551
Si Si3 0.380472 0.498238 0.327463
Si Si4 0.385967 0.288589 0.948574
Si Si5 0.792006 0.795854 0.602989
O O1 0.461657 0.459896 0.417790
O O2 0.657355 0.595114 0.466886
O O3 0.258695 0.422111 0.297521
O O4 0.174887 0.244510 0.350516
O O5 0.238326 0.284457 0.181034
O O6 0.000000 0.358805 0.250000
O O7 0.500000 0.519607 0.250000
O O8 0.291722 0.597342 0.349989
O O9 0.558046 0.277192 0.949069
O O10 0.332088 0.215115 0.027500
#
# Coordination Sequence:
#
# PCOD8158686 Si02
#       5
#     4   8   8   8   8
#     4  10  20  36  60  84 108 148 192 228 272 338
#     4  10  21  37  56  82 116 146 182 236 284 322
#     4  11  21  38  61  83 110 151 192 226 273 338
#     4  10  20  37  58  83 114 148 185 229 280 330
#     4  10  21  38  59  83 113 147 186 232 277 331
#
# _framework density 19.748356000000001
#
# number of rings (size 3 to 8) (size 9 to 14) (size 15 to 20)
#    0.000    1.778    0.000    7.333    0.000    0.000 
#    0.000   14.444    0.000    1.333    0.000    0.000 
#    0.000    0.000    0.000    0.000    0.000    0.000 
#
# Total GULP energy -223181.320386 kJ/mol
# GULP energy per Si atom -12398.962244 kJ/mol
# Density = 1.970341 g / cm^3
# Si number density = 19.748356 Si / 1000 Ang^3
#
#
#
# Elastic Constant Matrix: (Units=GPa)
#
#
# Indices 1 2 3 4 5 6 
#
# 1 53.3795 65.1984 48.3100 0.0000 0.0000 0.0000
# 2 65.1984 129.9636 54.1998 0.0000 0.0000 0.0000
# 3 48.3100 54.1998 128.2199 0.0000 0.0000 0.0000
# 4 0.0000 0.0000 0.0000 42.3260 0.0000 0.0000
# 5 0.0000 0.0000 0.0000 0.0000 44.4744 0.0000
# 6 0.0000 0.0000 0.0000 0.0000 0.0000 26.4162
#
#
#
# Elastic Compliance Matrix: (Units=1/GPa)
#
#
# Indices 1 2 3 4 5 6 
#
# 1 0.060796 -0.025429 -0.012157 0.000000 0.000000 0.000000
# 2 -0.025429 0.019978 0.001136 0.000000 0.000000 0.000000
# 3 -0.012157 0.001136 0.011899 0.000000 0.000000 0.000000
# 4 0.000000 0.000000 0.000000 0.023626 0.000000 0.000000
# 5 0.000000 0.000000 0.000000 0.000000 0.022485 0.000000
# 6 0.000000 0.000000 0.000000 0.000000 0.000000 0.037856
#
#
# Mechanical properties :
#
#
# Convention : Reuss Voigt Hill
#
# Bulk Modulus (GPa) = 50.57480 71.88661 61.23070
# Shear Modulus (GPa) = 19.52124 32.23364 25.87744
#
# Velocity S-wave (km/s) = 3.14745 4.04446 3.62382
# Velocity P-wave (km/s) = 6.23489 7.63482 6.97009
#
# Compressibility (1/GPa) = 0.01977269
#
# Stress axis : x y z
#
# Youngs Moduli (GPa) = 16.44836 50.05595 84.03882
#
# Poissons Ratio (x) = 1.27290 1.02168
# Poissons Ratio (y) = 0.41827 -0.09551
# Poissons Ratio (z) = 0.19997 -0.05689
#
# Static dielectric constant tensor:
#      x y z
#    x 3.372980 0.000000 0.000000 
#    y 0.000000 3.601280 0.000000 
#    z 0.000000 0.000000 3.957290 
# 
# 
# High freq. dielectric constant tensor:
#      x y z
#    x 1.741050 0.000000 0.000000 
#    y 0.000000 1.771840 0.000000 
#    z 0.000000 0.000000 1.798100 
# 
# From -- ./inp_files/18401.got.cif
#   From: 2010.03.12/outbox.cif.g09.slc.cpg/sg20_10_cif.got.tgz:18401.got - 2010.04.14 01:38:04.
