data_PCOD8158733
_publ_section_title
;
Structure prediction by ZEFSAII (Michael W. Deem and Ramdas Pophale) SiO2 
 PCOD8158733
Probable space group: C 2 2 21
;
_chemical_formula_sum "Si O2"
_cell_formula_units_Z 48
_cell_length_a 11.544154
_cell_length_b 9.215822
_cell_length_c 22.771774
_cell_angle_alpha 90.000000
_cell_angle_beta 90.000000
_cell_angle_gamma 90.000000
_cell_volume 2422.663267
_symmetry_space_group_name_H-M "C 2 2 21"
_symmetry_group_IT_number 20
_symmetry_cell_setting 'orthorhombic'
loop_
_space_group_symop_operation_xyz
x,y,z
-x,-y,1/2+z
x,-y,-z
-x,y,1/2-z
1/2+x,1/2+y,z
1/2-x,1/2-y,1/2+z
1/2+x,1/2-y,-z
1/2-x,1/2+y,1/2-z
loop_
_atom_site_type_symbol
_atom_site_label
_atom_site_fract_x
_atom_site_fract_y
_atom_site_fract_z
Si Si1 0.382613 0.211235 0.767635
Si Si2 0.860932 0.425430 0.938265
Si Si3 0.560054 0.646683 0.158211
Si Si4 0.794241 0.115355 0.645332
Si Si5 0.882898 0.625292 0.425111
Si Si6 0.170586 0.693871 0.945988
O O1 0.500000 0.116526 0.750000
O O2 0.346795 0.293700 0.707314
O O3 0.429306 0.326241 0.817930
O O4 0.274643 0.122545 0.792620
O O5 0.787266 0.537506 0.901047
O O6 0.794779 0.272342 0.943825
O O7 0.983744 0.399288 0.907117
O O8 0.886662 0.500000 0.000000
O O9 0.587017 0.475397 0.152250
O O10 0.577978 0.727363 0.096263
O O11 0.824216 0.276517 0.624411
O O12 0.813576 0.473331 0.426765
O O13 0.879404 0.705015 0.488207
#
# Coordination Sequence:
#
# PCOD8158733 Si02
#       6
#     8   8   8   8   8   8
#     4   8  20  39  58  84 113 153 193 248 288 334
#     4  11  21  37  58  84 123 152 194 236 286 355
#     4   8  20  37  60  83 112 152 195 241 289 346
#     4  11  21  39  62  86 114 160 192 239 300 344
#     4  11  23  34  59  89 118 155 192 239 292 352
#     4  10  20  37  55  87 119 151 194 237 291 345
#
# _framework density 19.812906000000002
#
# number of rings (size 3 to 8) (size 9 to 14) (size 15 to 20)
#    1.000    1.000    3.333    1.000    0.000    2.667 
#    0.000    8.333    0.000    4.000    0.000    0.000 
#    0.000    0.000    0.000    0.000    0.000    0.000 
#
# Total GULP energy -297367.829493 kJ/mol
# GULP energy per Si atom -12390.326229 kJ/mol
# Density = 1.976781 g / cm^3
# Si number density = 19.812906 Si / 1000 Ang^3
#
#
#
# Elastic Constant Matrix: (Units=GPa)
#
#
# Indices 1 2 3 4 5 6 
#
# 1 69.1922 24.7433 -5.6219 0.0000 0.0000 0.0000
# 2 24.7433 80.7703 3.7912 0.0000 0.0000 0.0000
# 3 -5.6219 3.7912 42.1024 0.0000 0.0000 0.0000
# 4 0.0000 0.0000 0.0000 21.1438 0.0000 0.0000
# 5 0.0000 0.0000 0.0000 0.0000 30.0899 0.0000
# 6 0.0000 0.0000 0.0000 0.0000 0.0000 14.0901
#
#
#
# Elastic Compliance Matrix: (Units=1/GPa)
#
#
# Indices 1 2 3 4 5 6 
#
# 1 0.016525 -0.005188 0.002674 0.000000 0.000000 0.000000
# 2 -0.005188 0.014062 -0.001959 0.000000 0.000000 0.000000
# 3 0.002674 -0.001959 0.024285 0.000000 0.000000 0.000000
# 4 0.000000 0.000000 0.000000 0.047295 0.000000 0.000000
# 5 0.000000 0.000000 0.000000 0.000000 0.033234 0.000000
# 6 0.000000 0.000000 0.000000 0.000000 0.000000 0.070972
#
#
# Mechanical properties :
#
#
# Convention : Reuss Voigt Hill
#
# Bulk Modulus (GPa) = 21.77422 26.43225 24.10324
# Shear Modulus (GPa) = 21.67998 24.34156 23.01077
#
# Velocity S-wave (km/s) = 3.31151 3.50890 3.41163
# Velocity P-wave (km/s) = 5.06313 5.45769 5.26411
#
# Compressibility (1/GPa) = 0.04592586
#
# Stress axis : x y z
#
# Youngs Moduli (GPa) = 60.51475 71.11381 41.17757
#
# Poissons Ratio (x) = 0.36892 -0.11010
# Poissons Ratio (y) = 0.31394 0.08067
# Poissons Ratio (z) = -0.16180 0.13931
#
# Static dielectric constant tensor:
#      x y z
#    x 3.360960 0.000000 0.000000 
#    y 0.000000 3.523420 0.000000 
#    z 0.000000 0.000000 3.687110 
# 
# 
# High freq. dielectric constant tensor:
#      x y z
#    x 1.752180 0.000000 0.000000 
#    y 0.000000 1.757600 0.000000 
#    z 0.000000 0.000000 1.776150 
# 
# From -- ./inp_files/29088.got.cif
#   From: 2010.03.12/outbox.cif.g09.slc.cpg/sg20_15_cif.got.tgz:29088.got - 2010.04.14 01:38:04.
