data_PCOD8158968
_publ_section_title
;
Structure prediction by ZEFSAII (Michael W. Deem and Ramdas Pophale) SiO2 
 PCOD8158968
Probable space group: C 2 2 21
;
_chemical_formula_sum "Si O2"
_cell_formula_units_Z 56
_cell_length_a 14.729033
_cell_length_b 14.829457
_cell_length_c 11.476804
_cell_angle_alpha 90.000000
_cell_angle_beta 90.000000
_cell_angle_gamma 90.000000
_cell_volume 2506.804405
_symmetry_space_group_name_H-M "C 2 2 21"
_symmetry_group_IT_number 20
_symmetry_cell_setting 'orthorhombic'
loop_
_space_group_symop_operation_xyz
x,y,z
-x,-y,1/2+z
x,-y,-z
-x,y,1/2-z
1/2+x,1/2+y,z
1/2-x,1/2-y,1/2+z
1/2+x,1/2-y,-z
1/2-x,1/2+y,1/2-z
loop_
_atom_site_type_symbol
_atom_site_label
_atom_site_fract_x
_atom_site_fract_y
_atom_site_fract_z
Si Si1 0.091303 0.687706 0.823469
Si Si2 0.287926 0.324705 0.241448
Si Si3 0.700774 0.867015 0.812865
Si Si4 0.793444 0.991194 0.626201
Si Si5 0.346563 0.604059 0.005057
Si Si6 0.034811 0.870634 0.881693
Si Si7 0.949453 0.501972 0.374926
O O1 0.181474 0.700270 0.747031
O O2 0.081397 0.773409 0.910012
O O3 0.105408 0.591902 0.885609
O O4 0.000000 0.679930 0.750000
O O5 0.337617 0.231823 0.278598
O O6 0.311086 0.409611 0.321932
O O7 0.320797 0.345063 0.111937
O O8 0.621159 0.916304 0.882750
O O9 0.727499 0.928987 0.702377
O O10 0.789779 0.851765 0.891010
O O11 0.745926 0.000000 0.500000
O O12 0.892410 0.949143 0.606277
O O13 0.319161 0.500000 0.000000
O O14 0.453633 0.613868 0.028091
O O15 0.000000 0.869768 0.750000
O O16 0.006152 0.500000 0.500000
O O17 0.000000 0.510202 0.250000
#
# Coordination Sequence:
#
# PCOD8158968 Si02
#       7
#     8   8   8   8   8   8   8
#     4  10  20  40  68  98 138 188 244 296 366 445
#     4  12  25  44  71 109 139 195 248 299 372 450
#     4  12  24  45  71 102 144 188 243 303 366 445
#     4  12  26  42  66 104 144 183 238 310 364 433
#     4  12  23  45  76 100 146 197 247 303 371 453
#     4  11  21  43  68 102 137 185 244 301 367 433
#     4  11  25  45  70  98 140 191 243 301 367 449
#
# _framework density 22.339198
#
# number of rings (size 3 to 8) (size 9 to 14) (size 15 to 20)
#    0.000    0.571    5.714    2.571    2.000    2.857 
#    0.000    2.143    0.000    0.000    0.000    0.000 
#    0.000    0.000    0.000    0.000    0.000    0.000 
#
# Total GULP energy -347016.468056 kJ/mol
# GULP energy per Si atom -12393.445288 kJ/mol
# Density = 2.228835 g / cm^3
# Si number density = 22.339198 Si / 1000 Ang^3
#
#
#
# Elastic Constant Matrix: (Units=GPa)
#
#
# Indices 1 2 3 4 5 6 
#
# 1 92.3745 30.8110 25.1061 0.0000 0.0000 0.0000
# 2 30.8110 197.5071 51.7671 0.0000 0.0000 0.0000
# 3 25.1061 51.7671 141.6935 0.0000 0.0000 0.0000
# 4 0.0000 0.0000 0.0000 19.3554 0.0000 0.0000
# 5 0.0000 0.0000 0.0000 0.0000 32.4711 0.0000
# 6 0.0000 0.0000 0.0000 0.0000 0.0000 23.8361
#
#
#
# Elastic Compliance Matrix: (Units=1/GPa)
#
#
# Indices 1 2 3 4 5 6 
#
# 1 0.011723 -0.001420 -0.001558 0.000000 0.000000 0.000000
# 2 -0.001420 0.005771 -0.001857 0.000000 0.000000 0.000000
# 3 -0.001558 -0.001857 0.008012 0.000000 0.000000 0.000000
# 4 0.000000 0.000000 0.000000 0.051665 0.000000 0.000000
# 5 0.000000 0.000000 0.000000 0.000000 0.030797 0.000000
# 6 0.000000 0.000000 0.000000 0.000000 0.000000 0.041953
#
#
# Mechanical properties :
#
#
# Convention : Reuss Voigt Hill
#
# Bulk Modulus (GPa) = 63.15016 71.88263 67.51639
# Shear Modulus (GPa) = 30.32689 36.72525 33.52607
#
# Velocity S-wave (km/s) = 3.68851 4.05900 3.87818
# Velocity P-wave (km/s) = 6.81691 7.36308 7.09526
#
# Compressibility (1/GPa) = 0.01583527
#
# Stress axis : x y z
#
# Youngs Moduli (GPa) = 85.30424 173.26890 124.81304
#
# Poissons Ratio (x) = 0.24610 0.19448
# Poissons Ratio (y) = 0.12116 0.23176
# Poissons Ratio (z) = 0.13292 0.32174
#
# Static dielectric constant tensor:
#      x y z
#    x 3.871090 0.000000 0.000000 
#    y 0.000000 4.610210 0.000000 
#    z 0.000000 0.000000 4.109330 
# 
# 
# High freq. dielectric constant tensor:
#      x y z
#    x 1.863960 0.000000 0.000000 
#    y 0.000000 1.905270 0.000000 
#    z 0.000000 0.000000 1.877310 
# 
# From -- ./inp_files/15162.got.cif
#   From: 2010.03.12/outbox.cif.g09.slc.cpg/sg20_8_cif.got.tgz:15162.got - 2010.04.14 01:38:04.
