data_PCOD8158855
_publ_section_title
;
Structure prediction by ZEFSAII (Michael W. Deem and Ramdas Pophale) SiO2 
 PCOD8158855
Probable space group: C 2 2 21
;
_chemical_formula_sum "Si O2"
_cell_formula_units_Z 28
_cell_length_a 31.282925
_cell_length_b 8.279514
_cell_length_c 4.939819
_cell_angle_alpha 90.000000
_cell_angle_beta 90.000000
_cell_angle_gamma 90.000000
_cell_volume 1279.449752
_symmetry_space_group_name_H-M "C 2 2 21"
_symmetry_group_IT_number 20
_symmetry_cell_setting 'orthorhombic'
loop_
_space_group_symop_operation_xyz
x,y,z
-x,-y,1/2+z
x,-y,-z
-x,y,1/2-z
1/2+x,1/2+y,z
1/2-x,1/2-y,1/2+z
1/2+x,1/2-y,-z
1/2-x,1/2+y,1/2-z
loop_
_atom_site_type_symbol
_atom_site_label
_atom_site_fract_x
_atom_site_fract_y
_atom_site_fract_z
Si Si1 0.589615 0.683831 0.410852
Si Si2 0.726366 0.312205 0.062244
Si Si3 0.000000 0.110616 0.250000
Si Si4 0.864922 0.316864 0.591796
O O1 0.594487 0.500000 0.500000
O O2 0.540050 0.721841 0.338262
O O3 0.604025 0.802776 0.650115
O O4 0.619110 0.704916 0.150754
O O5 0.738090 0.214154 0.791827
O O6 0.722689 0.500000 0.000000
O O7 0.682003 0.242610 0.176680
O O8 0.984523 0.000000 0.500000
O O9 0.864477 0.500000 0.500000
#
# Coordination Sequence:
#
# PCOD8158855 Si02
#       4
#     8   8   4   8
#     4  11  22  41  67  94 124 167 217 265 314 378
#     4  12  25  44  67  95 129 170 214 264 317 377
#     4  10  20  38  66  98 126 162 214 268 316 376
#     4  12  25  42  63  95 132 170 211 262 320 379
#
# _framework density 21.884408000000001
#
# number of rings (size 3 to 8) (size 9 to 14) (size 15 to 20)
#    0.000    0.571    0.000   11.143    0.000    0.000 
#    0.000    2.857    0.000    1.714    0.000    0.000 
#    0.000    0.000    0.000    0.000    0.000    0.000 
#
# Total GULP energy -173714.410019 kJ/mol
# GULP energy per Si atom -12408.172144 kJ/mol
# Density = 2.183460 g / cm^3
# Si number density = 21.884408 Si / 1000 Ang^3
#
#
#
# Elastic Constant Matrix: (Units=GPa)
#
#
# Indices 1 2 3 4 5 6 
#
# 1 142.9847 64.6519 52.8735 0.0000 0.0000 0.0000
# 2 64.6519 75.3902 20.9267 0.0000 0.0000 0.0000
# 3 52.8735 20.9267 135.4908 0.0000 0.0000 0.0000
# 4 0.0000 0.0000 0.0000 24.3859 0.0000 0.0000
# 5 0.0000 0.0000 0.0000 0.0000 153.2455 0.0000
# 6 0.0000 0.0000 0.0000 0.0000 0.0000 32.4001
#
#
#
# Elastic Compliance Matrix: (Units=1/GPa)
#
#
# Indices 1 2 3 4 5 6 
#
# 1 0.012798 -0.010019 -0.003447 0.000000 0.000000 0.000000
# 2 -0.010019 0.021701 0.000558 0.000000 0.000000 0.000000
# 3 -0.003447 0.000558 0.008640 0.000000 0.000000 0.000000
# 4 0.000000 0.000000 0.000000 0.041007 0.000000 0.000000
# 5 0.000000 0.000000 0.000000 0.000000 0.006525 0.000000
# 6 0.000000 0.000000 0.000000 0.000000 0.000000 0.030864
#
#
# Mechanical properties :
#
#
# Convention : Reuss Voigt Hill
#
# Bulk Modulus (GPa) = 57.72500 70.08552 63.90526
# Shear Modulus (GPa) = 32.65284 56.36721 44.51003
#
# Velocity S-wave (km/s) = 3.86691 5.08062 4.51474
# Velocity P-wave (km/s) = 6.80968 8.15548 7.51278
#
# Compressibility (1/GPa) = 0.01732352
#
# Stress axis : x y z
#
# Youngs Moduli (GPa) = 78.13449 46.08062 115.74659
#
# Poissons Ratio (x) = 0.46167 0.39898
# Poissons Ratio (y) = 0.78280 -0.06457
# Poissons Ratio (z) = 0.26933 -0.02571
#
# Static dielectric constant tensor:
#      x y z
#    x 4.206240 0.000000 0.000000 
#    y 0.000000 1.832000 0.000000 
#    z 0.000000 0.000000 4.041520 
# 
# 
# High freq. dielectric constant tensor:
#      x y z
#    x 1.873010 0.000000 0.000000 
#    y 0.000000 1.846360 0.000000 
#    z 0.000000 0.000000 1.882130 
# 
# From -- ./inp_files/448.got.cif
#   From: 2010.03.12/outbox.cif.g09.slc.cpg/sg20_1_cif.got.tgz:448.got - 2010.04.14 01:38:04.
