data_PCOD8158751
_publ_section_title
;
Structure prediction by ZEFSAII (Michael W. Deem and Ramdas Pophale) SiO2 
 PCOD8158751
Probable space group: C 2 2 21
;
_chemical_formula_sum "Si O2"
_cell_formula_units_Z 64
_cell_length_a 14.442220
_cell_length_b 8.984653
_cell_length_c 24.172237
_cell_angle_alpha 90.000000
_cell_angle_beta 90.000000
_cell_angle_gamma 90.000000
_cell_volume 3136.549232
_symmetry_space_group_name_H-M "C 2 2 21"
_symmetry_group_IT_number 20
_symmetry_cell_setting 'orthorhombic'
loop_
_space_group_symop_operation_xyz
x,y,z
-x,-y,1/2+z
x,-y,-z
-x,y,1/2-z
1/2+x,1/2+y,z
1/2-x,1/2-y,1/2+z
1/2+x,1/2-y,-z
1/2-x,1/2+y,1/2-z
loop_
_atom_site_type_symbol
_atom_site_label
_atom_site_fract_x
_atom_site_fract_y
_atom_site_fract_z
Si Si1 0.774251 0.574576 0.557461
Si Si2 0.890755 0.582283 0.741635
Si Si3 0.373935 0.577580 0.850375
Si Si4 0.373935 0.922420 0.850375
Si Si5 0.390755 0.417717 0.741635
Si Si6 0.085718 0.075195 0.867914
Si Si7 0.914282 0.424806 0.632086
Si Si8 0.774251 0.925424 0.557461
O O1 0.746439 0.500000 0.500000
O O2 0.692802 0.533153 0.599812
O O3 0.870246 0.504975 0.578970
O O4 0.786307 0.750000 0.549793
O O5 0.842504 0.511268 0.795522
O O6 0.865060 0.488446 0.687229
O O7 0.000000 0.577652 0.750000
O O8 0.854293 0.750000 0.733416
O O9 0.342504 0.488732 0.795522
O O10 0.477472 0.535088 0.868861
O O11 0.367744 0.750000 0.834938
O O12 0.477472 0.964912 0.868861
O O13 0.307198 0.966847 0.900188
O O14 0.500000 0.422347 0.750000
O O15 0.365060 0.511555 0.687229
O O16 0.103950 0.250000 0.871111
O O17 0.129754 0.995025 0.921030
O O18 0.746439 0.000000 0.500000
#
# Coordination Sequence:
#
# PCOD8158751 Si02
#       8
#     8   8   8   8   8   8   8   8
#     4  11  24  41  58  80 110 145 189 234 276 327
#     4   9  17  31  55  87 117 145 181 225 274 330
#     4   9  20  38  59  83 113 148 184 226 277 331
#     4   9  20  38  59  83 113 148 184 226 277 331
#     4   9  17  31  55  87 117 145 181 225 274 330
#     4  10  20  37  60  85 114 148 184 226 277 329
#     4  10  20  37  60  85 114 148 184 226 277 329
#     4  11  24  41  58  80 110 145 189 234 276 327
#
# _framework density 20.404589000000001
#
# number of rings (size 3 to 8) (size 9 to 14) (size 15 to 20)
#    0.000    2.250    0.000    2.250    0.000    8.000 
#    0.000    2.500    0.000    0.000    0.000    0.000 
#    0.000    0.000    0.000    0.000    0.000    0.000 
#
# Total GULP energy -396945.854264 kJ/mol
# GULP energy per Si atom -12404.557946 kJ/mol
# Density = 2.035815 g / cm^3
# Si number density = 20.404589 Si / 1000 Ang^3
#
#
#
# Elastic Constant Matrix: (Units=GPa)
#
#
# Indices 1 2 3 4 5 6 
#
# 1 47.0851 22.0160 26.0075 0.0000 0.0000 0.0000
# 2 22.0160 95.7960 45.5221 0.0000 0.0000 0.0000
# 3 26.0075 45.5221 118.0909 0.0000 0.0000 0.0000
# 4 0.0000 0.0000 0.0000 45.1799 0.0000 0.0000
# 5 0.0000 0.0000 0.0000 0.0000 32.0390 0.0000
# 6 0.0000 0.0000 0.0000 0.0000 0.0000 24.4638
#
#
#
# Elastic Compliance Matrix: (Units=1/GPa)
#
#
# Indices 1 2 3 4 5 6 
#
# 1 0.025304 -0.003877 -0.004078 0.000000 0.000000 0.000000
# 2 -0.003877 0.013374 -0.004302 0.000000 0.000000 0.000000
# 3 -0.004078 -0.004302 0.011024 0.000000 0.000000 0.000000
# 4 0.000000 0.000000 0.000000 0.022134 0.000000 0.000000
# 5 0.000000 0.000000 0.000000 0.000000 0.031212 0.000000
# 6 0.000000 0.000000 0.000000 0.000000 0.000000 0.040877
#
#
# Mechanical properties :
#
#
# Convention : Reuss Voigt Hill
#
# Bulk Modulus (GPa) = 39.70139 49.78483 44.74311
# Shear Modulus (GPa) = 28.27502 31.49830 29.88666
#
# Velocity S-wave (km/s) = 3.72656 3.93324 3.83130
# Velocity P-wave (km/s) = 6.16569 6.71409 6.44572
#
# Compressibility (1/GPa) = 0.02518803
#
# Stress axis : x y z
#
# Youngs Moduli (GPa) = 39.51995 74.77161 90.70840
#
# Poissons Ratio (x) = 0.28993 0.36991
# Poissons Ratio (y) = 0.15324 0.39019
# Poissons Ratio (z) = 0.16116 0.32163
#
# Static dielectric constant tensor:
#      x y z
#    x 3.633510 0.000000 0.000000 
#    y 0.000000 3.748830 0.000000 
#    z 0.000000 0.000000 3.715290 
# 
# 
# High freq. dielectric constant tensor:
#      x y z
#    x 1.794840 0.000000 0.000000 
#    y 0.000000 1.804390 0.000000 
#    z 0.000000 0.000000 1.796340 
# 
# From -- ./inp_files/29337.got.cif
#   From: 2010.03.12/outbox.cif.g09.slc.cpg/sg20_15_cif.got.tgz:29337.got - 2010.04.14 01:38:04.
