data_PCOD8158410
_publ_section_title
;
Structure prediction by ZEFSAII (Michael W. Deem and Ramdas Pophale) SiO2 
 PCOD8158410
Probable space group: C 2 2 21
;
_chemical_formula_sum "Si O2"
_cell_formula_units_Z 64
_cell_length_a 8.953774
_cell_length_b 21.234788
_cell_length_c 17.457699
_cell_angle_alpha 90.000000
_cell_angle_beta 90.000000
_cell_angle_gamma 90.000000
_cell_volume 3319.258370
_symmetry_space_group_name_H-M "C 2 2 21"
_symmetry_group_IT_number 20
_symmetry_cell_setting 'orthorhombic'
loop_
_space_group_symop_operation_xyz
x,y,z
-x,-y,1/2+z
x,-y,-z
-x,y,1/2-z
1/2+x,1/2+y,z
1/2-x,1/2-y,1/2+z
1/2+x,1/2-y,-z
1/2-x,1/2+y,1/2-z
loop_
_atom_site_type_symbol
_atom_site_label
_atom_site_fract_x
_atom_site_fract_y
_atom_site_fract_z
Si Si1 0.366097 0.344092 0.196904
Si Si2 0.835206 0.893245 0.776233
Si Si3 0.499425 0.204429 0.563997
Si Si4 0.162383 0.417746 0.083727
Si Si5 0.408333 0.871460 0.822496
Si Si6 0.836963 0.561242 0.411639
Si Si7 0.347361 0.246496 0.791168
Si Si8 0.669698 0.241836 0.414612
O O1 0.500000 0.371706 0.250000
O O2 0.280549 0.400136 0.151205
O O3 0.267063 0.302807 0.254823
O O4 0.420825 0.297638 0.128720
O O5 0.716797 0.919499 0.712529
O O6 0.804796 0.926328 0.857226
O O7 0.800062 0.818904 0.783867
O O8 0.000000 0.910088 0.750000
O O9 0.477611 0.130528 0.585165
O O10 0.623390 0.233475 0.619610
O O11 0.567251 0.216723 0.481767
O O12 0.336015 0.236157 0.564810
O O13 0.110584 0.488998 0.096690
O O14 0.222008 0.416804 0.995337
O O15 0.500000 0.845192 0.750000
O O16 0.515654 0.900934 0.886337
O O17 0.309513 0.815714 0.857155
O O18 0.500000 0.231867 0.750000
#
# Coordination Sequence:
#
# PCOD8158410 Si02
#       8
#     8   8   8   8   8   8   8   8
#     4  11  24  38  61  90 128 160 198 257 314 375
#     4  10  21  36  60  91 122 156 192 253 306 354
#     4  11  24  36  60  89 122 158 195 249 310 366
#     4  10  22  43  60  86 117 164 206 254 303 359
#     4  10  19  36  60  87 110 151 202 247 285 349
#     4  10  22  40  67  79 117 164 216 248 292 363
#     4  11  20  39  57  88 125 158 189 246 310 364
#     4  11  21  36  56  88 121 151 197 242 303 367
#
# _framework density 19.281416
#
# number of rings (size 3 to 8) (size 9 to 14) (size 15 to 20)
#    0.000    1.500    5.000    1.125    7.000    0.500 
#    6.750    0.000    0.000    1.500    0.000    0.000 
#    0.000    0.000    0.000    0.000    0.000    0.000 
#
# Total GULP energy -396431.277487 kJ/mol
# GULP energy per Si atom -12388.477421 kJ/mol
# Density = 1.923753 g / cm^3
# Si number density = 19.281416 Si / 1000 Ang^3
#
#
#
# Elastic Constant Matrix: (Units=GPa)
#
#
# Indices 1 2 3 4 5 6 
#
# 1 81.0069 16.0684 35.2920 0.0000 0.0000 0.0000
# 2 16.0684 60.4535 19.7978 0.0000 0.0000 0.0000
# 3 35.2920 19.7978 99.2175 0.0000 0.0000 0.0000
# 4 0.0000 0.0000 0.0000 27.3870 0.0000 0.0000
# 5 0.0000 0.0000 0.0000 0.0000 42.1239 0.0000
# 6 0.0000 0.0000 0.0000 0.0000 0.0000 15.1288
#
#
#
# Elastic Compliance Matrix: (Units=1/GPa)
#
#
# Indices 1 2 3 4 5 6 
#
# 1 0.014923 -0.002384 -0.004832 0.000000 0.000000 0.000000
# 2 -0.002384 0.018079 -0.002760 0.000000 0.000000 0.000000
# 3 -0.004832 -0.002760 0.012348 0.000000 0.000000 0.000000
# 4 0.000000 0.000000 0.000000 0.036514 0.000000 0.000000
# 5 0.000000 0.000000 0.000000 0.000000 0.023739 0.000000
# 6 0.000000 0.000000 0.000000 0.000000 0.000000 0.066099
#
#
# Mechanical properties :
#
#
# Convention : Reuss Voigt Hill
#
# Bulk Modulus (GPa) = 39.37228 42.55490 40.96359
# Shear Modulus (GPa) = 24.98500 28.22927 26.60713
#
# Velocity S-wave (km/s) = 3.60364 3.83046 3.71878
# Velocity P-wave (km/s) = 6.14647 6.45613 6.30320
#
# Compressibility (1/GPa) = 0.02539858
#
# Stress axis : x y z
#
# Youngs Moduli (GPa) = 67.01151 55.31289 80.98218
#
# Poissons Ratio (x) = 0.13186 0.39134
# Poissons Ratio (y) = 0.15975 0.22347
# Poissons Ratio (z) = 0.32383 0.15264
#
# Static dielectric constant tensor:
#      x y z
#    x 3.006960 0.000000 0.000000 
#    y 0.000000 3.416230 0.000000 
#    z 0.000000 0.000000 3.774270 
# 
# 
# High freq. dielectric constant tensor:
#      x y z
#    x 1.736540 0.000000 0.000000 
#    y 0.000000 1.731600 0.000000 
#    z 0.000000 0.000000 1.773180 
# 
# From -- ./inp_files/23949.got.cif
#   From: 2010.03.12/outbox.cif.g09.slc.cpg/sg20_12_cif.got.tgz:23949.got - 2010.04.14 01:38:04.
