data_PCOD8158744
_publ_section_title
;
Structure prediction by ZEFSAII (Michael W. Deem and Ramdas Pophale) SiO2 
 PCOD8158744
Probable space group: C 2 2 21
;
_chemical_formula_sum "Si O2"
_cell_formula_units_Z 44
_cell_length_a 11.975242
_cell_length_b 12.450850
_cell_length_c 15.541428
_cell_angle_alpha 90.000000
_cell_angle_beta 90.000000
_cell_angle_gamma 90.000000
_cell_volume 2317.257094
_symmetry_space_group_name_H-M "C 2 2 21"
_symmetry_group_IT_number 20
_symmetry_cell_setting 'orthorhombic'
loop_
_space_group_symop_operation_xyz
x,y,z
-x,-y,1/2+z
x,-y,-z
-x,y,1/2-z
1/2+x,1/2+y,z
1/2-x,1/2-y,1/2+z
1/2+x,1/2-y,-z
1/2-x,1/2+y,1/2-z
loop_
_atom_site_type_symbol
_atom_site_label
_atom_site_fract_x
_atom_site_fract_y
_atom_site_fract_z
Si Si1 0.554086 0.312194 0.385948
Si Si2 0.362065 0.500000 0.000000
Si Si3 0.327985 0.711494 0.707960
Si Si4 0.685085 0.933107 0.868977
Si Si5 0.880345 0.421486 0.226180
Si Si6 0.444206 0.074564 0.076374
O O1 0.565051 0.410474 0.451839
O O2 0.632153 0.324366 0.302319
O O3 0.423914 0.317093 0.360650
O O4 0.592213 0.199449 0.430473
O O5 0.290860 0.434615 0.930660
O O6 0.305762 0.838008 0.700893
O O7 0.209541 0.657140 0.682330
O O8 0.577727 0.922610 0.929749
O O9 0.677150 0.042025 0.814694
O O10 0.905017 0.524719 0.166739
O O11 0.000000 0.365160 0.250000
O O12 0.395248 0.000000 0.000000
#
# Coordination Sequence:
#
# PCOD8158744 Si02
#       6
#     8   4   8   8   8   8
#     4  10  22  38  62  82 120 161 197 238 311 365
#     4  12  22  38  58  92 120 158 202 254 298 360
#     4  10  20  41  59  84 117 165 195 240 304 368
#     4  10  20  37  62  83 120 158 200 246 300 358
#     4  10  20  37  62  87 115 152 204 250 294 356
#     4  10  20  37  58  88 113 155 206 249 289 353
#
# _framework density 18.987967999999999
#
# number of rings (size 3 to 8) (size 9 to 14) (size 15 to 20)
#    0.000    1.818    4.545    0.000    2.545    0.000 
#    1.636    1.818    0.000    0.000    0.000    0.000 
#    0.000    0.000    0.000    0.000    0.000    0.000 
#
# Total GULP energy -272658.231260 kJ/mol
# GULP energy per Si atom -12393.555966 kJ/mol
# Density = 1.894475 g / cm^3
# Si number density = 18.987968 Si / 1000 Ang^3
#
#
#
# Elastic Constant Matrix: (Units=GPa)
#
#
# Indices 1 2 3 4 5 6 
#
# 1 109.3624 52.0126 30.1185 0.0000 0.0000 0.0000
# 2 52.0126 97.8315 39.2389 0.0000 0.0000 0.0000
# 3 30.1185 39.2389 83.9415 0.0000 0.0000 0.0000
# 4 0.0000 0.0000 0.0000 38.3163 0.0000 0.0000
# 5 0.0000 0.0000 0.0000 0.0000 21.9283 0.0000
# 6 0.0000 0.0000 0.0000 0.0000 0.0000 22.7442
#
#
#
# Elastic Compliance Matrix: (Units=1/GPa)
#
#
# Indices 1 2 3 4 5 6 
#
# 1 0.012430 -0.005932 -0.001687 0.000000 0.000000 0.000000
# 2 -0.005932 0.015411 -0.005076 0.000000 0.000000 0.000000
# 3 -0.001687 -0.005076 0.014891 0.000000 0.000000 0.000000
# 4 0.000000 0.000000 0.000000 0.026099 0.000000 0.000000
# 5 0.000000 0.000000 0.000000 0.000000 0.045603 0.000000
# 6 0.000000 0.000000 0.000000 0.000000 0.000000 0.043967
#
#
# Mechanical properties :
#
#
# Convention : Reuss Voigt Hill
#
# Bulk Modulus (GPa) = 57.66012 59.31949 58.48980
# Shear Modulus (GPa) = 26.37546 27.91545 27.14545
#
# Velocity S-wave (km/s) = 3.73105 3.83843 3.78512
# Velocity P-wave (km/s) = 6.99954 7.13815 7.06919
#
# Compressibility (1/GPa) = 0.01734301
#
# Stress axis : x y z
#
# Youngs Moduli (GPa) = 80.45322 64.88867 67.15458
#
# Poissons Ratio (x) = 0.38489 0.11329
# Poissons Ratio (y) = 0.47722 0.34085
# Poissons Ratio (z) = 0.13573 0.32935
#
# Static dielectric constant tensor:
#      x y z
#    x 3.380060 0.000000 0.000000 
#    y 0.000000 3.401920 0.000000 
#    z 0.000000 0.000000 3.321090 
# 
# 
# High freq. dielectric constant tensor:
#      x y z
#    x 1.727700 0.000000 0.000000 
#    y 0.000000 1.730370 0.000000 
#    z 0.000000 0.000000 1.733260 
# 
# From -- ./inp_files/20619.got.cif
#   From: 2010.03.12/outbox.cif.g09.slc.cpg/sg20_11_cif.got.tgz:20619.got - 2010.04.14 01:38:04.
