data_PCOD8158360
_publ_section_title
;
Structure prediction by ZEFSAII (Michael W. Deem and Ramdas Pophale) SiO2 
 PCOD8158360
Probable space group: C 2 2 21
;
_chemical_formula_sum "Si O2"
_cell_formula_units_Z 64
_cell_length_a 13.448002
_cell_length_b 13.357118
_cell_length_c 19.626942
_cell_angle_alpha 90.000000
_cell_angle_beta 90.000000
_cell_angle_gamma 90.000000
_cell_volume 3525.519870
_symmetry_space_group_name_H-M "C 2 2 21"
_symmetry_group_IT_number 20
_symmetry_cell_setting 'orthorhombic'
loop_
_space_group_symop_operation_xyz
x,y,z
-x,-y,1/2+z
x,-y,-z
-x,y,1/2-z
1/2+x,1/2+y,z
1/2-x,1/2-y,1/2+z
1/2+x,1/2-y,-z
1/2-x,1/2+y,1/2-z
loop_
_atom_site_type_symbol
_atom_site_label
_atom_site_fract_x
_atom_site_fract_y
_atom_site_fract_z
Si Si1 0.600534 0.508507 0.923932
Si Si2 0.970859 0.640110 0.947529
Si Si3 0.854507 0.214582 0.417622
Si Si4 0.140760 0.303470 0.825876
Si Si5 0.326477 0.782573 0.826717
Si Si6 0.743517 0.688532 0.938298
Si Si7 0.515111 0.625688 0.678251
Si Si8 0.016296 0.579780 0.399770
O O1 0.625381 0.399613 0.896745
O O2 0.697871 0.579765 0.918564
O O3 0.506780 0.550631 0.882738
O O4 0.560358 0.500000 0.000000
O O5 0.046010 0.718975 0.913092
O O6 0.968567 0.539147 0.902942
O O7 0.860603 0.684232 0.948630
O O8 0.004716 0.622211 0.024930
O O9 0.778496 0.246787 0.359178
O O10 0.807601 0.225902 0.492444
O O11 0.186257 0.322852 0.750935
O O12 0.225633 0.269793 0.878838
O O13 0.059938 0.217569 0.821376
O O14 0.081376 0.400711 0.853427
O O15 0.376888 0.673292 0.829652
O O16 0.385146 0.867550 0.869336
O O17 0.500000 0.567624 0.750000
#
# Coordination Sequence:
#
# PCOD8158360 Si02
#       8
#     8   8   8   8   8   8   8   8
#     4   9  19  31  55  80 107 137 183 226 271 327
#     4  11  22  34  57  86 117 144 188 237 290 330
#     4  11  21  35  53  84 114 143 183 233 277 340
#     4   9  18  36  58  85 109 145 193 235 274 327
#     4  10  19  35  62  82 107 151 193 225 277 335
#     4  10  19  36  57  81 110 147 184 236 280 332
#     4   8  16  33  57  80 102 136 187 231 263 316
#     4  10  19  35  59  85 112 147 191 240 276 336
#
# _framework density 18.153351000000001
#
# number of rings (size 3 to 8) (size 9 to 14) (size 15 to 20)
#    0.000    2.250    2.500    1.875    5.250    0.000 
#    0.000    9.375    2.750    0.000    0.000    0.000 
#    0.000    0.000    0.000    0.000    0.000    0.000 
#
# Total GULP energy -396692.606301 kJ/mol
# GULP energy per Si atom -12396.643947 kJ/mol
# Density = 1.811203 g / cm^3
# Si number density = 18.153351 Si / 1000 Ang^3
#
#
#
# Elastic Constant Matrix: (Units=GPa)
#
#
# Indices 1 2 3 4 5 6 
#
# 1 89.6296 42.0424 34.2027 0.0000 0.0000 0.0000
# 2 42.0424 58.9132 35.0520 0.0000 0.0000 0.0000
# 3 34.2027 35.0520 98.4964 0.0000 0.0000 0.0000
# 4 0.0000 0.0000 0.0000 27.3292 0.0000 0.0000
# 5 0.0000 0.0000 0.0000 0.0000 30.5731 0.0000
# 6 0.0000 0.0000 0.0000 0.0000 0.0000 20.9914
#
#
#
# Elastic Compliance Matrix: (Units=1/GPa)
#
#
# Indices 1 2 3 4 5 6 
#
# 1 0.017083 -0.010988 -0.002022 0.000000 0.000000 0.000000
# 2 -0.010988 0.028601 -0.006363 0.000000 0.000000 0.000000
# 3 -0.002022 -0.006363 0.013119 0.000000 0.000000 0.000000
# 4 0.000000 0.000000 0.000000 0.036591 0.000000 0.000000
# 5 0.000000 0.000000 0.000000 0.000000 0.032709 0.000000
# 6 0.000000 0.000000 0.000000 0.000000 0.000000 0.047639
#
#
# Mechanical properties :
#
#
# Convention : Reuss Voigt Hill
#
# Bulk Modulus (GPa) = 49.85509 52.18148 51.01828
# Shear Modulus (GPa) = 22.60692 24.82820 23.71756
#
# Velocity S-wave (km/s) = 3.53275 3.70224 3.61849
# Velocity P-wave (km/s) = 6.64555 6.86168 6.75448
#
# Compressibility (1/GPa) = 0.02005813
#
# Stress axis : x y z
#
# Youngs Moduli (GPa) = 58.53935 34.96369 76.22534
#
# Poissons Ratio (x) = 0.38417 0.15410
# Poissons Ratio (y) = 0.64322 0.48501
# Poissons Ratio (z) = 0.11835 0.22247
#
# Static dielectric constant tensor:
#      x y z
#    x 3.259730 0.000000 0.000000 
#    y 0.000000 3.281210 0.000000 
#    z 0.000000 0.000000 3.724340 
# 
# 
# High freq. dielectric constant tensor:
#      x y z
#    x 1.687590 0.000000 0.000000 
#    y 0.000000 1.684270 0.000000 
#    z 0.000000 0.000000 1.709640 
# 
# From -- ./inp_files/24434.got.cif
#   From: 2010.03.12/outbox.cif.g09.slc.cpg/sg20_13_cif.got.tgz:24434.got - 2010.04.14 01:38:04.
