data_PCOD8158260
_publ_section_title
;
Structure prediction by ZEFSAII (Michael W. Deem and Ramdas Pophale) SiO2 
 PCOD8158260
Probable space group: C 2 2 21
;
_chemical_formula_sum "Si O2"
_cell_formula_units_Z 40
_cell_length_a 5.162695
_cell_length_b 24.723581
_cell_length_c 17.458986
_cell_angle_alpha 90.000000
_cell_angle_beta 90.000000
_cell_angle_gamma 90.000000
_cell_volume 2228.470351
_symmetry_space_group_name_H-M "C 2 2 21"
_symmetry_group_IT_number 20
_symmetry_cell_setting 'orthorhombic'
loop_
_space_group_symop_operation_xyz
x,y,z
-x,-y,1/2+z
x,-y,-z
-x,y,1/2-z
1/2+x,1/2+y,z
1/2-x,1/2-y,1/2+z
1/2+x,1/2-y,-z
1/2-x,1/2+y,1/2-z
loop_
_atom_site_type_symbol
_atom_site_label
_atom_site_fract_x
_atom_site_fract_y
_atom_site_fract_z
Si Si1 0.326466 0.443265 0.539767
Si Si2 0.237037 0.268097 0.043575
Si Si3 0.658187 0.126639 0.028428
Si Si4 0.596796 0.811658 0.665891
Si Si5 0.760351 0.077480 0.297223
O O1 0.363173 0.500000 0.500000
O O2 0.597607 0.411900 0.538856
O O3 0.243081 0.457824 0.626315
O O4 0.096033 0.407303 0.504058
O O5 0.281726 0.242092 0.127545
O O6 0.477283 0.257995 0.988163
O O7 0.204335 0.333097 0.043809
O O8 0.614709 0.161544 0.107191
O O9 0.500000 0.793640 0.750000
O O10 0.806214 0.859409 0.679437
O O11 0.500000 0.070395 0.250000
O O12 0.000000 0.055139 0.250000
#
# Coordination Sequence:
#
# PCOD8158260 Si02
#       5
#     8   8   8   8   8
#     4  11  21  35  55  76  98 135 178 214 251 297
#     4  10  19  32  50  73 105 139 161 191 251 313
#     4  10  20  34  51  76 108 133 167 214 253 295
#     4   9  18  31  52  79 105 130 164 205 254 306
#     4  10  19  32  50  76 104 125 157 214 265 297
#
# _framework density 17.949531
#
# number of rings (size 3 to 8) (size 9 to 14) (size 15 to 20)
#    0.000    2.000    0.000    7.800    0.000    3.200 
#    0.000    0.000    0.000    3.600    0.000    2.800 
#    0.000    0.000    0.000    0.000    0.000    0.000 
#
# Total GULP energy -247804.494104 kJ/mol
# GULP energy per Si atom -12390.224705 kJ/mol
# Density = 1.790868 g / cm^3
# Si number density = 17.949531 Si / 1000 Ang^3
#
#
#
# Elastic Constant Matrix: (Units=GPa)
#
#
# Indices 1 2 3 4 5 6 
#
# 1 123.2415 44.8052 26.7143 0.0000 0.0000 0.0000
# 2 44.8052 96.3907 55.0052 0.0000 0.0000 0.0000
# 3 26.7143 55.0052 92.5389 0.0000 0.0000 0.0000
# 4 0.0000 0.0000 0.0000 34.0596 0.0000 0.0000
# 5 0.0000 0.0000 0.0000 0.0000 19.3044 0.0000
# 6 0.0000 0.0000 0.0000 0.0000 0.0000 26.6110
#
#
#
# Elastic Compliance Matrix: (Units=1/GPa)
#
#
# Indices 1 2 3 4 5 6 
#
# 1 0.009766 -0.004435 -0.000183 0.000000 0.000000 0.000000
# 2 -0.004435 0.017714 -0.009249 0.000000 0.000000 0.000000
# 3 -0.000183 -0.009249 0.016357 0.000000 0.000000 0.000000
# 4 0.000000 0.000000 0.000000 0.029360 0.000000 0.000000
# 5 0.000000 0.000000 0.000000 0.000000 0.051802 0.000000
# 6 0.000000 0.000000 0.000000 0.000000 0.000000 0.037578
#
#
# Mechanical properties :
#
#
# Convention : Reuss Voigt Hill
#
# Bulk Modulus (GPa) = 62.10150 62.80227 62.45188
# Shear Modulus (GPa) = 25.55209 28.37142 26.96176
#
# Velocity S-wave (km/s) = 3.77709 3.98002 3.87988
# Velocity P-wave (km/s) = 7.32768 7.49566 7.41214
#
# Compressibility (1/GPa) = 0.01610267
#
# Stress axis : x y z
#
# Youngs Moduli (GPa) = 102.39323 56.45297 61.13738
#
# Poissons Ratio (x) = 0.25038 0.01119
# Poissons Ratio (y) = 0.45413 0.56545
# Poissons Ratio (z) = 0.01874 0.52212
#
# Static dielectric constant tensor:
#      x y z
#    x 3.394790 0.000000 0.000000 
#    y 0.000000 3.260850 0.000000 
#    z 0.000000 0.000000 3.449520 
# 
# 
# High freq. dielectric constant tensor:
#      x y z
#    x 1.711830 0.000000 0.000000 
#    y 0.000000 1.668050 0.000000 
#    z 0.000000 0.000000 1.679230 
# 
# From -- ./inp_files/17702.got.cif
#   From: 2010.03.12/outbox.cif.g09.slc.cpg/sg20_9_cif.got.tgz:17702.got - 2010.04.14 01:38:04.
