data_PCOD8158170
_publ_section_title
;
Structure prediction by ZEFSAII (Michael W. Deem and Ramdas Pophale) SiO2 
 PCOD8158170
Probable space group: C 2 2 21
;
_chemical_formula_sum "Si O2"
_cell_formula_units_Z 60
_cell_length_a 11.829108
_cell_length_b 9.193923
_cell_length_c 24.332071
_cell_angle_alpha 90.000000
_cell_angle_beta 90.000000
_cell_angle_gamma 90.000000
_cell_volume 2646.256478
_symmetry_space_group_name_H-M "C 2 2 21"
_symmetry_group_IT_number 20
_symmetry_cell_setting 'orthorhombic'
loop_
_space_group_symop_operation_xyz
x,y,z
-x,-y,1/2+z
x,-y,-z
-x,y,1/2-z
1/2+x,1/2+y,z
1/2-x,1/2-y,1/2+z
1/2+x,1/2-y,-z
1/2-x,1/2+y,1/2-z
loop_
_atom_site_type_symbol
_atom_site_label
_atom_site_fract_x
_atom_site_fract_y
_atom_site_fract_z
Si Si1 0.418332 0.159953 0.363292
Si Si2 0.867206 0.780967 0.603930
Si Si3 0.219761 0.918638 0.104761
Si Si4 0.500000 0.126370 0.250000
Si Si5 0.038695 0.439426 0.439353
Si Si6 0.040321 0.126475 0.307935
Si Si7 0.190213 0.600386 0.720511
Si Si8 0.225972 0.932011 0.336413
O O1 0.371536 0.289475 0.401821
O O2 0.470465 0.219561 0.305109
O O3 0.511385 0.069020 0.396881
O O4 0.316373 0.056713 0.346988
O O5 0.751207 0.695830 0.619791
O O6 0.945102 0.688785 0.562255
O O7 0.936916 0.802355 0.659965
O O8 0.831100 0.934516 0.576989
O O9 0.338346 0.875205 0.076437
O O10 0.231857 0.949799 0.169802
O O11 0.397948 0.024163 0.232757
O O12 0.040978 0.500000 0.500000
O O13 0.132125 0.249922 0.296315
O O14 0.000000 0.061470 0.250000
O O15 0.100191 0.998986 0.344055
O O16 0.267350 0.627780 0.774014
#
# Coordination Sequence:
#
# PCOD8158170 Si02
#       8
#     8   8   8   4   8   8   8   8
#     4  10  21  41  67  99 133 172 221 265 329 402
#     4  11  24  42  63  93 130 165 219 272 323 389
#     4  12  24  41  68  98 131 171 218 269 326 402
#     4  10  18  36  64  94 142 178 208 270 320 398
#     4  11  25  48  72  92 126 172 220 283 341 388
#     4  12  19  37  58  88 133 178 215 263 320 380
#     4  11  18  34  57  91 130 175 218 253 313 382
#     4  10  21  35  60  90 133 180 215 259 313 387
#
# _framework density 22.673539999999999
#
# number of rings (size 3 to 8) (size 9 to 14) (size 15 to 20)
#    0.000    1.067    6.000    1.600    0.000    2.133 
#    3.600    0.000    0.000    0.000    0.000    0.000 
#    0.000    0.000    0.000    0.000    0.000    0.000 
#
# Total GULP energy -371964.852727 kJ/mol
# GULP energy per Si atom -12398.828424 kJ/mol
# Density = 2.262193 g / cm^3
# Si number density = 22.673540 Si / 1000 Ang^3
#
#
#
# Elastic Constant Matrix: (Units=GPa)
#
#
# Indices 1 2 3 4 5 6 
#
# 1 58.1836 36.4074 14.9193 0.0000 0.0000 0.0000
# 2 36.4074 92.9990 5.1050 0.0000 0.0000 0.0000
# 3 14.9193 5.1050 65.2587 0.0000 0.0000 0.0000
# 4 0.0000 0.0000 0.0000 13.5093 0.0000 0.0000
# 5 0.0000 0.0000 0.0000 0.0000 17.8657 0.0000
# 6 0.0000 0.0000 0.0000 0.0000 0.0000 29.7508
#
#
#
# Elastic Compliance Matrix: (Units=1/GPa)
#
#
# Indices 1 2 3 4 5 6 
#
# 1 0.024177 -0.009201 -0.004808 0.000000 0.000000 0.000000
# 2 -0.009201 0.014301 0.000985 0.000000 0.000000 0.000000
# 3 -0.004808 0.000985 0.016346 0.000000 0.000000 0.000000
# 4 0.000000 0.000000 0.000000 0.074023 0.000000 0.000000
# 5 0.000000 0.000000 0.000000 0.000000 0.055973 0.000000
# 6 0.000000 0.000000 0.000000 0.000000 0.000000 0.033613
#
#
# Mechanical properties :
#
#
# Convention : Reuss Voigt Hill
#
# Bulk Modulus (GPa) = 34.75112 36.58942 35.67027
# Shear Modulus (GPa) = 19.67946 22.89245 21.28596
#
# Velocity S-wave (km/s) = 2.94929 3.18095 3.06731
# Velocity P-wave (km/s) = 5.19209 5.44645 5.32079
#
# Compressibility (1/GPa) = 0.02877605
#
# Stress axis : x y z
#
# Youngs Moduli (GPa) = 41.36153 69.92638 61.17828
#
# Poissons Ratio (x) = 0.64339 0.29412
# Poissons Ratio (y) = 0.38057 -0.06025
# Poissons Ratio (z) = 0.19885 -0.06886
#
# Static dielectric constant tensor:
#      x y z
#    x 4.211260 0.000000 0.000000 
#    y 0.000000 4.177330 0.000000 
#    z 0.000000 0.000000 3.782940 
# 
# 
# High freq. dielectric constant tensor:
#      x y z
#    x 1.901820 0.000000 0.000000 
#    y 0.000000 1.894020 0.000000 
#    z 0.000000 0.000000 1.849870 
# 
# From -- ./inp_files/30326.got.cif
#   From: 2010.03.12/outbox.cif.g09.slc.cpg/sg20_16_cif.got.tgz:30326.got - 2010.04.14 01:38:04.
