data_PCOD8158093
_publ_section_title
;
Structure prediction by ZEFSAII (Michael W. Deem and Ramdas Pophale) SiO2 
 PCOD8158093
Probable space group: C 2 2 21
;
_chemical_formula_sum "Si O2"
_cell_formula_units_Z 48
_cell_length_a 8.212384
_cell_length_b 16.705532
_cell_length_c 14.609604
_cell_angle_alpha 90.000000
_cell_angle_beta 90.000000
_cell_angle_gamma 90.000000
_cell_volume 2004.324352
_symmetry_space_group_name_H-M "C 2 2 21"
_symmetry_group_IT_number 20
_symmetry_cell_setting 'orthorhombic'
loop_
_space_group_symop_operation_xyz
x,y,z
-x,-y,1/2+z
x,-y,-z
-x,y,1/2-z
1/2+x,1/2+y,z
1/2-x,1/2-y,1/2+z
1/2+x,1/2-y,-z
1/2-x,1/2+y,1/2-z
loop_
_atom_site_type_symbol
_atom_site_label
_atom_site_fract_x
_atom_site_fract_y
_atom_site_fract_z
Si Si1 0.051039 0.380644 0.878765
Si Si2 0.728547 0.577992 0.216517
Si Si3 0.690312 0.572086 0.682959
Si Si4 0.000000 0.665489 0.750000
Si Si5 0.556634 0.288600 0.892003
Si Si6 0.908884 0.215599 0.917763
Si Si7 0.195677 0.500000 0.000000
O O1 0.206808 0.386205 0.812247
O O2 0.088300 0.421588 0.976132
O O3 0.890229 0.427833 0.845440
O O4 0.026661 0.286536 0.888632
O O5 0.643981 0.490721 0.235745
O O6 0.591243 0.632523 0.169210
O O7 0.567188 0.645193 0.659000
O O8 0.701655 0.523229 0.588550
O O9 0.858542 0.607990 0.717716
O O10 0.950291 0.724669 0.834023
O O11 0.724550 0.246274 0.921057
O O12 0.456285 0.316104 0.981271
#
# Coordination Sequence:
#
# PCOD8158093 Si02
#       7
#     8   8   8   4   8   8   4
#     4   9  17  33  60  93 125 163 212 259 302 366
#     4   9  19  36  61  89 123 163 204 251 310 366
#     4  10  20  36  61  92 122 162 206 255 308 370
#     4  10  20  36  62  90 118 158 214 256 296 366
#     4  10  22  38  64  95 124 160 204 258 313 369
#     4  10  21  38  63  96 127 163 208 257 312 372
#     4  10  18  32  60  90 124 164 206 252 306 366
#
# _framework density 23.948221
#
# number of rings (size 3 to 8) (size 9 to 14) (size 15 to 20)
#    0.000    2.333    0.000    4.000    0.000    4.000 
#    0.000    1.667    0.000   48.000    0.000    0.000 
#    0.000    0.000    0.000    0.000    0.000    0.000 
#
# Total GULP energy -297407.215672 kJ/mol
# GULP energy per Si atom -12391.967320 kJ/mol
# Density = 2.389371 g / cm^3
# Si number density = 23.948221 Si / 1000 Ang^3
#
#
#
# Elastic Constant Matrix: (Units=GPa)
#
#
# Indices 1 2 3 4 5 6 
#
# 1 20.8581 21.9128 11.3404 0.0000 0.0000 0.0000
# 2 21.9128 164.8119 41.0126 0.0000 0.0000 0.0000
# 3 11.3404 41.0126 83.2396 0.0000 0.0000 0.0000
# 4 0.0000 0.0000 0.0000 56.8922 0.0000 0.0000
# 5 0.0000 0.0000 0.0000 0.0000 33.1472 0.0000
# 6 0.0000 0.0000 0.0000 0.0000 0.0000 9.4245
#
#
#
# Elastic Compliance Matrix: (Units=1/GPa)
#
#
# Indices 1 2 3 4 5 6 
#
# 1 0.057241 -0.006462 -0.004614 0.000000 0.000000 0.000000
# 2 -0.006462 0.007645 -0.002886 0.000000 0.000000 0.000000
# 3 -0.004614 -0.002886 0.014064 0.000000 0.000000 0.000000
# 4 0.000000 0.000000 0.000000 0.017577 0.000000 0.000000
# 5 0.000000 0.000000 0.000000 0.000000 0.030168 0.000000
# 6 0.000000 0.000000 0.000000 0.000000 0.000000 0.106106
#
#
# Mechanical properties :
#
#
# Convention : Reuss Voigt Hill
#
# Bulk Modulus (GPa) = 19.59853 46.38235 32.99044
# Shear Modulus (GPa) = 18.00272 32.86904 25.43588
#
# Velocity S-wave (km/s) = 2.74475 3.70875 3.26255
# Velocity P-wave (km/s) = 4.27158 6.14407 5.29131
#
# Compressibility (1/GPa) = 0.05102424
#
# Stress axis : x y z
#
# Youngs Moduli (GPa) = 17.46999 130.80506 71.10214
#
# Poissons Ratio (x) = 0.84530 0.32810
# Poissons Ratio (y) = 0.11290 0.20522
# Poissons Ratio (z) = 0.08061 0.37754
#
# Static dielectric constant tensor:
#      x y z
#    x 3.961580 0.000000 0.000000 
#    y 0.000000 4.814340 0.000000 
#    z 0.000000 0.000000 4.554570 
# 
# 
# High freq. dielectric constant tensor:
#      x y z
#    x 1.928600 0.000000 0.000000 
#    y 0.000000 1.966520 0.000000 
#    z 0.000000 0.000000 1.953930 
# 
# From -- ./inp_files/18958.got.cif
#   From: 2010.03.12/outbox.cif.g09.slc.cpg/sg20_10_cif.got.tgz:18958.got - 2010.04.14 01:38:04.
