data_PCOD8158870
_publ_section_title
;
Structure prediction by ZEFSAII (Michael W. Deem and Ramdas Pophale) SiO2 
 PCOD8158870
Probable space group: C 2 2 21
;
_chemical_formula_sum "Si O2"
_cell_formula_units_Z 40
_cell_length_a 12.104824
_cell_length_b 16.356710
_cell_length_c 9.793498
_cell_angle_alpha 90.000000
_cell_angle_beta 90.000000
_cell_angle_gamma 90.000000
_cell_volume 1939.064574
_symmetry_space_group_name_H-M "C 2 2 21"
_symmetry_group_IT_number 20
_symmetry_cell_setting 'orthorhombic'
loop_
_space_group_symop_operation_xyz
x,y,z
-x,-y,1/2+z
x,-y,-z
-x,y,1/2-z
1/2+x,1/2+y,z
1/2-x,1/2-y,1/2+z
1/2+x,1/2-y,-z
1/2-x,1/2+y,1/2-z
loop_
_atom_site_type_symbol
_atom_site_label
_atom_site_fract_x
_atom_site_fract_y
_atom_site_fract_z
Si Si1 0.345362 0.177496 0.511151
Si Si2 0.873460 0.949192 0.257090
Si Si3 0.937790 0.638744 0.115698
Si Si4 0.716191 0.000000 0.500000
Si Si5 0.246398 0.500000 0.000000
Si Si6 0.792818 0.228253 0.747559
O O1 0.475849 0.185607 0.483854
O O2 0.318614 0.204570 0.667309
O O3 0.273502 0.233030 0.403474
O O4 0.326580 0.081147 0.486142
O O5 0.868956 0.851442 0.260726
O O6 0.000000 0.977450 0.250000
O O7 0.799943 0.982094 0.379531
O O8 0.824618 0.993094 0.127569
O O9 0.854335 0.707311 0.160714
O O10 0.000000 0.601157 0.250000
O O11 0.867002 0.573245 0.033237
#
# Coordination Sequence:
#
# PCOD8158870 Si02
#       6
#     8   8   8   4   4   8
#     4  10  20  39  59  84 118 157 198 248 305 360
#     4  11  22  39  60  86 119 157 201 256 308 365
#     4  10  21  38  60  88 125 160 197 257 314 360
#     4  12  24  38  66  96 118 162 222 252 300 380
#     4  10  22  38  58  82 120 160 196 252 316 364
#     4  10  21  37  59  83 116 157 200 245 305 368
#
# _framework density 20.628505000000001
#
# number of rings (size 3 to 8) (size 9 to 14) (size 15 to 20)
#    0.000    1.600    0.000    6.600    0.000    1.600 
#    0.000    9.000    0.000    0.000    0.000    0.000 
#    0.000    0.000    0.000    0.000    0.000    0.000 
#
# Total GULP energy -247843.325950 kJ/mol
# GULP energy per Si atom -12392.166297 kJ/mol
# Density = 2.058155 g / cm^3
# Si number density = 20.628505 Si / 1000 Ang^3
#
#
#
# Elastic Constant Matrix: (Units=GPa)
#
#
# Indices 1 2 3 4 5 6 
#
# 1 71.3503 -4.4431 36.4456 0.0000 0.0000 0.0000
# 2 -4.4431 68.3374 25.4412 0.0000 0.0000 0.0000
# 3 36.4456 25.4412 110.7406 0.0000 0.0000 0.0000
# 4 0.0000 0.0000 0.0000 41.8141 0.0000 0.0000
# 5 0.0000 0.0000 0.0000 0.0000 51.5046 0.0000
# 6 0.0000 0.0000 0.0000 0.0000 0.0000 28.7446
#
#
#
# Elastic Compliance Matrix: (Units=1/GPa)
#
#
# Indices 1 2 3 4 5 6 
#
# 1 0.017628 0.003615 -0.006632 0.000000 0.000000 0.000000
# 2 0.003615 0.016743 -0.005036 0.000000 0.000000 0.000000
# 3 -0.006632 -0.005036 0.012370 0.000000 0.000000 0.000000
# 4 0.000000 0.000000 0.000000 0.023915 0.000000 0.000000
# 5 0.000000 0.000000 0.000000 0.000000 0.019416 0.000000
# 6 0.000000 0.000000 0.000000 0.000000 0.000000 0.034789
#
#
# Mechanical properties :
#
#
# Convention : Reuss Voigt Hill
#
# Bulk Modulus (GPa) = 32.64265 40.59061 36.61663
# Shear Modulus (GPa) = 33.07326 37.27830 35.17578
#
# Velocity S-wave (km/s) = 4.00844 4.25564 4.13389
# Velocity P-wave (km/s) = 6.10589 6.62322 6.36981
#
# Compressibility (1/GPa) = 0.03063477
#
# Stress axis : x y z
#
# Youngs Moduli (GPa) = 56.72752 59.72539 80.84201
#
# Poissons Ratio (x) = -0.21592 0.53615
# Poissons Ratio (y) = -0.20508 0.40715
# Poissons Ratio (z) = 0.37622 0.30080
#
# Static dielectric constant tensor:
#      x y z
#    x 3.669640 0.000000 0.000000 
#    y 0.000000 3.031910 0.000000 
#    z 0.000000 0.000000 3.948360 
# 
# 
# High freq. dielectric constant tensor:
#      x y z
#    x 1.802780 0.000000 0.000000 
#    y 0.000000 1.813630 0.000000 
#    z 0.000000 0.000000 1.816790 
# 
# From -- ./inp_files/7115.got.cif
#   From: 2010.03.12/outbox.cif.g09.slc.cpg/sg20_4_cif.got.tgz:7115.got - 2010.04.14 01:38:04.
