data_PCOD8158501
_publ_section_title
;
Structure prediction by ZEFSAII (Michael W. Deem and Ramdas Pophale) SiO2 
 PCOD8158501
Probable space group: C 2 2 21
;
_chemical_formula_sum "Si O2"
_cell_formula_units_Z 44
_cell_length_a 18.447883
_cell_length_b 8.631111
_cell_length_c 14.222803
_cell_angle_alpha 90.000000
_cell_angle_beta 90.000000
_cell_angle_gamma 90.000000
_cell_volume 2264.636132
_symmetry_space_group_name_H-M "C 2 2 21"
_symmetry_group_IT_number 20
_symmetry_cell_setting 'orthorhombic'
loop_
_space_group_symop_operation_xyz
x,y,z
-x,-y,1/2+z
x,-y,-z
-x,y,1/2-z
1/2+x,1/2+y,z
1/2-x,1/2-y,1/2+z
1/2+x,1/2-y,-z
1/2-x,1/2+y,1/2-z
loop_
_atom_site_type_symbol
_atom_site_label
_atom_site_fract_x
_atom_site_fract_y
_atom_site_fract_z
Si Si1 0.412112 0.500000 0.500000
Si Si2 0.702425 0.616891 0.150872
Si Si3 0.676453 0.816849 0.512308
Si Si4 0.520763 0.763577 0.531051
Si Si5 0.034627 0.548517 0.652200
Si Si6 0.308535 0.856663 0.187168
O O1 0.364007 0.434380 0.585086
O O2 0.464613 0.626234 0.547165
O O3 0.759937 0.707079 0.086208
O O4 0.676836 0.738787 0.228356
O O5 0.739380 0.469354 0.202505
O O6 0.605885 0.718419 0.543947
O O7 0.704647 0.760211 0.409705
O O8 0.654675 0.000000 0.500000
O O9 0.513516 0.821595 0.423819
O O10 0.502656 0.888213 0.611924
O O11 0.120541 0.536702 0.672011
O O12 0.000000 0.595797 0.750000
#
# Coordination Sequence:
#
# PCOD8158501 Si02
#       6
#     4   8   8   8   8   8
#     4  12  24  38  62 102 136 152 206 288 314 340
#     4  11  21  41  64  92 131 162 210 270 319 369
#     4   9  16  42  66  77 119 179 198 239 323 384
#     4  10  20  39  62  87 126 169 206 251 317 380
#     4  10  19  39  64  86 119 175 215 244 307 388
#     4  10  20  38  66  89 122 172 213 253 318 387
#
# _framework density 19.429171
#
# number of rings (size 3 to 8) (size 9 to 14) (size 15 to 20)
#    0.000    1.818    8.182    1.091    0.000    1.455 
#    6.545    0.909    0.000    0.000    0.000    0.000 
#    0.000    0.000    0.000    0.000    0.000    0.000 
#
# Total GULP energy -272612.403342 kJ/mol
# GULP energy per Si atom -12391.472879 kJ/mol
# Density = 1.938495 g / cm^3
# Si number density = 19.429171 Si / 1000 Ang^3
#
#
#
# Elastic Constant Matrix: (Units=GPa)
#
#
# Indices 1 2 3 4 5 6 
#
# 1 105.3270 44.7594 42.2044 0.0000 0.0000 0.0000
# 2 44.7594 64.0002 38.0401 0.0000 0.0000 0.0000
# 3 42.2044 38.0401 125.0783 0.0000 0.0000 0.0000
# 4 0.0000 0.0000 0.0000 30.6293 0.0000 0.0000
# 5 0.0000 0.0000 0.0000 0.0000 21.4766 0.0000
# 6 0.0000 0.0000 0.0000 0.0000 0.0000 32.0401
#
#
#
# Elastic Compliance Matrix: (Units=1/GPa)
#
#
# Indices 1 2 3 4 5 6 
#
# 1 0.013957 -0.008498 -0.002125 0.000000 0.000000 0.000000
# 2 -0.008498 0.024247 -0.004507 0.000000 0.000000 0.000000
# 3 -0.002125 -0.004507 0.010083 0.000000 0.000000 0.000000
# 4 0.000000 0.000000 0.000000 0.032648 0.000000 0.000000
# 5 0.000000 0.000000 0.000000 0.000000 0.046562 0.000000
# 6 0.000000 0.000000 0.000000 0.000000 0.000000 0.031211
#
#
# Mechanical properties :
#
#
# Convention : Reuss Voigt Hill
#
# Bulk Modulus (GPa) = 55.47209 60.49037 57.98123
# Shear Modulus (GPa) = 25.64411 28.12265 26.88338
#
# Velocity S-wave (km/s) = 3.63695 3.80866 3.72379
# Velocity P-wave (km/s) = 6.80070 7.10933 6.95672
#
# Compressibility (1/GPa) = 0.01802708
#
# Stress axis : x y z
#
# Youngs Moduli (GPa) = 71.64881 41.24242 99.18040
#
# Poissons Ratio (x) = 0.35048 0.21075
# Poissons Ratio (y) = 0.60887 0.44699
# Poissons Ratio (z) = 0.15225 0.18587
#
# Static dielectric constant tensor:
#      x y z
#    x 3.593710 0.000000 0.000000 
#    y 0.000000 3.088030 0.000000 
#    z 0.000000 0.000000 4.066910 
# 
# 
# High freq. dielectric constant tensor:
#      x y z
#    x 1.761250 0.000000 0.000000 
#    y 0.000000 1.711610 0.000000 
#    z 0.000000 0.000000 1.769770 
# 
# From -- ./inp_files/21195.got.cif
#   From: 2010.03.12/outbox.cif.g09.slc.cpg/sg20_11_cif.got.tgz:21195.got - 2010.04.14 01:38:04.
