data_PCOD8158580
_publ_section_title
;
Structure prediction by ZEFSAII (Michael W. Deem and Ramdas Pophale) SiO2 
 PCOD8158580
Probable space group: C 2 2 21
;
_chemical_formula_sum "Si O2"
_cell_formula_units_Z 64
_cell_length_a 9.096193
_cell_length_b 20.998681
_cell_length_c 17.991886
_cell_angle_alpha 90.000000
_cell_angle_beta 90.000000
_cell_angle_gamma 90.000000
_cell_volume 3436.595153
_symmetry_space_group_name_H-M "C 2 2 21"
_symmetry_group_IT_number 20
_symmetry_cell_setting 'orthorhombic'
loop_
_space_group_symop_operation_xyz
x,y,z
-x,-y,1/2+z
x,-y,-z
-x,y,1/2-z
1/2+x,1/2+y,z
1/2-x,1/2-y,1/2+z
1/2+x,1/2-y,-z
1/2-x,1/2+y,1/2-z
loop_
_atom_site_type_symbol
_atom_site_label
_atom_site_fract_x
_atom_site_fract_y
_atom_site_fract_z
Si Si1 0.059796 0.487183 0.830636
Si Si2 0.802423 0.922646 0.187552
Si Si3 0.896046 0.588761 0.926402
Si Si4 0.062189 0.680483 0.831808
Si Si5 0.273695 0.276626 0.576990
Si Si6 0.889496 0.111118 0.646182
Si Si7 0.532494 0.131831 0.413275
Si Si8 0.462451 0.267752 0.434985
O O1 0.231585 0.507389 0.826388
O O2 0.000000 0.503933 0.750000
O O3 0.971706 0.527617 0.891035
O O4 0.037136 0.413080 0.850185
O O5 0.688251 0.871508 0.157028
O O6 0.825118 0.903701 0.273052
O O7 0.951854 0.922674 0.140051
O O8 0.719157 0.581962 0.916535
O O9 0.931811 0.655912 0.885228
O O10 0.951383 0.592628 0.010488
O O11 0.125061 0.748170 0.857996
O O12 0.000000 0.688223 0.750000
O O13 0.196681 0.341833 0.607291
O O14 0.376238 0.292484 0.507065
O O15 0.140285 0.228492 0.553288
O O16 0.914601 0.187172 0.633885
O O17 0.423044 0.193047 0.419972
#
# Coordination Sequence:
#
# PCOD8158580 Si02
#       8
#     8   8   8   8   8   8   8   8
#     4  11  22  41  58  85 119 167 214 253 298 374
#     4  10  20  33  60  88 118 156 210 265 291 352
#     4  11  19  35  64  88 114 160 209 257 305 364
#     4  11  18  33  54  89 123 157 200 250 297 364
#     4  10  20  36  57  88 122 161 193 252 310 377
#     4  11  18  34  60  96 117 152 206 256 318 354
#     4  10  22  37  62  85 119 164 199 252 312 377
#     4  10  20  36  60  86 126 153 192 259 314 378
#
# _framework density 18.623083000000001
#
# number of rings (size 3 to 8) (size 9 to 14) (size 15 to 20)
#    0.750    0.750    6.250    1.125    0.000    0.000 
#    4.500    0.000    2.750    3.000    0.000    0.000 
#    0.000    0.000    0.000    0.000    0.000    0.000 
#
# Total GULP energy -396495.842818 kJ/mol
# GULP energy per Si atom -12390.495088 kJ/mol
# Density = 1.858070 g / cm^3
# Si number density = 18.623083 Si / 1000 Ang^3
#
#
#
# Elastic Constant Matrix: (Units=GPa)
#
#
# Indices 1 2 3 4 5 6 
#
# 1 104.4501 36.8165 31.4530 0.0000 0.0000 0.0000
# 2 36.8165 90.1276 30.0748 0.0000 0.0000 0.0000
# 3 31.4530 30.0748 53.4503 0.0000 0.0000 0.0000
# 4 0.0000 0.0000 0.0000 28.7191 0.0000 0.0000
# 5 0.0000 0.0000 0.0000 0.0000 28.8986 0.0000
# 6 0.0000 0.0000 0.0000 0.0000 0.0000 26.9176
#
#
#
# Elastic Compliance Matrix: (Units=1/GPa)
#
#
# Indices 1 2 3 4 5 6 
#
# 1 0.012354 -0.003226 -0.005454 0.000000 0.000000 0.000000
# 2 -0.003226 0.014503 -0.006262 0.000000 0.000000 0.000000
# 3 -0.005454 -0.006262 0.025442 0.000000 0.000000 0.000000
# 4 0.000000 0.000000 0.000000 0.034820 0.000000 0.000000
# 5 0.000000 0.000000 0.000000 0.000000 0.034604 0.000000
# 6 0.000000 0.000000 0.000000 0.000000 0.000000 0.037150
#
#
# Mechanical properties :
#
#
# Convention : Reuss Voigt Hill
#
# Bulk Modulus (GPa) = 44.61554 49.41295 47.01424
# Shear Modulus (GPa) = 25.48057 26.88598 26.18327
#
# Velocity S-wave (km/s) = 3.70297 3.80372 3.75368
# Velocity P-wave (km/s) = 6.50321 6.77361 6.63979
#
# Compressibility (1/GPa) = 0.02241372
#
# Stress axis : x y z
#
# Youngs Moduli (GPa) = 80.94831 68.95213 39.30549
#
# Poissons Ratio (x) = 0.22246 0.21438
# Poissons Ratio (y) = 0.26117 0.24612
# Poissons Ratio (z) = 0.44150 0.43176
#
# Static dielectric constant tensor:
#      x y z
#    x 3.662660 0.000000 0.000000 
#    y 0.000000 3.264890 0.000000 
#    z 0.000000 0.000000 3.236690 
# 
# 
# High freq. dielectric constant tensor:
#      x y z
#    x 1.727090 0.000000 0.000000 
#    y 0.000000 1.699460 0.000000 
#    z 0.000000 0.000000 1.708460 
# 
# From -- ./inp_files/23931.got.cif
#   From: 2010.03.12/outbox.cif.g09.slc.cpg/sg20_12_cif.got.tgz:23931.got - 2010.04.14 01:38:04.
