data_PCOD8158153
_publ_section_title
;
Structure prediction by ZEFSAII (Michael W. Deem and Ramdas Pophale) SiO2 
 PCOD8158153
Probable space group: C 2 2 21
;
_chemical_formula_sum "Si O2"
_cell_formula_units_Z 44
_cell_length_a 15.804401
_cell_length_b 21.727901
_cell_length_c 6.614495
_cell_angle_alpha 90.000000
_cell_angle_beta 90.000000
_cell_angle_gamma 90.000000
_cell_volume 2271.394170
_symmetry_space_group_name_H-M "C 2 2 21"
_symmetry_group_IT_number 20
_symmetry_cell_setting 'orthorhombic'
loop_
_space_group_symop_operation_xyz
x,y,z
-x,-y,1/2+z
x,-y,-z
-x,y,1/2-z
1/2+x,1/2+y,z
1/2-x,1/2-y,1/2+z
1/2+x,1/2-y,-z
1/2-x,1/2+y,1/2-z
loop_
_atom_site_type_symbol
_atom_site_label
_atom_site_fract_x
_atom_site_fract_y
_atom_site_fract_z
Si Si1 0.164544 0.681388 0.926357
Si Si2 0.000000 0.065448 0.250000
Si Si3 0.864571 0.000000 0.500000
Si Si4 0.709839 0.380088 0.188766
Si Si5 0.739752 0.692948 0.201942
Si Si6 0.500000 0.767544 0.250000
Si Si7 0.910844 0.163335 0.017591
O O1 0.210923 0.618896 0.846744
O O2 0.223191 0.735298 0.832545
O O3 0.068523 0.687786 0.853485
O O4 0.172772 0.684923 0.170670
O O5 0.025481 0.107098 0.441779
O O6 0.921289 0.024629 0.316927
O O7 0.807292 0.948048 0.394856
O O8 0.626361 0.346995 0.290898
O O9 0.747386 0.339301 0.010396
O O10 0.664403 0.659706 0.321541
O O11 0.538461 0.726859 0.435669
#
# Coordination Sequence:
#
# PCOD8158153 Si02
#       7
#     8   4   4   8   8   4   8
#     4  10  20  35  60  84 118 149 201 253 303 357
#     4  11  20  38  52  86 122 154 203 246 286 360
#     4  12  24  36  56  84 122 166 208 234 296 366
#     4  11  22  38  57  81 116 170 198 243 291 380
#     4  10  18  36  56  84 116 155 195 235 295 369
#     4   9  20  38  60  98 118 152 197 266 320 362
#     4   9  20  36  57  84 123 154 195 236 299 364
#
# _framework density 19.371362000000001
#
# number of rings (size 3 to 8) (size 9 to 14) (size 15 to 20)
#    0.000    1.818    3.636    1.091    0.000    0.000 
#    0.000    4.545    0.000    0.000    4.727    0.000 
#    0.000    0.000    0.000    0.000    0.000    0.000 
#
# Total GULP energy -272615.379235 kJ/mol
# GULP energy per Si atom -12391.608147 kJ/mol
# Density = 1.932727 g / cm^3
# Si number density = 19.371362 Si / 1000 Ang^3
#
#
#
# Elastic Constant Matrix: (Units=GPa)
#
#
# Indices 1 2 3 4 5 6 
#
# 1 96.7987 38.6041 41.8876 0.0000 0.0000 0.0000
# 2 38.6041 70.5417 31.7951 0.0000 0.0000 0.0000
# 3 41.8876 31.7951 109.8458 0.0000 0.0000 0.0000
# 4 0.0000 0.0000 0.0000 21.2095 0.0000 0.0000
# 5 0.0000 0.0000 0.0000 0.0000 38.4142 0.0000
# 6 0.0000 0.0000 0.0000 0.0000 0.0000 28.8989
#
#
#
# Elastic Compliance Matrix: (Units=1/GPa)
#
#
# Indices 1 2 3 4 5 6 
#
# 1 0.014410 -0.006221 -0.003694 0.000000 0.000000 0.000000
# 2 -0.006221 0.018989 -0.003124 0.000000 0.000000 0.000000
# 3 -0.003694 -0.003124 0.011417 0.000000 0.000000 0.000000
# 4 0.000000 0.000000 0.000000 0.047149 0.000000 0.000000
# 5 0.000000 0.000000 0.000000 0.000000 0.026032 0.000000
# 6 0.000000 0.000000 0.000000 0.000000 0.000000 0.034603
#
#
# Mechanical properties :
#
#
# Convention : Reuss Voigt Hill
#
# Bulk Modulus (GPa) = 53.37094 55.75111 54.56102
# Shear Modulus (GPa) = 27.03811 28.69781 27.86796
#
# Velocity S-wave (km/s) = 3.74006 3.85314 3.79702
# Velocity P-wave (km/s) = 6.80162 6.97411 6.88841
#
# Compressibility (1/GPa) = 0.01873679
#
# Stress axis : x y z
#
# Youngs Moduli (GPa) = 69.39439 52.66344 87.59059
#
# Poissons Ratio (x) = 0.32762 0.32360
# Poissons Ratio (y) = 0.43170 0.27364
# Poissons Ratio (z) = 0.25638 0.16452
#
# Static dielectric constant tensor:
#      x y z
#    x 3.501710 0.000000 0.000000 
#    y 0.000000 3.395630 0.000000 
#    z 0.000000 0.000000 3.755550 
# 
# 
# High freq. dielectric constant tensor:
#      x y z
#    x 1.734800 0.000000 0.000000 
#    y 0.000000 1.720460 0.000000 
#    z 0.000000 0.000000 1.765990 
# 
# From -- ./inp_files/2699.got.cif
#   From: 2010.03.12/outbox.cif.g09.slc.cpg/sg20_2_cif.got.tgz:2699.got - 2010.04.14 01:38:04.
