data_PCOD8158952
_publ_section_title
;
Structure prediction by ZEFSAII (Michael W. Deem and Ramdas Pophale) SiO2 
 PCOD8158952
Probable space group: C 2 2 21
;
_chemical_formula_sum "Si O2"
_cell_formula_units_Z 48
_cell_length_a 16.366280
_cell_length_b 22.787843
_cell_length_c 6.075494
_cell_angle_alpha 90.000000
_cell_angle_beta 90.000000
_cell_angle_gamma 90.000000
_cell_volume 2265.868970
_symmetry_space_group_name_H-M "C 2 2 21"
_symmetry_group_IT_number 20
_symmetry_cell_setting 'orthorhombic'
loop_
_space_group_symop_operation_xyz
x,y,z
-x,-y,1/2+z
x,-y,-z
-x,y,1/2-z
1/2+x,1/2+y,z
1/2-x,1/2-y,1/2+z
1/2+x,1/2-y,-z
1/2-x,1/2+y,1/2-z
loop_
_atom_site_type_symbol
_atom_site_label
_atom_site_fract_x
_atom_site_fract_y
_atom_site_fract_z
Si Si1 0.427854 0.824648 0.393199
Si Si2 0.273201 0.000000 0.000000
Si Si3 0.263571 0.604098 0.222527
Si Si4 0.151290 0.809635 0.432150
Si Si5 0.724085 0.808118 0.413628
Si Si6 0.000000 0.751434 0.250000
Si Si7 0.366923 0.057277 0.612429
O O1 0.500000 0.796501 0.250000
O O2 0.340940 0.818287 0.278844
O O3 0.434825 0.790370 0.624169
O O4 0.440064 0.895176 0.403096
O O5 0.215172 0.955806 0.858302
O O6 0.332292 0.041230 0.853068
O O7 0.213582 0.649290 0.377332
O O8 0.341811 0.636432 0.107984
O O9 0.207223 0.584673 0.023779
O O10 0.186407 0.823556 0.187767
O O11 0.212451 0.758736 0.514818
O O12 0.055925 0.791551 0.410776
O O13 0.404479 0.000000 0.500000
#
# Coordination Sequence:
#
# PCOD8158952 Si02
#       7
#     8   4   8   8   8   4   8
#     4  12  24  41  58  89 133 182 219 270 330 392
#     4  10  20  40  66  94 130 162 234 278 320 390
#     4  11  21  38  66  93 129 167 225 280 327 397
#     4  12  23  38  63  93 134 174 221 270 335 403
#     4  12  22  40  64  92 129 179 221 272 332 400
#     4  12  28  40  60  96 142 176 216 272 340 414
#     4  10  22  39  61  90 127 170 223 275 324 380
#
# _framework density 21.183924999999999
#
# number of rings (size 3 to 8) (size 9 to 14) (size 15 to 20)
#    0.000    0.667    6.667    2.000    0.000    0.000 
#    3.000    0.000    0.000    0.000    0.000    0.000 
#  112.500    0.000    0.000    0.000    0.000    0.000 
#
# Total GULP energy -297368.287860 kJ/mol
# GULP energy per Si atom -12390.345328 kJ/mol
# Density = 2.113571 g / cm^3
# Si number density = 21.183925 Si / 1000 Ang^3
#
#
#
# Elastic Constant Matrix: (Units=GPa)
#
#
# Indices 1 2 3 4 5 6 
#
# 1 75.7732 34.5434 33.5341 0.0000 0.0000 0.0000
# 2 34.5434 106.6537 47.9482 0.0000 0.0000 0.0000
# 3 33.5341 47.9482 107.4183 0.0000 0.0000 0.0000
# 4 0.0000 0.0000 0.0000 53.5553 0.0000 0.0000
# 5 0.0000 0.0000 0.0000 0.0000 25.4855 0.0000
# 6 0.0000 0.0000 0.0000 0.0000 0.0000 28.1694
#
#
#
# Elastic Compliance Matrix: (Units=1/GPa)
#
#
# Indices 1 2 3 4 5 6 
#
# 1 0.016445 -0.003776 -0.003448 0.000000 0.000000 0.000000
# 2 -0.003776 0.012597 -0.004444 0.000000 0.000000 0.000000
# 3 -0.003448 -0.004444 0.012370 0.000000 0.000000 0.000000
# 4 0.000000 0.000000 0.000000 0.018672 0.000000 0.000000
# 5 0.000000 0.000000 0.000000 0.000000 0.039238 0.000000
# 6 0.000000 0.000000 0.000000 0.000000 0.000000 0.035500
#
#
# Mechanical properties :
#
#
# Convention : Reuss Voigt Hill
#
# Bulk Modulus (GPa) = 55.32611 57.98850 56.65730
# Shear Modulus (GPa) = 30.45384 33.03000 31.74192
#
# Velocity S-wave (km/s) = 3.79567 3.95296 3.87511
# Velocity P-wave (km/s) = 6.73671 6.94750 6.84291
#
# Compressibility (1/GPa) = 0.01807465
#
# Stress axis : x y z
#
# Youngs Moduli (GPa) = 60.80982 79.38360 80.84316
#
# Poissons Ratio (x) = 0.29975 0.27877
# Poissons Ratio (y) = 0.22961 0.35928
# Poissons Ratio (z) = 0.20969 0.35279
#
# Static dielectric constant tensor:
#      x y z
#    x 3.304620 0.000000 0.000000 
#    y 0.000000 5.359370 0.000000 
#    z 0.000000 0.000000 4.453650 
# 
# 
# High freq. dielectric constant tensor:
#      x y z
#    x 1.774070 0.000000 0.000000 
#    y 0.000000 1.839170 0.000000 
#    z 0.000000 0.000000 1.853590 
# 
# From -- ./inp_files/2750.got.cif
#   From: 2010.03.12/outbox.cif.g09.slc.cpg/sg20_2_cif.got.tgz:2750.got - 2010.04.14 01:38:04.
