data_PCOD8158422
_publ_section_title
;
Structure prediction by ZEFSAII (Michael W. Deem and Ramdas Pophale) SiO2 
 PCOD8158422
Probable space group: C 2 2 21
;
_chemical_formula_sum "Si O2"
_cell_formula_units_Z 48
_cell_length_a 27.382411
_cell_length_b 9.159656
_cell_length_c 8.926455
_cell_angle_alpha 90.000000
_cell_angle_beta 90.000000
_cell_angle_gamma 90.000000
_cell_volume 2238.875111
_symmetry_space_group_name_H-M "C 2 2 21"
_symmetry_group_IT_number 20
_symmetry_cell_setting 'orthorhombic'
loop_
_space_group_symop_operation_xyz
x,y,z
-x,-y,1/2+z
x,-y,-z
-x,y,1/2-z
1/2+x,1/2+y,z
1/2-x,1/2-y,1/2+z
1/2+x,1/2-y,-z
1/2-x,1/2+y,1/2-z
loop_
_atom_site_type_symbol
_atom_site_label
_atom_site_fract_x
_atom_site_fract_y
_atom_site_fract_z
Si Si1 0.735276 0.346234 0.075274
Si Si2 0.903329 0.165051 0.775638
Si Si3 0.297963 0.640407 0.906723
Si Si4 0.571338 0.654435 0.169408
Si Si5 0.641362 0.828501 0.986062
Si Si6 0.472456 0.334095 0.976703
O O1 0.734679 0.360537 0.254922
O O2 0.696222 0.225110 0.027821
O O3 0.722159 0.500000 0.000000
O O4 0.786147 0.284549 0.007536
O O5 0.855712 0.134130 0.876737
O O6 0.890558 0.289718 0.658447
O O7 0.917999 0.018145 0.684784
O O8 0.947752 0.235778 0.874791
O O9 0.282005 0.500000 0.000000
O O10 0.551796 0.722740 0.323975
O O11 0.530920 0.680565 0.037064
O O12 0.619180 0.746019 0.130154
O O13 0.640028 0.000000 0.000000
O O14 0.456025 0.500000 0.000000
#
# Coordination Sequence:
#
# PCOD8158422 Si02
#       6
#     8   8   8   8   8   8
#     4  11  24  41  64  90 120 167 218 266 323 387
#     4  10  21  39  62  92 124 162 208 260 318 380
#     4  11  22  40  63  93 129 163 208 267 326 389
#     4  10  19  36  62  88 120 160 206 258 313 377
#     4  11  23  39  58  85 122 165 212 263 318 378
#     4   9  18  33  59  92 119 155 206 256 309 378
#
# _framework density 21.439337999999999
#
# number of rings (size 3 to 8) (size 9 to 14) (size 15 to 20)
#    0.000    1.667    0.000    6.500    0.000    4.667 
#    0.000    4.167    0.000    0.000    0.000    0.000 
#    0.000    0.000    0.000    0.000    0.000    0.000 
#
# Total GULP energy -297515.579851 kJ/mol
# GULP energy per Si atom -12396.482494 kJ/mol
# Density = 2.139054 g / cm^3
# Si number density = 21.439338 Si / 1000 Ang^3
#
#
#
# Elastic Constant Matrix: (Units=GPa)
#
#
# Indices 1 2 3 4 5 6 
#
# 1 87.7158 31.1736 44.4521 0.0000 0.0000 0.0000
# 2 31.1736 119.5101 51.2417 0.0000 0.0000 0.0000
# 3 44.4521 51.2417 94.6122 0.0000 0.0000 0.0000
# 4 0.0000 0.0000 0.0000 22.9776 0.0000 0.0000
# 5 0.0000 0.0000 0.0000 0.0000 39.7328 0.0000
# 6 0.0000 0.0000 0.0000 0.0000 0.0000 22.0269
#
#
#
# Elastic Compliance Matrix: (Units=1/GPa)
#
#
# Indices 1 2 3 4 5 6 
#
# 1 0.015087 -0.001167 -0.006456 0.000000 0.000000 0.000000
# 2 -0.001167 0.010989 -0.005403 0.000000 0.000000 0.000000
# 3 -0.006456 -0.005403 0.016529 0.000000 0.000000 0.000000
# 4 0.000000 0.000000 0.000000 0.043521 0.000000 0.000000
# 5 0.000000 0.000000 0.000000 0.000000 0.025168 0.000000
# 6 0.000000 0.000000 0.000000 0.000000 0.000000 0.045399
#
#
# Mechanical properties :
#
#
# Convention : Reuss Voigt Hill
#
# Bulk Modulus (GPa) = 60.41622 61.73031 61.07327
# Shear Modulus (GPa) = 26.55862 28.61219 27.58540
#
# Velocity S-wave (km/s) = 3.52345 3.65713 3.59091
# Velocity P-wave (km/s) = 6.69285 6.83289 6.76323
#
# Compressibility (1/GPa) = 0.01655185
#
# Stress axis : x y z
#
# Youngs Moduli (GPa) = 66.28155 91.00377 60.49931
#
# Poissons Ratio (x) = 0.10622 0.39060
# Poissons Ratio (y) = 0.07736 0.32688
# Poissons Ratio (z) = 0.42794 0.49169
#
# Static dielectric constant tensor:
#      x y z
#    x 3.961550 0.000000 0.000000 
#    y 0.000000 3.423840 0.000000 
#    z 0.000000 0.000000 4.233970 
# 
# 
# High freq. dielectric constant tensor:
#      x y z
#    x 1.847870 0.000000 0.000000 
#    y 0.000000 1.798730 0.000000 
#    z 0.000000 0.000000 1.861610 
# 
# From -- ./inp_files/11468.got.cif
#   From: 2010.03.12/outbox.cif.g09.slc.cpg/sg20_6_cif.got.tgz:11468.got - 2010.04.14 01:38:04.
