data_PCOD8158215
_publ_section_title
;
Structure prediction by ZEFSAII (Michael W. Deem and Ramdas Pophale) SiO2 
 PCOD8158215
Probable space group: C 2 2 21
;
_chemical_formula_sum "Si O2"
_cell_formula_units_Z 56
_cell_length_a 20.422041
_cell_length_b 8.956898
_cell_length_c 14.592110
_cell_angle_alpha 90.000000
_cell_angle_beta 90.000000
_cell_angle_gamma 90.000000
_cell_volume 2669.161593
_symmetry_space_group_name_H-M "C 2 2 21"
_symmetry_group_IT_number 20
_symmetry_cell_setting 'orthorhombic'
loop_
_space_group_symop_operation_xyz
x,y,z
-x,-y,1/2+z
x,-y,-z
-x,y,1/2-z
1/2+x,1/2+y,z
1/2-x,1/2-y,1/2+z
1/2+x,1/2-y,-z
1/2-x,1/2+y,1/2-z
loop_
_atom_site_type_symbol
_atom_site_label
_atom_site_fract_x
_atom_site_fract_y
_atom_site_fract_z
Si Si1 0.186958 0.111589 0.182731
Si Si2 0.133016 0.000000 0.000000
Si Si3 0.574846 0.614044 0.582277
Si Si4 0.100653 0.373342 0.815593
Si Si5 0.692770 0.311611 0.289902
Si Si6 0.500000 0.369484 0.250000
Si Si7 0.455221 0.775016 0.513182
Si Si8 0.564128 0.194124 0.802623
O O1 0.238595 0.246209 0.175566
O O2 0.118109 0.179995 0.216783
O O3 0.205568 0.976889 0.250401
O O4 0.180790 0.049763 0.080677
O O5 0.084467 0.874196 0.035470
O O6 0.590015 0.500000 0.500000
O O7 0.642613 0.678108 0.623752
O O8 0.530195 0.536025 0.664124
O O9 0.531327 0.751951 0.543067
O O10 0.172009 0.309282 0.788799
O O11 0.057744 0.238041 0.778978
O O12 0.088348 0.532119 0.765987
O O13 0.082717 0.396424 0.923167
O O14 0.452357 0.823186 0.409074
O O15 0.500000 0.247056 0.750000
#
# Coordination Sequence:
#
# PCOD8158215 Si02
#       8
#     8   4   8   8   8   4   8   8
#     4  11  25  45  66  95 129 176 222 273 331 398
#     4  10  20  42  66  94 128 168 220 276 332 392
#     4  10  21  37  63 101 131 166 218 268 329 392
#     4  10  18  40  62  92 127 173 213 261 326 393
#     4  11  24  44  69  90 131 178 223 270 329 394
#     4   8  18  32  62  86 134 174 196 266 336 374
#     4  10  20  36  65  97 131 166 213 271 330 394
#     4  11  24  38  65 101 135 165 217 274 332 389
#
# _framework density 20.980371000000002
#
# number of rings (size 3 to 8) (size 9 to 14) (size 15 to 20)
#    0.000    1.714    2.857    1.286    2.000    0.000 
#    3.857    2.857    0.000    0.000    0.000    0.000 
#    0.000    0.000    0.000    0.000    0.000    0.000 
#
# Total GULP energy -346948.744878 kJ/mol
# GULP energy per Si atom -12391.026603 kJ/mol
# Density = 2.093262 g / cm^3
# Si number density = 20.980371 Si / 1000 Ang^3
#
#
#
# Elastic Constant Matrix: (Units=GPa)
#
#
# Indices 1 2 3 4 5 6 
#
# 1 106.1231 48.1420 53.5817 0.0000 0.0000 0.0000
# 2 48.1420 106.4297 43.7873 0.0000 0.0000 0.0000
# 3 53.5817 43.7873 104.7213 0.0000 0.0000 0.0000
# 4 0.0000 0.0000 0.0000 332.1489 0.0000 0.0000
# 5 0.0000 0.0000 0.0000 0.0000 25.3050 0.0000
# 6 0.0000 0.0000 0.0000 0.0000 0.0000 26.7485
#
#
#
# Elastic Compliance Matrix: (Units=1/GPa)
#
#
# Indices 1 2 3 4 5 6 
#
# 1 0.014047 -0.004103 -0.005472 0.000000 0.000000 0.000000
# 2 -0.004103 0.012546 -0.003147 0.000000 0.000000 0.000000
# 3 -0.005472 -0.003147 0.013665 0.000000 0.000000 0.000000
# 4 0.000000 0.000000 0.000000 0.003011 0.000000 0.000000
# 5 0.000000 0.000000 0.000000 0.000000 0.039518 0.000000
# 6 0.000000 0.000000 0.000000 0.000000 0.000000 0.037385
#
#
# Mechanical properties :
#
#
# Convention : Reuss Voigt Hill
#
# Bulk Modulus (GPa) = 67.49800 67.58844 67.54322
# Shear Modulus (GPa) = 33.21095 88.29134 60.75115
#
# Velocity S-wave (km/s) = 3.98295 6.49417 5.38693
# Velocity P-wave (km/s) = 7.30710 9.40836 8.42351
#
# Compressibility (1/GPa) = 0.01481525
#
# Stress axis : x y z
#
# Youngs Moduli (GPa) = 71.19024 79.70446 73.18171
#
# Poissons Ratio (x) = 0.32700 0.40043
# Poissons Ratio (y) = 0.29207 0.23029
# Poissons Ratio (z) = 0.38953 0.25082
#
# Static dielectric constant tensor:
#      x y z
#    x -3.750790 0.000000 0.000000 
#    y 0.000000 3.714730 0.000000 
#    z 0.000000 0.000000 4.032180 
# 
# 
# High freq. dielectric constant tensor:
#      x y z
#    x 1.809970 0.000000 0.000000 
#    y 0.000000 1.821810 0.000000 
#    z 0.000000 0.000000 1.823550 
# 
# From -- ./inp_files/21794.got.cif
#   From: 2010.03.12/outbox.cif.g09.slc.cpg/sg20_11_cif.got.tgz:21794.got - 2010.04.14 01:38:04.
