data_PCOD8158633
_publ_section_title
;
Structure prediction by ZEFSAII (Michael W. Deem and Ramdas Pophale) SiO2 
 PCOD8158633
Probable space group: C 2 2 21
;
_chemical_formula_sum "Si O2"
_cell_formula_units_Z 52
_cell_length_a 15.838769
_cell_length_b 8.544997
_cell_length_c 20.618675
_cell_angle_alpha 90.000000
_cell_angle_beta 90.000000
_cell_angle_gamma 90.000000
_cell_volume 2790.577528
_symmetry_space_group_name_H-M "C 2 2 21"
_symmetry_group_IT_number 20
_symmetry_cell_setting 'orthorhombic'
loop_
_space_group_symop_operation_xyz
x,y,z
-x,-y,1/2+z
x,-y,-z
-x,y,1/2-z
1/2+x,1/2+y,z
1/2-x,1/2-y,1/2+z
1/2+x,1/2-y,-z
1/2-x,1/2+y,1/2-z
loop_
_atom_site_type_symbol
_atom_site_label
_atom_site_fract_x
_atom_site_fract_y
_atom_site_fract_z
Si Si1 0.434535 0.085215 0.201926
Si Si2 0.129571 0.985564 0.625216
Si Si3 0.316120 0.334941 0.461775
Si Si4 0.164740 0.846833 0.243441
Si Si5 0.814699 0.347362 0.149334
Si Si6 0.255495 0.500000 0.000000
Si Si7 0.961519 0.144341 0.635725
O O1 0.500000 0.995130 0.250000
O O2 0.364487 0.167774 0.247597
O O3 0.486623 0.206986 0.159453
O O4 0.386893 0.976774 0.151575
O O5 0.131794 0.807676 0.645031
O O6 0.167636 0.077649 0.686101
O O7 0.186501 0.022025 0.562920
O O8 0.030924 0.019626 0.611883
O O9 0.325259 0.500000 0.500000
O O10 0.239830 0.373530 0.414173
O O11 0.298048 0.165604 0.497272
O O12 0.403249 0.305566 0.424163
O O13 0.257993 0.849449 0.213964
O O14 0.096311 0.926456 0.194241
#
# Coordination Sequence:
#
# PCOD8158633 Si02
#       7
#     8   8   8   8   8   4   8
#     4   9  18  33  55  84 115 150 182 236 295 344
#     4  10  20  36  60  84 120 151 192 246 295 346
#     4  10  23  42  60  82 115 156 198 238 289 355
#     4   9  18  35  59  80 116 157 186 238 299 349
#     4  10  20  35  57  90 113 145 198 237 288 352
#     4  10  24  42  58  86 118 156 202 242 288 358
#     4   9  20  38  57  81 118 149 193 241 296 347
#
# _framework density 18.634136000000002
#
# number of rings (size 3 to 8) (size 9 to 14) (size 15 to 20)
#    0.000    2.462    0.000    2.308    5.385    2.462 
#    2.769    0.000    0.000    0.000    0.000    0.000 
#    0.000    0.000    0.000    0.000    0.000    0.000 
#
# Total GULP energy -322099.869166 kJ/mol
# GULP energy per Si atom -12388.456506 kJ/mol
# Density = 1.859172 g / cm^3
# Si number density = 18.634136 Si / 1000 Ang^3
#
#
#
# Elastic Constant Matrix: (Units=GPa)
#
#
# Indices 1 2 3 4 5 6 
#
# 1 113.0749 54.1543 42.7537 0.0000 0.0000 0.0000
# 2 54.1543 89.2575 39.0087 0.0000 0.0000 0.0000
# 3 42.7537 39.0087 92.1309 0.0000 0.0000 0.0000
# 4 0.0000 0.0000 0.0000 35.1974 0.0000 0.0000
# 5 0.0000 0.0000 0.0000 0.0000 27.4035 0.0000
# 6 0.0000 0.0000 0.0000 0.0000 0.0000 26.1982
#
#
#
# Elastic Compliance Matrix: (Units=1/GPa)
#
#
# Indices 1 2 3 4 5 6 
#
# 1 0.013268 -0.006576 -0.003373 0.000000 0.000000 0.000000
# 2 -0.006576 0.017007 -0.004149 0.000000 0.000000 0.000000
# 3 -0.003373 -0.004149 0.014176 0.000000 0.000000 0.000000
# 4 0.000000 0.000000 0.000000 0.028411 0.000000 0.000000
# 5 0.000000 0.000000 0.000000 0.000000 0.036492 0.000000
# 6 0.000000 0.000000 0.000000 0.000000 0.000000 0.038171
#
#
# Mechanical properties :
#
#
# Convention : Reuss Voigt Hill
#
# Bulk Modulus (GPa) = 61.51943 62.92185 62.22064
# Shear Modulus (GPa) = 27.60307 28.32959 27.96633
#
# Velocity S-wave (km/s) = 3.85296 3.90334 3.87823
# Velocity P-wave (km/s) = 7.27185 7.35901 7.31556
#
# Compressibility (1/GPa) = 0.01625503
#
# Stress axis : x y z
#
# Youngs Moduli (GPa) = 75.36656 58.80029 70.54155
#
# Poissons Ratio (x) = 0.38668 0.23793
# Poissons Ratio (y) = 0.49562 0.29268
# Poissons Ratio (z) = 0.25420 0.24396
#
# Static dielectric constant tensor:
#      x y z
#    x 3.598520 0.000000 0.000000 
#    y 0.000000 3.497200 0.000000 
#    z 0.000000 0.000000 3.383360 
# 
# 
# High freq. dielectric constant tensor:
#      x y z
#    x 1.733860 0.000000 0.000000 
#    y 0.000000 1.711320 0.000000 
#    z 0.000000 0.000000 1.722810 
# 
# From -- ./inp_files/27523.got.cif
#   From: 2010.03.12/outbox.cif.g09.slc.cpg/sg20_14_cif.got.tgz:27523.got - 2010.04.14 01:38:04.
