data_PCOD8158336
_publ_section_title
;
Structure prediction by ZEFSAII (Michael W. Deem and Ramdas Pophale) SiO2 
 PCOD8158336
Probable space group: C 2 2 21
;
_chemical_formula_sum "Si O2"
_cell_formula_units_Z 64
_cell_length_a 9.061320
_cell_length_b 19.521063
_cell_length_c 18.933519
_cell_angle_alpha 90.000000
_cell_angle_beta 90.000000
_cell_angle_gamma 90.000000
_cell_volume 3349.085775
_symmetry_space_group_name_H-M "C 2 2 21"
_symmetry_group_IT_number 20
_symmetry_cell_setting 'orthorhombic'
loop_
_space_group_symop_operation_xyz
x,y,z
-x,-y,1/2+z
x,-y,-z
-x,y,1/2-z
1/2+x,1/2+y,z
1/2-x,1/2-y,1/2+z
1/2+x,1/2-y,-z
1/2-x,1/2+y,1/2-z
loop_
_atom_site_type_symbol
_atom_site_label
_atom_site_fract_x
_atom_site_fract_y
_atom_site_fract_z
Si Si1 0.468424 0.858233 0.567227
Si Si2 0.968915 0.295763 0.422381
Si Si3 0.828623 0.797583 0.240065
Si Si4 0.225517 0.776997 0.634342
Si Si5 0.735383 0.984307 0.916684
Si Si6 0.961613 0.901448 0.827798
Si Si7 0.764424 0.187280 0.371983
Si Si8 0.109003 0.599093 0.813047
O O1 0.463340 0.851381 0.483367
O O2 0.381704 0.794430 0.600023
O O3 0.390852 0.927737 0.588944
O O4 0.635377 0.856828 0.593138
O O5 0.827680 0.245161 0.425175
O O6 0.976793 0.337974 0.349433
O O7 0.113500 0.247711 0.426745
O O8 0.752241 0.786452 0.314981
O O9 0.796061 0.728727 0.195332
O O10 0.762944 0.869263 0.213570
O O11 0.000000 0.808980 0.250000
O O12 0.157195 0.840404 0.678401
O O13 0.889199 0.959203 0.879692
O O14 0.660219 0.044340 0.871427
O O15 0.767856 0.000000 0.000000
O O16 0.000000 0.931989 0.750000
O O17 0.113118 0.870263 0.857178
O O18 0.000000 0.570731 0.750000
#
# Coordination Sequence:
#
# PCOD8158336 Si02
#       8
#     8   8   8   8   8   8   8   8
#     4  11  21  38  61  89 123 160 198 256 307 376
#     4  10  20  36  61  88 125 153 199 246 319 378
#     4  11  20  36  61  94 129 150 194 262 314 380
#     4  10  19  34  61  92 121 153 191 250 323 370
#     4  11  25  45  63  84 125 177 222 255 306 369
#     4  10  21  38  64  89 120 160 203 257 308 372
#     4  10  21  34  61  97 120 149 199 253 318 372
#     4  11  23  41  64  86 118 174 214 253 307 376
#
# _framework density 19.109691999999999
#
# number of rings (size 3 to 8) (size 9 to 14) (size 15 to 20)
#    0.000    1.500    5.000    0.750    0.000    1.500 
#    0.000    0.625    2.750    0.000    0.000    0.000 
#    0.000    0.000    0.000    0.000    0.000    0.000 
#
# Total GULP energy -396528.771251 kJ/mol
# GULP energy per Si atom -12391.524102 kJ/mol
# Density = 1.906620 g / cm^3
# Si number density = 19.109692 Si / 1000 Ang^3
#
#
#
# Elastic Constant Matrix: (Units=GPa)
#
#
# Indices 1 2 3 4 5 6 
#
# 1 135.4129 41.6831 52.5281 0.0000 0.0000 0.0000
# 2 41.6831 79.5337 40.6026 0.0000 0.0000 0.0000
# 3 52.5281 40.6026 105.5700 0.0000 0.0000 0.0000
# 4 0.0000 0.0000 0.0000 62.1664 0.0000 0.0000
# 5 0.0000 0.0000 0.0000 0.0000 26.7584 0.0000
# 6 0.0000 0.0000 0.0000 0.0000 0.0000 23.6940
#
#
#
# Elastic Compliance Matrix: (Units=1/GPa)
#
#
# Indices 1 2 3 4 5 6 
#
# 1 0.009798 -0.003293 -0.003609 0.000000 0.000000 0.000000
# 2 -0.003293 0.016752 -0.004804 0.000000 0.000000 0.000000
# 3 -0.003609 -0.004804 0.013116 0.000000 0.000000 0.000000
# 4 0.000000 0.000000 0.000000 0.016086 0.000000 0.000000
# 5 0.000000 0.000000 0.000000 0.000000 0.037371 0.000000
# 6 0.000000 0.000000 0.000000 0.000000 0.000000 0.042205
#
#
# Mechanical properties :
#
#
# Convention : Reuss Voigt Hill
#
# Bulk Modulus (GPa) = 61.52455 65.57158 63.54806
# Shear Modulus (GPa) = 30.45844 34.90396 32.68120
#
# Velocity S-wave (km/s) = 3.99667 4.27840 4.13993
# Velocity P-wave (km/s) = 7.31869 7.66773 7.49524
#
# Compressibility (1/GPa) = 0.01625367
#
# Stress axis : x y z
#
# Youngs Moduli (GPa) = 102.05782 59.69538 76.24385
#
# Poissons Ratio (x) = 0.19657 0.27516
# Poissons Ratio (y) = 0.33607 0.36630
# Poissons Ratio (z) = 0.36831 0.28680
#
# Static dielectric constant tensor:
#      x y z
#    x 3.406740 0.000000 0.000000 
#    y 0.000000 3.289550 0.000000 
#    z 0.000000 0.000000 3.516800 
# 
# 
# High freq. dielectric constant tensor:
#      x y z
#    x 1.751260 0.000000 0.000000 
#    y 0.000000 1.725140 0.000000 
#    z 0.000000 0.000000 1.743510 
# 
# From -- ./inp_files/26949.got.cif
#   From: 2010.03.12/outbox.cif.g09.slc.cpg/sg20_14_cif.got.tgz:26949.got - 2010.04.14 01:38:04.
