data_PCOD8158245
_publ_section_title
;
Structure prediction by ZEFSAII (Michael W. Deem and Ramdas Pophale) SiO2 
 PCOD8158245
Probable space group: C 2 2 21
;
_chemical_formula_sum "Si O2"
_cell_formula_units_Z 56
_cell_length_a 26.893217
_cell_length_b 24.003367
_cell_length_c 5.174801
_cell_angle_alpha 90.000000
_cell_angle_beta 90.000000
_cell_angle_gamma 90.000000
_cell_volume 3340.477685
_symmetry_space_group_name_H-M "C 2 2 21"
_symmetry_group_IT_number 20
_symmetry_cell_setting 'orthorhombic'
loop_
_space_group_symop_operation_xyz
x,y,z
-x,-y,1/2+z
x,-y,-z
-x,y,1/2-z
1/2+x,1/2+y,z
1/2-x,1/2-y,1/2+z
1/2+x,1/2-y,-z
1/2-x,1/2+y,1/2-z
loop_
_atom_site_type_symbol
_atom_site_label
_atom_site_fract_x
_atom_site_fract_y
_atom_site_fract_z
Si Si1 0.524593 0.731030 0.002735
Si Si2 0.692667 0.226786 0.467376
Si Si3 0.223923 0.168897 0.277227
Si Si4 0.523333 0.604190 0.998668
Si Si5 0.642417 0.738323 0.050007
Si Si6 0.190170 0.937593 0.475815
Si Si7 0.128250 0.062404 0.028005
O O1 0.500000 0.761474 0.250000
O O2 0.583790 0.731830 0.028578
O O3 0.500000 0.760376 0.750000
O O4 0.505191 0.667776 0.999328
O O5 0.729013 0.174024 0.417091
O O6 0.728425 0.281050 0.511789
O O7 0.657493 0.218200 0.719701
O O8 0.658151 0.237051 0.222454
O O9 0.171149 0.179140 0.119674
O O10 0.228318 0.110310 0.429747
O O11 0.500000 0.573496 0.750000
O O12 0.582880 0.603841 0.983463
O O13 0.500000 0.573979 0.250000
O O14 0.172080 0.926053 0.182482
O O15 0.213781 0.000000 0.500000
O O16 0.145127 0.931606 0.676495
O O17 0.107810 0.000000 0.000000
#
# Coordination Sequence:
#
# PCOD8158245 Si02
#       7
#     8   8   8   8   8   8   8
#     4  10  20  31  43  62  89 117 152 189 231 292
#     4  10  20  30  48  76  88 119 148 200 248 283
#     4  10  20  32  52  69 101 111 160 197 246 290
#     4  10  20  30  44  62  79 108 151 197 250 285
#     4  10  19  31  47  69  91 120 153 192 251 279
#     4  10  22  33  49  67  89 123 150 188 238 293
#     4  10  21  35  45  62  83 112 158 193 242 291
#
# _framework density 16.764068999999999
#
# number of rings (size 3 to 8) (size 9 to 14) (size 15 to 20)
#    0.857    1.143    1.429    2.571    4.000    1.714 
#    0.000    0.000    0.000    0.000    0.000    0.000 
#    0.000    0.000    0.000    0.000    0.000    4.286 
#
# Total GULP energy -346865.504888 kJ/mol
# GULP energy per Si atom -12388.053746 kJ/mol
# Density = 1.672591 g / cm^3
# Si number density = 16.764069 Si / 1000 Ang^3
#
#
#
# Elastic Constant Matrix: (Units=GPa)
#
#
# Indices 1 2 3 4 5 6 
#
# 1 66.4343 16.6113 34.4218 0.0000 0.0000 0.0000
# 2 16.6113 41.7383 9.6323 0.0000 0.0000 0.0000
# 3 34.4218 9.6323 122.0360 0.0000 0.0000 0.0000
# 4 0.0000 0.0000 0.0000 14.5970 0.0000 0.0000
# 5 0.0000 0.0000 0.0000 0.0000 27.5450 0.0000
# 6 0.0000 0.0000 0.0000 0.0000 0.0000 17.6549
#
#
#
# Elastic Compliance Matrix: (Units=1/GPa)
#
#
# Indices 1 2 3 4 5 6 
#
# 1 0.019226 -0.006519 -0.004908 0.000000 0.000000 0.000000
# 2 -0.006519 0.026614 -0.000262 0.000000 0.000000 0.000000
# 3 -0.004908 -0.000262 0.009599 0.000000 0.000000 0.000000
# 4 0.000000 0.000000 0.000000 0.068507 0.000000 0.000000
# 5 0.000000 0.000000 0.000000 0.000000 0.036304 0.000000
# 6 0.000000 0.000000 0.000000 0.000000 0.000000 0.056641
#
#
# Mechanical properties :
#
#
# Convention : Reuss Voigt Hill
#
# Bulk Modulus (GPa) = 31.19091 39.05996 35.12543
# Shear Modulus (GPa) = 19.92379 23.26227 21.59303
#
# Velocity S-wave (km/s) = 3.45118 3.72913 3.59284
# Velocity P-wave (km/s) = 5.87597 6.47242 6.18139
#
# Compressibility (1/GPa) = 0.03206062
#
# Stress axis : x y z
#
# Youngs Moduli (GPa) = 52.01403 37.57472 104.17297
#
# Poissons Ratio (x) = 0.24494 0.51131
# Poissons Ratio (y) = 0.33907 0.02728
# Poissons Ratio (z) = 0.25530 0.00984
#
# Static dielectric constant tensor:
#      x y z
#    x 2.839220 0.000000 0.000000 
#    y 0.000000 2.849020 0.000000 
#    z 0.000000 0.000000 3.607580 
# 
# 
# High freq. dielectric constant tensor:
#      x y z
#    x 1.617270 0.000000 0.000000 
#    y 0.000000 1.584490 0.000000 
#    z 0.000000 0.000000 1.678650 
# 
# From -- ./inp_files/4364.got.cif
#   From: 2010.03.12/outbox.cif.g09.slc.cpg/sg20_3_cif.got.tgz:4364.got - 2010.04.14 01:38:04.
