data_PCOD8158514
_publ_section_title
;
Structure prediction by ZEFSAII (Michael W. Deem and Ramdas Pophale) SiO2 
 PCOD8158514
Probable space group: C 2 2 21
;
_chemical_formula_sum "Si O2"
_cell_formula_units_Z 56
_cell_length_a 22.577619
_cell_length_b 11.512000
_cell_length_c 10.665956
_cell_angle_alpha 90.000000
_cell_angle_beta 90.000000
_cell_angle_gamma 90.000000
_cell_volume 2772.226487
_symmetry_space_group_name_H-M "C 2 2 21"
_symmetry_group_IT_number 20
_symmetry_cell_setting 'orthorhombic'
loop_
_space_group_symop_operation_xyz
x,y,z
-x,-y,1/2+z
x,-y,-z
-x,y,1/2-z
1/2+x,1/2+y,z
1/2-x,1/2-y,1/2+z
1/2+x,1/2-y,-z
1/2-x,1/2+y,1/2-z
loop_
_atom_site_type_symbol
_atom_site_label
_atom_site_fract_x
_atom_site_fract_y
_atom_site_fract_z
Si Si1 0.770528 0.125332 0.955165
Si Si2 0.124276 0.051585 0.707686
Si Si3 0.368085 0.288970 0.867223
Si Si4 0.000000 0.589398 0.250000
Si Si5 0.565094 0.000000 0.000000
Si Si6 0.046031 0.229167 0.581961
Si Si7 0.075790 0.122532 0.962789
Si Si8 0.356059 0.202228 0.607036
O O1 0.812919 0.101642 0.837121
O O2 0.713700 0.199869 0.919684
O O3 0.806213 0.198856 0.059167
O O4 0.748078 0.000000 0.000000
O O5 0.071550 0.106808 0.626556
O O6 0.118382 0.097071 0.846981
O O7 0.115842 0.914821 0.688928
O O8 0.363231 0.193514 0.757291
O O9 0.420117 0.236655 0.954524
O O10 0.051850 0.670199 0.311955
O O11 0.973519 0.517943 0.370758
O O12 0.607933 0.107390 0.971420
O O13 0.975938 0.215810 0.559312
O O14 0.119579 0.171498 0.068441
O O15 0.046244 0.000000 0.000000
#
# Coordination Sequence:
#
# PCOD8158514 Si02
#       8
#     8   8   8   4   4   8   8   8
#     4   9  21  41  63  85 126 172 216 263 323 392
#     4  10  19  40  62  92 129 164 208 264 333 391
#     4  10  23  39  65  98 127 169 216 278 333 395
#     4  12  26  46  66  94 130 178 228 274 318 398
#     4  12  28  46  66  92 134 186 228 274 324 396
#     4  11  21  41  65  93 126 169 209 264 341 391
#     4  12  22  36  62  99 131 161 208 269 327 397
#     4  12  24  42  63  95 130 176 224 271 332 386
#
# _framework density 20.200368999999998
#
# number of rings (size 3 to 8) (size 9 to 14) (size 15 to 20)
#    0.000    1.143    5.000    2.143    4.000    0.571 
#    0.000    0.000    0.000    0.000    0.000    0.000 
#    0.000    0.000    0.000    0.000    0.000    0.000 
#
# Total GULP energy -347017.065079 kJ/mol
# GULP energy per Si atom -12393.466610 kJ/mol
# Density = 2.015439 g / cm^3
# Si number density = 20.200369 Si / 1000 Ang^3
#
#
#
# Elastic Constant Matrix: (Units=GPa)
#
#
# Indices 1 2 3 4 5 6 
#
# 1 105.0440 36.1386 52.0883 0.0000 0.0000 0.0000
# 2 36.1386 47.4101 32.2023 0.0000 0.0000 0.0000
# 3 52.0883 32.2023 145.0520 0.0000 0.0000 0.0000
# 4 0.0000 0.0000 0.0000 34.7361 0.0000 0.0000
# 5 0.0000 0.0000 0.0000 0.0000 25.4997 0.0000
# 6 0.0000 0.0000 0.0000 0.0000 0.0000 15.3206
#
#
#
# Elastic Compliance Matrix: (Units=1/GPa)
#
#
# Indices 1 2 3 4 5 6 
#
# 1 0.014018 -0.008556 -0.003134 0.000000 0.000000 0.000000
# 2 -0.008556 0.030060 -0.003601 0.000000 0.000000 0.000000
# 3 -0.003134 -0.003601 0.008819 0.000000 0.000000 0.000000
# 4 0.000000 0.000000 0.000000 0.028788 0.000000 0.000000
# 5 0.000000 0.000000 0.000000 0.000000 0.039216 0.000000
# 6 0.000000 0.000000 0.000000 0.000000 0.000000 0.065271
#
#
# Mechanical properties :
#
#
# Convention : Reuss Voigt Hill
#
# Bulk Modulus (GPa) = 44.81443 59.81827 52.31635
# Shear Modulus (GPa) = 22.30212 26.91642 24.60927
#
# Velocity S-wave (km/s) = 3.32632 3.65426 3.49414
# Velocity P-wave (km/s) = 6.08159 6.89069 6.49874
#
# Compressibility (1/GPa) = 0.02231424
#
# Stress axis : x y z
#
# Youngs Moduli (GPa) = 71.33902 33.26632 113.39103
#
# Poissons Ratio (x) = 0.28463 0.35539
# Poissons Ratio (y) = 0.61038 0.40833
# Poissons Ratio (z) = 0.22359 0.11979
#
# Static dielectric constant tensor:
#      x y z
#    x 3.550160 0.000000 0.000000 
#    y 0.000000 3.607270 0.000000 
#    z 0.000000 0.000000 5.642060 
# 
# 
# High freq. dielectric constant tensor:
#      x y z
#    x 1.778630 0.000000 0.000000 
#    y 0.000000 1.776620 0.000000 
#    z 0.000000 0.000000 1.804380 
# 
# From -- ./inp_files/16770.got.cif
#   From: 2010.03.12/outbox.cif.g09.slc.cpg/sg20_9_cif.got.tgz:16770.got - 2010.04.14 01:38:04.
