data_PCOD8158812
_publ_section_title
;
Structure prediction by ZEFSAII (Michael W. Deem and Ramdas Pophale) SiO2 
 PCOD8158812
Probable space group: C 2 2 21
;
_chemical_formula_sum "Si O2"
_cell_formula_units_Z 40
_cell_length_a 20.211730
_cell_length_b 8.610218
_cell_length_c 11.176345
_cell_angle_alpha 90.000000
_cell_angle_beta 90.000000
_cell_angle_gamma 90.000000
_cell_volume 1944.990278
_symmetry_space_group_name_H-M "C 2 2 21"
_symmetry_group_IT_number 20
_symmetry_cell_setting 'orthorhombic'
loop_
_space_group_symop_operation_xyz
x,y,z
-x,-y,1/2+z
x,-y,-z
-x,y,1/2-z
1/2+x,1/2+y,z
1/2-x,1/2-y,1/2+z
1/2+x,1/2-y,-z
1/2-x,1/2+y,1/2-z
loop_
_atom_site_type_symbol
_atom_site_label
_atom_site_fract_x
_atom_site_fract_y
_atom_site_fract_z
Si Si1 0.858055 0.714905 0.301364
Si Si2 0.785668 0.713784 0.708855
Si Si3 0.500000 0.753330 0.250000
Si Si4 0.609478 0.545355 0.135263
Si Si5 0.316725 0.000000 0.500000
Si Si6 0.607704 0.044437 0.636493
O O1 0.781818 0.726093 0.263292
O O2 0.890662 0.883463 0.293906
O O3 0.861881 0.629209 0.431686
O O4 0.900228 0.615287 0.208319
O O5 0.773532 0.589997 0.600627
O O6 0.828611 0.637545 0.814929
O O7 0.822214 0.864954 0.657373
O O8 0.547513 0.648278 0.171212
O O9 0.458798 0.856821 0.156123
O O10 0.602707 0.500000 0.000000
O O11 0.618805 0.000000 0.500000
#
# Coordination Sequence:
#
# PCOD8158812 Si02
#       6
#     8   8   4   8   4   8
#     4  11  23  38  68  97 128 171 209 257 337 383
#     4  10  22  40  64 101 128 168 207 260 326 395
#     4  10  26  44  62  94 124 170 230 266 312 372
#     4  11  22  42  67  91 129 166 218 267 314 376
#     4  10  20  38  60  92 130 166 204 250 314 396
#     4  10  24  44  64  92 133 170 215 268 319 380
#
# _framework density 20.565656000000001
#
# number of rings (size 3 to 8) (size 9 to 14) (size 15 to 20)
#    0.000    1.600    2.000    2.400    2.800    5.600 
#    3.600    0.000    0.000    0.000    0.000    0.000 
#    0.000    0.000    0.000    0.000    0.000    0.000 
#
# Total GULP energy -247998.501290 kJ/mol
# GULP energy per Si atom -12399.925065 kJ/mol
# Density = 2.051885 g / cm^3
# Si number density = 20.565656 Si / 1000 Ang^3
#
#
#
# Elastic Constant Matrix: (Units=GPa)
#
#
# Indices 1 2 3 4 5 6 
#
# 1 99.4848 59.0623 46.0745 0.0000 0.0000 0.0000
# 2 59.0623 158.3892 58.7648 0.0000 0.0000 0.0000
# 3 46.0745 58.7648 146.5836 0.0000 0.0000 0.0000
# 4 0.0000 0.0000 0.0000 34.2413 0.0000 0.0000
# 5 0.0000 0.0000 0.0000 0.0000 21.7232 0.0000
# 6 0.0000 0.0000 0.0000 0.0000 0.0000 12.9579
#
#
#
# Elastic Compliance Matrix: (Units=1/GPa)
#
#
# Indices 1 2 3 4 5 6 
#
# 1 0.013740 -0.004136 -0.002660 0.000000 0.000000 0.000000
# 2 -0.004136 0.008662 -0.002172 0.000000 0.000000 0.000000
# 3 -0.002660 -0.002172 0.008529 0.000000 0.000000 0.000000
# 4 0.000000 0.000000 0.000000 0.029204 0.000000 0.000000
# 5 0.000000 0.000000 0.000000 0.000000 0.046034 0.000000
# 6 0.000000 0.000000 0.000000 0.000000 0.000000 0.077173
#
#
# Mechanical properties :
#
#
# Convention : Reuss Voigt Hill
#
# Bulk Modulus (GPa) = 76.96801 81.36229 79.16515
# Shear Modulus (GPa) = 24.31773 29.82154 27.06963
#
# Velocity S-wave (km/s) = 3.44240 3.81210 3.63196
# Velocity P-wave (km/s) = 7.30116 7.68273 7.49437
#
# Compressibility (1/GPa) = 0.01299241
#
# Stress axis : x y z
#
# Youngs Moduli (GPa) = 72.78242 115.44717 117.24453
#
# Poissons Ratio (x) = 0.47753 0.31192
# Poissons Ratio (y) = 0.30105 0.25470
# Poissons Ratio (z) = 0.19363 0.25080
#
# Static dielectric constant tensor:
#      x y z
#    x 3.501010 0.000000 0.000000 
#    y 0.000000 3.406200 0.000000 
#    z 0.000000 0.000000 3.751150 
# 
# 
# High freq. dielectric constant tensor:
#      x y z
#    x 1.779380 0.000000 0.000000 
#    y 0.000000 1.835870 0.000000 
#    z 0.000000 0.000000 1.807050 
# 
# From -- ./inp_files/12758.got.cif
#   From: 2010.03.12/outbox.cif.g09.slc.cpg/sg20_7_cif.got.tgz:12758.got - 2010.04.14 01:38:04.
