data_PCOD8158317
_publ_section_title
;
Structure prediction by ZEFSAII (Michael W. Deem and Ramdas Pophale) SiO2 
 PCOD8158317
Probable space group: C 2 2 21
;
_chemical_formula_sum "Si O2"
_cell_formula_units_Z 60
_cell_length_a 13.343641
_cell_length_b 15.049518
_cell_length_c 15.283608
_cell_angle_alpha 90.000000
_cell_angle_beta 90.000000
_cell_angle_gamma 90.000000
_cell_volume 3069.183325
_symmetry_space_group_name_H-M "C 2 2 21"
_symmetry_group_IT_number 20
_symmetry_cell_setting 'orthorhombic'
loop_
_space_group_symop_operation_xyz
x,y,z
-x,-y,1/2+z
x,-y,-z
-x,y,1/2-z
1/2+x,1/2+y,z
1/2-x,1/2-y,1/2+z
1/2+x,1/2-y,-z
1/2-x,1/2+y,1/2-z
loop_
_atom_site_type_symbol
_atom_site_label
_atom_site_fract_x
_atom_site_fract_y
_atom_site_fract_z
Si Si1 0.834533 0.259008 0.857580
Si Si2 0.772618 0.347259 0.029595
Si Si3 0.767300 0.299225 0.670397
Si Si4 0.941318 0.099359 0.498604
Si Si5 0.448567 0.600588 0.836902
Si Si6 0.928387 0.500000 0.000000
Si Si7 0.058319 0.890836 0.664598
Si Si8 0.480909 0.113087 0.347039
O O1 0.767576 0.289063 0.775422
O O2 0.843696 0.152182 0.847919
O O3 0.943272 0.304944 0.855107
O O4 0.786558 0.277323 0.951339
O O5 0.749316 0.294372 0.119347
O O6 0.861922 0.418893 0.039676
O O7 0.677562 0.402753 0.997347
O O8 0.670113 0.357577 0.651304
O O9 0.867624 0.350492 0.638806
O O10 0.980719 0.141612 0.587720
O O11 0.990386 0.146882 0.414658
O O12 0.983279 0.000000 0.500000
O O13 0.500000 0.636203 0.750000
O O14 0.431962 0.496521 0.833788
O O15 0.996472 0.537999 0.079211
O O16 0.000000 0.855972 0.750000
O O17 0.500000 0.070971 0.250000
#
# Coordination Sequence:
#
# PCOD8158317 Si02
#       8
#     8   8   8   8   8   4   8   8
#     4  10  20  37  59  86 117 153 199 240 294 360
#     4  11  21  37  63  89 119 157 202 245 298 366
#     4  11  22  39  60  88 118 160 201 244 305 362
#     4  10  19  34  56  84 114 144 190 243 289 346
#     4  10  19  35  57  82 111 147 193 238 290 343
#     4  10  22  42  62  92 120 164 208 250 304 364
#     4  10  22  38  58  85 121 150 188 252 300 341
#     4   9  20  41  62  84 123 162 201 250 298 368
#
# _framework density 19.549175000000002
#
# number of rings (size 3 to 8) (size 9 to 14) (size 15 to 20)
#    0.000    1.867    0.667    4.400    0.000    1.067 
#   15.600    0.667    0.000    0.000    0.000    0.000 
#    0.000    0.000    0.000    0.000    0.000    0.000 
#
# Total GULP energy -371744.162800 kJ/mol
# GULP energy per Si atom -12391.472093 kJ/mol
# Density = 1.950468 g / cm^3
# Si number density = 19.549175 Si / 1000 Ang^3
#
#
#
# Elastic Constant Matrix: (Units=GPa)
#
#
# Indices 1 2 3 4 5 6 
#
# 1 90.6706 21.1968 36.6137 0.0000 0.0000 0.0000
# 2 21.1968 60.0577 35.6459 0.0000 0.0000 0.0000
# 3 36.6137 35.6459 126.2307 0.0000 0.0000 0.0000
# 4 0.0000 0.0000 0.0000 -12.6073 0.0000 0.0000
# 5 0.0000 0.0000 0.0000 0.0000 28.4321 0.0000
# 6 0.0000 0.0000 0.0000 0.0000 0.0000 33.9458
#
#
#
# Elastic Compliance Matrix: (Units=1/GPa)
#
#
# Indices 1 2 3 4 5 6 
#
# 1 0.012871 -0.002795 -0.002944 0.000000 0.000000 0.000000
# 2 -0.002795 0.020610 -0.005009 0.000000 0.000000 0.000000
# 3 -0.002944 -0.005009 0.010190 0.000000 0.000000 0.000000
# 4 0.000000 0.000000 0.000000 -0.079319 0.000000 0.000000
# 5 0.000000 0.000000 0.000000 0.000000 0.035171 0.000000
# 6 0.000000 0.000000 0.000000 0.000000 0.000000 0.029459
#
#
# Mechanical properties :
#
#
# Convention : Reuss Voigt Hill
#
# Bulk Modulus (GPa) = 45.09636 51.54131 48.31883
# Shear Modulus (GPa) = 86.39734 22.18763 54.29249
#
# Velocity S-wave (km/s) = 6.65514 3.37258 5.27566
# Velocity P-wave (km/s) = 9.06491 6.44887 7.86640
#
# Compressibility (1/GPa) = 0.02217474
#
# Stress axis : x y z
#
# Youngs Moduli (GPa) = 77.69250 48.51911 98.13096
#
# Poissons Ratio (x) = 0.13563 0.28889
# Poissons Ratio (y) = 0.21719 0.49157
# Poissons Ratio (z) = 0.22872 0.24305
#
# Static dielectric constant tensor:
#      x y z
#    x 3.540400 0.000000 0.000000 
#    y 0.000000 3.350960 0.000000 
#    z 0.000000 0.000000 3.919140 
# 
# 
# High freq. dielectric constant tensor:
#      x y z
#    x 1.754990 0.000000 0.000000 
#    y 0.000000 1.746930 0.000000 
#    z 0.000000 0.000000 1.779460 
# 
# From -- ./inp_files/20251.got.cif
#   From: 2010.03.12/outbox.cif.g09.slc.cpg/sg20_11_cif.got.tgz:20251.got - 2010.04.14 01:38:04.
