data_PCOD8158484
_publ_section_title
;
Structure prediction by ZEFSAII (Michael W. Deem and Ramdas Pophale) SiO2 
 PCOD8158484
Probable space group: C 2 2 21
;
_chemical_formula_sum "Si O2"
_cell_formula_units_Z 52
_cell_length_a 12.423370
_cell_length_b 13.473203
_cell_length_c 16.394449
_cell_angle_alpha 90.000000
_cell_angle_beta 90.000000
_cell_angle_gamma 90.000000
_cell_volume 2744.145269
_symmetry_space_group_name_H-M "C 2 2 21"
_symmetry_group_IT_number 20
_symmetry_cell_setting 'orthorhombic'
loop_
_space_group_symop_operation_xyz
x,y,z
-x,-y,1/2+z
x,-y,-z
-x,y,1/2-z
1/2+x,1/2+y,z
1/2-x,1/2-y,1/2+z
1/2+x,1/2-y,-z
1/2-x,1/2+y,1/2-z
loop_
_atom_site_type_symbol
_atom_site_label
_atom_site_fract_x
_atom_site_fract_y
_atom_site_fract_z
Si Si1 0.203179 0.217544 0.350594
Si Si2 0.609284 0.165744 0.794424
Si Si3 0.000000 0.345372 0.750000
Si Si4 0.290253 0.962837 0.731373
Si Si5 0.423748 0.520103 0.325174
Si Si6 0.423891 0.697289 0.614921
Si Si7 0.980671 0.202950 0.429224
O O1 0.168166 0.251332 0.260063
O O2 0.245838 0.104922 0.342331
O O3 0.295110 0.290834 0.383293
O O4 0.106700 0.220959 0.414217
O O5 0.500000 0.132336 0.750000
O O6 0.587748 0.212887 0.882606
O O7 0.683707 0.069875 0.807111
O O8 0.896663 0.413178 0.769988
O O9 0.982097 0.277895 0.671058
O O10 0.201574 0.976522 0.801624
O O11 0.500000 0.553223 0.250000
O O12 0.457469 0.411150 0.354383
O O13 0.444369 0.594562 0.399547
O O14 0.463746 0.715090 0.524198
#
# Coordination Sequence:
#
# PCOD8158484 Si02
#       7
#     8   8   4   8   8   8   8
#     4  10  21  40  62  88 123 162 206 251 305 376
#     4  10  19  38  66  87 118 164 205 253 307 370
#     4  10  24  42  62  92 122 166 208 258 308 368
#     4  11  20  38  68  90 119 161 212 248 299 376
#     4  12  21  40  65  94 122 166 209 250 313 377
#     4  11  24  41  63  91 129 162 208 260 315 365
#     4  11  23  41  60  94 128 161 209 257 309 373
#
# _framework density 18.949434
#
# number of rings (size 3 to 8) (size 9 to 14) (size 15 to 20)
#    0.000    1.231    6.154    0.923    0.000    1.231 
#    2.769    3.077    0.000    0.000    0.000    0.000 
#    0.000    0.000    0.000    0.000    0.000    0.000 
#
# Total GULP energy -322522.396324 kJ/mol
# GULP energy per Si atom -12404.707551 kJ/mol
# Density = 1.890630 g / cm^3
# Si number density = 18.949434 Si / 1000 Ang^3
#
#
#
# Elastic Constant Matrix: (Units=GPa)
#
#
# Indices 1 2 3 4 5 6 
#
# 1 116.9014 36.3066 48.1490 0.0000 0.0000 0.0000
# 2 36.3066 104.0735 33.4500 0.0000 0.0000 0.0000
# 3 48.1490 33.4500 125.0673 0.0000 0.0000 0.0000
# 4 0.0000 0.0000 0.0000 19.1258 0.0000 0.0000
# 5 0.0000 0.0000 0.0000 0.0000 20.1298 0.0000
# 6 0.0000 0.0000 0.0000 0.0000 0.0000 33.3216
#
#
#
# Elastic Compliance Matrix: (Units=1/GPa)
#
#
# Indices 1 2 3 4 5 6 
#
# 1 0.010800 -0.002660 -0.003446 0.000000 0.000000 0.000000
# 2 -0.002660 0.011167 -0.001963 0.000000 0.000000 0.000000
# 3 -0.003446 -0.001963 0.009847 0.000000 0.000000 0.000000
# 4 0.000000 0.000000 0.000000 0.052286 0.000000 0.000000
# 5 0.000000 0.000000 0.000000 0.000000 0.049678 0.000000
# 6 0.000000 0.000000 0.000000 0.000000 0.000000 0.030011
#
#
# Mechanical properties :
#
#
# Convention : Reuss Voigt Hill
#
# Bulk Modulus (GPa) = 63.78940 64.65040 64.21990
# Shear Modulus (GPa) = 27.00487 29.72454 28.36470
#
# Velocity S-wave (km/s) = 3.77915 3.96488 3.87313
# Velocity P-wave (km/s) = 7.26489 7.42642 7.34610
#
# Compressibility (1/GPa) = 0.01567659
#
# Stress axis : x y z
#
# Youngs Moduli (GPa) = 92.59454 89.54675 101.54927
#
# Poissons Ratio (x) = 0.23818 0.34997
# Poissons Ratio (y) = 0.24629 0.19932
# Poissons Ratio (z) = 0.31911 0.17576
#
# Static dielectric constant tensor:
#      x y z
#    x 3.761380 0.000000 0.000000 
#    y 0.000000 3.584000 0.000000 
#    z 0.000000 0.000000 3.095000 
# 
# 
# High freq. dielectric constant tensor:
#      x y z
#    x 1.751260 0.000000 0.000000 
#    y 0.000000 1.753100 0.000000 
#    z 0.000000 0.000000 1.705220 
# 
# From -- ./inp_files/24380.got.cif
#   From: 2010.03.12/outbox.cif.g09.slc.cpg/sg20_13_cif.got.tgz:24380.got - 2010.04.14 01:38:04.
