data_PCOD8158072
_publ_section_title
;
Structure prediction by ZEFSAII (Michael W. Deem and Ramdas Pophale) SiO2 
 PCOD8158072
Probable space group: C 2 2 21
;
_chemical_formula_sum "Si O2"
_cell_formula_units_Z 64
_cell_length_a 20.864302
_cell_length_b 9.265227
_cell_length_c 17.423198
_cell_angle_alpha 90.000000
_cell_angle_beta 90.000000
_cell_angle_gamma 90.000000
_cell_volume 3368.121863
_symmetry_space_group_name_H-M "C 2 2 21"
_symmetry_group_IT_number 20
_symmetry_cell_setting 'orthorhombic'
loop_
_space_group_symop_operation_xyz
x,y,z
-x,-y,1/2+z
x,-y,-z
-x,y,1/2-z
1/2+x,1/2+y,z
1/2-x,1/2-y,1/2+z
1/2+x,1/2-y,-z
1/2-x,1/2+y,1/2-z
loop_
_atom_site_type_symbol
_atom_site_label
_atom_site_fract_x
_atom_site_fract_y
_atom_site_fract_z
Si Si1 0.358944 0.221634 0.162149
Si Si2 0.218257 0.798264 0.988851
Si Si3 0.174712 0.961209 0.125052
Si Si4 0.200632 0.560138 0.721280
Si Si5 0.250078 0.432091 0.121642
Si Si6 0.366797 0.160058 0.998774
Si Si7 0.149430 0.165200 0.357415
Si Si8 0.425035 0.549476 0.750269
O O1 0.292011 0.307064 0.162598
O O2 0.408836 0.287984 0.222410
O O3 0.346076 0.054217 0.180366
O O4 0.389217 0.237340 0.076931
O O5 0.218384 0.633002 0.956585
O O6 0.183779 0.896669 0.925561
O O7 0.180812 0.818204 0.070093
O O8 0.289783 0.854502 0.004364
O O9 0.226476 0.957963 0.193118
O O10 0.105156 0.970005 0.165471
O O11 0.197466 0.531492 0.813015
O O12 0.176690 0.720048 0.702729
O O13 0.292314 0.574214 0.103117
O O14 0.389263 0.254264 0.925763
O O15 0.396862 0.000000 0.000000
O O16 0.102042 0.061619 0.312621
O O17 0.500000 0.524266 0.750000
#
# Coordination Sequence:
#
# PCOD8158072 Si02
#       8
#     8   8   8   8   8   8   8   8
#     4  10  20  34  58  84 118 158 193 243 304 370
#     4  10  18  32  53  88 124 157 186 233 325 394
#     4  11  18  35  61  84 123 161 194 246 316 379
#     4  12  17  33  58  93 119 153 190 251 325 375
#     4  10  20  28  49  91 130 145 189 241 305 382
#     4  11  17  33  55  89 126 142 182 237 320 387
#     4  11  21  33  60  89 125 160 188 256 307 365
#     4  11  26  43  56  82 121 167 225 254 283 349
#
# _framework density 19.001688000000001
#
# number of rings (size 3 to 8) (size 9 to 14) (size 15 to 20)
#    0.000    1.250    8.750    1.500    0.000    4.500 
#    0.000    3.125    0.000    0.000    0.000    0.000 
#    0.000    0.000    0.000    0.000    0.000    0.000 
#
# Total GULP energy -396695.377554 kJ/mol
# GULP energy per Si atom -12396.730549 kJ/mol
# Density = 1.895844 g / cm^3
# Si number density = 19.001688 Si / 1000 Ang^3
#
#
#
# Elastic Constant Matrix: (Units=GPa)
#
#
# Indices 1 2 3 4 5 6 
#
# 1 65.4729 23.1576 22.7771 0.0000 0.0000 0.0000
# 2 23.1576 103.2744 33.8175 0.0000 0.0000 0.0000
# 3 22.7771 33.8175 90.2909 0.0000 0.0000 0.0000
# 4 0.0000 0.0000 0.0000 40.9754 0.0000 0.0000
# 5 0.0000 0.0000 0.0000 0.0000 14.1358 0.0000
# 6 0.0000 0.0000 0.0000 0.0000 0.0000 8.7741
#
#
#
# Elastic Compliance Matrix: (Units=1/GPa)
#
#
# Indices 1 2 3 4 5 6 
#
# 1 0.017432 -0.002814 -0.003343 0.000000 0.000000 0.000000
# 2 -0.002814 0.011491 -0.003594 0.000000 0.000000 0.000000
# 3 -0.003343 -0.003594 0.013265 0.000000 0.000000 0.000000
# 4 0.000000 0.000000 0.000000 0.024405 0.000000 0.000000
# 5 0.000000 0.000000 0.000000 0.000000 0.070742 0.000000
# 6 0.000000 0.000000 0.000000 0.000000 0.000000 0.113972
#
#
# Mechanical properties :
#
#
# Convention : Reuss Voigt Hill
#
# Bulk Modulus (GPa) = 44.08240 46.50473 45.29357
# Shear Modulus (GPa) = 17.96164 24.72947 21.34555
#
# Velocity S-wave (km/s) = 3.07785 3.61145 3.35528
# Velocity P-wave (km/s) = 5.99003 6.47435 6.23690
#
# Compressibility (1/GPa) = 0.02268479
#
# Stress axis : x y z
#
# Youngs Moduli (GPa) = 57.36595 87.02648 75.38752
#
# Poissons Ratio (x) = 0.24489 0.25206
# Poissons Ratio (y) = 0.16143 0.27093
# Poissons Ratio (z) = 0.19180 0.31276
#
# Static dielectric constant tensor:
#      x y z
#    x 2.797400 0.000000 0.000000 
#    y 0.000000 3.676900 0.000000 
#    z 0.000000 0.000000 3.781420 
# 
# 
# High freq. dielectric constant tensor:
#      x y z
#    x 1.646410 0.000000 0.000000 
#    y 0.000000 1.752170 0.000000 
#    z 0.000000 0.000000 1.760950 
# 
# From -- ./inp_files/25492.got.cif
#   From: 2010.03.12/outbox.cif.g09.slc.cpg/sg20_13_cif.got.tgz:25492.got - 2010.04.14 01:38:04.
