data_PCOD8158963
_publ_section_title
;
Structure prediction by ZEFSAII (Michael W. Deem and Ramdas Pophale) SiO2 
 PCOD8158963
Probable space group: C 2 2 21
;
_chemical_formula_sum "Si O2"
_cell_formula_units_Z 64
_cell_length_a 11.836335
_cell_length_b 14.852295
_cell_length_c 17.174404
_cell_angle_alpha 90.000000
_cell_angle_beta 90.000000
_cell_angle_gamma 90.000000
_cell_volume 3019.204220
_symmetry_space_group_name_H-M "C 2 2 21"
_symmetry_group_IT_number 20
_symmetry_cell_setting 'orthorhombic'
loop_
_space_group_symop_operation_xyz
x,y,z
-x,-y,1/2+z
x,-y,-z
-x,y,1/2-z
1/2+x,1/2+y,z
1/2-x,1/2-y,1/2+z
1/2+x,1/2-y,-z
1/2-x,1/2+y,1/2-z
loop_
_atom_site_type_symbol
_atom_site_label
_atom_site_fract_x
_atom_site_fract_y
_atom_site_fract_z
Si Si1 0.142558 0.800705 0.941077
Si Si2 0.514603 0.678521 0.835739
Si Si3 0.360292 0.152785 0.144053
Si Si4 0.056284 0.475259 0.911910
Si Si5 0.759702 0.674160 0.438375
Si Si6 0.736704 0.760990 0.783814
Si Si7 0.403276 0.844442 0.314028
Si Si8 0.449440 0.598866 0.986048
O O1 0.259388 0.850320 0.918493
O O2 0.089801 0.735319 0.876100
O O3 0.158043 0.747719 0.022141
O O4 0.048533 0.876393 0.954068
O O5 0.500000 0.636317 0.750000
O O6 0.421606 0.751793 0.859432
O O7 0.634119 0.726229 0.836826
O O8 0.499679 0.601026 0.898884
O O9 0.447925 0.071020 0.130613
O O10 0.302438 0.153937 0.230217
O O11 0.165092 0.412473 0.917188
O O12 0.094364 0.561110 0.859857
O O13 0.018441 0.500000 0.000000
O O14 0.692367 0.702275 0.358189
O O15 0.662871 0.658335 0.502614
O O16 0.789395 0.677488 0.735604
O O17 0.500000 0.838643 0.250000
O O18 0.405736 0.500000 0.000000
#
# Coordination Sequence:
#
# PCOD8158963 Si02
#       8
#     8   8   8   8   8   8   8   8
#     4  11  23  46  69  94 136 187 229 274 349 426
#     4  10  20  40  68  93 126 175 230 267 337 404
#     4  10  22  41  71  99 132 178 230 284 332 415
#     4  12  25  41  67 111 143 175 233 299 356 397
#     4  12  23  41  73  98 136 183 234 280 347 416
#     4  10  22  42  71  95 132 185 228 272 346 412
#     4  11  26  44  67 104 144 180 229 288 354 418
#     4  12  26  43  66 100 136 175 227 286 338 408
#
# _framework density 21.197638999999999
#
# number of rings (size 3 to 8) (size 9 to 14) (size 15 to 20)
#    0.000    1.000    5.000    1.125    1.750    1.500 
#    2.250    3.125    0.000    0.000    0.000    0.000 
#    0.000    0.000    0.000    0.000    0.000    0.000 
#
# Total GULP energy -396482.460350 kJ/mol
# GULP energy per Si atom -12390.076886 kJ/mol
# Density = 2.114939 g / cm^3
# Si number density = 21.197639 Si / 1000 Ang^3
#
#
#
# Elastic Constant Matrix: (Units=GPa)
#
#
# Indices 1 2 3 4 5 6 
#
# 1 87.4602 15.0618 31.0768 0.0000 0.0000 0.0000
# 2 15.0618 58.3826 40.0784 0.0000 0.0000 0.0000
# 3 31.0768 40.0784 147.4612 0.0000 0.0000 0.0000
# 4 0.0000 0.0000 0.0000 27.9440 0.0000 0.0000
# 5 0.0000 0.0000 0.0000 0.0000 36.4082 0.0000
# 6 0.0000 0.0000 0.0000 0.0000 0.0000 28.5056
#
#
#
# Elastic Compliance Matrix: (Units=1/GPa)
#
#
# Indices 1 2 3 4 5 6 
#
# 1 0.012502 -0.001742 -0.002161 0.000000 0.000000 0.000000
# 2 -0.001742 0.021300 -0.005422 0.000000 0.000000 0.000000
# 3 -0.002161 -0.005422 0.008711 0.000000 0.000000 0.000000
# 4 0.000000 0.000000 0.000000 0.035786 0.000000 0.000000
# 5 0.000000 0.000000 0.000000 0.000000 0.027466 0.000000
# 6 0.000000 0.000000 0.000000 0.000000 0.000000 0.035081
#
#
# Mechanical properties :
#
#
# Convention : Reuss Voigt Hill
#
# Bulk Modulus (GPa) = 41.90720 51.74865 46.82793
# Shear Modulus (GPa) = 29.85985 32.37737 31.11861
#
# Velocity S-wave (km/s) = 3.75726 3.91244 3.83563
# Velocity P-wave (km/s) = 6.21573 6.69889 6.46183
#
# Compressibility (1/GPa) = 0.02386225
#
# Stress axis : x y z
#
# Youngs Moduli (GPa) = 79.98940 46.94883 114.80273
#
# Poissons Ratio (x) = 0.08176 0.24813
# Poissons Ratio (y) = 0.13930 0.62247
# Poissons Ratio (z) = 0.17288 0.25456
#
# Static dielectric constant tensor:
#      x y z
#    x 3.860920 0.000000 0.000000 
#    y 0.000000 3.532890 0.000000 
#    z 0.000000 0.000000 4.403910 
# 
# 
# High freq. dielectric constant tensor:
#      x y z
#    x 1.835530 0.000000 0.000000 
#    y 0.000000 1.796820 0.000000 
#    z 0.000000 0.000000 1.861000 
# 
# From -- ./inp_files/24465.got.cif
#   From: 2010.03.12/outbox.cif.g09.slc.cpg/sg20_13_cif.got.tgz:24465.got - 2010.04.14 01:38:04.
