data_PCOD8158094
_publ_section_title
;
Structure prediction by ZEFSAII (Michael W. Deem and Ramdas Pophale) SiO2 
 PCOD8158094
Probable space group: C 2 2 21
;
_chemical_formula_sum "Si O2"
_cell_formula_units_Z 48
_cell_length_a 29.693552
_cell_length_b 8.633268
_cell_length_c 7.864257
_cell_angle_alpha 90.000000
_cell_angle_beta 90.000000
_cell_angle_gamma 90.000000
_cell_volume 2016.021096
_symmetry_space_group_name_H-M "C 2 2 21"
_symmetry_group_IT_number 20
_symmetry_cell_setting 'orthorhombic'
loop_
_space_group_symop_operation_xyz
x,y,z
-x,-y,1/2+z
x,-y,-z
-x,y,1/2-z
1/2+x,1/2+y,z
1/2-x,1/2-y,1/2+z
1/2+x,1/2-y,-z
1/2-x,1/2+y,1/2-z
loop_
_atom_site_type_symbol
_atom_site_label
_atom_site_fract_x
_atom_site_fract_y
_atom_site_fract_z
Si Si1 0.428625 0.818192 0.525046
Si Si2 0.477195 0.162484 0.936225
Si Si3 0.302085 0.140906 0.742781
Si Si4 0.214486 0.301418 0.849546
Si Si5 0.363856 0.595048 0.674906
Si Si6 0.607866 0.299354 0.680568
O O1 0.481804 0.788596 0.561955
O O2 0.399520 0.737860 0.673291
O O3 0.416112 0.724649 0.359017
O O4 0.417044 0.000000 0.500000
O O5 0.500000 0.146585 0.750000
O O6 0.432937 0.271177 0.952715
O O7 0.457829 0.000000 0.000000
O O8 0.265685 0.244503 0.842225
O O9 0.302437 0.181589 0.543147
O O10 0.349716 0.182043 0.831491
O O11 0.291400 0.958646 0.759554
O O12 0.183569 0.168213 0.767517
O O13 0.358662 0.500000 0.500000
O O14 0.376642 0.478392 0.827597
#
# Coordination Sequence:
#
# PCOD8158094 Si02
#       6
#     8   8   8   8   8   8
#     4   9  16  31  60  88 116 156 211 251 295 366
#     4   9  19  36  61  93 125 159 208 258 313 369
#     4  11  23  39  63  91 129 155 212 251 315 366
#     4  11  23  39  62  94 120 168 203 259 301 382
#     4  10  18  32  61  89 121 159 211 247 301 368
#     4  10  19  34  58  90 123 165 199 259 304 366
#
# _framework density 23.809273999999998
#
# number of rings (size 3 to 8) (size 9 to 14) (size 15 to 20)
#    0.000    2.000    3.333    2.000    0.000    0.000 
#    3.000    0.000    0.000   88.000   30.333    0.000 
#    0.000    0.000    0.000    0.000    0.000    0.000 
#
# Total GULP energy -297394.090930 kJ/mol
# GULP energy per Si atom -12391.420455 kJ/mol
# Density = 2.375508 g / cm^3
# Si number density = 23.809274 Si / 1000 Ang^3
#
#
#
# Elastic Constant Matrix: (Units=GPa)
#
#
# Indices 1 2 3 4 5 6 
#
# 1 177.3711 71.5776 -0.2744 0.0000 0.0000 0.0000
# 2 71.5776 153.2715 2.7921 0.0000 0.0000 0.0000
# 3 -0.2744 2.7921 12.5414 0.0000 0.0000 0.0000
# 4 0.0000 0.0000 0.0000 19.0043 0.0000 0.0000
# 5 0.0000 0.0000 0.0000 0.0000 11.7840 0.0000
# 6 0.0000 0.0000 0.0000 0.0000 0.0000 34.1742
#
#
#
# Elastic Compliance Matrix: (Units=1/GPa)
#
#
# Indices 1 2 3 4 5 6 
#
# 1 0.006957 -0.003265 0.000879 0.000000 0.000000 0.000000
# 2 -0.003265 0.008083 -0.001871 0.000000 0.000000 0.000000
# 3 0.000879 -0.001871 0.080172 0.000000 0.000000 0.000000
# 4 0.000000 0.000000 0.000000 0.052620 0.000000 0.000000
# 5 0.000000 0.000000 0.000000 0.000000 0.084861 0.000000
# 6 0.000000 0.000000 0.000000 0.000000 0.000000 0.029262
#
#
# Mechanical properties :
#
#
# Convention : Reuss Voigt Hill
#
# Bulk Modulus (GPa) = 11.53429 54.59719 33.06574
# Shear Modulus (GPa) = 16.70192 30.93174 23.81683
#
# Velocity S-wave (km/s) = 2.65144 3.60828 3.16621
# Velocity P-wave (km/s) = 3.77206 6.35141 5.22345
#
# Compressibility (1/GPa) = 0.08669802
#
# Stress axis : x y z
#
# Youngs Moduli (GPa) = 143.74500 123.71464 12.47324
#
# Poissons Ratio (x) = 0.40391 -0.01096
# Poissons Ratio (y) = 0.46930 0.02334
# Poissons Ratio (z) = -0.12636 0.23147
#
# Static dielectric constant tensor:
#      x y z
#    x 4.810690 0.000000 0.000000 
#    y 0.000000 4.842530 0.000000 
#    z 0.000000 0.000000 3.966330 
# 
# 
# High freq. dielectric constant tensor:
#      x y z
#    x 1.962520 0.000000 0.000000 
#    y 0.000000 1.945830 0.000000 
#    z 0.000000 0.000000 1.903450 
# 
# From -- ./inp_files/11471.got.cif
#   From: 2010.03.12/outbox.cif.g09.slc.cpg/sg20_6_cif.got.tgz:11471.got - 2010.04.14 01:38:04.
