data_PCOD8158823
_publ_section_title
;
Structure prediction by ZEFSAII (Michael W. Deem and Ramdas Pophale) SiO2 
 PCOD8158823
Probable space group: C 2 2 21
;
_chemical_formula_sum "Si O2"
_cell_formula_units_Z 40
_cell_length_a 11.407858
_cell_length_b 8.420460
_cell_length_c 18.546274
_cell_angle_alpha 90.000000
_cell_angle_beta 90.000000
_cell_angle_gamma 90.000000
_cell_volume 1781.544175
_symmetry_space_group_name_H-M "C 2 2 21"
_symmetry_group_IT_number 20
_symmetry_cell_setting 'orthorhombic'
loop_
_space_group_symop_operation_xyz
x,y,z
-x,-y,1/2+z
x,-y,-z
-x,y,1/2-z
1/2+x,1/2+y,z
1/2-x,1/2-y,1/2+z
1/2+x,1/2-y,-z
1/2-x,1/2+y,1/2-z
loop_
_atom_site_type_symbol
_atom_site_label
_atom_site_fract_x
_atom_site_fract_y
_atom_site_fract_z
Si Si1 0.435256 0.665223 0.142077
Si Si2 0.785871 0.299674 0.552686
Si Si3 0.358596 0.880952 0.402046
Si Si4 0.735169 0.732402 0.231272
Si Si5 0.140094 0.067805 0.834114
O O1 0.339927 0.633672 0.079738
O O2 0.516349 0.802570 0.110619
O O3 0.376585 0.726329 0.215462
O O4 0.510304 0.506026 0.160316
O O5 0.790358 0.286977 0.466351
O O6 0.878419 0.435045 0.578207
O O7 0.821114 0.131305 0.587382
O O8 0.281773 0.867956 0.329240
O O9 0.850773 0.783841 0.277077
O O10 0.738472 0.561665 0.191064
#
# Coordination Sequence:
#
# PCOD8158823 Si02
#       5
#     8   8   8   8   8
#     4  10  22  42  62  87 125 166 205 260 319 369
#     4  10  23  40  60  90 126 166 207 256 311 373
#     4  10  21  40  63  89 126 162 207 258 305 371
#     4  10  20  38  63  90 120 159 207 260 311 372
#     4  10  20  38  62  87 121 161 204 253 314 372
#
# _framework density 22.452432999999999
#
# number of rings (size 3 to 8) (size 9 to 14) (size 15 to 20)
#    0.000    2.000    0.000    4.800    0.000    6.400 
#    0.000   36.000    0.000    0.000    0.000    0.000 
#    0.000    0.000    0.000    0.000    0.000    0.000 
#
# Total GULP energy -247854.138188 kJ/mol
# GULP energy per Si atom -12392.706909 kJ/mol
# Density = 2.240133 g / cm^3
# Si number density = 22.452433 Si / 1000 Ang^3
#
#
#
# Elastic Constant Matrix: (Units=GPa)
#
#
# Indices 1 2 3 4 5 6 
#
# 1 106.4025 47.7720 62.7525 0.0000 0.0000 0.0000
# 2 47.7720 80.8773 25.2850 0.0000 0.0000 0.0000
# 3 62.7525 25.2850 125.9704 0.0000 0.0000 0.0000
# 4 0.0000 0.0000 0.0000 46.3342 0.0000 0.0000
# 5 0.0000 0.0000 0.0000 0.0000 34.0733 0.0000
# 6 0.0000 0.0000 0.0000 0.0000 0.0000 34.2599
#
#
#
# Elastic Compliance Matrix: (Units=1/GPa)
#
#
# Indices 1 2 3 4 5 6 
#
# 1 0.017001 -0.007890 -0.006886 0.000000 0.000000 0.000000
# 2 -0.007890 0.016853 0.000547 0.000000 0.000000 0.000000
# 3 -0.006886 0.000547 0.011259 0.000000 0.000000 0.000000
# 4 0.000000 0.000000 0.000000 0.021582 0.000000 0.000000
# 5 0.000000 0.000000 0.000000 0.000000 0.029348 0.000000
# 6 0.000000 0.000000 0.000000 0.000000 0.000000 0.029189
#
#
# Mechanical properties :
#
#
# Convention : Reuss Voigt Hill
#
# Bulk Modulus (GPa) = 60.03238 64.98548 62.50893
# Shear Modulus (GPa) = 31.39888 34.76286 33.08087
#
# Velocity S-wave (km/s) = 3.74366 3.93910 3.84262
# Velocity P-wave (km/s) = 6.74405 7.04948 6.89846
#
# Compressibility (1/GPa) = 0.01665768
#
# Stress axis : x y z
#
# Youngs Moduli (GPa) = 58.81855 59.33512 88.82069
#
# Poissons Ratio (x) = 0.46813 0.61159
# Poissons Ratio (y) = 0.46405 -0.04862
# Poissons Ratio (z) = 0.40501 -0.03248
#
# Static dielectric constant tensor:
#      x y z
#    x 3.775840 0.000000 0.000000 
#    y 0.000000 4.144280 0.000000 
#    z 0.000000 0.000000 4.379780 
# 
# 
# High freq. dielectric constant tensor:
#      x y z
#    x 1.848630 0.000000 0.000000 
#    y 0.000000 1.884090 0.000000 
#    z 0.000000 0.000000 1.906830 
# 
# From -- ./inp_files/27421.got.cif
#   From: 2010.03.12/outbox.cif.g09.slc.cpg/sg20_14_cif.got.tgz:27421.got - 2010.04.14 01:38:04.
