data_PCOD8158642
_publ_section_title
;
Structure prediction by ZEFSAII (Michael W. Deem and Ramdas Pophale) SiO2 
 PCOD8158642
Probable space group: C 2 2 21
;
_chemical_formula_sum "Si O2"
_cell_formula_units_Z 52
_cell_length_a 8.331054
_cell_length_b 16.568783
_cell_length_c 17.623615
_cell_angle_alpha 90.000000
_cell_angle_beta 90.000000
_cell_angle_gamma 90.000000
_cell_volume 2432.683202
_symmetry_space_group_name_H-M "C 2 2 21"
_symmetry_group_IT_number 20
_symmetry_cell_setting 'orthorhombic'
loop_
_space_group_symop_operation_xyz
x,y,z
-x,-y,1/2+z
x,-y,-z
-x,y,1/2-z
1/2+x,1/2+y,z
1/2-x,1/2-y,1/2+z
1/2+x,1/2-y,-z
1/2-x,1/2+y,1/2-z
loop_
_atom_site_type_symbol
_atom_site_label
_atom_site_fract_x
_atom_site_fract_y
_atom_site_fract_z
Si Si1 0.725684 0.619859 0.856101
Si Si2 0.500000 0.420146 0.750000
Si Si3 0.000000 0.658638 0.750000
Si Si4 0.500000 0.723679 0.750000
Si Si5 0.293624 0.710007 0.331656
Si Si6 0.867038 0.868461 0.003580
Si Si7 0.677785 0.276596 0.006967
Si Si8 0.543941 0.494488 0.388993
O O1 0.591157 0.668451 0.810125
O O2 0.642147 0.536484 0.884493
O O3 0.880275 0.604432 0.801964
O O4 0.777993 0.671729 0.930550
O O5 0.623212 0.370226 0.800208
O O6 0.397621 0.478647 0.805793
O O7 0.098293 0.713330 0.809199
O O8 0.380076 0.782627 0.794262
O O9 0.271948 0.701627 0.421481
O O10 0.990850 0.795553 0.020305
O O11 0.944159 0.926551 0.941266
O O12 0.706573 0.820376 0.979282
O O13 0.841494 0.922515 0.079569
#
# Coordination Sequence:
#
# PCOD8158642 Si02
#       8
#     8   4   4   4   8   8   8   8
#     4  10  21  37  64  90 129 163 216 259 325 371
#     4  11  21  38  64  84 126 172 204 262 314 384
#     4   9  20  36  58  90 121 164 218 266 301 386
#     4  10  21  36  56  94 125 162 210 276 299 376
#     4  10  20  35  59  91 125 161 221 259 316 365
#     4  10  22  38  64  89 127 156 219 250 319 371
#     4  11  20  37  62  94 117 170 202 270 299 381
#     4  10  21  38  59  93 121 168 196 258 317 381
#
# _framework density 21.375574
#
# number of rings (size 3 to 8) (size 9 to 14) (size 15 to 20)
#    0.000    1.846    1.538    3.231    4.308    1.231 
#    0.000    0.769    0.000   16.615    0.000    0.000 
#    0.000    0.000    0.000    0.000    0.000    0.000 
#
# Total GULP energy -322189.800122 kJ/mol
# GULP energy per Si atom -12391.915389 kJ/mol
# Density = 2.132692 g / cm^3
# Si number density = 21.375574 Si / 1000 Ang^3
#
#
#
# Elastic Constant Matrix: (Units=GPa)
#
#
# Indices 1 2 3 4 5 6 
#
# 1 65.3826 35.6171 34.4202 0.0000 0.0000 0.0000
# 2 35.6171 121.6661 53.0064 0.0000 0.0000 0.0000
# 3 34.4202 53.0064 152.1089 0.0000 0.0000 0.0000
# 4 0.0000 0.0000 0.0000 35.6904 0.0000 0.0000
# 5 0.0000 0.0000 0.0000 0.0000 31.5440 0.0000
# 6 0.0000 0.0000 0.0000 0.0000 0.0000 30.6093
#
#
#
# Elastic Compliance Matrix: (Units=1/GPa)
#
#
# Indices 1 2 3 4 5 6 
#
# 1 0.019162 -0.004386 -0.002808 0.000000 0.000000 0.000000
# 2 -0.004386 0.010695 -0.002734 0.000000 0.000000 0.000000
# 3 -0.002808 -0.002734 0.008162 0.000000 0.000000 0.000000
# 4 0.000000 0.000000 0.000000 0.028019 0.000000 0.000000
# 5 0.000000 0.000000 0.000000 0.000000 0.031702 0.000000
# 6 0.000000 0.000000 0.000000 0.000000 0.000000 0.032670
#
#
# Mechanical properties :
#
#
# Convention : Reuss Voigt Hill
#
# Bulk Modulus (GPa) = 55.05819 65.02723 60.04271
# Shear Modulus (GPa) = 31.98571 33.97635 32.98103
#
# Velocity S-wave (km/s) = 3.87249 3.99117 3.93228
# Velocity P-wave (km/s) = 6.76818 7.19212 6.98337
#
# Compressibility (1/GPa) = 0.01816260
#
# Stress axis : x y z
#
# Youngs Moduli (GPa) = 52.18633 93.50565 122.51372
#
# Poissons Ratio (x) = 0.41016 0.34396
# Poissons Ratio (y) = 0.22891 0.33498
# Poissons Ratio (z) = 0.14652 0.25566
#
# Static dielectric constant tensor:
#      x y z
#    x 3.629050 0.000000 0.000000 
#    y 0.000000 3.935250 0.000000 
#    z 0.000000 0.000000 4.313580 
# 
# 
# High freq. dielectric constant tensor:
#      x y z
#    x 1.802860 0.000000 0.000000 
#    y 0.000000 1.827180 0.000000 
#    z 0.000000 0.000000 1.866510 
# 
# From -- ./inp_files/23749.got.cif
#   From: 2010.03.12/outbox.cif.g09.slc.cpg/sg20_12_cif.got.tgz:23749.got - 2010.04.14 01:38:04.
