data_PCOD8158118
_publ_section_title
;
Structure prediction by ZEFSAII (Michael W. Deem and Ramdas Pophale) SiO2 
 PCOD8158118
Probable space group: C 2 2 21
;
_chemical_formula_sum "Si O2"
_cell_formula_units_Z 52
_cell_length_a 10.201709
_cell_length_b 13.673545
_cell_length_c 19.566689
_cell_angle_alpha 90.000000
_cell_angle_beta 90.000000
_cell_angle_gamma 90.000000
_cell_volume 2729.426462
_symmetry_space_group_name_H-M "C 2 2 21"
_symmetry_group_IT_number 20
_symmetry_cell_setting 'orthorhombic'
loop_
_space_group_symop_operation_xyz
x,y,z
-x,-y,1/2+z
x,-y,-z
-x,y,1/2-z
1/2+x,1/2+y,z
1/2-x,1/2-y,1/2+z
1/2+x,1/2-y,-z
1/2-x,1/2+y,1/2-z
loop_
_atom_site_type_symbol
_atom_site_label
_atom_site_fract_x
_atom_site_fract_y
_atom_site_fract_z
Si Si1 0.242722 0.135852 0.041309
Si Si2 0.796151 0.937649 0.392678
Si Si3 0.496059 0.688922 0.828788
Si Si4 0.518483 0.935128 0.329272
Si Si5 0.768764 0.342804 0.399794
Si Si6 0.286925 0.000000 0.500000
Si Si7 0.477266 0.878864 0.592246
O O1 0.193712 0.242870 0.061867
O O2 0.399717 0.131239 0.041659
O O3 0.192056 0.054448 0.095597
O O4 0.192123 0.115115 0.965646
O O5 0.662367 0.903285 0.355262
O O6 0.918426 0.907307 0.345004
O O7 0.500000 0.716803 0.750000
O O8 0.342273 0.674527 0.843718
O O9 0.559225 0.775054 0.874599
O O10 0.500000 0.912746 0.250000
O O11 0.406131 0.876684 0.369008
O O12 0.504472 0.050113 0.343767
O O13 0.707396 0.427729 0.449694
O O14 0.366311 0.921796 0.544396
#
# Coordination Sequence:
#
# PCOD8158118 Si02
#       7
#     8   8   8   8   8   4   8
#     4   9  18  35  54  78 102 135 176 216 270 311
#     4  10  20  34  56  75 102 139 177 217 257 316
#     4  11  22  36  51  78 113 149 177 209 264 326
#     4  10  19  35  55  78 102 137 177 214 256 313
#     4  10  21  35  55  78 108 134 170 226 266 310
#     4  10  18  34  56  86 104 128 178 232 278 300
#     4   9  18  33  57  79 106 138 176 222 264 319
#
# _framework density 19.051621999999998
#
# number of rings (size 3 to 8) (size 9 to 14) (size 15 to 20)
#    0.000    2.154    0.000    5.077    0.000    2.462 
#    0.000    3.846    0.000    0.000    0.000    0.000 
#    0.000    0.000    0.000    0.000    0.000    0.000 
#
# Total GULP energy -322296.292107 kJ/mol
# GULP energy per Si atom -12396.011235 kJ/mol
# Density = 1.900826 g / cm^3
# Si number density = 19.051622 Si / 1000 Ang^3
#
#
#
# Elastic Constant Matrix: (Units=GPa)
#
#
# Indices 1 2 3 4 5 6 
#
# 1 56.4204 23.0751 12.8537 0.0000 0.0000 0.0000
# 2 23.0751 105.6021 27.0390 0.0000 0.0000 0.0000
# 3 12.8537 27.0390 80.5626 0.0000 0.0000 0.0000
# 4 0.0000 0.0000 0.0000 18.9935 0.0000 0.0000
# 5 0.0000 0.0000 0.0000 0.0000 21.5435 0.0000
# 6 0.0000 0.0000 0.0000 0.0000 0.0000 24.0473
#
#
#
# Elastic Compliance Matrix: (Units=1/GPa)
#
#
# Indices 1 2 3 4 5 6 
#
# 1 0.019715 -0.003832 -0.001859 0.000000 0.000000 0.000000
# 2 -0.003832 0.011105 -0.003116 0.000000 0.000000 0.000000
# 3 -0.001859 -0.003116 0.013755 0.000000 0.000000 0.000000
# 4 0.000000 0.000000 0.000000 0.052650 0.000000 0.000000
# 5 0.000000 0.000000 0.000000 0.000000 0.046418 0.000000
# 6 0.000000 0.000000 0.000000 0.000000 0.000000 0.041585
#
#
# Mechanical properties :
#
#
# Convention : Reuss Voigt Hill
#
# Bulk Modulus (GPa) = 37.09095 40.94674 39.01885
# Shear Modulus (GPa) = 23.60418 24.89136 24.24777
#
# Velocity S-wave (km/s) = 3.52370 3.61851 3.57142
# Velocity P-wave (km/s) = 6.00552 6.24478 6.12632
#
# Compressibility (1/GPa) = 0.02696075
#
# Stress axis : x y z
#
# Youngs Moduli (GPa) = 50.72324 90.05326 72.70044
#
# Poissons Ratio (x) = 0.34507 0.13518
# Poissons Ratio (y) = 0.19436 0.22651
# Poissons Ratio (z) = 0.09432 0.28057
#
# Static dielectric constant tensor:
#      x y z
#    x 3.233340 0.000000 0.000000 
#    y 0.000000 3.662970 0.000000 
#    z 0.000000 0.000000 3.513590 
# 
# 
# High freq. dielectric constant tensor:
#      x y z
#    x 1.723220 0.000000 0.000000 
#    y 0.000000 1.747700 0.000000 
#    z 0.000000 0.000000 1.742010 
# 
# From -- ./inp_files/24375.got.cif
#   From: 2010.03.12/outbox.cif.g09.slc.cpg/sg20_13_cif.got.tgz:24375.got - 2010.04.14 01:38:04.
