data_PCOD8158372
_publ_section_title
;
Structure prediction by ZEFSAII (Michael W. Deem and Ramdas Pophale) SiO2 
 PCOD8158372
Probable space group: C 2 2 21
;
_chemical_formula_sum "Si O2"
_cell_formula_units_Z 48
_cell_length_a 27.427019
_cell_length_b 8.990424
_cell_length_c 8.593683
_cell_angle_alpha 90.000000
_cell_angle_beta 90.000000
_cell_angle_gamma 90.000000
_cell_volume 2119.034908
_symmetry_space_group_name_H-M "C 2 2 21"
_symmetry_group_IT_number 20
_symmetry_cell_setting 'orthorhombic'
loop_
_space_group_symop_operation_xyz
x,y,z
-x,-y,1/2+z
x,-y,-z
-x,y,1/2-z
1/2+x,1/2+y,z
1/2-x,1/2-y,1/2+z
1/2+x,1/2-y,-z
1/2-x,1/2+y,1/2-z
loop_
_atom_site_type_symbol
_atom_site_label
_atom_site_fract_x
_atom_site_fract_y
_atom_site_fract_z
Si Si1 0.069776 0.300376 0.804478
Si Si2 0.769481 0.169207 0.974436
Si Si3 0.985819 0.824591 0.015931
Si Si4 0.934739 0.405671 0.157403
Si Si5 0.814837 0.321014 0.677220
Si Si6 0.671919 0.102966 0.649962
O O1 0.053625 0.214435 0.648621
O O2 0.053019 0.474732 0.794036
O O3 0.127804 0.282531 0.829173
O O4 0.040920 0.228043 0.947631
O O5 0.711597 0.202761 0.009691
O O6 0.795201 0.255743 0.116958
O O7 0.787601 0.221692 0.806901
O O8 0.784310 0.000000 0.000000
O O9 0.970896 0.736070 0.857838
O O10 0.985199 0.000000 0.000000
O O11 0.881618 0.339106 0.195217
O O12 0.935180 0.500000 0.000000
O O13 0.806011 0.496602 0.715158
O O14 0.666659 0.000000 0.500000
#
# Coordination Sequence:
#
# PCOD8158372 Si02
#       6
#     8   8   8   8   8   8
#     4   9  20  39  59  82 119 160 199 244 304 376
#     4  11  21  35  59  88 118 156 204 253 304 355
#     4  10  19  35  60  91 121 149 193 257 317 367
#     4   8  15  32  58  80 105 149 195 231 284 365
#     4  10  21  39  60  85 120 163 204 249 298 364
#     4   8  16  32  54  80 110 147 194 240 287 351
#
# _framework density 22.651823
#
# number of rings (size 3 to 8) (size 9 to 14) (size 15 to 20)
#    0.000    2.667    0.000    4.000    0.000    2.667 
#    0.000   18.333    0.000    4.000    0.000    0.000 
#    0.000    0.000    0.000    0.000    0.000    0.000 
#
# Total GULP energy -297351.096619 kJ/mol
# GULP energy per Si atom -12389.629026 kJ/mol
# Density = 2.260027 g / cm^3
# Si number density = 22.651823 Si / 1000 Ang^3
#
#
#
# Elastic Constant Matrix: (Units=GPa)
#
#
# Indices 1 2 3 4 5 6 
#
# 1 151.0901 82.6440 45.6235 0.0000 0.0000 0.0000
# 2 82.6440 173.3158 30.9875 0.0000 0.0000 0.0000
# 3 45.6235 30.9875 30.1364 0.0000 0.0000 0.0000
# 4 0.0000 0.0000 0.0000 17.6617 0.0000 0.0000
# 5 0.0000 0.0000 0.0000 0.0000 25.4893 0.0000
# 6 0.0000 0.0000 0.0000 0.0000 0.0000 21.3628
#
#
#
# Elastic Compliance Matrix: (Units=1/GPa)
#
#
# Indices 1 2 3 4 5 6 
#
# 1 0.013700 -0.003461 -0.017182 0.000000 0.000000 0.000000
# 2 -0.003461 0.007944 -0.002929 0.000000 0.000000 0.000000
# 3 -0.017182 -0.002929 0.062205 0.000000 0.000000 0.000000
# 4 0.000000 0.000000 0.000000 0.056620 0.000000 0.000000
# 5 0.000000 0.000000 0.000000 0.000000 0.039232 0.000000
# 6 0.000000 0.000000 0.000000 0.000000 0.000000 0.046810
#
#
# Mechanical properties :
#
#
# Convention : Reuss Voigt Hill
#
# Bulk Modulus (GPa) = 27.24326 74.78357 51.01342
# Shear Modulus (GPa) = 17.48934 25.92192 21.70563
#
# Velocity S-wave (km/s) = 2.78167 3.38651 3.09889
# Velocity P-wave (km/s) = 4.72969 6.95538 5.94758
#
# Compressibility (1/GPa) = 0.03670633
#
# Stress axis : x y z
#
# Youngs Moduli (GPa) = 72.99462 125.88666 16.07582
#
# Poissons Ratio (x) = 0.43565 0.27621
# Poissons Ratio (y) = 0.25261 0.04709
# Poissons Ratio (z) = 1.25416 0.36871
#
# Static dielectric constant tensor:
#      x y z
#    x 4.238120 0.000000 0.000000 
#    y 0.000000 4.145010 0.000000 
#    z 0.000000 0.000000 4.152080 
# 
# 
# High freq. dielectric constant tensor:
#      x y z
#    x 1.904390 0.000000 0.000000 
#    y 0.000000 1.880830 0.000000 
#    z 0.000000 0.000000 1.877070 
# 
# From -- ./inp_files/16962.got.cif
#   From: 2010.03.12/outbox.cif.g09.slc.cpg/sg20_9_cif.got.tgz:16962.got - 2010.04.14 01:38:04.
