data_PCOD8158019
_publ_section_title
;
Structure prediction by ZEFSAII (Michael W. Deem and Ramdas Pophale) SiO2 
 PCOD8158019
Probable space group: C 2 2 21
;
_chemical_formula_sum "Si O2"
_cell_formula_units_Z 56
_cell_length_a 8.875544
_cell_length_b 16.931022
_cell_length_c 19.085450
_cell_angle_alpha 90.000000
_cell_angle_beta 90.000000
_cell_angle_gamma 90.000000
_cell_volume 2868.009329
_symmetry_space_group_name_H-M "C 2 2 21"
_symmetry_group_IT_number 20
_symmetry_cell_setting 'orthorhombic'
loop_
_space_group_symop_operation_xyz
x,y,z
-x,-y,1/2+z
x,-y,-z
-x,y,1/2-z
1/2+x,1/2+y,z
1/2-x,1/2-y,1/2+z
1/2+x,1/2-y,-z
1/2-x,1/2+y,1/2-z
loop_
_atom_site_type_symbol
_atom_site_label
_atom_site_fract_x
_atom_site_fract_y
_atom_site_fract_z
Si Si1 0.007905 0.478412 0.862501
Si Si2 0.723309 0.409954 0.365830
Si Si3 0.500000 0.851407 0.750000
Si Si4 0.782671 0.594808 0.788591
Si Si5 0.596485 0.439277 0.088240
Si Si6 0.254785 0.272254 0.658117
Si Si7 0.751829 0.910772 0.556936
Si Si8 0.000000 0.731026 0.750000
O O1 0.137703 0.536005 0.892446
O O2 0.066364 0.405502 0.813834
O O3 0.896949 0.527013 0.811919
O O4 0.915799 0.447136 0.930648
O O5 0.703900 0.431611 0.283883
O O6 0.582790 0.429406 0.416391
O O7 0.749077 0.316595 0.370766
O O8 0.627790 0.795234 0.715600
O O9 0.649930 0.608864 0.844011
O O10 0.869724 0.677098 0.783300
O O11 0.628865 0.532563 0.096752
O O12 0.695751 0.406177 0.023520
O O13 0.251523 0.324177 0.588693
O O14 0.419034 0.286005 0.692868
#
# Coordination Sequence:
#
# PCOD8158019 Si02
#       8
#     8   8   4   8   8   8   8   4
#     4  10  17  37  65  83 116 161 202 232 305 381
#     4  11  20  35  64  96 111 153 208 258 292 371
#     4  10  19  34  56  91 130 146 186 258 311 354
#     4  10  17  35  60  88 112 153 202 240 295 359
#     4  10  22  38  62  82 123 160 204 244 304 364
#     4  10  22  36  58  90 124 149 202 257 308 351
#     4   9  22  44  55  82 124 166 194 248 306 364
#     4  10  19  34  56  85 122 146 196 248 297 358
#
# _framework density 19.525738
#
# number of rings (size 3 to 8) (size 9 to 14) (size 15 to 20)
#    0.000    2.000    4.286    0.429    4.000    1.143 
#    2.571    5.714    0.000    0.000    0.000    0.000 
#    0.000    0.000    0.000    0.000    0.000    0.000 
#
# Total GULP energy -346915.256107 kJ/mol
# GULP energy per Si atom -12389.830575 kJ/mol
# Density = 1.948130 g / cm^3
# Si number density = 19.525738 Si / 1000 Ang^3
#
#
#
# Elastic Constant Matrix: (Units=GPa)
#
#
# Indices 1 2 3 4 5 6 
#
# 1 108.7674 47.7552 48.8603 0.0000 0.0000 0.0000
# 2 47.7552 89.2313 23.1438 0.0000 0.0000 0.0000
# 3 48.8603 23.1438 90.1364 0.0000 0.0000 0.0000
# 4 0.0000 0.0000 0.0000 13.6006 0.0000 0.0000
# 5 0.0000 0.0000 0.0000 0.0000 33.0076 0.0000
# 6 0.0000 0.0000 0.0000 0.0000 0.0000 26.6079
#
#
#
# Elastic Compliance Matrix: (Units=1/GPa)
#
#
# Indices 1 2 3 4 5 6 
#
# 1 0.014837 -0.006272 -0.006432 0.000000 0.000000 0.000000
# 2 -0.006272 0.014658 -0.000364 0.000000 0.000000 0.000000
# 3 -0.006432 -0.000364 0.014674 0.000000 0.000000 0.000000
# 4 0.000000 0.000000 0.000000 0.073526 0.000000 0.000000
# 5 0.000000 0.000000 0.000000 0.000000 0.030296 0.000000
# 6 0.000000 0.000000 0.000000 0.000000 0.000000 0.037583
#
#
# Mechanical properties :
#
#
# Convention : Reuss Voigt Hill
#
# Bulk Modulus (GPa) = 55.45339 58.62819 57.04079
# Shear Modulus (GPa) = 22.96500 25.86828 24.41664
#
# Velocity S-wave (km/s) = 3.43321 3.64377 3.54006
# Velocity P-wave (km/s) = 6.64663 6.91332 6.78129
#
# Compressibility (1/GPa) = 0.01803316
#
# Stress axis : x y z
#
# Youngs Moduli (GPa) = 67.39716 68.22204 68.14553
#
# Poissons Ratio (x) = 0.42791 0.43834
# Poissons Ratio (y) = 0.42274 0.02478
# Poissons Ratio (z) = 0.43353 0.02480
#
# Static dielectric constant tensor:
#      x y z
#    x 3.652810 0.000000 0.000000 
#    y 0.000000 3.614630 0.000000 
#    z 0.000000 0.000000 3.502750 
# 
# 
# High freq. dielectric constant tensor:
#      x y z
#    x 1.755100 0.000000 0.000000 
#    y 0.000000 1.756690 0.000000 
#    z 0.000000 0.000000 1.744260 
# 
# From -- ./inp_files/26861.got.cif
#   From: 2010.03.12/outbox.cif.g09.slc.cpg/sg20_14_cif.got.tgz:26861.got - 2010.04.14 01:38:04.
