data_PCOD8158650
_publ_section_title
;
Structure prediction by ZEFSAII (Michael W. Deem and Ramdas Pophale) SiO2 
 PCOD8158650
Probable space group: C 2 2 21
;
_chemical_formula_sum "Si O2"
_cell_formula_units_Z 64
_cell_length_a 8.576290
_cell_length_b 12.492385
_cell_length_c 29.347455
_cell_angle_alpha 90.000000
_cell_angle_beta 90.000000
_cell_angle_gamma 90.000000
_cell_volume 3144.236924
_symmetry_space_group_name_H-M "C 2 2 21"
_symmetry_group_IT_number 20
_symmetry_cell_setting 'orthorhombic'
loop_
_space_group_symop_operation_xyz
x,y,z
-x,-y,1/2+z
x,-y,-z
-x,y,1/2-z
1/2+x,1/2+y,z
1/2-x,1/2-y,1/2+z
1/2+x,1/2-y,-z
1/2-x,1/2+y,1/2-z
loop_
_atom_site_type_symbol
_atom_site_label
_atom_site_fract_x
_atom_site_fract_y
_atom_site_fract_z
Si Si1 0.588587 0.624864 0.389368
Si Si2 0.180696 0.791806 0.299648
Si Si3 0.702384 0.683206 0.890913
Si Si4 0.350743 0.379633 0.106214
Si Si5 0.844867 0.384897 0.020716
Si Si6 0.628247 0.746299 0.043986
Si Si7 0.422473 0.384522 0.703786
Si Si8 0.343372 0.630993 0.705773
O O1 0.741597 0.695524 0.399702
O O2 0.629746 0.504735 0.403531
O O3 0.444088 0.665798 0.419191
O O4 0.542617 0.637536 0.336798
O O5 0.227982 0.861840 0.344034
O O6 0.256594 0.674160 0.304528
O O7 0.248627 0.844877 0.252781
O O8 0.992587 0.788488 0.296725
O O9 0.517178 0.678901 0.895589
O O10 0.787642 0.604330 0.926762
O O11 0.757986 0.647876 0.839968
O O12 0.245555 0.329220 0.067281
O O13 0.000803 0.315594 0.017391
O O14 0.880289 0.500000 0.000000
O O15 0.709631 0.325962 0.993464
O O16 0.500000 0.340749 0.750000
O O17 0.400234 0.510268 0.706930
#
# Coordination Sequence:
#
# PCOD8158650 Si02
#       8
#     8   8   8   8   8   8   8   8
#     4  11  22  40  65  95 123 170 211 256 321 377
#     4  10  20  35  63  91 120 169 209 249 307 375
#     4  10  22  40  65  92 124 167 210 262 316 379
#     4  11  21  41  65  89 132 165 207 262 317 376
#     4  11  25  43  66  94 128 164 213 267 322 378
#     4  11  25  42  65  96 127 164 218 260 323 383
#     4  12  20  36  67  88 127 174 206 257 313 369
#     4  10  20  40  60  90 129 165 212 258 311 369
#
# _framework density 20.354700000000001
#
# number of rings (size 3 to 8) (size 9 to 14) (size 15 to 20)
#    0.000    1.250    5.000    2.250    0.000    3.000 
#    0.000    4.375    8.250    0.000    0.000    0.000 
#    0.000    0.000    0.000    0.000    0.000    0.000 
#
# Total GULP energy -396758.011224 kJ/mol
# GULP energy per Si atom -12398.687851 kJ/mol
# Density = 2.030837 g / cm^3
# Si number density = 20.354700 Si / 1000 Ang^3
#
#
#
# Elastic Constant Matrix: (Units=GPa)
#
#
# Indices 1 2 3 4 5 6 
#
# 1 56.0080 40.8418 0.4501 0.0000 0.0000 0.0000
# 2 40.8418 96.1217 21.8746 0.0000 0.0000 0.0000
# 3 0.4501 21.8746 85.2510 0.0000 0.0000 0.0000
# 4 0.0000 0.0000 0.0000 29.6864 0.0000 0.0000
# 5 0.0000 0.0000 0.0000 0.0000 31.8694 0.0000
# 6 0.0000 0.0000 0.0000 0.0000 0.0000 19.8784
#
#
#
# Elastic Compliance Matrix: (Units=1/GPa)
#
#
# Indices 1 2 3 4 5 6 
#
# 1 0.026539 -0.011942 0.002924 0.000000 0.000000 0.000000
# 2 -0.011942 0.016422 -0.004151 0.000000 0.000000 0.000000
# 3 0.002924 -0.004151 0.012780 0.000000 0.000000 0.000000
# 4 0.000000 0.000000 0.000000 0.033685 0.000000 0.000000
# 5 0.000000 0.000000 0.000000 0.000000 0.031378 0.000000
# 6 0.000000 0.000000 0.000000 0.000000 0.000000 0.050306
#
#
# Mechanical properties :
#
#
# Convention : Reuss Voigt Hill
#
# Bulk Modulus (GPa) = 34.00901 40.41263 37.21082
# Shear Modulus (GPa) = 24.12560 27.90113 26.01336
#
# Velocity S-wave (km/s) = 3.44649 3.70638 3.57879
# Velocity P-wave (km/s) = 5.70808 6.18171 5.94961
#
# Compressibility (1/GPa) = 0.02940397
#
# Stress axis : x y z
#
# Youngs Moduli (GPa) = 37.68004 60.89351 78.24929
#
# Poissons Ratio (x) = 0.72718 -0.22880
# Poissons Ratio (y) = 0.44997 0.32479
# Poissons Ratio (z) = -0.11018 0.25275
#
# Static dielectric constant tensor:
#      x y z
#    x 3.608340 0.000000 0.000000 
#    y 0.000000 3.599440 0.000000 
#    z 0.000000 0.000000 4.277700 
# 
# 
# High freq. dielectric constant tensor:
#      x y z
#    x 1.776350 0.000000 0.000000 
#    y 0.000000 1.788380 0.000000 
#    z 0.000000 0.000000 1.821860 
# 
# From -- ./inp_files/31063.got.cif
#   From: 2010.03.12/outbox.cif.g09.slc.cpg/sg20_16_cif.got.tgz:31063.got - 2010.04.14 01:38:04.
