data_PCOD8158417
_publ_section_title
;
Structure prediction by ZEFSAII (Michael W. Deem and Ramdas Pophale) SiO2 
 PCOD8158417
Probable space group: C 2 2 21
;
_chemical_formula_sum "Si O2"
_cell_formula_units_Z 48
_cell_length_a 18.256624
_cell_length_b 13.754485
_cell_length_c 9.304610
_cell_angle_alpha 90.000000
_cell_angle_beta 90.000000
_cell_angle_gamma 90.000000
_cell_volume 2336.484906
_symmetry_space_group_name_H-M "C 2 2 21"
_symmetry_group_IT_number 20
_symmetry_cell_setting 'orthorhombic'
loop_
_space_group_symop_operation_xyz
x,y,z
-x,-y,1/2+z
x,-y,-z
-x,y,1/2-z
1/2+x,1/2+y,z
1/2-x,1/2-y,1/2+z
1/2+x,1/2-y,-z
1/2-x,1/2+y,1/2-z
loop_
_atom_site_type_symbol
_atom_site_label
_atom_site_fract_x
_atom_site_fract_y
_atom_site_fract_z
Si Si1 0.642268 0.467527 0.660331
Si Si2 0.000000 0.870969 0.750000
Si Si3 0.607191 0.966993 0.342752
Si Si4 0.500000 0.875811 0.750000
Si Si5 0.706393 0.283131 0.542346
Si Si6 0.956485 0.284950 0.033012
Si Si7 0.749078 0.127117 0.757591
O O1 0.618704 0.500000 0.500000
O O2 0.571121 0.439509 0.752844
O O3 0.696961 0.375609 0.648058
O O4 0.681728 0.554806 0.745073
O O5 0.000588 0.802369 0.609842
O O6 0.548156 0.880048 0.364766
O O7 0.674520 0.933955 0.245265
O O8 0.635456 0.000000 0.500000
O O9 0.571584 0.056380 0.257287
O O10 0.496979 0.807918 0.609727
O O11 0.626323 0.246104 0.493709
O O12 0.752439 0.199670 0.622507
O O13 0.753011 0.310828 0.403258
#
# Coordination Sequence:
#
# PCOD8158417 Si02
#       7
#     8   4   8   4   8   8   8
#     4   9  20  40  62  85 118 156 195 241 290 343
#     4  10  19  40  63  82 118 158 192 238 290 342
#     4   9  19  36  58  85 119 154 193 245 297 346
#     4  10  19  36  61  86 116 154 196 246 298 346
#     4   9  20  39  60  86 121 156 193 241 292 345
#     4   9  19  37  58  84 120 156 193 241 293 346
#     4  10  20  40  64  86 118 156 194 242 294 344
#
# _framework density 20.543682
#
# number of rings (size 3 to 8) (size 9 to 14) (size 15 to 20)
#    0.000    2.667    0.000    0.500    0.000    4.000 
#    0.000   47.500    0.000    2.000    0.000    0.000 
#    0.000    0.000    0.000    0.000    0.000    0.000 
#
# Total GULP energy -297609.855296 kJ/mol
# GULP energy per Si atom -12400.410637 kJ/mol
# Density = 2.049692 g / cm^3
# Si number density = 20.543682 Si / 1000 Ang^3
#
#
#
# Elastic Constant Matrix: (Units=GPa)
#
#
# Indices 1 2 3 4 5 6 
#
# 1 97.0767 67.3387 94.3498 0.0000 0.0000 0.0000
# 2 67.3387 136.5488 74.0682 0.0000 0.0000 0.0000
# 3 94.3498 74.0682 116.9655 0.0000 0.0000 0.0000
# 4 0.0000 0.0000 0.0000 43.2404 0.0000 0.0000
# 5 0.0000 0.0000 0.0000 0.0000 32.3732 0.0000
# 6 0.0000 0.0000 0.0000 0.0000 0.0000 39.1671
#
#
#
# Elastic Compliance Matrix: (Units=1/GPa)
#
#
# Indices 1 2 3 4 5 6 
#
# 1 0.049196 -0.004166 -0.037046 0.000000 0.000000 0.000000
# 2 -0.004166 0.011508 -0.003927 0.000000 0.000000 0.000000
# 3 -0.037046 -0.003927 0.040919 0.000000 0.000000 0.000000
# 4 0.000000 0.000000 0.000000 0.023126 0.000000 0.000000
# 5 0.000000 0.000000 0.000000 0.000000 0.030890 0.000000
# 6 0.000000 0.000000 0.000000 0.000000 0.000000 0.025532
#
#
# Mechanical properties :
#
#
# Convention : Reuss Voigt Hill
#
# Bulk Modulus (GPa) = 88.13863 91.34493 89.74178
# Shear Modulus (GPa) = 18.16663 30.61176 24.38920
#
# Velocity S-wave (km/s) = 2.97693 3.86435 3.44930
# Velocity P-wave (km/s) = 7.40354 8.02939 7.72281
#
# Compressibility (1/GPa) = 0.01134576
#
# Stress axis : x y z
#
# Youngs Moduli (GPa) = 20.32677 86.89673 24.43862
#
# Poissons Ratio (x) = 0.36204 0.90534
# Poissons Ratio (y) = 0.08469 0.09596
# Poissons Ratio (z) = 0.75302 0.34121
#
# Static dielectric constant tensor:
#      x y z
#    x 3.435710 0.000000 0.000000 
#    y 0.000000 4.154570 0.000000 
#    z 0.000000 0.000000 3.517290 
# 
# 
# High freq. dielectric constant tensor:
#      x y z
#    x 1.780610 0.000000 0.000000 
#    y 0.000000 1.825670 0.000000 
#    z 0.000000 0.000000 1.786890 
# 
# From -- ./inp_files/9362.got.cif
#   From: 2010.03.12/outbox.cif.g09.slc.cpg/sg20_5_cif.got.tgz:9362.got - 2010.04.14 01:38:04.
