data_PCOD8158219
_publ_section_title
;
Structure prediction by ZEFSAII (Michael W. Deem and Ramdas Pophale) SiO2 
 PCOD8158219
Probable space group: C 2 2 21
;
_chemical_formula_sum "Si O2"
_cell_formula_units_Z 64
_cell_length_a 14.884316
_cell_length_b 11.560931
_cell_length_c 16.771559
_cell_angle_alpha 90.000000
_cell_angle_beta 90.000000
_cell_angle_gamma 90.000000
_cell_volume 2885.992015
_symmetry_space_group_name_H-M "C 2 2 21"
_symmetry_group_IT_number 20
_symmetry_cell_setting 'orthorhombic'
loop_
_space_group_symop_operation_xyz
x,y,z
-x,-y,1/2+z
x,-y,-z
-x,y,1/2-z
1/2+x,1/2+y,z
1/2-x,1/2-y,1/2+z
1/2+x,1/2-y,-z
1/2-x,1/2+y,1/2-z
loop_
_atom_site_type_symbol
_atom_site_label
_atom_site_fract_x
_atom_site_fract_y
_atom_site_fract_z
Si Si1 0.499686 0.739185 0.949089
Si Si2 0.254174 0.273707 0.766169
Si Si3 0.393314 0.383151 0.329136
Si Si4 0.920941 0.675012 0.695999
Si Si5 0.357281 0.507706 0.171551
Si Si6 0.360391 0.883102 0.465888
Si Si7 0.804131 0.778685 0.097777
Si Si8 0.035803 0.902729 0.899879
O O1 0.522978 0.695716 0.859480
O O2 0.392396 0.764705 0.950178
O O3 0.557674 0.850279 0.974528
O O4 0.531196 0.637882 0.009103
O O5 0.191840 0.203965 0.829152
O O6 0.336309 0.185637 0.754291
O O7 0.284529 0.396972 0.800898
O O8 0.207281 0.295474 0.679326
O O9 0.407048 0.438027 0.242407
O O10 0.390283 0.494708 0.388841
O O11 0.902093 0.590816 0.621736
O O12 0.941139 0.802229 0.662229
O O13 0.000000 0.623228 0.750000
O O14 0.305314 0.414963 0.118410
O O15 0.434599 0.561159 0.118864
O O16 0.285891 0.778158 0.458319
O O17 0.316731 0.000000 0.500000
#
# Coordination Sequence:
#
# PCOD8158219 Si02
#       8
#     8   8   8   8   8   8   8   8
#     4  11  25  41  67  99 134 174 221 284 334 400
#     4  10  22  36  61 102 130 165 214 283 329 385
#     4  11  22  36  60 100 130 159 218 275 333 383
#     4  10  18  40  68  89 124 174 233 265 316 400
#     4  11  21  38  69  97 127 171 220 279 326 390
#     4  10  25  44  65  95 134 176 221 270 336 408
#     4  10  24  41  67  96 132 172 226 269 334 400
#     4  11  20  36  68  95 124 169 224 275 333 384
#
# _framework density 22.176085
#
# number of rings (size 3 to 8) (size 9 to 14) (size 15 to 20)
#    0.000    1.500    3.750    0.750    5.250    0.000 
#    0.000    3.750    0.000    0.000    0.000    0.000 
#    0.000    0.000    0.000    0.000    0.000    0.000 
#
# Total GULP energy -396497.448478 kJ/mol
# GULP energy per Si atom -12390.545265 kJ/mol
# Density = 2.212561 g / cm^3
# Si number density = 22.176085 Si / 1000 Ang^3
#
#
#
# Elastic Constant Matrix: (Units=GPa)
#
#
# Indices 1 2 3 4 5 6 
#
# 1 110.3181 12.8997 33.4879 0.0000 0.0000 0.0000
# 2 12.8997 53.9204 15.5191 0.0000 0.0000 0.0000
# 3 33.4879 15.5191 58.3323 0.0000 0.0000 0.0000
# 4 0.0000 0.0000 0.0000 29.5340 0.0000 0.0000
# 5 0.0000 0.0000 0.0000 0.0000 45.1328 0.0000
# 6 0.0000 0.0000 0.0000 0.0000 0.0000 35.2517
#
#
#
# Elastic Compliance Matrix: (Units=1/GPa)
#
#
# Indices 1 2 3 4 5 6 
#
# 1 0.011016 -0.000883 -0.006090 0.000000 0.000000 0.000000
# 2 -0.000883 0.020154 -0.004855 0.000000 0.000000 0.000000
# 3 -0.006090 -0.004855 0.021931 0.000000 0.000000 0.000000
# 4 0.000000 0.000000 0.000000 0.033859 0.000000 0.000000
# 5 0.000000 0.000000 0.000000 0.000000 0.022157 0.000000
# 6 0.000000 0.000000 0.000000 0.000000 0.000000 0.028367
#
#
# Mechanical properties :
#
#
# Convention : Reuss Voigt Hill
#
# Bulk Modulus (GPa) = 33.95981 38.48712 36.22346
# Shear Modulus (GPa) = 29.24729 32.69463 30.97096
#
# Velocity S-wave (km/s) = 3.63556 3.84385 3.74116
# Velocity P-wave (km/s) = 5.74195 6.09042 5.91875
#
# Compressibility (1/GPa) = 0.02944657
#
# Stress axis : x y z
#
# Youngs Moduli (GPa) = 90.77326 49.61677 45.59796
#
# Poissons Ratio (x) = 0.04381 0.27767
# Poissons Ratio (y) = 0.08014 0.22139
# Poissons Ratio (z) = 0.55277 0.24090
#
# Static dielectric constant tensor:
#      x y z
#    x 4.148530 0.000000 0.000000 
#    y 0.000000 3.852470 0.000000 
#    z 0.000000 0.000000 4.361710 
# 
# 
# High freq. dielectric constant tensor:
#      x y z
#    x 1.877000 0.000000 0.000000 
#    y 0.000000 1.843950 0.000000 
#    z 0.000000 0.000000 1.872530 
# 
# From -- ./inp_files/24970.got.cif
#   From: 2010.03.12/outbox.cif.g09.slc.cpg/sg20_13_cif.got.tgz:24970.got - 2010.04.14 01:38:04.
