data_PCOD8158198
_publ_section_title
;
Structure prediction by ZEFSAII (Michael W. Deem and Ramdas Pophale) SiO2 
 PCOD8158198
Probable space group: C 2 2 21
;
_chemical_formula_sum "Si O2"
_cell_formula_units_Z 64
_cell_length_a 17.798966
_cell_length_b 8.996869
_cell_length_c 19.700621
_cell_angle_alpha 90.000000
_cell_angle_beta 90.000000
_cell_angle_gamma 90.000000
_cell_volume 3154.758263
_symmetry_space_group_name_H-M "C 2 2 21"
_symmetry_group_IT_number 20
_symmetry_cell_setting 'orthorhombic'
loop_
_space_group_symop_operation_xyz
x,y,z
-x,-y,1/2+z
x,-y,-z
-x,y,1/2-z
1/2+x,1/2+y,z
1/2-x,1/2-y,1/2+z
1/2+x,1/2-y,-z
1/2-x,1/2+y,1/2-z
loop_
_atom_site_type_symbol
_atom_site_label
_atom_site_fract_x
_atom_site_fract_y
_atom_site_fract_z
Si Si1 0.308700 0.827876 0.170738
Si Si2 0.909945 0.830332 0.436717
Si Si3 0.709869 0.204180 0.889935
Si Si4 0.558451 0.352693 0.915376
Si Si5 0.114016 0.438668 0.838823
Si Si6 0.271113 0.871904 0.770349
Si Si7 0.244975 0.654507 0.524891
Si Si8 0.521253 0.841109 0.319665
O O1 0.292460 0.680829 0.215825
O O2 0.297945 0.784889 0.091457
O O3 0.392462 0.890747 0.181227
O O4 0.255604 0.963426 0.198037
O O5 0.945371 0.785634 0.508784
O O6 0.911088 0.693204 0.387180
O O7 0.826866 0.891678 0.449686
O O8 0.955654 0.971380 0.408300
O O9 0.638093 0.311647 0.881273
O O10 0.770130 0.253037 0.832433
O O11 0.678620 0.037543 0.876500
O O12 0.749385 0.222244 0.964310
O O13 0.488427 0.275849 0.879514
O O14 0.149064 0.372263 0.769521
O O15 0.036050 0.520947 0.824860
O O16 0.206290 0.500000 0.500000
O O17 0.500000 0.757782 0.250000
#
# Coordination Sequence:
#
# PCOD8158198 Si02
#       8
#     8   8   8   8   8   8   8   8
#     4  12  24  41  66  91 132 167 228 271 338 381
#     4  10  18  38  64  95 118 161 218 264 310 397
#     4  10  20  35  58  93 123 163 211 267 330 385
#     4   9  19  37  65  86 124 169 212 258 321 395
#     4  11  23  39  65  94 128 165 217 271 329 395
#     4  12  21  39  63  92 121 169 210 276 323 389
#     4  11  19  34  61  91 123 158 209 273 315 379
#     4  11  23  43  59  91 131 173 211 272 324 398
#
# _framework density 20.286816000000002
#
# number of rings (size 3 to 8) (size 9 to 14) (size 15 to 20)
#    0.000    1.250    7.500    0.750    0.000    4.500 
#    2.250    1.875    5.500    0.000    0.000    0.000 
#    0.000    0.000    0.000    0.000    0.000    0.000 
#
# Total GULP energy -396533.805014 kJ/mol
# GULP energy per Si atom -12391.681407 kJ/mol
# Density = 2.024064 g / cm^3
# Si number density = 20.286816 Si / 1000 Ang^3
#
#
#
# Elastic Constant Matrix: (Units=GPa)
#
#
# Indices 1 2 3 4 5 6 
#
# 1 73.9436 39.4709 46.5725 0.0000 0.0000 0.0000
# 2 39.4709 80.2781 48.2201 0.0000 0.0000 0.0000
# 3 46.5725 48.2201 138.5262 0.0000 0.0000 0.0000
# 4 0.0000 0.0000 0.0000 30.5721 0.0000 0.0000
# 5 0.0000 0.0000 0.0000 0.0000 30.9470 0.0000
# 6 0.0000 0.0000 0.0000 0.0000 0.0000 5.1039
#
#
#
# Elastic Compliance Matrix: (Units=1/GPa)
#
#
# Indices 1 2 3 4 5 6 
#
# 1 0.020094 -0.007361 -0.004193 0.000000 0.000000 0.000000
# 2 -0.007361 0.018446 -0.003946 0.000000 0.000000 0.000000
# 3 -0.004193 -0.003946 0.010002 0.000000 0.000000 0.000000
# 4 0.000000 0.000000 0.000000 0.032710 0.000000 0.000000
# 5 0.000000 0.000000 0.000000 0.000000 0.032313 0.000000
# 6 0.000000 0.000000 0.000000 0.000000 0.000000 0.195927
#
#
# Mechanical properties :
#
#
# Convention : Reuss Voigt Hill
#
# Bulk Modulus (GPa) = 57.00752 62.36387 59.68569
# Shear Modulus (GPa) = 14.43662 23.89023 19.16343
#
# Velocity S-wave (km/s) = 2.67053 3.43537 3.07681
# Velocity P-wave (km/s) = 6.13765 6.82228 6.48900
#
# Compressibility (1/GPa) = 0.01754155
#
# Stress axis : x y z
#
# Youngs Moduli (GPa) = 49.76546 54.21127 99.97676
#
# Poissons Ratio (x) = 0.39905 0.41924
# Poissons Ratio (y) = 0.36633 0.39453
# Poissons Ratio (z) = 0.20868 0.21393
#
# Static dielectric constant tensor:
#      x y z
#    x 3.346360 0.000000 0.000000 
#    y 0.000000 3.529390 0.000000 
#    z 0.000000 0.000000 4.576320 
# 
# 
# High freq. dielectric constant tensor:
#      x y z
#    x 1.748740 0.000000 0.000000 
#    y 0.000000 1.780560 0.000000 
#    z 0.000000 0.000000 1.814960 
# 
# From -- ./inp_files/27780.got.cif
#   From: 2010.03.12/outbox.cif.g09.slc.cpg/sg20_14_cif.got.tgz:27780.got - 2010.04.14 01:38:04.
