data_PCOD8158344
_publ_section_title
;
Structure prediction by ZEFSAII (Michael W. Deem and Ramdas Pophale) SiO2 
 PCOD8158344
Probable space group: C 2 2 21
;
_chemical_formula_sum "Si O2"
_cell_formula_units_Z 64
_cell_length_a 18.976885
_cell_length_b 20.466896
_cell_length_c 8.860187
_cell_angle_alpha 90.000000
_cell_angle_beta 90.000000
_cell_angle_gamma 90.000000
_cell_volume 3441.278305
_symmetry_space_group_name_H-M "C 2 2 21"
_symmetry_group_IT_number 20
_symmetry_cell_setting 'orthorhombic'
loop_
_space_group_symop_operation_xyz
x,y,z
-x,-y,1/2+z
x,-y,-z
-x,y,1/2-z
1/2+x,1/2+y,z
1/2-x,1/2-y,1/2+z
1/2+x,1/2-y,-z
1/2-x,1/2+y,1/2-z
loop_
_atom_site_type_symbol
_atom_site_label
_atom_site_fract_x
_atom_site_fract_y
_atom_site_fract_z
Si Si1 0.072603 0.711380 0.675605
Si Si2 0.329603 0.299362 0.656936
Si Si3 0.205839 0.497988 0.175045
Si Si4 0.210758 0.064660 0.084262
Si Si5 0.211211 0.371323 0.328192
Si Si6 0.796093 0.253794 0.660563
Si Si7 0.068898 0.540415 0.345500
Si Si8 0.930191 0.305937 0.840715
O O1 0.097872 0.775075 0.768448
O O2 0.132523 0.656199 0.683678
O O3 0.062817 0.730807 0.500890
O O4 0.000000 0.685301 0.750000
O O5 0.343034 0.373964 0.599227
O O6 0.267671 0.300787 0.784296
O O7 0.308286 0.248751 0.521088
O O8 0.264474 0.544695 0.249073
O O9 0.224249 0.422900 0.199153
O O10 0.130827 0.514894 0.241940
O O11 0.205761 0.500000 0.000000
O O12 0.278395 0.092138 0.990193
O O13 0.178551 0.000000 0.000000
O O14 0.271916 0.318858 0.295940
O O15 0.865658 0.276614 0.746429
O O16 0.066719 0.500000 0.500000
O O17 0.077734 0.617421 0.375093
O O18 0.000000 0.525322 0.250000
O O19 0.000000 0.289558 0.750000
#
# Coordination Sequence:
#
# PCOD8158344 Si02
#       8
#     8   8   8   8   8   8   8   8
#     4  11  22  35  52  78 109 142 180 220 268 322
#     4  10  20  34  57  80 106 144 179 224 271 318
#     4  11  21  31  49  77 103 134 177 220 262 309
#     4   9  18  36  55  76 105 138 177 218 266 318
#     4   9  20  35  54  74 104 146 179 221 267 313
#     4  10  19  35  53  77 106 137 181 219 268 321
#     4  11  23  37  51  70 102 144 186 219 256 307
#     4  11  23  37  55  78 109 147 182 225 271 318
#
# _framework density 18.597740999999999
#
# number of rings (size 3 to 8) (size 9 to 14) (size 15 to 20)
#    0.000    1.750    0.000    6.750    0.000    9.000 
#    0.000    0.000    0.000    0.000    0.000   14.000 
#    0.000    0.000    0.000    0.000    0.000    0.000 
#
# Total GULP energy -396563.618772 kJ/mol
# GULP energy per Si atom -12392.613087 kJ/mol
# Density = 1.855541 g / cm^3
# Si number density = 18.597741 Si / 1000 Ang^3
#
#
#
# Elastic Constant Matrix: (Units=GPa)
#
#
# Indices 1 2 3 4 5 6 
#
# 1 75.6895 29.3736 38.4993 0.0000 0.0000 0.0000
# 2 29.3736 80.6141 52.3358 0.0000 0.0000 0.0000
# 3 38.4993 52.3358 149.5720 0.0000 0.0000 0.0000
# 4 0.0000 0.0000 0.0000 22.8869 0.0000 0.0000
# 5 0.0000 0.0000 0.0000 0.0000 27.8833 0.0000
# 6 0.0000 0.0000 0.0000 0.0000 0.0000 20.4385
#
#
#
# Elastic Compliance Matrix: (Units=1/GPa)
#
#
# Indices 1 2 3 4 5 6 
#
# 1 0.016202 -0.004136 -0.002723 0.000000 0.000000 0.000000
# 2 -0.004136 0.017107 -0.004921 0.000000 0.000000 0.000000
# 3 -0.002723 -0.004921 0.009109 0.000000 0.000000 0.000000
# 4 0.000000 0.000000 0.000000 0.043693 0.000000 0.000000
# 5 0.000000 0.000000 0.000000 0.000000 0.035864 0.000000
# 6 0.000000 0.000000 0.000000 0.000000 0.000000 0.048927
#
#
# Mechanical properties :
#
#
# Convention : Reuss Voigt Hill
#
# Bulk Modulus (GPa) = 53.03030 60.69922 56.86476
# Shear Modulus (GPa) = 24.90697 26.61954 25.76326
#
# Velocity S-wave (km/s) = 3.66354 3.78740 3.72599
# Velocity P-wave (km/s) = 6.81701 7.19963 7.01093
#
# Compressibility (1/GPa) = 0.01885714
#
# Stress axis : x y z
#
# Youngs Moduli (GPa) = 61.72080 58.45716 109.78588
#
# Poissons Ratio (x) = 0.24175 0.29898
# Poissons Ratio (y) = 0.25525 0.54027
# Poissons Ratio (z) = 0.16808 0.28768
#
# Static dielectric constant tensor:
#      x y z
#    x 3.234980 0.000000 0.000000 
#    y 0.000000 3.756380 0.000000 
#    z 0.000000 0.000000 3.583330 
# 
# 
# High freq. dielectric constant tensor:
#      x y z
#    x 1.692410 0.000000 0.000000 
#    y 0.000000 1.722150 0.000000 
#    z 0.000000 0.000000 1.737730 
# 
# From -- ./inp_files/9635.got.cif
#   From: 2010.03.12/outbox.cif.g09.slc.cpg/sg20_5_cif.got.tgz:9635.got - 2010.04.14 01:38:04.
