data_PCOD8158839
_publ_section_title
;
Structure prediction by ZEFSAII (Michael W. Deem and Ramdas Pophale) SiO2 
 PCOD8158839
Probable space group: C 2 2 21
;
_chemical_formula_sum "Si O2"
_cell_formula_units_Z 56
_cell_length_a 7.520406
_cell_length_b 17.895463
_cell_length_c 20.411010
_cell_angle_alpha 90.000000
_cell_angle_beta 90.000000
_cell_angle_gamma 90.000000
_cell_volume 2746.937144
_symmetry_space_group_name_H-M "C 2 2 21"
_symmetry_group_IT_number 20
_symmetry_cell_setting 'orthorhombic'
loop_
_space_group_symop_operation_xyz
x,y,z
-x,-y,1/2+z
x,-y,-z
-x,y,1/2-z
1/2+x,1/2+y,z
1/2-x,1/2-y,1/2+z
1/2+x,1/2-y,-z
1/2-x,1/2+y,1/2-z
loop_
_atom_site_type_symbol
_atom_site_label
_atom_site_fract_x
_atom_site_fract_y
_atom_site_fract_z
Si Si1 0.000000 0.599763 0.750000
Si Si2 0.000000 0.884314 0.250000
Si Si3 0.894806 0.141061 0.318174
Si Si4 0.964340 0.159365 0.042672
Si Si5 0.733103 0.075783 0.528599
Si Si6 0.746267 0.699833 0.672119
Si Si7 0.746094 0.979563 0.330894
Si Si8 0.392599 0.179981 0.530025
O O1 0.150196 0.658275 0.770236
O O2 0.045260 0.544588 0.688583
O O3 0.952312 0.830115 0.187780
O O4 0.851234 0.942852 0.271293
O O5 0.033758 0.152674 0.378149
O O6 0.760269 0.211092 0.318572
O O7 0.000000 0.134797 0.250000
O O8 0.774430 0.068469 0.331974
O O9 0.050324 0.235544 0.015571
O O10 0.089651 0.096024 0.011836
O O11 0.757997 0.152673 0.021216
O O12 0.798169 0.060568 0.601980
O O13 0.574130 0.134486 0.522484
O O14 0.650895 0.000000 0.500000
O O15 0.809922 0.671949 0.601791
#
# Coordination Sequence:
#
# PCOD8158839 Si02
#       8
#     4   4   8   8   8   8   8   8
#     4  10  20  38  64  88 120 170 200 256 322 376
#     4  10  22  38  66  94 118 170 212 258 326 388
#     4  11  23  43  63  93 132 169 210 270 334 388
#     4  11  24  43  72  96 131 175 219 277 329 388
#     4  12  24  43  65  96 134 170 219 272 328 389
#     4  10  21  40  64  90 123 161 216 258 312 388
#     4  11  22  41  63  90 132 166 207 270 329 387
#     4  11  23  44  67  98 127 171 222 269 327 393
#
# _framework density 20.386341000000002
#
# number of rings (size 3 to 8) (size 9 to 14) (size 15 to 20)
#    0.000    1.143    5.714    0.857    0.000    1.143 
#    7.714    0.000    0.000    0.000    0.000    0.000 
#    0.000    0.000    0.000    0.000    0.000    0.000 
#
# Total GULP energy -347012.691324 kJ/mol
# GULP energy per Si atom -12393.310404 kJ/mol
# Density = 2.033994 g / cm^3
# Si number density = 20.386341 Si / 1000 Ang^3
#
#
#
# Elastic Constant Matrix: (Units=GPa)
#
#
# Indices 1 2 3 4 5 6 
#
# 1 63.5650 36.9666 19.5994 0.0000 0.0000 0.0000
# 2 36.9666 122.3631 30.7330 0.0000 0.0000 0.0000
# 3 19.5994 30.7330 96.1818 0.0000 0.0000 0.0000
# 4 0.0000 0.0000 0.0000 33.8760 0.0000 0.0000
# 5 0.0000 0.0000 0.0000 0.0000 38.0160 0.0000
# 6 0.0000 0.0000 0.0000 0.0000 0.0000 25.1877
#
#
#
# Elastic Compliance Matrix: (Units=1/GPa)
#
#
# Indices 1 2 3 4 5 6 
#
# 1 0.019533 -0.005329 -0.002278 0.000000 0.000000 0.000000
# 2 -0.005329 0.010339 -0.002218 0.000000 0.000000 0.000000
# 3 -0.002278 -0.002218 0.011570 0.000000 0.000000 0.000000
# 4 0.000000 0.000000 0.000000 0.029519 0.000000 0.000000
# 5 0.000000 0.000000 0.000000 0.000000 0.026305 0.000000
# 6 0.000000 0.000000 0.000000 0.000000 0.000000 0.039702
#
#
# Mechanical properties :
#
#
# Convention : Reuss Voigt Hill
#
# Bulk Modulus (GPa) = 45.88524 50.74531 48.31528
# Shear Modulus (GPa) = 30.50978 32.40336 31.45657
#
# Velocity S-wave (km/s) = 3.87276 3.99113 3.93239
# Velocity P-wave (km/s) = 6.52337 6.79593 6.66105
#
# Compressibility (1/GPa) = 0.02179350
#
# Stress axis : x y z
#
# Youngs Moduli (GPa) = 51.19450 96.71766 86.43225
#
# Poissons Ratio (x) = 0.51542 0.19686
# Poissons Ratio (y) = 0.27282 0.19169
# Poissons Ratio (z) = 0.11660 0.21450
#
# Static dielectric constant tensor:
#      x y z
#    x 3.766180 0.000000 0.000000 
#    y 0.000000 3.847760 0.000000 
#    z 0.000000 0.000000 3.831720 
# 
# 
# High freq. dielectric constant tensor:
#      x y z
#    x 1.781900 0.000000 0.000000 
#    y 0.000000 1.807860 0.000000 
#    z 0.000000 0.000000 1.805750 
# 
# From -- ./inp_files/26860.got.cif
#   From: 2010.03.12/outbox.cif.g09.slc.cpg/sg20_14_cif.got.tgz:26860.got - 2010.04.14 01:38:04.
