data_PCOD8158772
_publ_section_title
;
Structure prediction by ZEFSAII (Michael W. Deem and Ramdas Pophale) SiO2 
 PCOD8158772
Probable space group: C 2 2 21
;
_chemical_formula_sum "Si O2"
_cell_formula_units_Z 48
_cell_length_a 8.406851
_cell_length_b 15.852216
_cell_length_c 17.864439
_cell_angle_alpha 90.000000
_cell_angle_beta 90.000000
_cell_angle_gamma 90.000000
_cell_volume 2380.744085
_symmetry_space_group_name_H-M "C 2 2 21"
_symmetry_group_IT_number 20
_symmetry_cell_setting 'orthorhombic'
loop_
_space_group_symop_operation_xyz
x,y,z
-x,-y,1/2+z
x,-y,-z
-x,y,1/2-z
1/2+x,1/2+y,z
1/2-x,1/2-y,1/2+z
1/2+x,1/2-y,-z
1/2-x,1/2+y,1/2-z
loop_
_atom_site_type_symbol
_atom_site_label
_atom_site_fract_x
_atom_site_fract_y
_atom_site_fract_z
Si Si1 0.315031 0.452789 0.423077
Si Si2 0.530874 0.974347 0.662441
Si Si3 0.626511 0.782399 0.449303
Si Si4 0.085865 0.652537 0.829924
Si Si5 0.955669 0.148060 0.829968
Si Si6 0.427013 0.197439 0.407351
O O1 0.352576 0.500000 0.500000
O O2 0.215533 0.510027 0.362687
O O3 0.215394 0.370822 0.443948
O O4 0.483987 0.423110 0.388444
O O5 0.500000 0.955597 0.750000
O O6 0.458470 0.897955 0.615593
O O7 0.434780 0.057719 0.639249
O O8 0.491028 0.779167 0.385567
O O9 0.549212 0.770970 0.529806
O O10 0.746166 0.704041 0.437100
O O11 0.271110 0.670295 0.830174
O O12 0.000000 0.661702 0.750000
O O13 0.000000 0.110065 0.750000
O O14 0.049352 0.236698 0.839669
#
# Coordination Sequence:
#
# PCOD8158772 Si02
#       6
#     8   8   8   8   8   8
#     4  10  20  40  63  88 123 161 200 251 311 364
#     4  10  20  37  63  89 120 158 200 251 307 359
#     4  10  21  37  59  86 121 164 197 251 305 367
#     4  10  21  40  60  86 118 160 210 248 303 369
#     4  11  22  39  62  86 119 162 203 250 308 376
#     4  11  21  37  59  88 123 158 208 248 310 356
#
# _framework density 20.161764999999999
#
# number of rings (size 3 to 8) (size 9 to 14) (size 15 to 20)
#    0.000    1.667    1.667    5.500    0.000    0.000 
#    9.000    0.000    0.000    4.000    0.000    0.000 
#    0.000    0.000    0.000    0.000    0.000    0.000 
#
# Total GULP energy -297528.887757 kJ/mol
# GULP energy per Si atom -12397.036990 kJ/mol
# Density = 2.011588 g / cm^3
# Si number density = 20.161765 Si / 1000 Ang^3
#
#
#
# Elastic Constant Matrix: (Units=GPa)
#
#
# Indices 1 2 3 4 5 6 
#
# 1 118.4618 12.8325 40.8127 0.0000 0.0000 0.0000
# 2 12.8325 57.4279 17.6535 0.0000 0.0000 0.0000
# 3 40.8127 17.6535 99.6831 0.0000 0.0000 0.0000
# 4 0.0000 0.0000 0.0000 19.3559 0.0000 0.0000
# 5 0.0000 0.0000 0.0000 0.0000 38.3932 0.0000
# 6 0.0000 0.0000 0.0000 0.0000 0.0000 16.5299
#
#
#
# Elastic Compliance Matrix: (Units=1/GPa)
#
#
# Indices 1 2 3 4 5 6 
#
# 1 0.009884 -0.001020 -0.003866 0.000000 0.000000 0.000000
# 2 -0.001020 0.018521 -0.002862 0.000000 0.000000 0.000000
# 3 -0.003866 -0.002862 0.012122 0.000000 0.000000 0.000000
# 4 0.000000 0.000000 0.000000 0.051664 0.000000 0.000000
# 5 0.000000 0.000000 0.000000 0.000000 0.026046 0.000000
# 6 0.000000 0.000000 0.000000 0.000000 0.000000 0.060497
#
#
# Mechanical properties :
#
#
# Convention : Reuss Voigt Hill
#
# Bulk Modulus (GPa) = 39.95303 46.46337 43.20820
# Shear Modulus (GPa) = 24.68241 28.47408 26.57825
#
# Velocity S-wave (km/s) = 3.50268 3.76211 3.63471
# Velocity P-wave (km/s) = 6.01811 6.47816 6.25237
#
# Compressibility (1/GPa) = 0.02502939
#
# Stress axis : x y z
#
# Youngs Moduli (GPa) = 101.17367 53.99284 82.49766
#
# Poissons Ratio (x) = 0.05508 0.31894
# Poissons Ratio (y) = 0.10322 0.23613
# Poissons Ratio (z) = 0.39114 0.15454
#
# Static dielectric constant tensor:
#      x y z
#    x 3.745480 0.000000 0.000000 
#    y 0.000000 3.520690 0.000000 
#    z 0.000000 0.000000 4.056270 
# 
# 
# High freq. dielectric constant tensor:
#      x y z
#    x 1.787470 0.000000 0.000000 
#    y 0.000000 1.770500 0.000000 
#    z 0.000000 0.000000 1.798090 
# 
# From -- ./inp_files/18904.got.cif
#   From: 2010.03.12/outbox.cif.g09.slc.cpg/sg20_10_cif.got.tgz:18904.got - 2010.04.14 01:38:04.
