data_PCOD8158149
_publ_section_title
;
Structure prediction by ZEFSAII (Michael W. Deem and Ramdas Pophale) SiO2 
 PCOD8158149
Probable space group: C 2 2 21
;
_chemical_formula_sum "Si O2"
_cell_formula_units_Z 48
_cell_length_a 15.811934
_cell_length_b 9.397594
_cell_length_c 17.114993
_cell_angle_alpha 90.000000
_cell_angle_beta 90.000000
_cell_angle_gamma 90.000000
_cell_volume 2543.187599
_symmetry_space_group_name_H-M "C 2 2 21"
_symmetry_group_IT_number 20
_symmetry_cell_setting 'orthorhombic'
loop_
_space_group_symop_operation_xyz
x,y,z
-x,-y,1/2+z
x,-y,-z
-x,y,1/2-z
1/2+x,1/2+y,z
1/2-x,1/2-y,1/2+z
1/2+x,1/2-y,-z
1/2-x,1/2+y,1/2-z
loop_
_atom_site_type_symbol
_atom_site_label
_atom_site_fract_x
_atom_site_fract_y
_atom_site_fract_z
Si Si1 0.132257 0.116786 0.936358
Si Si2 0.862934 0.633665 0.546628
Si Si3 0.207179 0.049638 0.195004
Si Si4 0.213952 0.847460 0.339966
Si Si5 0.546604 0.542139 0.588663
Si Si6 0.464775 0.293583 0.671663
O O1 0.038577 0.137820 0.899087
O O2 0.205329 0.060709 0.878170
O O3 0.164955 0.255178 0.980156
O O4 0.111078 0.000000 0.000000
O O5 0.898806 0.500000 0.500000
O O6 0.778893 0.599953 0.594476
O O7 0.937324 0.683221 0.604791
O O8 0.272520 0.181003 0.183217
O O9 0.113969 0.113409 0.200817
O O10 0.232064 0.954592 0.268679
O O11 0.120113 0.863045 0.373246
O O12 0.569397 0.500000 0.500000
O O13 0.536865 0.395152 0.636537
O O14 0.500000 0.215359 0.750000
#
# Coordination Sequence:
#
# PCOD8158149 Si02
#       6
#     8   8   8   8   8   8
#     4  10  18  40  64  82 114 165 203 243 304 367
#     4  11  23  39  62  89 124 163 205 256 317 368
#     4  10  22  36  60  89 125 154 202 251 306 368
#     4  11  22  37  58  94 121 158 201 255 308 360
#     4  10  18  35  66  89 108 154 219 242 279 379
#     4  10  18  38  64  85 116 166 202 248 309 367
#
# _framework density 18.873951999999999
#
# number of rings (size 3 to 8) (size 9 to 14) (size 15 to 20)
#    0.000    1.667    8.333    0.500    2.333    0.000 
#    0.000    3.333    3.667    0.000    0.000    0.000 
#    0.000    0.000    0.000    0.000    0.000    0.000 
#
# Total GULP energy -297434.074948 kJ/mol
# GULP energy per Si atom -12393.086456 kJ/mol
# Density = 1.883099 g / cm^3
# Si number density = 18.873952 Si / 1000 Ang^3
#
#
#
# Elastic Constant Matrix: (Units=GPa)
#
#
# Indices 1 2 3 4 5 6 
#
# 1 84.8172 48.1069 54.3270 0.0000 0.0000 0.0000
# 2 48.1069 119.5265 82.6680 0.0000 0.0000 0.0000
# 3 54.3270 82.6680 129.6535 0.0000 0.0000 0.0000
# 4 0.0000 0.0000 0.0000 41.3848 0.0000 0.0000
# 5 0.0000 0.0000 0.0000 0.0000 34.7461 0.0000
# 6 0.0000 0.0000 0.0000 0.0000 0.0000 25.8668
#
#
#
# Elastic Compliance Matrix: (Units=1/GPa)
#
#
# Indices 1 2 3 4 5 6 
#
# 1 0.016852 -0.003397 -0.004896 0.000000 0.000000 0.000000
# 2 -0.003397 0.015651 -0.008556 0.000000 0.000000 0.000000
# 3 -0.004896 -0.008556 0.015219 0.000000 0.000000 0.000000
# 4 0.000000 0.000000 0.000000 0.024163 0.000000 0.000000
# 5 0.000000 0.000000 0.000000 0.000000 0.028780 0.000000
# 6 0.000000 0.000000 0.000000 0.000000 0.000000 0.038660
#
#
# Mechanical properties :
#
#
# Convention : Reuss Voigt Hill
#
# Bulk Modulus (GPa) = 71.29452 78.24457 74.76954
# Shear Modulus (GPa) = 28.13761 30.32590 29.23176
#
# Velocity S-wave (km/s) = 3.86530 4.01279 3.93973
# Velocity P-wave (km/s) = 7.60110 7.93828 7.77152
#
# Compressibility (1/GPa) = 0.01402632
#
# Stress axis : x y z
#
# Youngs Moduli (GPa) = 59.33870 63.89379 65.70518
#
# Poissons Ratio (x) = 0.21703 0.32167
# Poissons Ratio (y) = 0.20156 0.56216
# Poissons Ratio (z) = 0.29050 0.54667
#
# Static dielectric constant tensor:
#      x y z
#    x 3.265360 0.000000 0.000000 
#    y 0.000000 3.220710 0.000000 
#    z 0.000000 0.000000 3.726460 
# 
# 
# High freq. dielectric constant tensor:
#      x y z
#    x 1.714820 0.000000 0.000000 
#    y 0.000000 1.712470 0.000000 
#    z 0.000000 0.000000 1.753000 
# 
# From -- ./inp_files/25156.got.cif
#   From: 2010.03.12/outbox.cif.g09.slc.cpg/sg20_13_cif.got.tgz:25156.got - 2010.04.14 01:38:04.
