data_PCOD8158077
_publ_section_title
;
Structure prediction by ZEFSAII (Michael W. Deem and Ramdas Pophale) SiO2 
 PCOD8158077
Probable space group: C 2 2 21
;
_chemical_formula_sum "Si O2"
_cell_formula_units_Z 32
_cell_length_a 36.286911
_cell_length_b 4.993481
_cell_length_c 8.657377
_cell_angle_alpha 90.000000
_cell_angle_beta 90.000000
_cell_angle_gamma 90.000000
_cell_volume 1568.699403
_symmetry_space_group_name_H-M "C 2 2 21"
_symmetry_group_IT_number 20
_symmetry_cell_setting 'orthorhombic'
loop_
_space_group_symop_operation_xyz
x,y,z
-x,-y,1/2+z
x,-y,-z
-x,y,1/2-z
1/2+x,1/2+y,z
1/2-x,1/2-y,1/2+z
1/2+x,1/2-y,-z
1/2-x,1/2+y,1/2-z
loop_
_atom_site_type_symbol
_atom_site_label
_atom_site_fract_x
_atom_site_fract_y
_atom_site_fract_z
Si Si1 0.960599 0.523724 0.316169
Si Si2 0.732757 0.078520 0.823676
Si Si3 0.918242 0.972443 0.682667
Si Si4 0.655284 0.251973 0.895585
O O1 0.962779 0.500000 0.500000
O O2 0.947601 0.238836 0.249497
O O3 0.000000 0.605449 0.250000
O O4 0.930212 0.738183 0.253275
O O5 0.758860 0.327864 0.785547
O O6 0.690003 0.155668 0.794876
O O7 0.739794 0.000000 0.000000
O O8 0.876883 0.864229 0.718467
O O9 0.920543 0.000000 0.500000
O O10 0.669109 0.500000 0.000000
O O11 0.640588 0.000000 0.000000
#
# Coordination Sequence:
#
# PCOD8158077 Si02
#       4
#     8   8   8   8
#     4  10  19  31  49  74 102 132 166 210 261 312
#     4  11  22  37  58  86 117 150 187 233 286 340
#     4   9  17  30  50  75 100 129 173 220 256 298
#     4  10  18  32  54  81 107 137 181 231 271 314
#
# _framework density 20.399063000000002
#
# number of rings (size 3 to 8) (size 9 to 14) (size 15 to 20)
#    0.000    2.000    0.000    8.250    0.000    0.000 
#    0.000    0.000    0.000    6.000    0.000    8.750 
#    0.000    0.000    0.000    0.000    0.000    0.000 
#
# Total GULP energy -198268.502067 kJ/mol
# GULP energy per Si atom -12391.781379 kJ/mol
# Density = 2.035263 g / cm^3
# Si number density = 20.399063 Si / 1000 Ang^3
#
#
#
# Elastic Constant Matrix: (Units=GPa)
#
#
# Indices 1 2 3 4 5 6 
#
# 1 151.6306 60.6425 42.7258 0.0000 0.0000 0.0000
# 2 60.6425 144.7745 29.3664 0.0000 0.0000 0.0000
# 3 42.7258 29.3664 24.6931 0.0000 0.0000 0.0000
# 4 0.0000 0.0000 0.0000 25.1503 0.0000 0.0000
# 5 0.0000 0.0000 0.0000 0.0000 21.2502 0.0000
# 6 0.0000 0.0000 0.0000 0.0000 0.0000 467.1210
#
#
#
# Elastic Compliance Matrix: (Units=1/GPa)
#
#
# Indices 1 2 3 4 5 6 
#
# 1 0.013017 -0.001165 -0.021137 0.000000 0.000000 0.000000
# 2 -0.001165 0.009208 -0.008935 0.000000 0.000000 0.000000
# 3 -0.021137 -0.008935 0.087696 0.000000 0.000000 0.000000
# 4 0.000000 0.000000 0.000000 0.039761 0.000000 0.000000
# 5 0.000000 0.000000 0.000000 0.000000 0.047058 0.000000
# 6 0.000000 0.000000 0.000000 0.000000 0.000000 0.002141
#
#
# Mechanical properties :
#
#
# Convention : Reuss Voigt Hill
#
# Bulk Modulus (GPa) = 21.07624 65.17417 43.12521
# Shear Modulus (GPa) = 18.03950 115.26185 66.65068
#
# Velocity S-wave (km/s) = 2.97699 7.52504 5.72227
# Velocity P-wave (km/s) = 4.70862 10.36921 8.05269
#
# Compressibility (1/GPa) = 0.04744678
#
# Stress axis : x y z
#
# Youngs Moduli (GPa) = 76.82362 108.60665 11.40304
#
# Poissons Ratio (x) = 0.12651 0.24103
# Poissons Ratio (y) = 0.08949 0.10188
# Poissons Ratio (z) = 1.62384 0.97035
#
# Static dielectric constant tensor:
#      x y z
#    x 3.962590 0.000000 0.000000 
#    y 0.000000 4.380990 0.000000 
#    z 0.000000 0.000000 2.801150 
# 
# 
# High freq. dielectric constant tensor:
#      x y z
#    x 1.808370 0.000000 0.000000 
#    y 0.000000 1.832890 0.000000 
#    z 0.000000 0.000000 1.717240 
# 
# From -- ./inp_files/11238.got.cif
#   From: 2010.03.12/outbox.cif.g09.slc.cpg/sg20_6_cif.got.tgz:11238.got - 2010.04.14 01:38:04.
