data_PCOD8158745
_publ_section_title
;
Structure prediction by ZEFSAII (Michael W. Deem and Ramdas Pophale) SiO2 
 PCOD8158745
Probable space group: C 2 2 21
;
_chemical_formula_sum "Si O2"
_cell_formula_units_Z 44
_cell_length_a 24.385057
_cell_length_b 8.385992
_cell_length_c 10.984914
_cell_angle_alpha 90.000000
_cell_angle_beta 90.000000
_cell_angle_gamma 90.000000
_cell_volume 2246.336842
_symmetry_space_group_name_H-M "C 2 2 21"
_symmetry_group_IT_number 20
_symmetry_cell_setting 'orthorhombic'
loop_
_space_group_symop_operation_xyz
x,y,z
-x,-y,1/2+z
x,-y,-z
-x,y,1/2-z
1/2+x,1/2+y,z
1/2-x,1/2-y,1/2+z
1/2+x,1/2-y,-z
1/2-x,1/2+y,1/2-z
loop_
_atom_site_type_symbol
_atom_site_label
_atom_site_fract_x
_atom_site_fract_y
_atom_site_fract_z
Si Si1 0.000000 0.132870 0.250000
Si Si2 0.131077 0.813986 0.011762
Si Si3 0.818152 0.178365 0.764752
Si Si4 0.272625 0.599944 0.374453
Si Si5 0.013748 0.316326 0.003523
Si Si6 0.429881 0.401838 0.121422
O O1 0.997367 0.245108 0.365035
O O2 0.947288 0.016739 0.234001
O O3 0.163398 0.762499 0.132774
O O4 0.174285 0.785686 0.900659
O O5 0.078482 0.702085 0.015736
O O6 0.112727 0.000000 0.000000
O O7 0.779549 0.299283 0.836676
O O8 0.871358 0.171368 0.849742
O O9 0.786699 0.011300 0.742024
O O10 0.261417 0.500000 0.500000
O O11 0.997206 0.500000 0.000000
O O12 0.977429 0.230328 0.899856
O O13 0.423110 0.500000 0.000000
#
# Coordination Sequence:
#
# PCOD8158745 Si02
#       6
#     4   8   8   8   8   8
#     4  10  20  40  60  78 116 162 192 228 290 366
#     4   9  19  38  59  79 111 156 195 227 284 367
#     4  10  20  37  59  81 112 150 191 240 285 330
#     4   9  21  38  57  83 111 148 193 235 281 342
#     4  11  23  37  58  92 119 144 195 251 293 335
#     4  10  21  36  59  84 114 158 195 225 285 365
#
# _framework density 19.587444999999999
#
# number of rings (size 3 to 8) (size 9 to 14) (size 15 to 20)
#    0.000    2.545    0.000    4.909    0.000    7.273 
#    0.000    3.636    0.000    0.000    0.000    0.000 
#    0.000    0.000    0.000    0.000    0.000    0.000 
#
# Total GULP energy -272581.034204 kJ/mol
# GULP energy per Si atom -12390.047009 kJ/mol
# Density = 1.954286 g / cm^3
# Si number density = 19.587445 Si / 1000 Ang^3
#
#
#
# Elastic Constant Matrix: (Units=GPa)
#
#
# Indices 1 2 3 4 5 6 
#
# 1 155.1601 69.5244 44.0264 0.0000 0.0000 0.0000
# 2 69.5244 91.4170 55.3776 0.0000 0.0000 0.0000
# 3 44.0264 55.3776 62.5505 0.0000 0.0000 0.0000
# 4 0.0000 0.0000 0.0000 24.6570 0.0000 0.0000
# 5 0.0000 0.0000 0.0000 0.0000 29.8115 0.0000
# 6 0.0000 0.0000 0.0000 0.0000 0.0000 37.1751
#
#
#
# Elastic Compliance Matrix: (Units=1/GPa)
#
#
# Indices 1 2 3 4 5 6 
#
# 1 0.009789 -0.007054 -0.000645 0.000000 0.000000 0.000000
# 2 -0.007054 0.028674 -0.020421 0.000000 0.000000 0.000000
# 3 -0.000645 -0.020421 0.034520 0.000000 0.000000 0.000000
# 4 0.000000 0.000000 0.000000 0.040556 0.000000 0.000000
# 5 0.000000 0.000000 0.000000 0.000000 0.033544 0.000000
# 6 0.000000 0.000000 0.000000 0.000000 0.000000 0.026900
#
#
# Mechanical properties :
#
#
# Convention : Reuss Voigt Hill
#
# Bulk Modulus (GPa) = 59.72453 71.88714 65.80583
# Shear Modulus (GPa) = 21.20418 27.67534 24.43976
#
# Velocity S-wave (km/s) = 3.29377 3.76295 3.53615
# Velocity P-wave (km/s) = 6.70989 7.46056 7.09516
#
# Compressibility (1/GPa) = 0.01674354
#
# Stress axis : x y z
#
# Youngs Moduli (GPa) = 102.15962 34.87511 28.96870
#
# Poissons Ratio (x) = 0.24600 0.01868
# Poissons Ratio (y) = 0.72062 0.59156
# Poissons Ratio (z) = 0.06587 0.71218
#
# Static dielectric constant tensor:
#      x y z
#    x 3.744990 0.000000 0.000000 
#    y 0.000000 3.375760 0.000000 
#    z 0.000000 0.000000 3.599340 
# 
# 
# High freq. dielectric constant tensor:
#      x y z
#    x 1.773270 0.000000 0.000000 
#    y 0.000000 1.737420 0.000000 
#    z 0.000000 0.000000 1.768320 
# 
# From -- ./inp_files/13017.got.cif
#   From: 2010.03.12/outbox.cif.g09.slc.cpg/sg20_7_cif.got.tgz:13017.got - 2010.04.14 01:38:04.
