data_PCOD8158353
_publ_section_title
;
Structure prediction by ZEFSAII (Michael W. Deem and Ramdas Pophale) SiO2 
 PCOD8158353
Probable space group: C 2 2 21
;
_chemical_formula_sum "Si O2"
_cell_formula_units_Z 64
_cell_length_a 16.849308
_cell_length_b 9.029644
_cell_length_c 21.002975
_cell_angle_alpha 90.000000
_cell_angle_beta 90.000000
_cell_angle_gamma 90.000000
_cell_volume 3195.460937
_symmetry_space_group_name_H-M "C 2 2 21"
_symmetry_group_IT_number 20
_symmetry_cell_setting 'orthorhombic'
loop_
_space_group_symop_operation_xyz
x,y,z
-x,-y,1/2+z
x,-y,-z
-x,y,1/2-z
1/2+x,1/2+y,z
1/2-x,1/2-y,1/2+z
1/2+x,1/2-y,-z
1/2-x,1/2+y,1/2-z
loop_
_atom_site_type_symbol
_atom_site_label
_atom_site_fract_x
_atom_site_fract_y
_atom_site_fract_z
Si Si1 0.145836 0.523787 0.147528
Si Si2 0.906596 0.486520 0.927413
Si Si3 0.583291 0.720859 0.771837
Si Si4 0.466970 0.200830 0.597173
Si Si5 0.062118 0.690579 0.045040
Si Si6 0.742514 0.037045 0.337245
Si Si7 0.734160 0.351123 0.283966
Si Si8 0.908709 0.021958 0.610800
O O1 0.130678 0.635284 0.205300
O O2 0.084656 0.385033 0.150179
O O3 0.233922 0.458617 0.159755
O O4 0.136359 0.614057 0.081726
O O5 0.978741 0.366636 0.924476
O O6 0.836711 0.441349 0.879410
O O7 0.941731 0.644879 0.902839
O O8 0.874338 0.500000 0.000000
O O9 0.500000 0.783506 0.750000
O O10 0.637792 0.645980 0.716950
O O11 0.564109 0.600065 0.824764
O O12 0.431015 0.149821 0.528721
O O13 0.462277 0.375781 0.605322
O O14 0.070288 0.868347 0.052376
O O15 0.763772 0.185211 0.298263
O O16 0.814455 0.009214 0.386800
O O17 0.734642 0.902332 0.286373
#
# Coordination Sequence:
#
# PCOD8158353 Si02
#       8
#     8   8   8   8   8   8   8   8
#     4  10  19  35  58  84 113 157 202 229 298 362
#     4   9  21  41  65  87 116 159 208 245 298 362
#     4  10  23  40  59  84 115 160 200 240 302 362
#     4  10  19  37  59  93 119 152 200 259 295 358
#     4   9  20  37  63  87 121 157 198 249 304 363
#     4  11  23  41  60  85 124 163 201 248 304 360
#     4  11  22  38  61  84 121 157 199 252 298 358
#     4  10  21  37  59  89 118 152 197 240 304 358
#
# _framework density 20.028409
#
# number of rings (size 3 to 8) (size 9 to 14) (size 15 to 20)
#    0.000    2.000    2.500    1.500    5.250    1.000 
#    4.500    0.625    0.000    0.000    0.000    0.000 
#    0.000    0.000    0.000    0.000    0.000    0.000 
#
# Total GULP energy -396569.840763 kJ/mol
# GULP energy per Si atom -12392.807524 kJ/mol
# Density = 1.998282 g / cm^3
# Si number density = 20.028409 Si / 1000 Ang^3
#
#
#
# Elastic Constant Matrix: (Units=GPa)
#
#
# Indices 1 2 3 4 5 6 
#
# 1 90.9876 50.1515 39.1325 0.0000 0.0000 0.0000
# 2 50.1515 124.3197 32.8188 0.0000 0.0000 0.0000
# 3 39.1325 32.8188 55.5794 0.0000 0.0000 0.0000
# 4 0.0000 0.0000 0.0000 23.6585 0.0000 0.0000
# 5 0.0000 0.0000 0.0000 0.0000 28.4545 0.0000
# 6 0.0000 0.0000 0.0000 0.0000 0.0000 23.0253
#
#
#
# Elastic Compliance Matrix: (Units=1/GPa)
#
#
# Indices 1 2 3 4 5 6 
#
# 1 0.017710 -0.004564 -0.009774 0.000000 0.000000 0.000000
# 2 -0.004564 0.010705 -0.003108 0.000000 0.000000 0.000000
# 3 -0.009774 -0.003108 0.026709 0.000000 0.000000 0.000000
# 4 0.000000 0.000000 0.000000 0.042268 0.000000 0.000000
# 5 0.000000 0.000000 0.000000 0.000000 0.035144 0.000000
# 6 0.000000 0.000000 0.000000 0.000000 0.000000 0.043431
#
#
# Mechanical properties :
#
#
# Convention : Reuss Voigt Hill
#
# Bulk Modulus (GPa) = 49.42606 57.23247 53.32926
# Shear Modulus (GPa) = 22.97756 24.94659 23.96207
#
# Velocity S-wave (km/s) = 3.39078 3.53308 3.46266
# Velocity P-wave (km/s) = 6.32941 6.72913 6.53233
#
# Compressibility (1/GPa) = 0.02023224
#
# Stress axis : x y z
#
# Youngs Moduli (GPa) = 56.46543 93.41091 37.44008
#
# Poissons Ratio (x) = 0.42633 0.36595
# Poissons Ratio (y) = 0.25771 0.11636
# Poissons Ratio (z) = 0.55191 0.29031
#
# Static dielectric constant tensor:
#      x y z
#    x 3.442010 0.000000 0.000000 
#    y 0.000000 3.814010 0.000000 
#    z 0.000000 0.000000 3.581210 
# 
# 
# High freq. dielectric constant tensor:
#      x y z
#    x 1.757650 0.000000 0.000000 
#    y 0.000000 1.794240 0.000000 
#    z 0.000000 0.000000 1.770970 
# 
# From -- ./inp_files/29347.got.cif
#   From: 2010.03.12/outbox.cif.g09.slc.cpg/sg20_15_cif.got.tgz:29347.got - 2010.04.14 01:38:04.
