data_PCOD8158914
_publ_section_title
;
Structure prediction by ZEFSAII (Michael W. Deem and Ramdas Pophale) SiO2 
 PCOD8158914
Probable space group: C 2 2 21
;
_chemical_formula_sum "Si O2"
_cell_formula_units_Z 56
_cell_length_a 8.612852
_cell_length_b 12.557600
_cell_length_c 22.481131
_cell_angle_alpha 90.000000
_cell_angle_beta 90.000000
_cell_angle_gamma 90.000000
_cell_volume 2431.486071
_symmetry_space_group_name_H-M "C 2 2 21"
_symmetry_group_IT_number 20
_symmetry_cell_setting 'orthorhombic'
loop_
_space_group_symop_operation_xyz
x,y,z
-x,-y,1/2+z
x,-y,-z
-x,y,1/2-z
1/2+x,1/2+y,z
1/2-x,1/2-y,1/2+z
1/2+x,1/2-y,-z
1/2-x,1/2+y,1/2-z
loop_
_atom_site_type_symbol
_atom_site_label
_atom_site_fract_x
_atom_site_fract_y
_atom_site_fract_z
Si Si1 0.020368 0.670414 0.422487
Si Si2 0.430347 0.553364 0.329395
Si Si3 0.834517 0.845481 0.265867
Si Si4 0.969303 0.702157 0.941967
Si Si5 0.236157 0.016408 0.936637
Si Si6 0.712415 0.328253 0.643744
Si Si7 0.272800 0.774900 0.353100
O O1 0.979242 0.713598 0.489071
O O2 0.130769 0.570394 0.427803
O O3 0.105064 0.762888 0.384957
O O4 0.870331 0.630681 0.386000
O O5 0.364718 0.468976 0.281848
O O6 0.405061 0.491646 0.391393
O O7 0.614533 0.581855 0.319184
O O8 0.329594 0.660852 0.327940
O O9 0.743077 0.776391 0.315448
O O10 0.736671 0.850174 0.204517
O O11 0.000000 0.789493 0.250000
O O12 0.820141 0.628636 0.932610
O O13 0.907769 0.809856 0.911327
O O14 0.117828 0.668690 0.902329
O O15 0.155826 0.000000 0.000000
#
# Coordination Sequence:
#
# PCOD8158914 Si02
#       7
#     8   8   8   8   8   8   8
#     4  10  20  40  65  97 140 174 228 293 351 419
#     4  10  24  44  68  97 135 187 232 288 359 416
#     4  12  25  44  65  98 141 179 237 302 339 426
#     4  10  20  39  68 100 135 179 228 287 357 423
#     4   9  19  40  65  97 138 176 223 287 351 423
#     4  11  23  42  67  98 136 184 240 282 356 417
#     4  10  23  42  67 100 136 185 239 282 357 432
#
# _framework density 23.031185000000001
#
# number of rings (size 3 to 8) (size 9 to 14) (size 15 to 20)
#    0.000    1.714    2.857    0.857    2.000    4.000 
#    0.000    2.143    0.000    0.000    0.000    0.000 
#    0.000    0.000    0.000    0.000    0.000    0.000 
#
# Total GULP energy -346908.621247 kJ/mol
# GULP energy per Si atom -12389.593616 kJ/mol
# Density = 2.297876 g / cm^3
# Si number density = 23.031185 Si / 1000 Ang^3
#
#
#
# Elastic Constant Matrix: (Units=GPa)
#
#
# Indices 1 2 3 4 5 6 
#
# 1 100.5784 19.5702 44.9054 0.0000 0.0000 0.0000
# 2 19.5702 74.1727 43.8861 0.0000 0.0000 0.0000
# 3 44.9054 43.8861 155.0102 0.0000 0.0000 0.0000
# 4 0.0000 0.0000 0.0000 31.6764 0.0000 0.0000
# 5 0.0000 0.0000 0.0000 0.0000 43.3725 0.0000
# 6 0.0000 0.0000 0.0000 0.0000 0.0000 10.3234
#
#
#
# Elastic Compliance Matrix: (Units=1/GPa)
#
#
# Indices 1 2 3 4 5 6 
#
# 1 0.011520 -0.001279 -0.002975 0.000000 0.000000 0.000000
# 2 -0.001279 0.016337 -0.004255 0.000000 0.000000 0.000000
# 3 -0.002975 -0.004255 0.008518 0.000000 0.000000 0.000000
# 4 0.000000 0.000000 0.000000 0.031569 0.000000 0.000000
# 5 0.000000 0.000000 0.000000 0.000000 0.023056 0.000000
# 6 0.000000 0.000000 0.000000 0.000000 0.000000 0.096867
#
#
# Mechanical properties :
#
#
# Convention : Reuss Voigt Hill
#
# Bulk Modulus (GPa) = 51.66243 60.72052 56.19147
# Shear Modulus (GPa) = 23.65893 31.83445 27.74669
#
# Velocity S-wave (km/s) = 3.20856 3.72187 3.47471
# Velocity P-wave (km/s) = 6.01720 6.70011 6.36782
#
# Compressibility (1/GPa) = 0.01935643
#
# Stress axis : x y z
#
# Youngs Moduli (GPa) = 86.80820 61.21092 117.40387
#
# Poissons Ratio (x) = 0.07830 0.34928
# Poissons Ratio (y) = 0.11104 0.49952
# Poissons Ratio (z) = 0.25825 0.26043
#
# Static dielectric constant tensor:
#      x y z
#    x 4.214330 0.000000 0.000000 
#    y 0.000000 3.975410 0.000000 
#    z 0.000000 0.000000 4.573450 
# 
# 
# High freq. dielectric constant tensor:
#      x y z
#    x 1.906400 0.000000 0.000000 
#    y 0.000000 1.887360 0.000000 
#    z 0.000000 0.000000 1.931440 
# 
# From -- ./inp_files/26729.got.cif
#   From: 2010.03.12/outbox.cif.g09.slc.cpg/sg20_14_cif.got.tgz:26729.got - 2010.04.14 01:38:04.
