data_PCOD8158156
_publ_section_title
;
Structure prediction by ZEFSAII (Michael W. Deem and Ramdas Pophale) SiO2 
 PCOD8158156
Probable space group: C 2 2 21
;
_chemical_formula_sum "Si O2"
_cell_formula_units_Z 64
_cell_length_a 8.659198
_cell_length_b 18.409000
_cell_length_c 19.955252
_cell_angle_alpha 90.000000
_cell_angle_beta 90.000000
_cell_angle_gamma 90.000000
_cell_volume 3181.010367
_symmetry_space_group_name_H-M "C 2 2 21"
_symmetry_group_IT_number 20
_symmetry_cell_setting 'orthorhombic'
loop_
_space_group_symop_operation_xyz
x,y,z
-x,-y,1/2+z
x,-y,-z
-x,y,1/2-z
1/2+x,1/2+y,z
1/2-x,1/2-y,1/2+z
1/2+x,1/2-y,-z
1/2-x,1/2+y,1/2-z
loop_
_atom_site_type_symbol
_atom_site_label
_atom_site_fract_x
_atom_site_fract_y
_atom_site_fract_z
Si Si1 0.628689 0.417754 0.855214
Si Si2 0.526050 0.798085 0.446468
Si Si3 0.172561 0.618023 0.230703
Si Si4 0.821193 0.563277 0.411879
Si Si5 0.948790 0.968348 0.067890
Si Si6 0.419128 0.283577 0.815758
Si Si7 0.848694 0.574849 0.027572
Si Si8 0.183067 0.169381 0.516528
O O1 0.736635 0.423725 0.790048
O O2 0.546489 0.496475 0.870290
O O3 0.499543 0.357231 0.842929
O O4 0.729165 0.391363 0.918949
O O5 0.582553 0.778045 0.372111
O O6 0.618758 0.870693 0.466335
O O7 0.340516 0.807558 0.445689
O O8 0.575628 0.737907 0.500711
O O9 0.176250 0.565122 0.167914
O O10 0.248173 0.694586 0.208619
O O11 0.000000 0.638187 0.250000
O O12 0.731547 0.490305 0.430253
O O13 0.730789 0.631069 0.446250
O O14 0.993953 0.555784 0.435629
O O15 0.930908 0.880838 0.063062
O O16 0.025205 0.000000 0.000000
O O17 0.500000 0.250747 0.750000
O O18 0.777844 0.500000 0.000000
#
# Coordination Sequence:
#
# PCOD8158156 Si02
#       8
#     8   8   8   8   8   8   8   8
#     4  11  21  34  60  93 120 159 209 259 300 364
#     4  11  21  38  61  91 125 162 209 256 313 377
#     4  11  20  36  61  90 125 167 216 256 293 367
#     4  10  18  36  57  86 125 164 207 244 312 357
#     4  10  19  35  58  85 126 159 197 254 314 354
#     4  10  21  38  62  88 122 165 209 251 304 369
#     4  11  23  37  59  92 124 156 203 262 316 370
#     4  10  21  35  61  92 121 166 199 259 312 372
#
# _framework density 20.119394
#
# number of rings (size 3 to 8) (size 9 to 14) (size 15 to 20)
#    0.000    1.500    3.750    3.750    0.000    1.000 
#    0.000    0.000    5.500    0.000    0.000    0.000 
#    0.000    0.000    0.000    0.000    0.000    0.000 
#
# Total GULP energy -396640.925976 kJ/mol
# GULP energy per Si atom -12395.028937 kJ/mol
# Density = 2.007360 g / cm^3
# Si number density = 20.119394 Si / 1000 Ang^3
#
#
#
# Elastic Constant Matrix: (Units=GPa)
#
#
# Indices 1 2 3 4 5 6 
#
# 1 109.6464 29.4517 44.0670 0.0000 0.0000 0.0000
# 2 29.4517 98.9192 46.2138 0.0000 0.0000 0.0000
# 3 44.0670 46.2138 130.4859 0.0000 0.0000 0.0000
# 4 0.0000 0.0000 0.0000 28.0392 0.0000 0.0000
# 5 0.0000 0.0000 0.0000 0.0000 26.9180 0.0000
# 6 0.0000 0.0000 0.0000 0.0000 0.0000 19.5430
#
#
#
# Elastic Compliance Matrix: (Units=1/GPa)
#
#
# Indices 1 2 3 4 5 6 
#
# 1 0.010818 -0.001814 -0.003011 0.000000 0.000000 0.000000
# 2 -0.001814 0.012418 -0.003785 0.000000 0.000000 0.000000
# 3 -0.003011 -0.003785 0.010021 0.000000 0.000000 0.000000
# 4 0.000000 0.000000 0.000000 0.035664 0.000000 0.000000
# 5 0.000000 0.000000 0.000000 0.000000 0.037150 0.000000
# 6 0.000000 0.000000 0.000000 0.000000 0.000000 0.051169
#
#
# Mechanical properties :
#
#
# Convention : Reuss Voigt Hill
#
# Bulk Modulus (GPa) = 62.35964 64.27961 63.31962
# Shear Modulus (GPa) = 27.80780 29.52131 28.66456
#
# Velocity S-wave (km/s) = 3.72175 3.83470 3.77864
# Velocity P-wave (km/s) = 7.03780 7.18505 7.11181
#
# Compressibility (1/GPa) = 0.01603601
#
# Stress axis : x y z
#
# Youngs Moduli (GPa) = 92.44246 80.52920 99.78984
#
# Poissons Ratio (x) = 0.14610 0.30044
# Poissons Ratio (y) = 0.16771 0.37774
# Poissons Ratio (z) = 0.27832 0.30483
#
# Static dielectric constant tensor:
#      x y z
#    x 3.848490 0.000000 0.000000 
#    y 0.000000 3.421580 0.000000 
#    z 0.000000 0.000000 3.805680 
# 
# 
# High freq. dielectric constant tensor:
#      x y z
#    x 1.807290 0.000000 0.000000 
#    y 0.000000 1.751350 0.000000 
#    z 0.000000 0.000000 1.780410 
# 
# From -- ./inp_files/26865.got.cif
#   From: 2010.03.12/outbox.cif.g09.slc.cpg/sg20_14_cif.got.tgz:26865.got - 2010.04.14 01:38:04.
