data_PCOD8158728
_publ_section_title
;
Structure prediction by ZEFSAII (Michael W. Deem and Ramdas Pophale) SiO2 
 PCOD8158728
Probable space group: C 2 2 21
;
_chemical_formula_sum "Si O2"
_cell_formula_units_Z 56
_cell_length_a 12.211522
_cell_length_b 15.275533
_cell_length_c 13.694360
_cell_angle_alpha 90.000000
_cell_angle_beta 90.000000
_cell_angle_gamma 90.000000
_cell_volume 2554.511778
_symmetry_space_group_name_H-M "C 2 2 21"
_symmetry_group_IT_number 20
_symmetry_cell_setting 'orthorhombic'
loop_
_space_group_symop_operation_xyz
x,y,z
-x,-y,1/2+z
x,-y,-z
-x,y,1/2-z
1/2+x,1/2+y,z
1/2-x,1/2-y,1/2+z
1/2+x,1/2-y,-z
1/2-x,1/2+y,1/2-z
loop_
_atom_site_type_symbol
_atom_site_label
_atom_site_fract_x
_atom_site_fract_y
_atom_site_fract_z
Si Si1 0.452366 0.844591 0.978441
Si Si2 0.695380 0.198498 0.294965
Si Si3 0.239800 0.085860 0.940138
Si Si4 0.626333 0.381784 0.249720
Si Si5 0.259871 0.925501 0.425110
Si Si6 0.643537 0.744780 0.052961
Si Si7 0.091861 0.446522 0.828393
O O1 0.379402 0.805580 0.891752
O O2 0.544223 0.906151 0.928785
O O3 0.371118 0.897001 0.051991
O O4 0.514158 0.768385 0.041131
O O5 0.651641 0.279306 0.231356
O O6 0.819713 0.214155 0.336546
O O7 0.684205 0.114901 0.223912
O O8 0.199436 0.066495 0.830222
O O9 0.170892 0.168683 0.977290
O O10 0.208702 0.000000 0.000000
O O11 0.500000 0.404616 0.250000
O O12 0.656369 0.410887 0.357626
O O13 0.290622 0.833574 0.475259
O O14 0.224448 0.000000 0.500000
O O15 0.359764 0.959915 0.357858
O O16 0.000000 0.465341 0.750000
#
# Coordination Sequence:
#
# PCOD8158728 Si02
#       7
#     8   8   8   8   8   8   8
#     4  10  20  38  70 101 135 179 228 294 356 410
#     4   9  20  38  66  96 130 189 232 269 353 445
#     4  11  26  42  71 106 144 182 246 293 350 437
#     4  11  24  43  66  93 132 187 234 282 347 426
#     4  11  24  39  66  99 137 176 236 288 351 425
#     4  10  21  40  64 101 142 176 227 293 353 415
#     4  10  20  36  68  96 139 180 225 286 363 423
#
# _framework density 21.921997999999999
#
# number of rings (size 3 to 8) (size 9 to 14) (size 15 to 20)
#    0.000    1.714    1.429    3.000    8.000    0.571 
#    0.000    2.143    0.000    0.857    0.000    0.000 
#    0.000    0.000    0.000    0.000    0.000    0.000 
#
# Total GULP energy -347026.696424 kJ/mol
# GULP energy per Si atom -12393.810587 kJ/mol
# Density = 2.187210 g / cm^3
# Si number density = 21.921998 Si / 1000 Ang^3
#
#
#
# Elastic Constant Matrix: (Units=GPa)
#
#
# Indices 1 2 3 4 5 6 
#
# 1 93.2542 22.7064 43.1395 0.0000 0.0000 0.0000
# 2 22.7064 112.5144 29.8450 0.0000 0.0000 0.0000
# 3 43.1395 29.8450 78.4599 0.0000 0.0000 0.0000
# 4 0.0000 0.0000 0.0000 29.5672 0.0000 0.0000
# 5 0.0000 0.0000 0.0000 0.0000 34.2666 0.0000
# 6 0.0000 0.0000 0.0000 0.0000 0.0000 18.7738
#
#
#
# Elastic Compliance Matrix: (Units=1/GPa)
#
#
# Indices 1 2 3 4 5 6 
#
# 1 0.014463 -0.000900 -0.007610 0.000000 0.000000 0.000000
# 2 -0.000900 0.009941 -0.003287 0.000000 0.000000 0.000000
# 3 -0.007610 -0.003287 0.018180 0.000000 0.000000 0.000000
# 4 0.000000 0.000000 0.000000 0.033821 0.000000 0.000000
# 5 0.000000 0.000000 0.000000 0.000000 0.029183 0.000000
# 6 0.000000 0.000000 0.000000 0.000000 0.000000 0.053266
#
#
# Mechanical properties :
#
#
# Convention : Reuss Voigt Hill
#
# Bulk Modulus (GPa) = 52.65722 52.84559 52.75140
# Shear Modulus (GPa) = 26.48634 29.09067 27.78850
#
# Velocity S-wave (km/s) = 3.47970 3.64676 3.56421
# Velocity P-wave (km/s) = 6.34167 6.47228 6.40731
#
# Compressibility (1/GPa) = 0.01899075
#
# Stress axis : x y z
#
# Youngs Moduli (GPa) = 69.14292 100.59156 55.00697
#
# Poissons Ratio (x) = 0.09055 0.41858
# Poissons Ratio (y) = 0.06224 0.18078
# Poissons Ratio (z) = 0.52615 0.33060
#
# Static dielectric constant tensor:
#      x y z
#    x 4.062630 0.000000 0.000000 
#    y 0.000000 3.972120 0.000000 
#    z 0.000000 0.000000 4.042170 
# 
# 
# High freq. dielectric constant tensor:
#      x y z
#    x 1.846130 0.000000 0.000000 
#    y 0.000000 1.862300 0.000000 
#    z 0.000000 0.000000 1.860940 
# 
# From -- ./inp_files/20044.got.cif
#   From: 2010.03.12/outbox.cif.g09.slc.cpg/sg20_11_cif.got.tgz:20044.got - 2010.04.14 01:38:04.
