data_PCOD8158815
_publ_section_title
;
Structure prediction by ZEFSAII (Michael W. Deem and Ramdas Pophale) SiO2 
 PCOD8158815
Probable space group: C 2 2 21
;
_chemical_formula_sum "Si O2"
_cell_formula_units_Z 60
_cell_length_a 11.910353
_cell_length_b 8.211056
_cell_length_c 27.758389
_cell_angle_alpha 90.000000
_cell_angle_beta 90.000000
_cell_angle_gamma 90.000000
_cell_volume 2714.675385
_symmetry_space_group_name_H-M "C 2 2 21"
_symmetry_group_IT_number 20
_symmetry_cell_setting 'orthorhombic'
loop_
_space_group_symop_operation_xyz
x,y,z
-x,-y,1/2+z
x,-y,-z
-x,y,1/2-z
1/2+x,1/2+y,z
1/2-x,1/2-y,1/2+z
1/2+x,1/2-y,-z
1/2-x,1/2+y,1/2-z
loop_
_atom_site_type_symbol
_atom_site_label
_atom_site_fract_x
_atom_site_fract_y
_atom_site_fract_z
Si Si1 0.925013 0.973662 0.654712
Si Si2 0.732882 0.784566 0.612104
Si Si3 0.778652 0.752535 0.308368
Si Si4 0.447744 0.981573 0.945333
Si Si5 0.500000 0.442132 0.750000
Si Si6 0.201532 0.520708 0.053760
Si Si7 0.214125 0.098255 0.708562
Si Si8 0.618143 0.289117 0.610526
O O1 0.893274 0.158526 0.672613
O O2 0.823440 0.925609 0.620178
O O3 0.933528 0.858349 0.704504
O O4 0.039551 0.945720 0.624025
O O5 0.793448 0.649773 0.580554
O O6 0.700291 0.720664 0.664543
O O7 0.626168 0.853078 0.583848
O O8 0.738016 0.814318 0.256075
O O9 0.793833 0.555827 0.305982
O O10 0.670782 0.792346 0.341679
O O11 0.574180 0.912613 0.946396
O O12 0.451047 0.155939 0.918907
O O13 0.401909 0.000000 0.000000
O O14 0.586448 0.547782 0.718753
O O15 0.277315 0.653933 0.079165
O O16 0.247388 0.500000 0.000000
#
# Coordination Sequence:
#
# PCOD8158815 Si02
#       8
#     8   8   8   8   4   8   8   8
#     4  11  23  40  70  97 139 188 230 283 352 418
#     4  12  23  44  69 102 142 183 240 289 350 431
#     4  11  23  42  69 101 143 187 229 285 349 417
#     4  11  26  47  72 102 139 183 238 297 357 428
#     4  10  20  38  60  98 140 180 224 290 326 414
#     4  11  25  46  70 100 139 180 234 296 355 420
#     4  11  23  41  67  99 144 186 238 288 347 422
#     4  12  23  46  70 101 141 186 226 294 356 410
#
# _framework density 22.10209
#
# number of rings (size 3 to 8) (size 9 to 14) (size 15 to 20)
#    0.000    0.800    5.333    2.400    0.000    3.200 
#    0.000    0.667    0.000    0.000    0.000    0.000 
#    0.000    0.000    0.000    0.000    0.000    0.000 
#
# Total GULP energy -371734.884722 kJ/mol
# GULP energy per Si atom -12391.162824 kJ/mol
# Density = 2.205178 g / cm^3
# Si number density = 22.102090 Si / 1000 Ang^3
#
#
#
# Elastic Constant Matrix: (Units=GPa)
#
#
# Indices 1 2 3 4 5 6 
#
# 1 80.4478 4.0762 42.2633 0.0000 0.0000 0.0000
# 2 4.0762 45.7420 27.2766 0.0000 0.0000 0.0000
# 3 42.2633 27.2766 153.1783 0.0000 0.0000 0.0000
# 4 0.0000 0.0000 0.0000 34.1226 0.0000 0.0000
# 5 0.0000 0.0000 0.0000 0.0000 24.9481 0.0000
# 6 0.0000 0.0000 0.0000 0.0000 0.0000 21.7631
#
#
#
# Elastic Compliance Matrix: (Units=1/GPa)
#
#
# Indices 1 2 3 4 5 6 
#
# 1 0.014599 0.001232 -0.004247 0.000000 0.000000 0.000000
# 2 0.001232 0.024563 -0.004714 0.000000 0.000000 0.000000
# 3 -0.004247 -0.004714 0.008540 0.000000 0.000000 0.000000
# 4 0.000000 0.000000 0.000000 0.029306 0.000000 0.000000
# 5 0.000000 0.000000 0.000000 0.000000 0.040083 0.000000
# 6 0.000000 0.000000 0.000000 0.000000 0.000000 0.045949
#
#
# Mechanical properties :
#
#
# Convention : Reuss Voigt Hill
#
# Bulk Modulus (GPa) = 31.01440 47.40001 39.20720
# Shear Modulus (GPa) = 26.42048 29.88357 28.15202
#
# Velocity S-wave (km/s) = 3.46118 3.68104 3.57280
# Velocity P-wave (km/s) = 5.48050 6.28961 5.89894
#
# Compressibility (1/GPa) = 0.03224309
#
# Stress axis : x y z
#
# Youngs Moduli (GPa) = 68.49591 40.71180 117.10085
#
# Poissons Ratio (x) = -0.05015 0.49738
# Poissons Ratio (y) = -0.08438 0.55199
# Poissons Ratio (z) = 0.29093 0.19191
#
# Static dielectric constant tensor:
#      x y z
#    x 4.011010 0.000000 0.000000 
#    y 0.000000 3.745060 0.000000 
#    z 0.000000 0.000000 4.459820 
# 
# 
# High freq. dielectric constant tensor:
#      x y z
#    x 1.872650 0.000000 0.000000 
#    y 0.000000 1.840710 0.000000 
#    z 0.000000 0.000000 1.895950 
# 
# From -- ./inp_files/30328.got.cif
#   From: 2010.03.12/outbox.cif.g09.slc.cpg/sg20_16_cif.got.tgz:30328.got - 2010.04.14 01:38:04.
