data_PCOD8158415
_publ_section_title
;
Structure prediction by ZEFSAII (Michael W. Deem and Ramdas Pophale) SiO2 
 PCOD8158415
Probable space group: C 2 2 21
;
_chemical_formula_sum "Si O2"
_cell_formula_units_Z 48
_cell_length_a 15.748824
_cell_length_b 8.972779
_cell_length_c 17.473963
_cell_angle_alpha 90.000000
_cell_angle_beta 90.000000
_cell_angle_gamma 90.000000
_cell_volume 2469.258245
_symmetry_space_group_name_H-M "C 2 2 21"
_symmetry_group_IT_number 20
_symmetry_cell_setting 'orthorhombic'
loop_
_space_group_symop_operation_xyz
x,y,z
-x,-y,1/2+z
x,-y,-z
-x,y,1/2-z
1/2+x,1/2+y,z
1/2-x,1/2-y,1/2+z
1/2+x,1/2-y,-z
1/2-x,1/2+y,1/2-z
loop_
_atom_site_type_symbol
_atom_site_label
_atom_site_fract_x
_atom_site_fract_y
_atom_site_fract_z
Si Si1 0.019502 0.672535 0.436036
Si Si2 0.305565 0.998221 0.915453
Si Si3 0.888473 0.759764 0.831692
Si Si4 0.995550 0.964995 0.161939
Si Si5 0.843272 0.162636 0.335730
Si Si6 0.959017 0.376051 0.399356
O O1 0.109357 0.596990 0.420430
O O2 0.011829 0.825755 0.392946
O O3 0.948846 0.554554 0.405555
O O4 0.005558 0.695278 0.526154
O O5 0.323966 0.167867 0.886759
O O6 0.246022 0.911391 0.855852
O O7 0.263056 0.000000 0.000000
O O8 0.842354 0.775997 0.750452
O O9 0.978747 0.670154 0.828309
O O10 0.914548 0.928341 0.856841
O O11 0.000000 0.912865 0.250000
O O12 0.083856 0.044743 0.144382
O O13 0.865066 0.307741 0.387930
#
# Coordination Sequence:
#
# PCOD8158415 Si02
#       6
#     8   8   8   8   8   8
#     4  10  19  36  61  84 120 160 195 242 308 377
#     4  11  22  40  59  86 121 165 202 246 315 366
#     4   9  19  40  58  81 121 157 199 242 305 366
#     4   9  20  36  59  93 115 155 208 246 300 361
#     4  10  22  35  62  87 117 158 199 255 300 349
#     4   9  18  37  58  86 117 158 202 242 300 355
#
# _framework density 19.439036999999999
#
# number of rings (size 3 to 8) (size 9 to 14) (size 15 to 20)
#    0.000    2.333    3.333    1.500    2.333    7.333 
#    0.000    1.667    0.000    0.000    0.000    0.000 
#    0.000    0.000    0.000    0.000    0.000    0.000 
#
# Total GULP energy -297356.946742 kJ/mol
# GULP energy per Si atom -12389.872781 kJ/mol
# Density = 1.939479 g / cm^3
# Si number density = 19.439037 Si / 1000 Ang^3
#
#
#
# Elastic Constant Matrix: (Units=GPa)
#
#
# Indices 1 2 3 4 5 6 
#
# 1 52.6849 37.3150 34.8162 0.0000 0.0000 0.0000
# 2 37.3150 123.2649 77.0045 0.0000 0.0000 0.0000
# 3 34.8162 77.0045 108.3877 0.0000 0.0000 0.0000
# 4 0.0000 0.0000 0.0000 30.5955 0.0000 0.0000
# 5 0.0000 0.0000 0.0000 0.0000 20.5268 0.0000
# 6 0.0000 0.0000 0.0000 0.0000 0.0000 31.6075
#
#
#
# Elastic Compliance Matrix: (Units=1/GPa)
#
#
# Indices 1 2 3 4 5 6 
#
# 1 0.025515 -0.004682 -0.004870 0.000000 0.000000 0.000000
# 2 -0.004682 0.015446 -0.009469 0.000000 0.000000 0.000000
# 3 -0.004870 -0.009469 0.017518 0.000000 0.000000 0.000000
# 4 0.000000 0.000000 0.000000 0.032685 0.000000 0.000000
# 5 0.000000 0.000000 0.000000 0.000000 0.048717 0.000000
# 6 0.000000 0.000000 0.000000 0.000000 0.000000 0.031638
#
#
# Mechanical properties :
#
#
# Convention : Reuss Voigt Hill
#
# Bulk Modulus (GPa) = 48.93204 64.73432 56.83318
# Shear Modulus (GPa) = 23.10837 25.55940 24.33388
#
# Velocity S-wave (km/s) = 3.45158 3.63002 3.54192
# Velocity P-wave (km/s) = 6.41181 7.13743 6.78432
#
# Compressibility (1/GPa) = 0.02043651
#
# Stress axis : x y z
#
# Youngs Moduli (GPa) = 39.19299 64.74359 57.08407
#
# Poissons Ratio (x) = 0.30311 0.27798
# Poissons Ratio (y) = 0.18349 0.54056
# Poissons Ratio (z) = 0.19086 0.61309
#
# Static dielectric constant tensor:
#      x y z
#    x 3.359920 0.000000 0.000000 
#    y 0.000000 3.722730 0.000000 
#    z 0.000000 0.000000 3.661950 
# 
# 
# High freq. dielectric constant tensor:
#      x y z
#    x 1.724460 0.000000 0.000000 
#    y 0.000000 1.758670 0.000000 
#    z 0.000000 0.000000 1.761000 
# 
# From -- ./inp_files/24811.got.cif
#   From: 2010.03.12/outbox.cif.g09.slc.cpg/sg20_13_cif.got.tgz:24811.got - 2010.04.14 01:38:04.
