data_PCOD8158861
_publ_section_title
;
Structure prediction by ZEFSAII (Michael W. Deem and Ramdas Pophale) SiO2 
 PCOD8158861
Probable space group: C 2 2 21
;
_chemical_formula_sum "Si O2"
_cell_formula_units_Z 48
_cell_length_a 15.648691
_cell_length_b 16.836667
_cell_length_c 7.833532
_cell_angle_alpha 90.000000
_cell_angle_beta 90.000000
_cell_angle_gamma 90.000000
_cell_volume 2063.914771
_symmetry_space_group_name_H-M "C 2 2 21"
_symmetry_group_IT_number 20
_symmetry_cell_setting 'orthorhombic'
loop_
_space_group_symop_operation_xyz
x,y,z
-x,-y,1/2+z
x,-y,-z
-x,y,1/2-z
1/2+x,1/2+y,z
1/2-x,1/2-y,1/2+z
1/2+x,1/2-y,-z
1/2-x,1/2+y,1/2-z
loop_
_atom_site_type_symbol
_atom_site_label
_atom_site_fract_x
_atom_site_fract_y
_atom_site_fract_z
Si Si1 0.033296 0.270280 0.422174
Si Si2 0.904340 0.156449 0.810109
Si Si3 0.687129 0.484603 0.194266
Si Si4 0.240939 0.150298 0.245968
Si Si5 0.353986 0.916073 0.049682
Si Si6 0.848102 0.743492 0.483475
O O1 0.098387 0.208365 0.515115
O O2 0.078932 0.353585 0.371731
O O3 0.000000 0.228276 0.250000
O O4 0.945645 0.289136 0.525265
O O5 0.874571 0.065189 0.819619
O O6 0.840558 0.191759 0.667528
O O7 0.000000 0.157872 0.750000
O O8 0.689778 0.569920 0.286325
O O9 0.779201 0.440358 0.181913
O O10 0.652510 0.500000 0.000000
O O11 0.280677 0.175916 0.428207
O O12 0.316808 0.129603 0.114768
O O13 0.178774 0.218352 0.165287
O O14 0.399928 0.000000 0.000000
#
# Coordination Sequence:
#
# PCOD8158861 Si02
#       6
#     8   8   8   8   8   8
#     4  11  25  42  63 102 136 182 233 283 346 424
#     4  10  20  38  68  97 132 178 224 283 345 401
#     4   9  18  39  70 100 131 176 223 286 348 415
#     4  10  21  38  71 100 126 175 226 279 345 416
#     4   9  19  39  65  97 133 176 221 282 347 408
#     4  11  22  39  70  95 133 170 227 288 340 423
#
# _framework density 23.256772000000002
#
# number of rings (size 3 to 8) (size 9 to 14) (size 15 to 20)
#    0.000    2.333    5.000    0.000    2.333    0.000 
#    6.000    0.833    7.333    8.000    0.000    0.000 
#    0.000    0.000    0.000    0.000    0.000    0.000 
#
# Total GULP energy -297388.159172 kJ/mol
# GULP energy per Si atom -12391.173299 kJ/mol
# Density = 2.320384 g / cm^3
# Si number density = 23.256772 Si / 1000 Ang^3
#
#
#
# Elastic Constant Matrix: (Units=GPa)
#
#
# Indices 1 2 3 4 5 6 
#
# 1 46.6298 45.2340 16.8523 0.0000 0.0000 0.0000
# 2 45.2340 146.8770 33.8968 0.0000 0.0000 0.0000
# 3 16.8523 33.8968 62.7456 0.0000 0.0000 0.0000
# 4 0.0000 0.0000 0.0000 24.7602 0.0000 0.0000
# 5 0.0000 0.0000 0.0000 0.0000 22.6197 0.0000
# 6 0.0000 0.0000 0.0000 0.0000 0.0000 37.6121
#
#
#
# Elastic Compliance Matrix: (Units=1/GPa)
#
#
# Indices 1 2 3 4 5 6 
#
# 1 0.031299 -0.008796 -0.003655 0.000000 0.000000 0.000000
# 2 -0.008796 0.010250 -0.003175 0.000000 0.000000 0.000000
# 3 -0.003655 -0.003175 0.018634 0.000000 0.000000 0.000000
# 4 0.000000 0.000000 0.000000 0.040387 0.000000 0.000000
# 5 0.000000 0.000000 0.000000 0.000000 0.044209 0.000000
# 6 0.000000 0.000000 0.000000 0.000000 0.000000 0.026587
#
#
# Mechanical properties :
#
#
# Convention : Reuss Voigt Hill
#
# Bulk Modulus (GPa) = 34.56342 49.80206 42.18274
# Shear Modulus (GPa) = 23.55588 27.68303 25.61945
#
# Velocity S-wave (km/s) = 3.18600 3.45385 3.32262
# Velocity P-wave (km/s) = 5.33180 6.11276 5.73559
#
# Compressibility (1/GPa) = 0.02893232
#
# Stress axis : x y z
#
# Youngs Moduli (GPa) = 31.95020 97.56128 53.66499
#
# Poissons Ratio (x) = 0.85812 0.19612
# Poissons Ratio (y) = 0.28102 0.17038
# Poissons Ratio (z) = 0.11677 0.30975
#
# Static dielectric constant tensor:
#      x y z
#    x 4.047050 0.000000 0.000000 
#    y 0.000000 4.438350 0.000000 
#    z 0.000000 0.000000 3.898080 
# 
# 
# High freq. dielectric constant tensor:
#      x y z
#    x 1.910360 0.000000 0.000000 
#    y 0.000000 1.920540 0.000000 
#    z 0.000000 0.000000 1.896240 
# 
# From -- ./inp_files/8430.got.cif
#   From: 2010.03.12/outbox.cif.g09.slc.cpg/sg20_5_cif.got.tgz:8430.got - 2010.04.14 01:38:04.
