data_PCOD8158096
_publ_section_title
;
Structure prediction by ZEFSAII (Michael W. Deem and Ramdas Pophale) SiO2 
 PCOD8158096
Probable space group: C 2 2 21
;
_chemical_formula_sum "Si O2"
_cell_formula_units_Z 44
_cell_length_a 11.595922
_cell_length_b 16.999136
_cell_length_c 11.058532
_cell_angle_alpha 90.000000
_cell_angle_beta 90.000000
_cell_angle_gamma 90.000000
_cell_volume 2179.865073
_symmetry_space_group_name_H-M "C 2 2 21"
_symmetry_group_IT_number 20
_symmetry_cell_setting 'orthorhombic'
loop_
_space_group_symop_operation_xyz
x,y,z
-x,-y,1/2+z
x,-y,-z
-x,y,1/2-z
1/2+x,1/2+y,z
1/2-x,1/2-y,1/2+z
1/2+x,1/2-y,-z
1/2-x,1/2+y,1/2-z
loop_
_atom_site_type_symbol
_atom_site_label
_atom_site_fract_x
_atom_site_fract_y
_atom_site_fract_z
Si Si1 0.835963 0.165371 0.297230
Si Si2 0.421632 0.151626 0.129707
Si Si3 0.346967 0.518163 0.672736
Si Si4 0.408646 0.433916 0.082709
Si Si5 0.954142 0.215338 0.058791
Si Si6 0.149512 0.500000 0.500000
O O1 0.703893 0.180764 0.329584
O O2 0.873497 0.215158 0.178577
O O3 0.914519 0.194542 0.407985
O O4 0.855614 0.072104 0.281925
O O5 0.500000 0.156129 0.250000
O O6 0.461878 0.204412 0.016962
O O7 0.426004 0.063493 0.073230
O O8 0.458948 0.539888 0.596924
O O9 0.340996 0.571835 0.791441
O O10 0.234671 0.541716 0.596086
O O11 0.347333 0.500000 0.000000
O O12 0.397410 0.348550 0.027797
#
# Coordination Sequence:
#
# PCOD8158096 Si02
#       6
#     8   8   8   8   8   4
#     4  10  21  42  64  92 129 165 206 259 323 375
#     4  11  27  44  66  91 126 167 224 267 307 378
#     4  10  18  32  64  92 126 167 205 252 320 377
#     4  11  16  29  57 101 131 154 199 256 323 386
#     4  11  22  38  64  97 132 162 199 269 328 379
#     4  10  22  48  60  76 124 180 218 262 302 362
#
# _framework density 20.184735
#
# number of rings (size 3 to 8) (size 9 to 14) (size 15 to 20)
#    0.000    1.455    4.545    2.182    5.091    1.455 
#    3.273    3.636    0.000    0.000    0.000    0.000 
#    0.000    0.000    0.000    0.000    0.000    0.000 
#
# Total GULP energy -272690.346647 kJ/mol
# GULP energy per Si atom -12395.015757 kJ/mol
# Density = 2.013879 g / cm^3
# Si number density = 20.184735 Si / 1000 Ang^3
#
#
#
# Elastic Constant Matrix: (Units=GPa)
#
#
# Indices 1 2 3 4 5 6 
#
# 1 87.2208 23.5149 36.5334 0.0000 0.0000 0.0000
# 2 23.5149 68.4937 43.6012 0.0000 0.0000 0.0000
# 3 36.5334 43.6012 134.5823 0.0000 0.0000 0.0000
# 4 0.0000 0.0000 0.0000 44.7523 0.0000 0.0000
# 5 0.0000 0.0000 0.0000 0.0000 25.4202 0.0000
# 6 0.0000 0.0000 0.0000 0.0000 0.0000 15.1519
#
#
#
# Elastic Compliance Matrix: (Units=1/GPa)
#
#
# Indices 1 2 3 4 5 6 
#
# 1 0.013370 -0.002872 -0.002699 0.000000 0.000000 0.000000
# 2 -0.002872 0.019010 -0.005379 0.000000 0.000000 0.000000
# 3 -0.002699 -0.005379 0.009906 0.000000 0.000000 0.000000
# 4 0.000000 0.000000 0.000000 0.022345 0.000000 0.000000
# 5 0.000000 0.000000 0.000000 0.000000 0.039339 0.000000
# 6 0.000000 0.000000 0.000000 0.000000 0.000000 0.065998
#
#
# Mechanical properties :
#
#
# Convention : Reuss Voigt Hill
#
# Bulk Modulus (GPa) = 49.05424 55.28841 52.17132
# Shear Modulus (GPa) = 25.16817 29.50803 27.33810
#
# Velocity S-wave (km/s) = 3.53497 3.82763 3.68420
# Velocity P-wave (km/s) = 6.40443 6.85456 6.63331
#
# Compressibility (1/GPa) = 0.02038560
#
# Stress axis : x y z
#
# Youngs Moduli (GPa) = 74.79470 52.60361 100.95154
#
# Poissons Ratio (x) = 0.15108 0.27246
# Poissons Ratio (y) = 0.21481 0.54303
# Poissons Ratio (z) = 0.20186 0.28296
#
# Static dielectric constant tensor:
#      x y z
#    x 3.424720 0.000000 0.000000 
#    y 0.000000 3.443610 0.000000 
#    z 0.000000 0.000000 4.067600 
# 
# 
# High freq. dielectric constant tensor:
#      x y z
#    x 1.759340 0.000000 0.000000 
#    y 0.000000 1.769900 0.000000 
#    z 0.000000 0.000000 1.814230 
# 
# From -- ./inp_files/14041.got.cif
#   From: 2010.03.12/outbox.cif.g09.slc.cpg/sg20_8_cif.got.tgz:14041.got - 2010.04.14 01:38:04.
