data_PCOD8158189
_publ_section_title
;
Structure prediction by ZEFSAII (Michael W. Deem and Ramdas Pophale) SiO2 
 PCOD8158189
Probable space group: C 2 2 21
;
_chemical_formula_sum "Si O2"
_cell_formula_units_Z 64
_cell_length_a 31.181596
_cell_length_b 11.078211
_cell_length_c 7.929970
_cell_angle_alpha 90.000000
_cell_angle_beta 90.000000
_cell_angle_gamma 90.000000
_cell_volume 2739.299494
_symmetry_space_group_name_H-M "C 2 2 21"
_symmetry_group_IT_number 20
_symmetry_cell_setting 'orthorhombic'
loop_
_space_group_symop_operation_xyz
x,y,z
-x,-y,1/2+z
x,-y,-z
-x,y,1/2-z
1/2+x,1/2+y,z
1/2-x,1/2-y,1/2+z
1/2+x,1/2-y,-z
1/2-x,1/2+y,1/2-z
loop_
_atom_site_type_symbol
_atom_site_label
_atom_site_fract_x
_atom_site_fract_y
_atom_site_fract_z
Si Si1 0.373192 0.578532 0.665843
Si Si2 0.377876 0.639276 0.118406
Si Si3 0.198318 0.721996 0.726661
Si Si4 0.433469 0.801327 0.324297
Si Si5 0.861787 0.481567 0.321917
Si Si6 0.410485 0.790362 0.804670
Si Si7 0.987332 0.637304 0.000701
Si Si8 0.717026 0.633679 0.942157
O O1 0.380388 0.500000 0.500000
O O2 0.381052 0.505512 0.845094
O O3 0.404221 0.696999 0.648092
O O4 0.323974 0.621697 0.679679
O O5 0.327922 0.677381 0.122708
O O6 0.404226 0.685741 0.284629
O O7 0.398287 0.699735 0.955428
O O8 0.170482 0.598500 0.711122
O O9 0.244980 0.699550 0.654323
O O10 0.203134 0.775576 0.911817
O O11 0.470079 0.780469 0.469352
O O12 0.454625 0.845588 0.150929
O O13 0.403628 0.909764 0.384540
O O14 0.837120 0.500000 0.500000
O O15 0.877304 0.598212 0.214127
O O16 0.460296 0.831599 0.827469
O O17 0.003139 0.500000 0.000000
O O18 0.731713 0.500000 0.000000
#
# Coordination Sequence:
#
# PCOD8158189 Si02
#       8
#     8   8   8   8   8   8   8   8
#     4  11  23  47  68  92 138 191 236 283 346 416
#     4  10  22  43  69  98 134 184 234 278 343 416
#     4  11  25  43  66  99 138 174 230 288 347 415
#     4   9  20  35  66  95 140 176 205 278 345 404
#     4  11  23  40  64 103 142 178 222 279 357 419
#     4  11  24  39  72 105 134 181 236 283 341 424
#     4  10  18  38  60 105 140 166 219 277 344 411
#     4  11  25  45  66  99 137 186 231 287 358 413
#
# _framework density 23.363636
#
# number of rings (size 3 to 8) (size 9 to 14) (size 15 to 20)
#    0.000    1.500    3.750    1.500    5.250    1.000 
#    0.000    0.000    0.000    6.000    0.000    0.000 
#    0.000    0.000    0.000    0.000    0.000    0.000 
#
# Total GULP energy -396477.435008 kJ/mol
# GULP energy per Si atom -12389.919844 kJ/mol
# Density = 2.331046 g / cm^3
# Si number density = 23.363636 Si / 1000 Ang^3
#
#
#
# Elastic Constant Matrix: (Units=GPa)
#
#
# Indices 1 2 3 4 5 6 
#
# 1 96.1759 39.0222 9.0403 0.0000 0.0000 0.0000
# 2 39.0222 125.7881 2.0413 0.0000 0.0000 0.0000
# 3 9.0403 2.0413 23.2333 0.0000 0.0000 0.0000
# 4 0.0000 0.0000 0.0000 33.6930 0.0000 0.0000
# 5 0.0000 0.0000 0.0000 0.0000 9.8199 0.0000
# 6 0.0000 0.0000 0.0000 0.0000 0.0000 18.8716
#
#
#
# Elastic Compliance Matrix: (Units=1/GPa)
#
#
# Indices 1 2 3 4 5 6 
#
# 1 0.012342 -0.003756 -0.004472 0.000000 0.000000 0.000000
# 2 -0.003756 0.009104 0.000662 0.000000 0.000000 0.000000
# 3 -0.004472 0.000662 0.044724 0.000000 0.000000 0.000000
# 4 0.000000 0.000000 0.000000 0.029680 0.000000 0.000000
# 5 0.000000 0.000000 0.000000 0.000000 0.101834 0.000000
# 6 0.000000 0.000000 0.000000 0.000000 0.000000 0.052990
#
#
# Mechanical properties :
#
#
# Convention : Reuss Voigt Hill
#
# Bulk Modulus (GPa) = 19.59386 38.37831 28.98608
# Shear Modulus (GPa) = 17.67914 25.48315 21.58115
#
# Velocity S-wave (km/s) = 2.75379 3.30619 3.04255
# Velocity P-wave (km/s) = 4.30300 5.57106 4.97758
#
# Compressibility (1/GPa) = 0.05103640
#
# Stress axis : x y z
#
# Youngs Moduli (GPa) = 81.02393 109.83708 22.35946
#
# Poissons Ratio (x) = 0.41257 0.10000
# Poissons Ratio (y) = 0.30434 -0.01479
# Poissons Ratio (z) = 0.36237 -0.07267
#
# Static dielectric constant tensor:
#      x y z
#    x 4.432820 0.000000 0.000000 
#    y 0.000000 4.522080 0.000000 
#    z 0.000000 0.000000 4.442920 
# 
# 
# High freq. dielectric constant tensor:
#      x y z
#    x 1.918370 0.000000 0.000000 
#    y 0.000000 1.929340 0.000000 
#    z 0.000000 0.000000 1.934610 
# 
# From -- ./inp_files/11636.got.cif
#   From: 2010.03.12/outbox.cif.g09.slc.cpg/sg20_6_cif.got.tgz:11636.got - 2010.04.14 01:38:04.
