data_PCOD8158675
_publ_section_title
;
Structure prediction by ZEFSAII (Michael W. Deem and Ramdas Pophale) SiO2 
 PCOD8158675
Probable space group: C 2 2 21
;
_chemical_formula_sum "Si O2"
_cell_formula_units_Z 48
_cell_length_a 14.893969
_cell_length_b 26.086004
_cell_length_c 6.343124
_cell_angle_alpha 90.000000
_cell_angle_beta 90.000000
_cell_angle_gamma 90.000000
_cell_volume 2464.456765
_symmetry_space_group_name_H-M "C 2 2 21"
_symmetry_group_IT_number 20
_symmetry_cell_setting 'orthorhombic'
loop_
_space_group_symop_operation_xyz
x,y,z
-x,-y,1/2+z
x,-y,-z
-x,y,1/2-z
1/2+x,1/2+y,z
1/2-x,1/2-y,1/2+z
1/2+x,1/2-y,-z
1/2-x,1/2+y,1/2-z
loop_
_atom_site_type_symbol
_atom_site_label
_atom_site_fract_x
_atom_site_fract_y
_atom_site_fract_z
Si Si1 0.352701 0.354832 0.546179
Si Si2 0.862091 0.784306 0.929293
Si Si3 0.500000 0.321391 0.250000
Si Si4 0.230600 0.447901 0.613248
Si Si5 0.601123 0.089344 0.725695
Si Si6 0.839262 0.500000 0.500000
Si Si7 0.711430 0.812872 0.239680
O O1 0.382954 0.329197 0.763959
O O2 0.437274 0.358616 0.388626
O O3 0.316162 0.411390 0.590344
O O4 0.276118 0.320295 0.439441
O O5 0.861027 0.729872 0.809278
O O6 0.941001 0.783924 0.102271
O O7 0.765285 0.794633 0.034245
O O8 0.257899 0.500000 0.500000
O O9 0.139618 0.422954 0.509849
O O10 0.218592 0.460564 0.859569
O O11 0.500000 0.109639 0.750000
O O12 0.662319 0.134268 0.824032
O O13 0.601192 0.035970 0.852303
#
# Coordination Sequence:
#
# PCOD8158675 Si02
#       7
#     8   8   4   8   8   4   8
#     4  10  20  39  61  85 118 154 198 244 296 356
#     4  11  20  39  61  85 118 161 196 247 300 358
#     4  10  24  36  60  90 116 156 198 242 304 364
#     4   9  20  38  61  86 112 155 203 240 291 355
#     4  10  22  35  54  87 122 158 198 246 287 352
#     4  10  20  36  58  84 116 160 198 244 294 344
#     4  10  21  37  58  87 118 159 206 240 293 358
#
# _framework density 19.476908999999999
#
# number of rings (size 3 to 8) (size 9 to 14) (size 15 to 20)
#    0.000    2.000    1.667    1.500    3.500    2.667 
#    0.000    0.000    3.667    0.000    0.000    0.000 
#    0.000    0.000    0.000    0.000    0.000    0.000 
#
# Total GULP energy -297557.955836 kJ/mol
# GULP energy per Si atom -12398.248160 kJ/mol
# Density = 1.943258 g / cm^3
# Si number density = 19.476909 Si / 1000 Ang^3
#
#
#
# Elastic Constant Matrix: (Units=GPa)
#
#
# Indices 1 2 3 4 5 6 
#
# 1 107.0042 44.0378 43.1581 0.0000 0.0000 0.0000
# 2 44.0378 96.5617 30.9885 0.0000 0.0000 0.0000
# 3 43.1581 30.9885 99.4078 0.0000 0.0000 0.0000
# 4 0.0000 0.0000 0.0000 30.7014 0.0000 0.0000
# 5 0.0000 0.0000 0.0000 0.0000 27.7584 0.0000
# 6 0.0000 0.0000 0.0000 0.0000 0.0000 21.0853
#
#
#
# Elastic Compliance Matrix: (Units=1/GPa)
#
#
# Indices 1 2 3 4 5 6 
#
# 1 0.012903 -0.004541 -0.004186 0.000000 0.000000 0.000000
# 2 -0.004541 0.013105 -0.002114 0.000000 0.000000 0.000000
# 3 -0.004186 -0.002114 0.012536 0.000000 0.000000 0.000000
# 4 0.000000 0.000000 0.000000 0.032572 0.000000 0.000000
# 5 0.000000 0.000000 0.000000 0.000000 0.036025 0.000000
# 6 0.000000 0.000000 0.000000 0.000000 0.000000 0.047426
#
#
# Mechanical properties :
#
#
# Convention : Reuss Voigt Hill
#
# Bulk Modulus (GPa) = 59.30489 59.92694 59.61591
# Shear Modulus (GPa) = 27.49215 28.22830 27.86022
#
# Velocity S-wave (km/s) = 3.76110 3.81113 3.78620
# Velocity P-wave (km/s) = 7.02681 7.08528 7.05611
#
# Compressibility (1/GPa) = 0.01686202
#
# Stress axis : x y z
#
# Youngs Moduli (GPa) = 77.50329 76.30448 79.77042
#
# Poissons Ratio (x) = 0.34649 0.33393
# Poissons Ratio (y) = 0.35194 0.16863
# Poissons Ratio (z) = 0.32444 0.16130
#
# Static dielectric constant tensor:
#      x y z
#    x 3.414060 0.000000 0.000000 
#    y 0.000000 3.484570 0.000000 
#    z 0.000000 0.000000 3.734110 
# 
# 
# High freq. dielectric constant tensor:
#      x y z
#    x 1.739890 0.000000 0.000000 
#    y 0.000000 1.757320 0.000000 
#    z 0.000000 0.000000 1.764960 
# 
# From -- ./inp_files/2073.got.cif
#   From: 2010.03.12/outbox.cif.g09.slc.cpg/sg20_2_cif.got.tgz:2073.got - 2010.04.14 01:38:04.
