data_PCOD8158638
_publ_section_title
;
Structure prediction by ZEFSAII (Michael W. Deem and Ramdas Pophale) SiO2 
 PCOD8158638
Probable space group: C 2 2 21
;
_chemical_formula_sum "Si O2"
_cell_formula_units_Z 64
_cell_length_a 8.549508
_cell_length_b 19.832114
_cell_length_c 19.812761
_cell_angle_alpha 90.000000
_cell_angle_beta 90.000000
_cell_angle_gamma 90.000000
_cell_volume 3359.349072
_symmetry_space_group_name_H-M "C 2 2 21"
_symmetry_group_IT_number 20
_symmetry_cell_setting 'orthorhombic'
loop_
_space_group_symop_operation_xyz
x,y,z
-x,-y,1/2+z
x,-y,-z
-x,y,1/2-z
1/2+x,1/2+y,z
1/2-x,1/2-y,1/2+z
1/2+x,1/2-y,-z
1/2-x,1/2+y,1/2-z
loop_
_atom_site_type_symbol
_atom_site_label
_atom_site_fract_x
_atom_site_fract_y
_atom_site_fract_z
Si Si1 0.929464 0.915359 0.047941
Si Si2 0.932724 0.451572 0.908449
Si Si3 0.570536 0.915359 0.047941
Si Si4 0.431166 0.265680 0.072588
Si Si5 0.433635 0.664200 0.177363
Si Si6 0.067277 0.951572 0.908449
Si Si7 0.931166 0.265680 0.427412
Si Si8 0.066365 0.664200 0.177363
O O1 0.750000 0.925224 0.026207
O O2 0.952307 0.845248 0.087281
O O3 0.982491 0.975964 0.096681
O O4 0.030207 0.915268 0.979370
O O5 0.750000 0.463932 0.902195
O O6 0.017509 0.524036 0.903319
O O7 0.989444 0.405263 0.847339
O O8 0.969794 0.415268 0.979370
O O9 0.547693 0.845248 0.087281
O O10 0.250000 0.243679 0.075491
O O11 0.527576 0.225941 0.128354
O O12 0.500000 0.250000 0.000000
O O13 0.500000 0.683179 0.250000
O O14 0.510556 0.594737 0.152661
O O15 0.472424 0.725941 0.128354
O O16 0.250000 0.653801 0.180710
O O17 0.000000 0.683179 0.250000
#
# Coordination Sequence:
#
# PCOD8158638 Si02
#       8
#     8   8   8   8   8   8   8   8
#     4  10  20  35  58  88 121 154 195 246 298 347
#     4  11  21  35  58  87 119 154 197 245 298 356
#     4  10  20  35  58  88 121 154 195 246 298 347
#     4  11  22  37  61  91 123 159 201 249 301 357
#     4  12  25  42  62  86 121 161 203 251 305 368
#     4  11  21  35  58  87 119 154 197 245 298 356
#     4  11  22  37  61  91 123 159 201 249 301 357
#     4  12  25  42  62  86 121 161 203 251 305 368
#
# _framework density 19.051310000000001
#
# number of rings (size 3 to 8) (size 9 to 14) (size 15 to 20)
#    0.000    1.000    2.500    7.500    0.000    3.000 
#    0.000    1.250    0.000    6.000    0.000    0.000 
#    0.000    0.000    0.000    0.000    0.000    0.000 
#
# Total GULP energy -396957.974079 kJ/mol
# GULP energy per Si atom -12404.936690 kJ/mol
# Density = 1.900795 g / cm^3
# Si number density = 19.051310 Si / 1000 Ang^3
#
#
#
# Elastic Constant Matrix: (Units=GPa)
#
#
# Indices 1 2 3 4 5 6 
#
# 1 96.3108 30.2861 16.9494 0.0000 0.0000 0.0000
# 2 30.2861 112.8960 43.5391 0.0000 0.0000 0.0000
# 3 16.9494 43.5391 101.8452 0.0000 0.0000 0.0000
# 4 0.0000 0.0000 0.0000 40.7090 0.0000 0.0000
# 5 0.0000 0.0000 0.0000 0.0000 31.5866 0.0000
# 6 0.0000 0.0000 0.0000 0.0000 0.0000 34.6090
#
#
#
# Elastic Compliance Matrix: (Units=1/GPa)
#
#
# Indices 1 2 3 4 5 6 
#
# 1 0.011382 -0.002781 -0.000705 0.000000 0.000000 0.000000
# 2 -0.002781 0.011286 -0.004362 0.000000 0.000000 0.000000
# 3 -0.000705 -0.004362 0.011801 0.000000 0.000000 0.000000
# 4 0.000000 0.000000 0.000000 0.024565 0.000000 0.000000
# 5 0.000000 0.000000 0.000000 0.000000 0.031659 0.000000
# 6 0.000000 0.000000 0.000000 0.000000 0.000000 0.028894
#
#
# Mechanical properties :
#
#
# Convention : Reuss Voigt Hill
#
# Bulk Modulus (GPa) = 53.27131 54.73347 54.00239
# Shear Modulus (GPa) = 35.32549 36.06607 35.69578
#
# Velocity S-wave (km/s) = 4.31075 4.35570 4.33328
# Velocity P-wave (km/s) = 7.26632 7.35446 7.31052
#
# Compressibility (1/GPa) = 0.01877183
#
# Stress axis : x y z
#
# Youngs Moduli (GPa) = 87.85960 88.60479 84.73916
#
# Poissons Ratio (x) = 0.24645 0.05975
# Poissons Ratio (y) = 0.24437 0.36963
# Poissons Ratio (z) = 0.06195 0.38649
#
# Static dielectric constant tensor:
#      x y z
#    x 3.700500 0.000000 0.000000 
#    y 0.000000 3.901210 0.000000 
#    z 0.000000 0.000000 3.034940 
# 
# 
# High freq. dielectric constant tensor:
#      x y z
#    x 1.763380 0.000000 0.000000 
#    y 0.000000 1.758190 0.000000 
#    z 0.000000 0.000000 1.707020 
# 
# From -- ./inp_files/23905.got.cif
#   From: 2010.03.12/outbox.cif.g09.slc.cpg/sg20_12_cif.got.tgz:23905.got - 2010.04.14 01:38:04.
