data_PCOD8158953
_publ_section_title
;
Structure prediction by ZEFSAII (Michael W. Deem and Ramdas Pophale) SiO2 
 PCOD8158953
Probable space group: C 2 2 21
;
_chemical_formula_sum "Si O2"
_cell_formula_units_Z 40
_cell_length_a 8.631564
_cell_length_b 17.473994
_cell_length_c 12.390091
_cell_angle_alpha 90.000000
_cell_angle_beta 90.000000
_cell_angle_gamma 90.000000
_cell_volume 1868.771376
_symmetry_space_group_name_H-M "C 2 2 21"
_symmetry_group_IT_number 20
_symmetry_cell_setting 'orthorhombic'
loop_
_space_group_symop_operation_xyz
x,y,z
-x,-y,1/2+z
x,-y,-z
-x,y,1/2-z
1/2+x,1/2+y,z
1/2-x,1/2-y,1/2+z
1/2+x,1/2-y,-z
1/2-x,1/2+y,1/2-z
loop_
_atom_site_type_symbol
_atom_site_label
_atom_site_fract_x
_atom_site_fract_y
_atom_site_fract_z
Si Si1 0.684119 0.362256 0.249295
Si Si2 0.285344 0.694316 0.169436
Si Si3 0.132840 0.172848 0.102610
Si Si4 0.642946 0.160190 0.959774
Si Si5 0.676413 0.921217 0.448302
O O1 0.500000 0.366096 0.250000
O O2 0.737715 0.282098 0.194676
O O3 0.751350 0.381285 0.368731
O O4 0.755052 0.428939 0.172554
O O5 0.452241 0.687512 0.115331
O O6 0.284931 0.651374 0.284175
O O7 0.177087 0.646507 0.086971
O O8 0.194262 0.252261 0.055617
O O9 0.178361 0.106822 0.020063
O O10 0.464580 0.138898 0.943833
O O11 0.615093 0.000000 0.500000
#
# Coordination Sequence:
#
# PCOD8158953 Si02
#       5
#     8   8   8   8   8
#     4  11  23  41  70 100 134 177 225 283 338 399
#     4  10  21  37  69 103 124 166 228 283 321 382
#     4  10  20  40  66  96 133 170 226 274 320 404
#     4  11  21  40  67  98 134 175 227 275 329 399
#     4  12  26  45  65  99 141 179 220 279 348 407
#
# _framework density 21.404437000000001
#
# number of rings (size 3 to 8) (size 9 to 14) (size 15 to 20)
#    0.000    1.200    4.000    1.800    5.600    0.000 
#   10.800    2.000    0.000    0.000    0.000    0.000 
#    0.000    0.000    0.000    0.000    0.000    0.000 
#
# Total GULP energy -247796.657098 kJ/mol
# GULP energy per Si atom -12389.832855 kJ/mol
# Density = 2.135572 g / cm^3
# Si number density = 21.404437 Si / 1000 Ang^3
#
#
#
# Elastic Constant Matrix: (Units=GPa)
#
#
# Indices 1 2 3 4 5 6 
#
# 1 104.9872 13.0558 35.4136 0.0000 0.0000 0.0000
# 2 13.0558 43.1293 23.6945 0.0000 0.0000 0.0000
# 3 35.4136 23.6945 108.1183 0.0000 0.0000 0.0000
# 4 0.0000 0.0000 0.0000 23.5915 0.0000 0.0000
# 5 0.0000 0.0000 0.0000 0.0000 44.3638 0.0000
# 6 0.0000 0.0000 0.0000 0.0000 0.0000 12.5857
#
#
#
# Elastic Compliance Matrix: (Units=1/GPa)
#
#
# Indices 1 2 3 4 5 6 
#
# 1 0.010793 -0.001506 -0.003205 0.000000 0.000000 0.000000
# 2 -0.001506 0.026570 -0.005329 0.000000 0.000000 0.000000
# 3 -0.003205 -0.005329 0.011467 0.000000 0.000000 0.000000
# 4 0.000000 0.000000 0.000000 0.042388 0.000000 0.000000
# 5 0.000000 0.000000 0.000000 0.000000 0.022541 0.000000
# 6 0.000000 0.000000 0.000000 0.000000 0.000000 0.079455
#
#
# Mechanical properties :
#
#
# Convention : Reuss Voigt Hill
#
# Bulk Modulus (GPa) = 34.78478 44.50697 39.64588
# Shear Modulus (GPa) = 22.43362 28.37958 25.40660
#
# Velocity S-wave (km/s) = 3.24092 3.64521 3.44899
# Velocity P-wave (km/s) = 5.50375 6.20928 5.86713
#
# Compressibility (1/GPa) = 0.02874820
#
# Stress axis : x y z
#
# Youngs Moduli (GPa) = 92.64865 37.63632 87.20715
#
# Poissons Ratio (x) = 0.05670 0.27952
# Poissons Ratio (y) = 0.13957 0.46477
# Poissons Ratio (z) = 0.29696 0.20058
#
# Static dielectric constant tensor:
#      x y z
#    x 3.708900 0.000000 0.000000 
#    y 0.000000 3.373930 0.000000 
#    z 0.000000 0.000000 4.388290 
# 
# 
# High freq. dielectric constant tensor:
#      x y z
#    x 1.843890 0.000000 0.000000 
#    y 0.000000 1.780670 0.000000 
#    z 0.000000 0.000000 1.870710 
# 
# From -- ./inp_files/12673.got.cif
#   From: 2010.03.12/outbox.cif.g09.slc.cpg/sg20_7_cif.got.tgz:12673.got - 2010.04.14 01:38:04.
