data_PCOD8158585
_publ_section_title
;
Structure prediction by ZEFSAII (Michael W. Deem and Ramdas Pophale) SiO2 
 PCOD8158585
Probable space group: C 2 2 21
;
_chemical_formula_sum "Si O2"
_cell_formula_units_Z 64
_cell_length_a 10.801903
_cell_length_b 8.779937
_cell_length_c 33.025058
_cell_angle_alpha 90.000000
_cell_angle_beta 90.000000
_cell_angle_gamma 90.000000
_cell_volume 3132.097419
_symmetry_space_group_name_H-M "C 2 2 21"
_symmetry_group_IT_number 20
_symmetry_cell_setting 'orthorhombic'
loop_
_space_group_symop_operation_xyz
x,y,z
-x,-y,1/2+z
x,-y,-z
-x,y,1/2-z
1/2+x,1/2+y,z
1/2-x,1/2-y,1/2+z
1/2+x,1/2-y,-z
1/2-x,1/2+y,1/2-z
loop_
_atom_site_type_symbol
_atom_site_label
_atom_site_fract_x
_atom_site_fract_y
_atom_site_fract_z
Si Si1 0.660103 0.655937 0.102722
Si Si2 0.164939 0.679999 0.285364
Si Si3 0.790648 0.585258 0.659843
Si Si4 0.892298 0.697072 0.303806
Si Si5 0.286753 0.919746 0.155969
Si Si6 0.667467 0.653356 0.474465
Si Si7 0.611661 0.631861 0.382481
Si Si8 0.110366 0.828711 0.987215
O O1 0.664818 0.825459 0.120506
O O2 0.763497 0.544660 0.121017
O O3 0.528701 0.579737 0.112177
O O4 0.680683 0.677627 0.055399
O O5 0.265358 0.792613 0.304717
O O6 0.188343 0.675044 0.237259
O O7 0.170937 0.509073 0.303634
O O8 0.030304 0.749405 0.294233
O O9 0.896014 0.467049 0.673889
O O10 0.669642 0.488083 0.648551
O O11 0.835866 0.825005 0.332828
O O12 0.385633 0.800521 0.137878
O O13 0.679970 0.500000 0.500000
O O14 0.676739 0.625388 0.426346
O O15 0.793315 0.748600 0.482564
O O16 0.533292 0.736040 0.484928
O O17 0.091209 0.000000 0.000000
#
# Coordination Sequence:
#
# PCOD8158585 Si02
#       8
#     8   8   8   8   8   8   8   8
#     4  10  20  35  54  76 104 136 172 214 259 309
#     4  10  20  34  52  75 103 134 169 210 255 304
#     4  10  20  34  53  76 102 134 172 210 256 306
#     4  10  20  34  52  75 103 134 169 210 255 304
#     4  10  20  34  53  76 102 134 172 210 256 306
#     4  10  21  37  56  80 109 141 178 221 268 318
#     4  10  20  35  54  76 104 136 172 214 259 309
#     4  10  21  37  56  80 109 141 178 221 268 318
#
# _framework density 20.433589999999999
#
# number of rings (size 3 to 8) (size 9 to 14) (size 15 to 20)
#    0.000    2.000    0.000    3.750    0.000    0.500 
#    0.000    6.250    0.000   12.000    0.000    0.000 
#    0.000    0.000    0.000    0.000    0.000    0.000 
#
# Total GULP energy -396666.738389 kJ/mol
# GULP energy per Si atom -12395.835575 kJ/mol
# Density = 2.038708 g / cm^3
# Si number density = 20.433590 Si / 1000 Ang^3
#
#
#
# Elastic Constant Matrix: (Units=GPa)
#
#
# Indices 1 2 3 4 5 6 
#
# 1 45.7993 3.9955 -10.1214 0.0000 0.0000 0.0000
# 2 3.9955 70.2844 18.5416 0.0000 0.0000 0.0000
# 3 -10.1214 18.5416 55.1610 0.0000 0.0000 0.0000
# 4 0.0000 0.0000 0.0000 24.4980 0.0000 0.0000
# 5 0.0000 0.0000 0.0000 0.0000 32.6213 0.0000
# 6 0.0000 0.0000 0.0000 0.0000 0.0000 30.0317
#
#
#
# Elastic Compliance Matrix: (Units=1/GPa)
#
#
# Indices 1 2 3 4 5 6 
#
# 1 0.023208 -0.002680 0.005159 0.000000 0.000000 0.000000
# 2 -0.002680 0.015922 -0.005844 0.000000 0.000000 0.000000
# 3 0.005159 -0.005844 0.021040 0.000000 0.000000 0.000000
# 4 0.000000 0.000000 0.000000 0.040820 0.000000 0.000000
# 5 0.000000 0.000000 0.000000 0.000000 0.030655 0.000000
# 6 0.000000 0.000000 0.000000 0.000000 0.000000 0.033298
#
#
# Mechanical properties :
#
#
# Convention : Reuss Voigt Hill
#
# Bulk Modulus (GPa) = 18.71234 21.78623 20.24929
# Shear Modulus (GPa) = 26.38722 28.01881 27.20301
#
# Velocity S-wave (km/s) = 3.59745 3.70701 3.65264
# Velocity P-wave (km/s) = 5.14131 5.38587 5.26501
#
# Compressibility (1/GPa) = 0.05344066
#
# Stress axis : x y z
#
# Youngs Moduli (GPa) = 43.08776 62.80656 47.52911
#
# Poissons Ratio (x) = 0.16835 -0.24523
# Poissons Ratio (y) = 0.11549 0.27775
# Poissons Ratio (z) = -0.22231 0.36703
#
# Static dielectric constant tensor:
#      x y z
#    x 3.603290 0.000000 0.000000 
#    y 0.000000 3.570740 0.000000 
#    z 0.000000 0.000000 3.758360 
# 
# 
# High freq. dielectric constant tensor:
#      x y z
#    x 1.789770 0.000000 0.000000 
#    y 0.000000 1.793230 0.000000 
#    z 0.000000 0.000000 1.806540 
# 
# From -- ./inp_files/31212.got.cif
#   From: 2010.03.12/outbox.cif.g09.slc.cpg/sg20_16_cif.got.tgz:31212.got - 2010.04.14 01:38:04.
