data_PCOD8158008
_publ_section_title
;
Structure prediction by ZEFSAII (Michael W. Deem and Ramdas Pophale) SiO2 
 PCOD8158008
Probable space group: C 2 2 21
;
_chemical_formula_sum "Si O2"
_cell_formula_units_Z 56
_cell_length_a 22.213300
_cell_length_b 12.648079
_cell_length_c 10.266610
_cell_angle_alpha 90.000000
_cell_angle_beta 90.000000
_cell_angle_gamma 90.000000
_cell_volume 2884.461298
_symmetry_space_group_name_H-M "C 2 2 21"
_symmetry_group_IT_number 20
_symmetry_cell_setting 'orthorhombic'
loop_
_space_group_symop_operation_xyz
x,y,z
-x,-y,1/2+z
x,-y,-z
-x,y,1/2-z
1/2+x,1/2+y,z
1/2-x,1/2-y,1/2+z
1/2+x,1/2-y,-z
1/2-x,1/2+y,1/2-z
loop_
_atom_site_type_symbol
_atom_site_label
_atom_site_fract_x
_atom_site_fract_y
_atom_site_fract_z
Si Si1 0.949396 0.500000 0.500000
Si Si2 0.500000 0.089387 0.750000
Si Si3 0.633642 0.203750 0.017291
Si Si4 0.145371 0.920616 0.116353
Si Si5 0.619602 0.776824 0.278004
Si Si6 0.786360 0.565763 0.873112
Si Si7 0.866343 0.948729 0.863545
Si Si8 0.273740 0.066573 0.374783
O O1 0.991235 0.515370 0.625088
O O2 0.911417 0.394408 0.528884
O O3 0.442019 0.159890 0.775965
O O4 0.610182 0.311132 0.086556
O O5 0.694524 0.178516 0.098529
O O6 0.647493 0.232811 0.867061
O O7 0.216888 0.899189 0.126415
O O8 0.119278 0.966790 0.250898
O O9 0.130833 0.000000 0.000000
O O10 0.670084 0.832562 0.367599
O O11 0.601126 0.662492 0.336589
O O12 0.801424 0.491153 0.750353
O O13 0.803459 0.500000 0.000000
O O14 0.796653 0.917097 0.861093
O O15 0.886857 0.000000 0.000000
O O16 0.292145 0.000000 0.500000
#
# Coordination Sequence:
#
# PCOD8158008 Si02
#       8
#     4   4   8   8   8   8   8   8
#     4  10  22  42  64  92 110 148 194 254 298 342
#     4  10  24  42  66  82 114 144 198 254 300 338
#     4  11  19  36  64  84 115 158 200 228 286 362
#     4  10  20  36  57  86 122 159 193 223 273 372
#     4  11  21  39  60  82 115 159 193 250 295 336
#     4  10  21  33  54  90 123 152 188 237 297 342
#     4  10  22  36  55  85 123 153 190 237 294 338
#     4  10  17  33  54  83 120 154 189 225 276 363
#
# _framework density 19.414370000000002
#
# number of rings (size 3 to 8) (size 9 to 14) (size 15 to 20)
#    0.000    1.714    3.571    1.714    1.000    1.143 
#    2.571    0.000    6.286    0.000    0.000    0.000 
#    0.000    0.000    0.000    0.000    0.000    0.000 
#
# Total GULP energy -347164.199656 kJ/mol
# GULP energy per Si atom -12398.721416 kJ/mol
# Density = 1.937018 g / cm^3
# Si number density = 19.414370 Si / 1000 Ang^3
#
#
#
# Elastic Constant Matrix: (Units=GPa)
#
#
# Indices 1 2 3 4 5 6 
#
# 1 32.9736 25.7486 23.8820 0.0000 0.0000 0.0000
# 2 25.7486 146.2534 73.3644 0.0000 0.0000 0.0000
# 3 23.8820 73.3644 156.2886 0.0000 0.0000 0.0000
# 4 0.0000 0.0000 0.0000 34.1685 0.0000 0.0000
# 5 0.0000 0.0000 0.0000 0.0000 20.7398 0.0000
# 6 0.0000 0.0000 0.0000 0.0000 0.0000 13.7000
#
#
#
# Elastic Compliance Matrix: (Units=1/GPa)
#
#
# Indices 1 2 3 4 5 6 
#
# 1 0.036451 -0.004739 -0.003345 0.000000 0.000000 0.000000
# 2 -0.004739 0.009560 -0.003763 0.000000 0.000000 0.000000
# 3 -0.003345 -0.003763 0.008676 0.000000 0.000000 0.000000
# 4 0.000000 0.000000 0.000000 0.029267 0.000000 0.000000
# 5 0.000000 0.000000 0.000000 0.000000 0.048216 0.000000
# 6 0.000000 0.000000 0.000000 0.000000 0.000000 0.072992
#
#
# Mechanical properties :
#
#
# Convention : Reuss Voigt Hill
#
# Bulk Modulus (GPa) = 32.26731 64.61176 48.43953
# Shear Modulus (GPa) = 20.90403 27.88971 24.39687
#
# Velocity S-wave (km/s) = 3.28492 3.79430 3.54876
# Velocity P-wave (km/s) = 5.57171 7.24901 6.46499
#
# Compressibility (1/GPa) = 0.03099112
#
# Stress axis : x y z
#
# Youngs Moduli (GPa) = 27.43405 104.60748 115.25896
#
# Poissons Ratio (x) = 0.49577 0.38557
# Poissons Ratio (y) = 0.13002 0.43374
# Poissons Ratio (z) = 0.09177 0.39366
#
# Static dielectric constant tensor:
#      x y z
#    x 3.187120 0.000000 0.000000 
#    y 0.000000 3.586590 0.000000 
#    z 0.000000 0.000000 3.700320 
# 
# 
# High freq. dielectric constant tensor:
#      x y z
#    x 1.716640 0.000000 0.000000 
#    y 0.000000 1.766180 0.000000 
#    z 0.000000 0.000000 1.766130 
# 
# From -- ./inp_files/16350.got.cif
#   From: 2010.03.12/outbox.cif.g09.slc.cpg/sg20_9_cif.got.tgz:16350.got - 2010.04.14 01:38:04.
