data_PCOD8158486
_publ_section_title
;
Structure prediction by ZEFSAII (Michael W. Deem and Ramdas Pophale) SiO2 
 PCOD8158486
Probable space group: C 2 2 21
;
_chemical_formula_sum "Si O2"
_cell_formula_units_Z 48
_cell_length_a 8.818075
_cell_length_b 26.756574
_cell_length_c 7.980962
_cell_angle_alpha 90.000000
_cell_angle_beta 90.000000
_cell_angle_gamma 90.000000
_cell_volume 1883.039956
_symmetry_space_group_name_H-M "C 2 2 21"
_symmetry_group_IT_number 20
_symmetry_cell_setting 'orthorhombic'
loop_
_space_group_symop_operation_xyz
x,y,z
-x,-y,1/2+z
x,-y,-z
-x,y,1/2-z
1/2+x,1/2+y,z
1/2-x,1/2-y,1/2+z
1/2+x,1/2-y,-z
1/2-x,1/2+y,1/2-z
loop_
_atom_site_type_symbol
_atom_site_label
_atom_site_fract_x
_atom_site_fract_y
_atom_site_fract_z
Si Si1 0.392487 0.157722 0.406373
Si Si2 0.745261 0.929876 0.445012
Si Si3 0.982191 0.500000 0.500000
Si Si4 0.508794 0.500000 0.000000
Si Si5 0.744403 0.561085 0.331865
Si Si6 0.673888 0.725054 0.218749
Si Si7 0.679589 0.178302 0.606273
O O1 0.500000 0.143897 0.250000
O O2 0.293245 0.108327 0.446786
O O3 0.279117 0.202824 0.365981
O O4 0.501179 0.172710 0.560772
O O5 0.775441 0.920762 0.642345
O O6 0.749661 0.876279 0.352288
O O7 0.581474 0.955059 0.423275
O O8 0.876687 0.967694 0.377315
O O9 0.874202 0.518774 0.348316
O O10 0.414504 0.460432 0.894723
O O11 0.500000 0.709207 0.250000
O O12 0.693816 0.785550 0.232392
O O13 0.727813 0.704758 0.041887
#
# Coordination Sequence:
#
# PCOD8158486 Si02
#       7
#     8   8   4   4   8   8   8
#     4  10  19  38  67  97 120 176 232 267 331 416
#     4  11  21  41  66  94 131 179 219 275 335 416
#     4  10  20  34  64  98 114 162 226 272 316 392
#     4  10  26  34  62 100 130 158 228 270 324 402
#     4  11  19  39  66  90 127 173 221 268 329 415
#     4  11  24  41  69 105 132 181 229 292 342 401
#     4  11  23  43  72 102 138 182 234 281 344 419
#
# _framework density 25.490694999999999
#
# number of rings (size 3 to 8) (size 9 to 14) (size 15 to 20)
#    0.000    1.333    5.000    2.000    2.333    0.000 
#    0.000    3.333   14.667    0.000    0.000    0.000 
#    0.000    0.000    0.000    0.000    0.000    0.000 
#
# Total GULP energy -297575.605898 kJ/mol
# GULP energy per Si atom -12398.983579 kJ/mol
# Density = 2.543268 g / cm^3
# Si number density = 25.490695 Si / 1000 Ang^3
#
#
#
# Elastic Constant Matrix: (Units=GPa)
#
#
# Indices 1 2 3 4 5 6 
#
# 1 154.5657 60.5727 -1.1289 0.0000 0.0000 0.0000
# 2 60.5727 170.3521 6.5564 0.0000 0.0000 0.0000
# 3 -1.1289 6.5564 16.9763 0.0000 0.0000 0.0000
# 4 0.0000 0.0000 0.0000 29.3349 0.0000 0.0000
# 5 0.0000 0.0000 0.0000 0.0000 30.0904 0.0000
# 6 0.0000 0.0000 0.0000 0.0000 0.0000 52.7338
#
#
#
# Elastic Compliance Matrix: (Units=1/GPa)
#
#
# Indices 1 2 3 4 5 6 
#
# 1 0.007558 -0.002748 0.001564 0.000000 0.000000 0.000000
# 2 -0.002748 0.006958 -0.002870 0.000000 0.000000 0.000000
# 3 0.001564 -0.002870 0.060118 0.000000 0.000000 0.000000
# 4 0.000000 0.000000 0.000000 0.034089 0.000000 0.000000
# 5 0.000000 0.000000 0.000000 0.000000 0.033233 0.000000
# 6 0.000000 0.000000 0.000000 0.000000 0.000000 0.018963
#
#
# Mechanical properties :
#
#
# Convention : Reuss Voigt Hill
#
# Bulk Modulus (GPa) = 15.03171 52.65495 33.84333
# Shear Modulus (GPa) = 26.15045 40.82477 33.48761
#
# Velocity S-wave (km/s) = 3.20641 4.00629 3.62846
# Velocity P-wave (km/s) = 4.42921 6.48859 5.55516
#
# Compressibility (1/GPa) = 0.06652602
#
# Stress axis : x y z
#
# Youngs Moduli (GPa) = 132.31177 143.72753 16.63401
#
# Poissons Ratio (x) = 0.39490 -0.02601
# Poissons Ratio (y) = 0.36354 0.04774
# Poissons Ratio (z) = -0.20690 0.41246
#
# Static dielectric constant tensor:
#      x y z
#    x 4.911140 0.000000 0.000000 
#    y 0.000000 4.832620 0.000000 
#    z 0.000000 0.000000 4.175490 
# 
# 
# High freq. dielectric constant tensor:
#      x y z
#    x 2.029480 0.000000 0.000000 
#    y 0.000000 2.030830 0.000000 
#    z 0.000000 0.000000 1.990370 
# 
# From -- ./inp_files/13133.got.cif
#   From: 2010.03.12/outbox.cif.g09.slc.cpg/sg20_7_cif.got.tgz:13133.got - 2010.04.14 01:38:04.
