data_PCOD8158262
_publ_section_title
;
Structure prediction by ZEFSAII (Michael W. Deem and Ramdas Pophale) SiO2 
 PCOD8158262
Probable space group: C 2 2 21
;
_chemical_formula_sum "Si O2"
_cell_formula_units_Z 64
_cell_length_a 26.757068
_cell_length_b 5.054109
_cell_length_c 27.065756
_cell_angle_alpha 90.000000
_cell_angle_beta 90.000000
_cell_angle_gamma 90.000000
_cell_volume 3660.187121
_symmetry_space_group_name_H-M "C 2 2 21"
_symmetry_group_IT_number 20
_symmetry_cell_setting 'orthorhombic'
loop_
_space_group_symop_operation_xyz
x,y,z
-x,-y,1/2+z
x,-y,-z
-x,y,1/2-z
1/2+x,1/2+y,z
1/2-x,1/2-y,1/2+z
1/2+x,1/2-y,-z
1/2-x,1/2+y,1/2-z
loop_
_atom_site_type_symbol
_atom_site_label
_atom_site_fract_x
_atom_site_fract_y
_atom_site_fract_z
Si Si1 0.507441 0.009800 0.558305
Si Si2 0.781000 0.055458 0.806713
Si Si3 0.674177 0.451421 0.593934
Si Si4 0.785171 0.945264 0.303994
Si Si5 0.119101 0.451506 0.558077
Si Si6 0.663442 0.449585 0.900062
Si Si7 0.214245 0.450082 0.942885
Si Si8 0.945413 0.990415 0.441458
O O1 0.563253 0.984423 0.579959
O O2 0.471217 0.777989 0.576469
O O3 0.512222 0.000000 0.500000
O O4 0.483111 0.281988 0.575871
O O5 0.805053 0.024608 0.752146
O O6 0.759467 0.348606 0.814123
O O7 0.823732 0.005738 0.847305
O O8 0.736116 0.846816 0.814155
O O9 0.635997 0.652438 0.568262
O O10 0.728138 0.492605 0.569789
O O11 0.655640 0.153671 0.585768
O O12 0.830549 0.997800 0.341476
O O13 0.121538 0.500000 0.500000
O O14 0.697852 0.651840 0.930799
O O15 0.605953 0.483907 0.912702
O O16 0.680489 0.152681 0.911945
O O17 0.204351 0.500000 0.000000
O O18 0.934868 0.000000 0.500000
#
# Coordination Sequence:
#
# PCOD8158262 Si02
#       8
#     8   8   8   8   8   8   8   8
#     4   9  19  35  51  71  97 131 174 221 253 286
#     4  10  20  35  54  73 100 136 174 218 253 289
#     4  12  21  35  51  77 105 141 174 207 255 307
#     4  10  19  36  54  73 100 135 176 218 251 291
#     4  11  22  35  53  75 104 138 176 213 253 305
#     4  12  21  35  52  77 104 142 174 208 254 305
#     4  12  23  33  46  73 115 146 169 194 244 312
#     4  10  19  32  51  73 100 131 170 211 254 301
#
# _framework density 17.485444000000001
#
# number of rings (size 3 to 8) (size 9 to 14) (size 15 to 20)
#    0.000    1.250    2.500    5.250    0.000    3.000 
#    0.000    0.000    0.000    0.000    0.000    5.250 
#    0.000    0.000    0.000    0.000    0.000    0.000 
#
# Total GULP energy -396932.105260 kJ/mol
# GULP energy per Si atom -12404.128289 kJ/mol
# Density = 1.744565 g / cm^3
# Si number density = 17.485444 Si / 1000 Ang^3
#
#
#
# Elastic Constant Matrix: (Units=GPa)
#
#
# Indices 1 2 3 4 5 6 
#
# 1 93.3609 5.9713 15.8352 0.0000 0.0000 0.0000
# 2 5.9713 60.0242 -8.5388 0.0000 0.0000 0.0000
# 3 15.8352 -8.5388 71.1287 0.0000 0.0000 0.0000
# 4 0.0000 0.0000 0.0000 23.1033 0.0000 0.0000
# 5 0.0000 0.0000 0.0000 0.0000 2.2348 0.0000
# 6 0.0000 0.0000 0.0000 0.0000 0.0000 19.0890
#
#
#
# Elastic Compliance Matrix: (Units=1/GPa)
#
#
# Indices 1 2 3 4 5 6 
#
# 1 0.011263 -0.001503 -0.002688 0.000000 0.000000 0.000000
# 2 -0.001503 0.017150 0.002393 0.000000 0.000000 0.000000
# 3 -0.002688 0.002393 0.014945 0.000000 0.000000 0.000000
# 4 0.000000 0.000000 0.000000 0.043284 0.000000 0.000000
# 5 0.000000 0.000000 0.000000 0.000000 0.447467 0.000000
# 6 0.000000 0.000000 0.000000 0.000000 0.000000 0.052386
#
#
# Mechanical properties :
#
#
# Convention : Reuss Voigt Hill
#
# Bulk Modulus (GPa) = 25.14897 27.89436 26.52166
# Shear Modulus (GPa) = 8.28715 22.96849 15.62782
#
# Velocity S-wave (km/s) = 2.17939 3.62826 2.99283
# Velocity P-wave (km/s) = 4.55489 5.79137 5.20994
#
# Compressibility (1/GPa) = 0.03976307
#
# Stress axis : x y z
#
# Youngs Moduli (GPa) = 88.78518 58.30930 66.91319
#
# Poissons Ratio (x) = 0.08763 0.17986
# Poissons Ratio (y) = 0.13343 -0.16015
# Poissons Ratio (z) = 0.23865 -0.13956
#
# Static dielectric constant tensor:
#      x y z
#    x 3.172760 0.000000 0.000000 
#    y 0.000000 3.680680 0.000000 
#    z 0.000000 0.000000 3.415670 
# 
# 
# High freq. dielectric constant tensor:
#      x y z
#    x 1.656620 0.000000 0.000000 
#    y 0.000000 1.701320 0.000000 
#    z 0.000000 0.000000 1.655460 
# 
# From -- ./inp_files/30576.got.cif
#   From: 2010.03.12/outbox.cif.g09.slc.cpg/sg20_16_cif.got.tgz:30576.got - 2010.04.14 01:38:04.
