data_PCOD8158015
_publ_section_title
;
Structure prediction by ZEFSAII (Michael W. Deem and Ramdas Pophale) SiO2 
 PCOD8158015
Probable space group: C 2 2 21
;
_chemical_formula_sum "Si O2"
_cell_formula_units_Z 44
_cell_length_a 8.067092
_cell_length_b 16.012520
_cell_length_c 17.787376
_cell_angle_alpha 90.000000
_cell_angle_beta 90.000000
_cell_angle_gamma 90.000000
_cell_volume 2297.674903
_symmetry_space_group_name_H-M "C 2 2 21"
_symmetry_group_IT_number 20
_symmetry_cell_setting 'orthorhombic'
loop_
_space_group_symop_operation_xyz
x,y,z
-x,-y,1/2+z
x,-y,-z
-x,y,1/2-z
1/2+x,1/2+y,z
1/2-x,1/2-y,1/2+z
1/2+x,1/2-y,-z
1/2-x,1/2+y,1/2-z
loop_
_atom_site_type_symbol
_atom_site_label
_atom_site_fract_x
_atom_site_fract_y
_atom_site_fract_z
Si Si1 0.534737 0.500000 0.000000
Si Si2 0.000000 0.727439 0.250000
Si Si3 0.235739 0.934337 0.127658
Si Si4 0.151964 0.272296 0.309078
Si Si5 0.020678 0.430538 0.667406
Si Si6 0.000000 0.992386 0.250000
Si Si7 0.331144 0.406341 0.875156
O O1 0.641323 0.566389 0.951860
O O2 0.427934 0.440190 0.946717
O O3 0.833923 0.778767 0.269657
O O4 0.939751 0.667689 0.180899
O O5 0.357658 0.855004 0.138046
O O6 0.104432 0.933034 0.195538
O O7 0.333490 0.022094 0.124913
O O8 0.141714 0.192840 0.364350
O O9 0.000000 0.272939 0.250000
O O10 0.000000 0.474270 0.750000
O O11 0.859131 0.433406 0.614487
O O12 0.882036 0.052710 0.203243
#
# Coordination Sequence:
#
# PCOD8158015 Si02
#       7
#     4   4   8   8   8   4   8
#     4  10  26  40  58  80 126 176 198 232 316 394
#     4   8  19  36  55  98 118 148 184 262 311 344
#     4  11  21  37  58  91 120 154 204 250 299 368
#     4  11  21  35  65  96 119 148 202 267 312 338
#     4   9  17  34  63  88 111 149 206 248 294 352
#     4  10  17  34  63  84 120 152 198 250 291 364
#     4  10  20  39  60  88 119 161 201 248 312 366
#
# _framework density 19.149794
#
# number of rings (size 3 to 8) (size 9 to 14) (size 15 to 20)
#    0.545    1.455    2.727    1.091    2.545    0.727 
#    0.000    5.455    0.000    0.000    0.000    0.000 
#    0.000    0.000    0.000    0.000    0.000    0.000 
#
# Total GULP energy -272579.597374 kJ/mol
# GULP energy per Si atom -12389.981699 kJ/mol
# Density = 1.910621 g / cm^3
# Si number density = 19.149794 Si / 1000 Ang^3
#
#
#
# Elastic Constant Matrix: (Units=GPa)
#
#
# Indices 1 2 3 4 5 6 
#
# 1 98.0235 36.0660 41.1416 0.0000 0.0000 0.0000
# 2 36.0660 90.0158 35.0092 0.0000 0.0000 0.0000
# 3 41.1416 35.0092 100.5816 0.0000 0.0000 0.0000
# 4 0.0000 0.0000 0.0000 7.3089 0.0000 0.0000
# 5 0.0000 0.0000 0.0000 0.0000 22.1726 0.0000
# 6 0.0000 0.0000 0.0000 0.0000 0.0000 21.2357
#
#
#
# Elastic Compliance Matrix: (Units=1/GPa)
#
#
# Indices 1 2 3 4 5 6 
#
# 1 0.013312 -0.003719 -0.004151 0.000000 0.000000 0.000000
# 2 -0.003719 0.013888 -0.003312 0.000000 0.000000 0.000000
# 3 -0.004151 -0.003312 0.012793 0.000000 0.000000 0.000000
# 4 0.000000 0.000000 0.000000 0.136820 0.000000 0.000000
# 5 0.000000 0.000000 0.000000 0.000000 0.045101 0.000000
# 6 0.000000 0.000000 0.000000 0.000000 0.000000 0.047091
#
#
# Mechanical properties :
#
#
# Convention : Reuss Voigt Hill
#
# Bulk Modulus (GPa) = 56.72856 57.00606 56.86731
# Shear Modulus (GPa) = 16.82116 21.90371 19.36243
#
# Velocity S-wave (km/s) = 2.96699 3.38569 3.18324
# Velocity P-wave (km/s) = 6.43625 6.71692 6.57808
#
# Compressibility (1/GPa) = 0.01762780
#
# Stress axis : x y z
#
# Youngs Moduli (GPa) = 75.11926 72.00621 78.16855
#
# Poissons Ratio (x) = 0.26782 0.32444
# Poissons Ratio (y) = 0.27940 0.25893
# Poissons Ratio (z) = 0.31179 0.23852
#
# Static dielectric constant tensor:
#      x y z
#    x 3.572610 0.000000 0.000000 
#    y 0.000000 3.366400 0.000000 
#    z 0.000000 0.000000 3.251520 
# 
# 
# High freq. dielectric constant tensor:
#      x y z
#    x 1.754040 0.000000 0.000000 
#    y 0.000000 1.742230 0.000000 
#    z 0.000000 0.000000 1.711140 
# 
# From -- ./inp_files/23399.got.cif
#   From: 2010.03.12/outbox.cif.g09.slc.cpg/sg20_12_cif.got.tgz:23399.got - 2010.04.14 01:38:04.
