data_PCOD8158844
_publ_section_title
;
Structure prediction by ZEFSAII (Michael W. Deem and Ramdas Pophale) SiO2 
 PCOD8158844
Probable space group: C 2 2 21
;
_chemical_formula_sum "Si O2"
_cell_formula_units_Z 64
_cell_length_a 16.456245
_cell_length_b 8.332842
_cell_length_c 23.925016
_cell_angle_alpha 90.000000
_cell_angle_beta 90.000000
_cell_angle_gamma 90.000000
_cell_volume 3280.772595
_symmetry_space_group_name_H-M "C 2 2 21"
_symmetry_group_IT_number 20
_symmetry_cell_setting 'orthorhombic'
loop_
_space_group_symop_operation_xyz
x,y,z
-x,-y,1/2+z
x,-y,-z
-x,y,1/2-z
1/2+x,1/2+y,z
1/2-x,1/2-y,1/2+z
1/2+x,1/2-y,-z
1/2-x,1/2+y,1/2-z
loop_
_atom_site_type_symbol
_atom_site_label
_atom_site_fract_x
_atom_site_fract_y
_atom_site_fract_z
Si Si1 0.750942 0.828177 0.303796
Si Si2 0.894977 0.669037 0.887696
Si Si3 0.823909 0.372784 0.602841
Si Si4 0.835100 0.996394 0.936328
Si Si5 0.715159 0.677457 0.186377
Si Si6 0.580784 0.167303 0.888146
Si Si7 0.327358 0.836576 0.916088
Si Si8 0.166881 0.175933 0.010913
O O1 0.663063 0.832759 0.333943
O O2 0.812728 0.721996 0.339784
O O3 0.738784 0.771673 0.241400
O O4 0.799411 0.993518 0.298041
O O5 0.882478 0.831839 0.923604
O O6 0.878699 0.502959 0.922698
O O7 0.987925 0.683195 0.869711
O O8 0.749777 0.499929 0.597624
O O9 0.904998 0.476133 0.608817
O O10 0.825201 0.258759 0.549203
O O11 0.879530 0.169134 0.923310
O O12 0.809959 0.000000 0.000000
O O13 0.633632 0.748324 0.159619
O O14 0.791939 0.676491 0.145676
O O15 0.601300 0.237626 0.949436
O O16 0.255617 0.837538 0.961694
O O17 0.131237 0.000000 0.000000
#
# Coordination Sequence:
#
# PCOD8158844 Si02
#       8
#     8   8   8   8   8   8   8   8
#     4  10  22  39  65  90 112 152 205 251 297 353
#     4  10  25  40  55  92 125 157 196 245 307 358
#     4  11  19  37  61  88 114 158 202 246 294 352
#     4  11  19  37  62  85 118 159 203 242 293 350
#     4  10  20  38  65  88 113 148 204 251 295 352
#     4  11  22  40  57  85 127 157 192 243 304 359
#     4  10  21  38  62  90 113 157 203 249 291 354
#     4  11  20  36  62  86 120 155 206 248 290 352
#
# _framework density 19.507601000000001
#
# number of rings (size 3 to 8) (size 9 to 14) (size 15 to 20)
#    0.000    1.500    3.750    4.125    1.750    1.000 
#    9.000    0.000    0.000    0.000    0.000    0.000 
#    0.000    0.000    0.000    0.000    0.000    0.000 
#
# Total GULP energy -396560.188482 kJ/mol
# GULP energy per Si atom -12392.505890 kJ/mol
# Density = 1.946320 g / cm^3
# Si number density = 19.507601 Si / 1000 Ang^3
#
#
#
# Elastic Constant Matrix: (Units=GPa)
#
#
# Indices 1 2 3 4 5 6 
#
# 1 49.2460 84.0050 122.5651 0.0000 0.0000 0.0000
# 2 84.0050 -25.5693 -386.4135 0.0000 0.0000 0.0000
# 3 122.5651 -386.4135 -819.5684 0.0000 0.0000 0.0000
# 4 0.0000 0.0000 0.0000 76.2959 0.0000 0.0000
# 5 0.0000 0.0000 0.0000 0.0000 10.0878 0.0000
# 6 0.0000 0.0000 0.0000 0.0000 0.0000 23.3644
#
#
#
# Elastic Compliance Matrix: (Units=1/GPa)
#
#
# Indices 1 2 3 4 5 6 
#
# 1 0.015826 -0.002649 0.003616 0.000000 0.000000 0.000000
# 2 -0.002649 0.006828 -0.003616 0.000000 0.000000 0.000000
# 3 0.003616 -0.003616 0.001025 0.000000 0.000000 0.000000
# 4 0.000000 0.000000 0.000000 0.013107 0.000000 0.000000
# 5 0.000000 0.000000 0.000000 0.000000 0.099130 0.000000
# 6 0.000000 0.000000 0.000000 0.000000 0.000000 0.042800
#
#
# Mechanical properties :
#
#
# Convention : Reuss Voigt Hill
#
# Bulk Modulus (GPa) = 54.40189 -128.39761 -36.99786
# Shear Modulus (GPa) = 26.29613 -19.12026 3.58793
#
# Velocity S-wave (km/s) = 3.67549 -3.13412 1.35766
# Velocity P-wave (km/s) = 6.77941 8.89152 4.06809
#
# Compressibility (1/GPa) = 0.01838172
#
# Stress axis : x y z
#
# Youngs Moduli (GPa) = 63.18664 146.44681 975.29936
#
# Poissons Ratio (x) = 0.38797 -3.52654
# Poissons Ratio (y) = 0.16740 3.52637
# Poissons Ratio (z) = -0.22847 0.52950
#
# Static dielectric constant tensor:
#      x y z
#    x 3.054000 0.000000 0.000000 
#    y 0.000000 4.256600 0.000000 
#    z 0.000000 0.000000 3.465950 
# 
# 
# High freq. dielectric constant tensor:
#      x y z
#    x 1.712540 0.000000 0.000000 
#    y 0.000000 1.794050 0.000000 
#    z 0.000000 0.000000 1.758450 
# 
# From -- ./inp_files/29483.got.cif
#   From: 2010.03.12/outbox.cif.g09.slc.cpg/sg20_15_cif.got.tgz:29483.got - 2010.04.14 01:38:04.
