data_PCOD8158872
_publ_section_title
;
Structure prediction by ZEFSAII (Michael W. Deem and Ramdas Pophale) SiO2 
 PCOD8158872
Probable space group: C 2 2 21
;
_chemical_formula_sum "Si O2"
_cell_formula_units_Z 56
_cell_length_a 12.355976
_cell_length_b 8.376085
_cell_length_c 23.415001
_cell_angle_alpha 90.000000
_cell_angle_beta 90.000000
_cell_angle_gamma 90.000000
_cell_volume 2423.328627
_symmetry_space_group_name_H-M "C 2 2 21"
_symmetry_group_IT_number 20
_symmetry_cell_setting 'orthorhombic'
loop_
_space_group_symop_operation_xyz
x,y,z
-x,-y,1/2+z
x,-y,-z
-x,y,1/2-z
1/2+x,1/2+y,z
1/2-x,1/2-y,1/2+z
1/2+x,1/2-y,-z
1/2-x,1/2+y,1/2-z
loop_
_atom_site_type_symbol
_atom_site_label
_atom_site_fract_x
_atom_site_fract_y
_atom_site_fract_z
Si Si1 0.672997 0.077553 0.254962
Si Si2 0.132172 0.489746 0.128877
Si Si3 0.111925 0.928395 0.226102
Si Si4 0.333286 0.702356 0.921235
Si Si5 0.772078 0.650474 0.968716
Si Si6 0.895396 0.454137 0.128350
Si Si7 0.576384 0.339670 0.097406
O O1 0.628698 0.010728 0.196313
O O2 0.802510 0.064574 0.257658
O O3 0.623630 0.961938 0.303839
O O4 0.638295 0.262741 0.259609
O O5 0.240096 0.395699 0.111449
O O6 0.117536 0.656725 0.096616
O O7 0.018739 0.402906 0.114500
O O8 0.108494 0.914865 0.157937
O O9 0.000000 0.994267 0.250000
O O10 0.451351 0.620959 0.916256
O O11 0.350001 0.874877 0.893216
O O12 0.291933 0.703947 0.987393
O O13 0.828246 0.680930 0.906456
O O14 0.648199 0.596015 0.955368
O O15 0.828925 0.500000 0.000000
#
# Coordination Sequence:
#
# PCOD8158872 Si02
#       7
#     8   8   8   8   8   8   8
#     4  11  20  38  65  93 125 162 206 253 317 380
#     4  10  21  36  63  92 117 155 203 254 312 367
#     4  11  22  39  66  92 131 168 203 257 319 379
#     4  10  22  39  63  88 119 159 214 252 308 369
#     4  10  22  40  60  83 117 165 204 252 308 361
#     4  10  20  39  60  87 121 160 201 251 306 376
#     4  10  21  41  60  89 122 160 204 256 310 366
#
# _framework density 23.108711
#
# number of rings (size 3 to 8) (size 9 to 14) (size 15 to 20)
#    0.000    1.714    1.429    4.714    2.000    0.571 
#    2.571    3.571    0.000    0.000    0.000    0.000 
#    0.000    0.000    0.000    0.000    0.000    0.000 
#
# Total GULP energy -346874.192849 kJ/mol
# GULP energy per Si atom -12388.364030 kJ/mol
# Density = 2.305611 g / cm^3
# Si number density = 23.108711 Si / 1000 Ang^3
#
#
#
# Elastic Constant Matrix: (Units=GPa)
#
#
# Indices 1 2 3 4 5 6 
#
# 1 174.4720 26.5907 22.4066 0.0000 0.0000 0.0000
# 2 26.5907 15.6476 8.8223 0.0000 0.0000 0.0000
# 3 22.4066 8.8223 94.3385 0.0000 0.0000 0.0000
# 4 0.0000 0.0000 0.0000 15.7931 0.0000 0.0000
# 5 0.0000 0.0000 0.0000 0.0000 42.4034 0.0000
# 6 0.0000 0.0000 0.0000 0.0000 0.0000 37.0361
#
#
#
# Elastic Compliance Matrix: (Units=1/GPa)
#
#
# Indices 1 2 3 4 5 6 
#
# 1 0.007772 -0.012843 -0.000645 0.000000 0.000000 0.000000
# 2 -0.012843 0.088689 -0.005244 0.000000 0.000000 0.000000
# 3 -0.000645 -0.005244 0.011244 0.000000 0.000000 0.000000
# 4 0.000000 0.000000 0.000000 0.063319 0.000000 0.000000
# 5 0.000000 0.000000 0.000000 0.000000 0.023583 0.000000
# 6 0.000000 0.000000 0.000000 0.000000 0.000000 0.027001
#
#
# Mechanical properties :
#
#
# Convention : Reuss Voigt Hill
#
# Bulk Modulus (GPa) = 14.23668 44.45527 29.34598
# Shear Modulus (GPa) = 17.70010 34.15574 25.92792
#
# Velocity S-wave (km/s) = 2.77058 3.84871 3.35326
# Velocity P-wave (km/s) = 4.05080 6.24734 5.26489
#
# Compressibility (1/GPa) = 0.07024107
#
# Stress axis : x y z
#
# Youngs Moduli (GPa) = 128.67002 11.27533 88.93918
#
# Poissons Ratio (x) = 0.14481 0.05735
# Poissons Ratio (y) = 1.65256 0.46636
# Poissons Ratio (z) = 0.08297 0.05912
#
# Static dielectric constant tensor:
#      x y z
#    x 4.413610 0.000000 0.000000 
#    y 0.000000 3.810190 0.000000 
#    z 0.000000 0.000000 4.469700 
# 
# 
# High freq. dielectric constant tensor:
#      x y z
#    x 1.931240 0.000000 0.000000 
#    y 0.000000 1.865840 0.000000 
#    z 0.000000 0.000000 1.929920 
# 
# From -- ./inp_files/29132.got.cif
#   From: 2010.03.12/outbox.cif.g09.slc.cpg/sg20_15_cif.got.tgz:29132.got - 2010.04.14 01:38:04.
