data_PCOD8158824
_publ_section_title
;
Structure prediction by ZEFSAII (Michael W. Deem and Ramdas Pophale) SiO2 
 PCOD8158824
Probable space group: C 2 2 21
;
_chemical_formula_sum "Si O2"
_cell_formula_units_Z 48
_cell_length_a 18.848841
_cell_length_b 10.814167
_cell_length_c 11.350541
_cell_angle_alpha 90.000000
_cell_angle_beta 90.000000
_cell_angle_gamma 90.000000
_cell_volume 2313.632012
_symmetry_space_group_name_H-M "C 2 2 21"
_symmetry_group_IT_number 20
_symmetry_cell_setting 'orthorhombic'
loop_
_space_group_symop_operation_xyz
x,y,z
-x,-y,1/2+z
x,-y,-z
-x,y,1/2-z
1/2+x,1/2+y,z
1/2-x,1/2-y,1/2+z
1/2+x,1/2-y,-z
1/2-x,1/2+y,1/2-z
loop_
_atom_site_type_symbol
_atom_site_label
_atom_site_fract_x
_atom_site_fract_y
_atom_site_fract_z
Si Si1 0.453688 0.116218 0.083436
Si Si2 0.996022 0.082108 0.119454
Si Si3 0.585255 0.794792 0.034351
Si Si4 0.134031 0.256220 0.406448
Si Si5 0.278800 0.884763 0.578860
Si Si6 0.618735 0.022802 0.768380
O O1 0.438345 0.073790 0.216173
O O2 0.528587 0.188251 0.071785
O O3 0.388168 0.202990 0.038540
O O4 0.455877 0.000000 0.000000
O O5 0.927521 0.166714 0.138856
O O6 0.000000 0.012989 0.250000
O O7 0.066249 0.167899 0.102279
O O8 0.988048 0.000000 0.000000
O O9 0.579888 0.914401 0.120146
O O10 0.664694 0.791772 0.983122
O O11 0.209117 0.191455 0.396250
O O12 0.142347 0.374804 0.323795
O O13 0.256338 0.000000 0.500000
O O14 0.312357 0.942696 0.696804
#
# Coordination Sequence:
#
# PCOD8158824 Si02
#       6
#     8   8   8   8   8   8
#     4   9  19  33  59  89 114 157 202 254 313 377
#     4  11  23  45  68  94 129 176 221 266 329 391
#     4  10  21  39  62  88 125 156 206 270 317 378
#     4  10  21  40  62  85 130 165 208 267 319 388
#     4  10  22  38  59  91 122 163 211 261 323 385
#     4  10  20  38  62  89 120 163 207 256 327 379
#
# _framework density 20.746603
#
# number of rings (size 3 to 8) (size 9 to 14) (size 15 to 20)
#    0.000    2.000    1.667    2.000    0.000    7.333 
#    9.000    0.833    0.000    0.000    0.000    0.000 
#    0.000    0.000    0.000    0.000    0.000    0.000 
#
# Total GULP energy -297345.836957 kJ/mol
# GULP energy per Si atom -12389.409873 kJ/mol
# Density = 2.069938 g / cm^3
# Si number density = 20.746603 Si / 1000 Ang^3
#
#
#
# Elastic Constant Matrix: (Units=GPa)
#
#
# Indices 1 2 3 4 5 6 
#
# 1 107.0927 32.0906 12.7742 0.0000 0.0000 0.0000
# 2 32.0906 55.6700 21.6699 0.0000 0.0000 0.0000
# 3 12.7742 21.6699 79.9814 0.0000 0.0000 0.0000
# 4 0.0000 0.0000 0.0000 32.5018 0.0000 0.0000
# 5 0.0000 0.0000 0.0000 0.0000 7.9429 0.0000
# 6 0.0000 0.0000 0.0000 0.0000 0.0000 23.4640
#
#
#
# Elastic Compliance Matrix: (Units=1/GPa)
#
#
# Indices 1 2 3 4 5 6 
#
# 1 0.011288 -0.006489 -0.000045 0.000000 0.000000 0.000000
# 2 -0.006489 0.023811 -0.005415 0.000000 0.000000 0.000000
# 3 -0.000045 -0.005415 0.013977 0.000000 0.000000 0.000000
# 4 0.000000 0.000000 0.000000 0.030768 0.000000 0.000000
# 5 0.000000 0.000000 0.000000 0.000000 0.125899 0.000000
# 6 0.000000 0.000000 0.000000 0.000000 0.000000 0.042618
#
#
# Mechanical properties :
#
#
# Convention : Reuss Voigt Hill
#
# Bulk Modulus (GPa) = 39.71644 41.75705 40.73675
# Shear Modulus (GPa) = 17.81566 24.52902 21.17234
#
# Velocity S-wave (km/s) = 2.93358 3.44221 3.19802
# Velocity P-wave (km/s) = 5.53712 5.99744 5.77187
#
# Compressibility (1/GPa) = 0.02517849
#
# Stress axis : x y z
#
# Youngs Moduli (GPa) = 88.59318 41.99651 71.54533
#
# Poissons Ratio (x) = 0.27253 0.00319
# Poissons Ratio (y) = 0.57491 0.38742
# Poissons Ratio (z) = 0.00395 0.22741
#
# Static dielectric constant tensor:
#      x y z
#    x 3.612680 0.000000 0.000000 
#    y 0.000000 3.753940 0.000000 
#    z 0.000000 0.000000 4.141910 
# 
# 
# High freq. dielectric constant tensor:
#      x y z
#    x 1.804410 0.000000 0.000000 
#    y 0.000000 1.794330 0.000000 
#    z 0.000000 0.000000 1.817620 
# 
# From -- ./inp_files/15707.got.cif
#   From: 2010.03.12/outbox.cif.g09.slc.cpg/sg20_8_cif.got.tgz:15707.got - 2010.04.14 01:38:04.
