data_PCOD8158402
_publ_section_title
;
Structure prediction by ZEFSAII (Michael W. Deem and Ramdas Pophale) SiO2 
 PCOD8158402
Probable space group: C 2 2 21
;
_chemical_formula_sum "Si O2"
_cell_formula_units_Z 48
_cell_length_a 12.755214
_cell_length_b 13.688333
_cell_length_c 13.849597
_cell_angle_alpha 90.000000
_cell_angle_beta 90.000000
_cell_angle_gamma 90.000000
_cell_volume 2418.106629
_symmetry_space_group_name_H-M "C 2 2 21"
_symmetry_group_IT_number 20
_symmetry_cell_setting 'orthorhombic'
loop_
_space_group_symop_operation_xyz
x,y,z
-x,-y,1/2+z
x,-y,-z
-x,y,1/2-z
1/2+x,1/2+y,z
1/2-x,1/2-y,1/2+z
1/2+x,1/2-y,-z
1/2-x,1/2+y,1/2-z
loop_
_atom_site_type_symbol
_atom_site_label
_atom_site_fract_x
_atom_site_fract_y
_atom_site_fract_z
Si Si1 0.943495 0.826164 0.656913
Si Si2 0.241737 0.510386 0.889640
Si Si3 0.224165 0.231014 0.656107
Si Si4 0.602274 0.843735 0.810341
Si Si5 0.978263 0.224187 0.948526
Si Si6 0.980012 0.984681 0.106882
O O1 0.823834 0.799639 0.643197
O O2 0.000000 0.776248 0.750000
O O3 0.009143 0.796853 0.561452
O O4 0.947758 0.944737 0.672383
O O5 0.233931 0.620131 0.848007
O O6 0.171126 0.440510 0.823582
O O7 0.361450 0.475519 0.883290
O O8 0.202316 0.500000 0.000000
O O9 0.168772 0.258713 0.757331
O O10 0.142995 0.255836 0.568726
O O11 0.500000 0.873894 0.750000
O O12 0.563566 0.803437 0.914439
O O13 0.991318 0.130962 0.874468
O O14 0.022447 0.000000 0.000000
#
# Coordination Sequence:
#
# PCOD8158402 Si02
#       6
#     8   8   8   8   8   8
#     4  11  21  33  57  87 112 140 187 244 283 322
#     4  10  19  36  59  81 110 151 189 227 280 342
#     4  10  22  36  57  86 112 147 190 232 280 335
#     4  10  21  37  57  80 113 151 189 230 277 337
#     4   9  20  39  56  78 112 152 186 223 284 350
#     4   8  17  33  54  78 104 135 179 228 279 332
#
# _framework density 19.850242000000001
#
# number of rings (size 3 to 8) (size 9 to 14) (size 15 to 20)
#    0.000    2.333    0.000    3.000    0.000    6.667 
#    0.000    0.000    0.000   24.000    0.000    0.000 
#    0.000    0.000    0.000    0.000    0.000    0.000 
#
# Total GULP energy -297411.077547 kJ/mol
# GULP energy per Si atom -12392.128231 kJ/mol
# Density = 1.980506 g / cm^3
# Si number density = 19.850242 Si / 1000 Ang^3
#
#
#
# Elastic Constant Matrix: (Units=GPa)
#
#
# Indices 1 2 3 4 5 6 
#
# 1 112.2270 61.8381 46.4047 0.0000 0.0000 0.0000
# 2 61.8381 102.8905 41.6304 0.0000 0.0000 0.0000
# 3 46.4047 41.6304 104.0081 0.0000 0.0000 0.0000
# 4 0.0000 0.0000 0.0000 22.7262 0.0000 0.0000
# 5 0.0000 0.0000 0.0000 0.0000 18.8543 0.0000
# 6 0.0000 0.0000 0.0000 0.0000 0.0000 39.9868
#
#
#
# Elastic Compliance Matrix: (Units=1/GPa)
#
#
# Indices 1 2 3 4 5 6 
#
# 1 0.014323 -0.007187 -0.003514 0.000000 0.000000 0.000000
# 2 -0.007187 0.015203 -0.002879 0.000000 0.000000 0.000000
# 3 -0.003514 -0.002879 0.012335 0.000000 0.000000 0.000000
# 4 0.000000 0.000000 0.000000 0.044002 0.000000 0.000000
# 5 0.000000 0.000000 0.000000 0.000000 0.053038 0.000000
# 6 0.000000 0.000000 0.000000 0.000000 0.000000 0.025008
#
#
# Mechanical properties :
#
#
# Convention : Reuss Voigt Hill
#
# Bulk Modulus (GPa) = 68.01676 68.76357 68.39016
# Shear Modulus (GPa) = 25.51411 27.59694 26.55552
#
# Velocity S-wave (km/s) = 3.58904 3.73266 3.66155
# Velocity P-wave (km/s) = 7.17734 7.30023 7.23905
#
# Compressibility (1/GPa) = 0.01470226
#
# Stress axis : x y z
#
# Youngs Moduli (GPa) = 69.81539 65.77598 81.07183
#
# Poissons Ratio (x) = 0.47271 0.28489
# Poissons Ratio (y) = 0.50174 0.23339
# Poissons Ratio (z) = 0.24534 0.18935
#
# Static dielectric constant tensor:
#      x y z
#    x 3.598070 0.000000 0.000000 
#    y 0.000000 3.669570 0.000000 
#    z 0.000000 0.000000 3.623240 
# 
# 
# High freq. dielectric constant tensor:
#      x y z
#    x 1.770290 0.000000 0.000000 
#    y 0.000000 1.763150 0.000000 
#    z 0.000000 0.000000 1.771710 
# 
# From -- ./inp_files/19926.got.cif
#   From: 2010.03.12/outbox.cif.g09.slc.cpg/sg20_10_cif.got.tgz:19926.got - 2010.04.14 01:38:04.
