data_PCOD8158510
_publ_section_title
;
Structure prediction by ZEFSAII (Michael W. Deem and Ramdas Pophale) SiO2 
 PCOD8158510
Probable space group: C 2 2 21
;
_chemical_formula_sum "Si O2"
_cell_formula_units_Z 40
_cell_length_a 8.101201
_cell_length_b 18.415925
_cell_length_c 11.672902
_cell_angle_alpha 90.000000
_cell_angle_beta 90.000000
_cell_angle_gamma 90.000000
_cell_volume 1741.493207
_symmetry_space_group_name_H-M "C 2 2 21"
_symmetry_group_IT_number 20
_symmetry_cell_setting 'orthorhombic'
loop_
_space_group_symop_operation_xyz
x,y,z
-x,-y,1/2+z
x,-y,-z
-x,y,1/2-z
1/2+x,1/2+y,z
1/2-x,1/2-y,1/2+z
1/2+x,1/2-y,-z
1/2-x,1/2+y,1/2-z
loop_
_atom_site_type_symbol
_atom_site_label
_atom_site_fract_x
_atom_site_fract_y
_atom_site_fract_z
Si Si1 0.798833 0.542474 0.655508
Si Si2 0.679907 0.608205 0.290996
Si Si3 0.771724 0.674461 0.500669
Si Si4 0.179775 0.558779 0.594140
Si Si5 0.349226 0.824077 0.927361
O O1 0.752262 0.458597 0.631530
O O2 0.719439 0.605116 0.577723
O O3 0.727316 0.552896 0.785100
O O4 0.991626 0.549308 0.632102
O O5 0.500000 0.586913 0.250000
O O6 0.661210 0.672787 0.384678
O O7 0.802843 0.631356 0.187875
O O8 0.730801 0.744540 0.577238
O O9 0.955606 0.676260 0.448171
O O10 0.234572 0.500000 0.500000
O O11 0.224470 0.636065 0.539093
#
# Coordination Sequence:
#
# PCOD8158510 Si02
#       5
#     8   8   8   8   8
#     4  10  22  41  69  98 131 176 229 287 340 413
#     4  12  25  45  68  99 140 182 233 289 348 412
#     4  11  25  45  70 102 140 182 231 287 352 424
#     4  10  19  39  71  98 129 173 228 274 347 418
#     4  11  24  44  69 100 138 185 224 287 351 422
#
# _framework density 22.968795
#
# number of rings (size 3 to 8) (size 9 to 14) (size 15 to 20)
#    0.000    1.200    2.000    4.800    5.600    0.000 
#   10.800    0.000    0.000    0.000    0.000    0.000 
#    0.000    0.000    0.000    0.000    0.000    0.000 
#
# Total GULP energy -247768.212035 kJ/mol
# GULP energy per Si atom -12388.410602 kJ/mol
# Density = 2.291652 g / cm^3
# Si number density = 22.968795 Si / 1000 Ang^3
#
#
#
# Elastic Constant Matrix: (Units=GPa)
#
#
# Indices 1 2 3 4 5 6 
#
# 1 38.6990 34.5434 33.8233 0.0000 0.0000 0.0000
# 2 34.5434 142.9060 61.7945 0.0000 0.0000 0.0000
# 3 33.8233 61.7945 134.7075 0.0000 0.0000 0.0000
# 4 0.0000 0.0000 0.0000 45.0095 0.0000 0.0000
# 5 0.0000 0.0000 0.0000 0.0000 26.5637 0.0000
# 6 0.0000 0.0000 0.0000 0.0000 0.0000 29.2292
#
#
#
# Elastic Compliance Matrix: (Units=1/GPa)
#
#
# Indices 1 2 3 4 5 6 
#
# 1 0.036974 -0.006141 -0.006467 0.000000 0.000000 0.000000
# 2 -0.006141 0.009749 -0.002930 0.000000 0.000000 0.000000
# 3 -0.006467 -0.002930 0.010391 0.000000 0.000000 0.000000
# 4 0.000000 0.000000 0.000000 0.022218 0.000000 0.000000
# 5 0.000000 0.000000 0.000000 0.000000 0.037645 0.000000
# 6 0.000000 0.000000 0.000000 0.000000 0.000000 0.034212
#
#
# Mechanical properties :
#
#
# Convention : Reuss Voigt Hill
#
# Bulk Modulus (GPa) = 38.40459 64.07055 51.23757
# Shear Modulus (GPa) = 26.18551 32.57056 29.37803
#
# Velocity S-wave (km/s) = 3.38012 3.76977 3.58025
# Velocity P-wave (km/s) = 5.65599 6.84860 6.28067
#
# Compressibility (1/GPa) = 0.02603855
#
# Stress axis : x y z
#
# Youngs Moduli (GPa) = 27.04602 102.57299 96.23384
#
# Poissons Ratio (x) = 0.62992 0.62230
# Poissons Ratio (y) = 0.16609 0.28199
# Poissons Ratio (z) = 0.17489 0.30057
#
# Static dielectric constant tensor:
#      x y z
#    x 3.661210 0.000000 0.000000 
#    y 0.000000 4.174300 0.000000 
#    z 0.000000 0.000000 4.711590 
# 
# 
# High freq. dielectric constant tensor:
#      x y z
#    x 1.874380 0.000000 0.000000 
#    y 0.000000 1.910320 0.000000 
#    z 0.000000 0.000000 1.931780 
# 
# From -- ./inp_files/12670.got.cif
#   From: 2010.03.12/outbox.cif.g09.slc.cpg/sg20_7_cif.got.tgz:12670.got - 2010.04.14 01:38:04.
