data_PCOD8158429
_publ_section_title
;
Structure prediction by ZEFSAII (Michael W. Deem and Ramdas Pophale) SiO2 
 PCOD8158429
Probable space group: C 2 2 21
;
_chemical_formula_sum "Si O2"
_cell_formula_units_Z 48
_cell_length_a 27.447193
_cell_length_b 5.754863
_cell_length_c 13.274361
_cell_angle_alpha 90.000000
_cell_angle_beta 90.000000
_cell_angle_gamma 90.000000
_cell_volume 2096.749507
_symmetry_space_group_name_H-M "C 2 2 21"
_symmetry_group_IT_number 20
_symmetry_cell_setting 'orthorhombic'
loop_
_space_group_symop_operation_xyz
x,y,z
-x,-y,1/2+z
x,-y,-z
-x,y,1/2-z
1/2+x,1/2+y,z
1/2-x,1/2-y,1/2+z
1/2+x,1/2-y,-z
1/2-x,1/2+y,1/2-z
loop_
_atom_site_type_symbol
_atom_site_label
_atom_site_fract_x
_atom_site_fract_y
_atom_site_fract_z
Si Si1 0.302272 0.653571 0.776405
Si Si2 0.973404 0.868078 0.643070
Si Si3 0.371652 0.264037 0.717099
Si Si4 0.008069 0.359617 0.630676
Si Si5 0.115813 0.560122 0.389220
Si Si6 0.208788 0.495537 0.116622
O O1 0.326585 0.409041 0.758698
O O2 0.341243 0.801921 0.837266
O O3 0.252346 0.657385 0.837901
O O4 0.288830 0.750566 0.666120
O O5 0.915069 0.885954 0.656909
O O6 0.000000 0.877982 0.750000
O O7 0.988923 0.617461 0.588243
O O8 0.983660 0.118751 0.586505
O O9 0.345968 0.090588 0.639074
O O10 0.395929 0.157129 0.817202
O O11 0.064210 0.310127 0.602273
O O12 0.000000 0.371374 0.750000
O O13 0.134878 0.500000 0.500000
O O14 0.218405 0.500000 0.000000
#
# Coordination Sequence:
#
# PCOD8158429 Si02
#       6
#     8   8   8   8   8   8
#     4  11  24  45  69 100 138 183 234 297 368 427
#     4  10  19  36  70  92 133 188 232 290 359 424
#     4  11  23  44  68  98 137 190 235 289 363 431
#     4  10  19  39  64  97 131 183 228 296 360 426
#     4  11  25  40  68 103 140 181 243 299 364 435
#     4  11  26  45  71 104 141 183 240 298 366 442
#
# _framework density 22.892578
#
# number of rings (size 3 to 8) (size 9 to 14) (size 15 to 20)
#    0.000    1.333    5.000    2.000    4.667    0.667 
#    0.000    0.833    3.667    0.000    0.000    0.000 
#    0.000    0.000    0.000    0.000    0.000    0.000 
#
# Total GULP energy -297317.208107 kJ/mol
# GULP energy per Si atom -12388.217004 kJ/mol
# Density = 2.284047 g / cm^3
# Si number density = 22.892578 Si / 1000 Ang^3
#
#
#
# Elastic Constant Matrix: (Units=GPa)
#
#
# Indices 1 2 3 4 5 6 
#
# 1 141.2903 37.5117 27.6161 0.0000 0.0000 0.0000
# 2 37.5117 142.0627 30.9251 0.0000 0.0000 0.0000
# 3 27.6161 30.9251 36.8260 0.0000 0.0000 0.0000
# 4 0.0000 0.0000 0.0000 23.3454 0.0000 0.0000
# 5 0.0000 0.0000 0.0000 0.0000 -24.2783 0.0000
# 6 0.0000 0.0000 0.0000 0.0000 0.0000 6.7701
#
#
#
# Elastic Compliance Matrix: (Units=1/GPa)
#
#
# Indices 1 2 3 4 5 6 
#
# 1 0.008416 -0.001038 -0.005440 0.000000 0.000000 0.000000
# 2 -0.001038 0.008742 -0.006562 0.000000 0.000000 0.000000
# 3 -0.005440 -0.006562 0.036745 0.000000 0.000000 0.000000
# 4 0.000000 0.000000 0.000000 0.042835 0.000000 0.000000
# 5 0.000000 0.000000 0.000000 0.000000 -0.041189 0.000000
# 6 0.000000 0.000000 0.000000 0.000000 0.000000 0.147707
#
#
# Mechanical properties :
#
#
# Convention : Reuss Voigt Hill
#
# Bulk Modulus (GPa) = 35.94230 56.92054 46.43142
# Shear Modulus (GPa) = 20.95454 16.10919 18.53186
#
# Velocity S-wave (km/s) = 3.02874 2.65559 2.84828
# Velocity P-wave (km/s) = 5.28825 5.85841 5.58062
#
# Compressibility (1/GPa) = 0.02782237
#
# Stress axis : x y z
#
# Youngs Moduli (GPa) = 118.81432 114.39223 27.21466
#
# Poissons Ratio (x) = 0.11877 0.14804
# Poissons Ratio (y) = 0.12336 0.17860
# Poissons Ratio (z) = 0.64632 0.75070
#
# Static dielectric constant tensor:
#      x y z
#    x 4.331390 0.000000 0.000000 
#    y 0.000000 6.550550 0.000000 
#    z 0.000000 0.000000 3.921130 
# 
# 
# High freq. dielectric constant tensor:
#      x y z
#    x 1.921040 0.000000 0.000000 
#    y 0.000000 1.907780 0.000000 
#    z 0.000000 0.000000 1.889020 
# 
# From -- ./inp_files/22147.got.cif
#   From: 2010.03.12/outbox.cif.g09.slc.cpg/sg20_12_cif.got.tgz:22147.got - 2010.04.14 01:38:04.
