data_PCOD8158499
_publ_section_title
;
Structure prediction by ZEFSAII (Michael W. Deem and Ramdas Pophale) SiO2 
 PCOD8158499
Probable space group: C 2 2 21
;
_chemical_formula_sum "Si O2"
_cell_formula_units_Z 40
_cell_length_a 8.660391
_cell_length_b 12.495938
_cell_length_c 18.889527
_cell_angle_alpha 90.000000
_cell_angle_beta 90.000000
_cell_angle_gamma 90.000000
_cell_volume 2044.219115
_symmetry_space_group_name_H-M "C 2 2 21"
_symmetry_group_IT_number 20
_symmetry_cell_setting 'orthorhombic'
loop_
_space_group_symop_operation_xyz
x,y,z
-x,-y,1/2+z
x,-y,-z
-x,y,1/2-z
1/2+x,1/2+y,z
1/2-x,1/2-y,1/2+z
1/2+x,1/2-y,-z
1/2-x,1/2+y,1/2-z
loop_
_atom_site_type_symbol
_atom_site_label
_atom_site_fract_x
_atom_site_fract_y
_atom_site_fract_z
Si Si1 0.117507 0.227763 0.941542
Si Si2 0.816621 0.884037 0.033962
Si Si3 0.596428 0.136279 0.183020
Si Si4 0.831051 0.697140 0.823590
Si Si5 0.655856 0.893183 0.177558
O O1 0.026766 0.308977 0.888135
O O2 0.241613 0.158069 0.895066
O O3 0.994465 0.149475 0.978640
O O4 0.203909 0.296853 0.000494
O O5 0.786054 0.884095 0.118082
O O6 0.786957 0.000000 0.000000
O O7 0.500000 0.176914 0.250000
O O8 0.774929 0.179314 0.190160
O O9 0.583151 0.010398 0.174974
O O10 0.775475 0.627006 0.755815
O O11 0.014887 0.690528 0.835149
#
# Coordination Sequence:
#
# PCOD8158499 Si02
#       5
#     8   8   8   8   8
#     4  10  24  42  63  90 130 160 215 255 314 374
#     4  12  23  43  62  90 128 167 204 264 317 373
#     4  10  19  39  63  91 122 164 206 257 308 365
#     4   9  21  39  61  96 119 161 214 251 309 368
#     4  11  20  39  68  87 127 166 206 260 314 375
#
# _framework density 19.567374000000001
#
# number of rings (size 3 to 8) (size 9 to 14) (size 15 to 20)
#    1.200    0.400    4.000    2.400    0.000    0.000 
#    3.600    8.000    0.000    0.000    0.000    0.000 
#    0.000    0.000    0.000    0.000    0.000    0.000 
#
# Total GULP energy -247776.906567 kJ/mol
# GULP energy per Si atom -12388.845328 kJ/mol
# Density = 1.952284 g / cm^3
# Si number density = 19.567374 Si / 1000 Ang^3
#
#
#
# Elastic Constant Matrix: (Units=GPa)
#
#
# Indices 1 2 3 4 5 6 
#
# 1 80.4373 37.0892 5.8970 0.0000 0.0000 0.0000
# 2 37.0892 63.8438 18.5090 0.0000 0.0000 0.0000
# 3 5.8970 18.5090 76.1535 0.0000 0.0000 0.0000
# 4 0.0000 0.0000 0.0000 26.7193 0.0000 0.0000
# 5 0.0000 0.0000 0.0000 0.0000 40.6738 0.0000
# 6 0.0000 0.0000 0.0000 0.0000 0.0000 31.5671
#
#
#
# Elastic Compliance Matrix: (Units=1/GPa)
#
#
# Indices 1 2 3 4 5 6 
#
# 1 0.017077 -0.010260 0.001171 0.000000 0.000000 0.000000
# 2 -0.010260 0.023015 -0.004799 0.000000 0.000000 0.000000
# 3 0.001171 -0.004799 0.014207 0.000000 0.000000 0.000000
# 4 0.000000 0.000000 0.000000 0.037426 0.000000 0.000000
# 5 0.000000 0.000000 0.000000 0.000000 0.024586 0.000000
# 6 0.000000 0.000000 0.000000 0.000000 0.000000 0.031679
#
#
# Mechanical properties :
#
#
# Convention : Reuss Voigt Hill
#
# Bulk Modulus (GPa) = 37.70316 38.15833 37.93075
# Shear Modulus (GPa) = 27.08447 30.38799 28.73623
#
# Velocity S-wave (km/s) = 3.72447 3.94508 3.83636
# Velocity P-wave (km/s) = 6.14864 6.34782 6.24903
#
# Compressibility (1/GPa) = 0.02652297
#
# Stress axis : x y z
#
# Youngs Moduli (GPa) = 58.55774 43.44949 70.38721
#
# Poissons Ratio (x) = 0.44581 -0.08245
# Poissons Ratio (y) = 0.60082 0.33781
# Poissons Ratio (z) = -0.06859 0.20853
#
# Static dielectric constant tensor:
#      x y z
#    x 3.312670 0.000000 0.000000 
#    y 0.000000 3.330310 0.000000 
#    z 0.000000 0.000000 3.772180 
# 
# 
# High freq. dielectric constant tensor:
#      x y z
#    x 1.741170 0.000000 0.000000 
#    y 0.000000 1.742010 0.000000 
#    z 0.000000 0.000000 1.777950 
# 
# From -- ./inp_files/26493.got.cif
#   From: 2010.03.12/outbox.cif.g09.slc.cpg/sg20_14_cif.got.tgz:26493.got - 2010.04.14 01:38:04.
