data_PCOD8158805
_publ_section_title
;
Structure prediction by ZEFSAII (Michael W. Deem and Ramdas Pophale) SiO2 
 PCOD8158805
Probable space group: C 2 2 21
;
_chemical_formula_sum "Si O2"
_cell_formula_units_Z 36
_cell_length_a 8.787412
_cell_length_b 17.968265
_cell_length_c 12.114341
_cell_angle_alpha 90.000000
_cell_angle_beta 90.000000
_cell_angle_gamma 90.000000
_cell_volume 1912.788390
_symmetry_space_group_name_H-M "C 2 2 21"
_symmetry_group_IT_number 20
_symmetry_cell_setting 'orthorhombic'
loop_
_space_group_symop_operation_xyz
x,y,z
-x,-y,1/2+z
x,-y,-z
-x,y,1/2-z
1/2+x,1/2+y,z
1/2-x,1/2-y,1/2+z
1/2+x,1/2-y,-z
1/2-x,1/2+y,1/2-z
loop_
_atom_site_type_symbol
_atom_site_label
_atom_site_fract_x
_atom_site_fract_y
_atom_site_fract_z
Si Si1 0.562426 0.144356 0.407017
Si Si2 0.633710 0.852352 0.338299
Si Si3 0.243735 0.990750 0.876661
Si Si4 0.269666 0.799090 0.708367
Si Si5 0.500000 0.603380 0.250000
O O1 0.572093 0.156813 0.537525
O O2 0.602669 0.059050 0.375463
O O3 0.681677 0.195312 0.337727
O O4 0.392263 0.161670 0.370013
O O5 0.500000 0.843466 0.250000
O O6 0.756897 0.787771 0.319193
O O7 0.718075 0.930823 0.319212
O O8 0.101336 0.950507 0.822891
O O9 0.186111 0.000000 0.000000
O O10 0.111755 0.841726 0.682066
#
# Coordination Sequence:
#
# PCOD8158805 Si02
#       5
#     8   8   8   8   4
#     4   9  22  41  63  81 123 164 194 240 314 357
#     4  11  23  36  61  92 118 150 206 251 291 353
#     4   9  21  41  58  84 120 155 193 249 298 354
#     4  10  21  39  62  85 115 161 197 243 298 361
#     4  10  20  38  60  84 116 154 198 236 300 350
#
# _framework density 18.820691
#
# number of rings (size 3 to 8) (size 9 to 14) (size 15 to 20)
#    0.000    2.222    1.111    0.000    9.333    3.556 
#    4.000    0.000    0.000    0.000    0.000    0.000 
#    0.000    0.000    0.000    0.000    0.000    0.000 
#
# Total GULP energy -223129.821247 kJ/mol
# GULP energy per Si atom -12396.101180 kJ/mol
# Density = 1.877785 g / cm^3
# Si number density = 18.820691 Si / 1000 Ang^3
#
#
#
# Elastic Constant Matrix: (Units=GPa)
#
#
# Indices 1 2 3 4 5 6 
#
# 1 128.8625 75.7630 46.0931 0.0000 0.0000 0.0000
# 2 75.7630 167.4264 54.4965 0.0000 0.0000 0.0000
# 3 46.0931 54.4965 110.2049 0.0000 0.0000 0.0000
# 4 0.0000 0.0000 0.0000 28.4488 0.0000 0.0000
# 5 0.0000 0.0000 0.0000 0.0000 20.6551 0.0000
# 6 0.0000 0.0000 0.0000 0.0000 0.0000 29.0192
#
#
#
# Elastic Compliance Matrix: (Units=1/GPa)
#
#
# Indices 1 2 3 4 5 6 
#
# 1 0.011159 -0.004208 -0.002587 0.000000 0.000000 0.000000
# 2 -0.004208 0.008705 -0.002545 0.000000 0.000000 0.000000
# 3 -0.002587 -0.002545 0.011414 0.000000 0.000000 0.000000
# 4 0.000000 0.000000 0.000000 0.035151 0.000000 0.000000
# 5 0.000000 0.000000 0.000000 0.000000 0.048414 0.000000
# 6 0.000000 0.000000 0.000000 0.000000 0.000000 0.034460
#
#
# Mechanical properties :
#
#
# Convention : Reuss Voigt Hill
#
# Bulk Modulus (GPa) = 79.36316 84.35546 81.85931
# Shear Modulus (GPa) = 29.03893 30.96735 30.00314
#
# Velocity S-wave (km/s) = 3.93227 4.06074 3.99702
# Velocity P-wave (km/s) = 7.92948 8.17949 8.05545
#
# Compressibility (1/GPa) = 0.01260030
#
# Stress axis : x y z
#
# Youngs Moduli (GPa) = 89.61078 114.87368 87.60969
#
# Poissons Ratio (x) = 0.48337 0.22661
# Poissons Ratio (y) = 0.37707 0.22295
# Poissons Ratio (z) = 0.23179 0.29233
#
# Static dielectric constant tensor:
#      x y z
#    x 3.372030 0.000000 0.000000 
#    y 0.000000 3.816530 0.000000 
#    z 0.000000 0.000000 3.675590 
# 
# 
# High freq. dielectric constant tensor:
#      x y z
#    x 1.728080 0.000000 0.000000 
#    y 0.000000 1.745210 0.000000 
#    z 0.000000 0.000000 1.727320 
# 
# From -- ./inp_files/12847.got.cif
#   From: 2010.03.12/outbox.cif.g09.slc.cpg/sg20_7_cif.got.tgz:12847.got - 2010.04.14 01:38:04.
