data_PCOD8158132
_publ_section_title
;
Structure prediction by ZEFSAII (Michael W. Deem and Ramdas Pophale) SiO2 
 PCOD8158132
Probable space group: C 2 2 21
;
_chemical_formula_sum "Si O2"
_cell_formula_units_Z 36
_cell_length_a 7.291985
_cell_length_b 17.307206
_cell_length_c 15.377160
_cell_angle_alpha 90.000000
_cell_angle_beta 90.000000
_cell_angle_gamma 90.000000
_cell_volume 1940.657356
_symmetry_space_group_name_H-M "C 2 2 21"
_symmetry_group_IT_number 20
_symmetry_cell_setting 'orthorhombic'
loop_
_space_group_symop_operation_xyz
x,y,z
-x,-y,1/2+z
x,-y,-z
-x,y,1/2-z
1/2+x,1/2+y,z
1/2-x,1/2-y,1/2+z
1/2+x,1/2-y,-z
1/2-x,1/2+y,1/2-z
loop_
_atom_site_type_symbol
_atom_site_label
_atom_site_fract_x
_atom_site_fract_y
_atom_site_fract_z
Si Si1 0.037779 0.832604 0.072998
Si Si2 0.847810 0.173547 0.185203
Si Si3 0.258217 0.913348 0.512379
Si Si4 0.443166 0.201242 0.947019
Si Si5 0.000000 0.241586 0.750000
O O1 0.991553 0.819597 0.172629
O O2 0.250954 0.843971 0.051687
O O3 0.937881 0.908450 0.035958
O O4 0.950512 0.756860 0.029254
O O5 0.768244 0.113330 0.113048
O O6 0.951059 0.246329 0.139984
O O7 0.676437 0.202928 0.241830
O O8 0.000000 0.135282 0.250000
O O9 0.394955 0.860042 0.456254
O O10 0.331262 0.000000 0.500000
#
# Coordination Sequence:
#
# PCOD8158132 Si02
#       5
#     8   8   8   8   4
#     4  10  19  34  61  85 109 147 194 236 284 336
#     4  10  21  34  63  87 109 150 202 243 280 342
#     4  11  23  38  56  84 124 156 185 239 290 350
#     4  10  18  36  59  85 108 152 194 237 277 346
#     4  10  18  34  62  90 108 142 196 254 274 330
#
# _framework density 18.550415000000001
#
# number of rings (size 3 to 8) (size 9 to 14) (size 15 to 20)
#    0.000    1.778    6.667    1.333    3.111    0.889 
#    2.000    0.000    7.333    0.000    0.000    0.000 
#    0.000    0.000    0.000    0.000    0.000    0.000 
#
# Total GULP energy -223057.094305 kJ/mol
# GULP energy per Si atom -12392.060795 kJ/mol
# Density = 1.850819 g / cm^3
# Si number density = 18.550415 Si / 1000 Ang^3
#
#
#
# Elastic Constant Matrix: (Units=GPa)
#
#
# Indices 1 2 3 4 5 6 
#
# 1 90.4092 26.1645 46.0867 0.0000 0.0000 0.0000
# 2 26.1645 76.2211 12.5849 0.0000 0.0000 0.0000
# 3 46.0867 12.5849 70.9218 0.0000 0.0000 0.0000
# 4 0.0000 0.0000 0.0000 9.9274 0.0000 0.0000
# 5 0.0000 0.0000 0.0000 0.0000 -0.0674 0.0000
# 6 0.0000 0.0000 0.0000 0.0000 0.0000 41.8218
#
#
#
# Elastic Compliance Matrix: (Units=1/GPa)
#
#
# Indices 1 2 3 4 5 6 
#
# 1 0.017829 -0.004334 -0.010817 0.000000 0.000000 0.000000
# 2 -0.004334 0.014569 0.000231 0.000000 0.000000 0.000000
# 3 -0.010817 0.000231 0.021088 0.000000 0.000000 0.000000
# 4 0.000000 0.000000 0.000000 0.100731 0.000000 0.000000
# 5 0.000000 0.000000 0.000000 0.000000-14.838787 0.000000
# 6 0.000000 0.000000 0.000000 0.000000 0.000000 0.023911
#
#
# Mechanical properties :
#
#
# Convention : Reuss Voigt Hill
#
# Bulk Modulus (GPa) = 42.28872 45.24713 43.76792
# Shear Modulus (GPa) = -0.34193 20.51744 10.08776
#
# Velocity S-wave (km/s) = -0.42980 3.32932 2.33449
# Velocity P-wave (km/s) = 4.75393 6.26287 5.55983
#
# Compressibility (1/GPa) = 0.02364697
#
# Stress axis : x y z
#
# Youngs Moduli (GPa) = 56.08843 68.63714 47.42059
#
# Poissons Ratio (x) = 0.29749 0.51293
# Poissons Ratio (y) = 0.24310 -0.01096
# Poissons Ratio (z) = 0.60669 -0.01587
#
# Static dielectric constant tensor:
#      x y z
#    x 3.748270 0.000000 0.000000 
#    y 0.000000 3.794400 0.000000 
#    z 0.000000 0.000000 3.079580 
# 
# 
# High freq. dielectric constant tensor:
#      x y z
#    x 1.737220 0.000000 0.000000 
#    y 0.000000 1.671500 0.000000 
#    z 0.000000 0.000000 1.726950 
# 
# From -- ./inp_files/18411.got.cif
#   From: 2010.03.12/outbox.cif.g09.slc.cpg/sg20_10_cif.got.tgz:18411.got - 2010.04.14 01:38:04.
