data_PCOD8158018
_publ_section_title
;
Structure prediction by ZEFSAII (Michael W. Deem and Ramdas Pophale) SiO2 
 PCOD8158018
Probable space group: C 2 2 21
;
_chemical_formula_sum "Si O2"
_cell_formula_units_Z 64
_cell_length_a 14.525659
_cell_length_b 9.618123
_cell_length_c 22.107157
_cell_angle_alpha 90.000000
_cell_angle_beta 90.000000
_cell_angle_gamma 90.000000
_cell_volume 3088.581507
_symmetry_space_group_name_H-M "C 2 2 21"
_symmetry_group_IT_number 20
_symmetry_cell_setting 'orthorhombic'
loop_
_space_group_symop_operation_xyz
x,y,z
-x,-y,1/2+z
x,-y,-z
-x,y,1/2-z
1/2+x,1/2+y,z
1/2-x,1/2-y,1/2+z
1/2+x,1/2-y,-z
1/2-x,1/2+y,1/2-z
loop_
_atom_site_type_symbol
_atom_site_label
_atom_site_fract_x
_atom_site_fract_y
_atom_site_fract_z
Si Si1 0.732594 0.638968 0.971275
Si Si2 0.018349 0.154386 0.996316
Si Si3 0.051330 0.692576 0.884116
Si Si4 0.445997 0.535778 0.311675
Si Si5 0.750549 0.279763 0.414787
Si Si6 0.249371 0.014229 0.850646
Si Si7 0.051542 0.530773 0.312242
Si Si8 0.559053 0.313543 0.376032
O O1 0.623823 0.638283 0.979150
O O2 0.755870 0.643347 0.899012
O O3 0.776566 0.500000 0.000000
O O4 0.768974 0.769774 0.012074
O O5 0.968686 0.240378 0.942745
O O6 0.002557 0.238541 0.058038
O O7 0.974000 0.000000 0.000000
O O8 0.053328 0.802309 0.828893
O O9 0.154554 0.640173 0.900470
O O10 0.993797 0.558272 0.865539
O O11 0.500000 0.511887 0.250000
O O12 0.341296 0.475335 0.307770
O O13 0.500399 0.450094 0.362439
O O14 0.667562 0.352846 0.378836
O O15 0.763878 0.122259 0.391261
O O16 0.340103 0.010093 0.808474
O O17 0.040515 0.693194 0.327211
O O18 0.000000 0.497653 0.250000
#
# Coordination Sequence:
#
# PCOD8158018 Si02
#       8
#     8   8   8   8   8   8   8   8
#     4   8  13  29  55  84 110 148 194 233 280 363
#     4  10  17  34  64  91 119 145 195 261 301 350
#     4  10  21  40  61  86 119 161 198 245 302 361
#     4  11  21  38  64  87 111 157 214 245 286 356
#     4   8  18  32  58  85 120 154 188 242 308 361
#     4   9  18  36  57  83 111 159 206 235 285 366
#     4  11  25  41  57  83 126 164 201 246 297 358
#     4  11  21  37  61  91 121 155 197 251 310 350
#
# _framework density 20.721485999999999
#
# number of rings (size 3 to 8) (size 9 to 14) (size 15 to 20)
#    0.000    2.250    2.500    2.250    1.750    1.500 
#    0.000    5.000    5.500    0.000    0.000    0.000 
#    0.000    0.000    0.000    0.000    0.000    0.000 
#
# Total GULP energy -396592.144021 kJ/mol
# GULP energy per Si atom -12393.504501 kJ/mol
# Density = 2.067432 g / cm^3
# Si number density = 20.721486 Si / 1000 Ang^3
#
#
#
# Elastic Constant Matrix: (Units=GPa)
#
#
# Indices 1 2 3 4 5 6 
#
# 1 97.4715 10.2720 31.4793 0.0000 0.0000 0.0000
# 2 10.2720 24.7564 -3.4513 0.0000 0.0000 0.0000
# 3 31.4793 -3.4513 96.7695 0.0000 0.0000 0.0000
# 4 0.0000 0.0000 0.0000 23.9117 0.0000 0.0000
# 5 0.0000 0.0000 0.0000 0.0000 32.1023 0.0000
# 6 0.0000 0.0000 0.0000 0.0000 0.0000 18.3340
#
#
#
# Elastic Compliance Matrix: (Units=1/GPa)
#
#
# Indices 1 2 3 4 5 6 
#
# 1 0.012201 -0.005644 -0.004170 0.000000 0.000000 0.000000
# 2 -0.005644 0.043206 0.003377 0.000000 0.000000 0.000000
# 3 -0.004170 0.003377 0.011811 0.000000 0.000000 0.000000
# 4 0.000000 0.000000 0.000000 0.041821 0.000000 0.000000
# 5 0.000000 0.000000 0.000000 0.000000 0.031150 0.000000
# 6 0.000000 0.000000 0.000000 0.000000 0.000000 0.054544
#
#
# Mechanical properties :
#
#
# Convention : Reuss Voigt Hill
#
# Bulk Modulus (GPa) = 18.40144 32.84414 25.62279
# Shear Modulus (GPa) = 22.15117 26.91608 24.53362
#
# Velocity S-wave (km/s) = 3.27310 3.60800 3.44462
# Velocity P-wave (km/s) = 4.81496 5.76555 5.31156
#
# Compressibility (1/GPa) = 0.05434358
#
# Stress axis : x y z
#
# Youngs Moduli (GPa) = 81.96032 23.14485 84.66766
#
# Poissons Ratio (x) = 0.13063 0.35309
# Poissons Ratio (y) = 0.46257 -0.28592
# Poissons Ratio (z) = 0.34180 -0.07816
#
# Static dielectric constant tensor:
#      x y z
#    x 3.853090 0.000000 0.000000 
#    y 0.000000 3.353860 0.000000 
#    z 0.000000 0.000000 3.723740 
# 
# 
# High freq. dielectric constant tensor:
#      x y z
#    x 1.815460 0.000000 0.000000 
#    y 0.000000 1.768860 0.000000 
#    z 0.000000 0.000000 1.806120 
# 
# From -- ./inp_files/29339.got.cif
#   From: 2010.03.12/outbox.cif.g09.slc.cpg/sg20_15_cif.got.tgz:29339.got - 2010.04.14 01:38:04.
