data_PCOD8158163
_publ_section_title
;
Structure prediction by ZEFSAII (Michael W. Deem and Ramdas Pophale) SiO2 
 PCOD8158163
Probable space group: C 2 2 21
;
_chemical_formula_sum "Si O2"
_cell_formula_units_Z 52
_cell_length_a 9.377922
_cell_length_b 18.879948
_cell_length_c 15.379436
_cell_angle_alpha 90.000000
_cell_angle_beta 90.000000
_cell_angle_gamma 90.000000
_cell_volume 2723.001115
_symmetry_space_group_name_H-M "C 2 2 21"
_symmetry_group_IT_number 20
_symmetry_cell_setting 'orthorhombic'
loop_
_space_group_symop_operation_xyz
x,y,z
-x,-y,1/2+z
x,-y,-z
-x,y,1/2-z
1/2+x,1/2+y,z
1/2-x,1/2-y,1/2+z
1/2+x,1/2-y,-z
1/2-x,1/2+y,1/2-z
loop_
_atom_site_type_symbol
_atom_site_label
_atom_site_fract_x
_atom_site_fract_y
_atom_site_fract_z
Si Si1 0.000000 0.941529 0.750000
Si Si2 0.517638 0.305559 0.428097
Si Si3 0.500000 0.003731 0.250000
Si Si4 0.500000 0.762492 0.750000
Si Si5 0.213557 0.621686 0.203757
Si Si6 0.884320 0.448389 0.420685
Si Si7 0.050657 0.035909 0.589911
Si Si8 0.187789 0.317452 0.982285
O O1 0.874049 0.885542 0.764566
O O2 0.023819 0.992175 0.833019
O O3 0.544297 0.285580 0.329397
O O4 0.476373 0.387764 0.421745
O O5 0.657125 0.294115 0.486040
O O6 0.393938 0.255799 0.466440
O O7 0.638298 0.052886 0.243836
O O8 0.492952 0.957247 0.338783
O O9 0.357464 0.808078 0.740403
O O10 0.204193 0.628584 0.099323
O O11 0.930151 0.500000 0.500000
O O12 0.720541 0.462537 0.391579
O O13 0.896206 0.365795 0.447940
O O14 0.015353 0.000000 0.500000
#
# Coordination Sequence:
#
# PCOD8158163 Si02
#       8
#     4   8   4   4   8   8   8   8
#     4  12  19  36  61  91 115 158 200 260 303 360
#     4  10  21  39  61  83 121 161 210 246 307 368
#     4  11  18  36  59  93 121 156 200 252 295 370
#     4   9  21  38  56  88 120 168 194 248 304 368
#     4  10  21  36  61  88 125 155 204 243 309 365
#     4  10  18  36  62  86 119 160 202 243 304 368
#     4  10  21  37  60  86 118 157 199 252 309 358
#     4  10  21  41  61  86 120 173 200 247 307 372
#
# _framework density 19.096575000000001
#
# number of rings (size 3 to 8) (size 9 to 14) (size 15 to 20)
#    0.000    1.846    3.077    2.308    0.000    2.462 
#    2.769    3.846    0.000    0.923    0.000    0.000 
#    0.000    0.000    0.000    0.000    0.000    0.000 
#
# Total GULP energy -322241.764171 kJ/mol
# GULP energy per Si atom -12393.914007 kJ/mol
# Density = 1.905311 g / cm^3
# Si number density = 19.096575 Si / 1000 Ang^3
#
#
#
# Elastic Constant Matrix: (Units=GPa)
#
#
# Indices 1 2 3 4 5 6 
#
# 1 83.9853 48.5986 46.6856 0.0000 0.0000 0.0000
# 2 48.5986 116.6100 62.4250 0.0000 0.0000 0.0000
# 3 46.6856 62.4250 135.8585 0.0000 0.0000 0.0000
# 4 0.0000 0.0000 0.0000 19.6440 0.0000 0.0000
# 5 0.0000 0.0000 0.0000 0.0000 35.0262 0.0000
# 6 0.0000 0.0000 0.0000 0.0000 0.0000 83.7312
#
#
#
# Elastic Compliance Matrix: (Units=1/GPa)
#
#
# Indices 1 2 3 4 5 6 
#
# 1 0.016790 -0.005184 -0.003388 0.000000 0.000000 0.000000
# 2 -0.005184 0.012974 -0.004180 0.000000 0.000000 0.000000
# 3 -0.003388 -0.004180 0.010445 0.000000 0.000000 0.000000
# 4 0.000000 0.000000 0.000000 0.050906 0.000000 0.000000
# 5 0.000000 0.000000 0.000000 0.000000 0.028550 0.000000
# 6 0.000000 0.000000 0.000000 0.000000 0.000000 0.011943
#
#
# Mechanical properties :
#
#
# Convention : Reuss Voigt Hill
#
# Bulk Modulus (GPa) = 67.99952 72.43025 70.21488
# Shear Modulus (GPa) = 30.86194 39.59661 35.22927
#
# Velocity S-wave (km/s) = 4.02443 4.55850 4.29977
# Velocity P-wave (km/s) = 7.56837 8.10662 7.84212
#
# Compressibility (1/GPa) = 0.01470599
#
# Stress axis : x y z
#
# Youngs Moduli (GPa) = 59.56087 77.07962 95.73704
#
# Poissons Ratio (x) = 0.39956 0.32432
# Poissons Ratio (y) = 0.30875 0.40017
# Poissons Ratio (z) = 0.20177 0.32218
#
# Static dielectric constant tensor:
#      x y z
#    x 3.503420 0.000000 0.000000 
#    y 0.000000 3.567830 0.000000 
#    z 0.000000 0.000000 3.655690 
# 
# 
# High freq. dielectric constant tensor:
#      x y z
#    x 1.716320 0.000000 0.000000 
#    y 0.000000 1.752060 0.000000 
#    z 0.000000 0.000000 1.754190 
# 
# From -- ./inp_files/19157.got.cif
#   From: 2010.03.12/outbox.cif.g09.slc.cpg/sg20_10_cif.got.tgz:19157.got - 2010.04.14 01:38:04.
