data_PCOD8158279
_publ_section_title
;
Structure prediction by ZEFSAII (Michael W. Deem and Ramdas Pophale) SiO2 
 PCOD8158279
Probable space group: C 2 2 21
;
_chemical_formula_sum "Si O2"
_cell_formula_units_Z 64
_cell_length_a 18.536896
_cell_length_b 10.973405
_cell_length_c 17.581055
_cell_angle_alpha 90.000000
_cell_angle_beta 90.000000
_cell_angle_gamma 90.000000
_cell_volume 3576.212807
_symmetry_space_group_name_H-M "C 2 2 21"
_symmetry_group_IT_number 20
_symmetry_cell_setting 'orthorhombic'
loop_
_space_group_symop_operation_xyz
x,y,z
-x,-y,1/2+z
x,-y,-z
-x,y,1/2-z
1/2+x,1/2+y,z
1/2-x,1/2-y,1/2+z
1/2+x,1/2-y,-z
1/2-x,1/2+y,1/2-z
loop_
_atom_site_type_symbol
_atom_site_label
_atom_site_fract_x
_atom_site_fract_y
_atom_site_fract_z
Si Si1 0.914401 0.785637 0.736917
Si Si2 0.160598 0.566494 0.338897
Si Si3 0.075389 0.485087 0.209787
Si Si4 0.319477 0.582967 0.384010
Si Si5 0.920822 0.636215 0.022468
Si Si6 0.419766 0.895868 0.552886
Si Si7 0.312200 0.680845 0.551825
Si Si8 0.657286 0.788827 0.385423
O O1 0.895830 0.652835 0.703230
O O2 0.883823 0.877170 0.672432
O O3 0.871050 0.799827 0.817587
O O4 0.000000 0.809825 0.750000
O O5 0.130373 0.576949 0.253075
O O6 0.244708 0.598722 0.338754
O O7 0.116086 0.657336 0.394854
O O8 0.145532 0.426914 0.360000
O O9 0.058436 0.536812 0.128639
O O10 0.000000 0.478279 0.250000
O O11 0.309953 0.661985 0.460863
O O12 0.334662 0.443438 0.406331
O O13 0.006217 0.655122 0.018184
O O14 0.896887 0.500000 0.000000
O O15 0.890395 0.732751 0.961282
O O16 0.369715 0.783082 0.570014
O O17 0.383312 0.000000 0.500000
O O18 0.239140 0.733632 0.588535
#
# Coordination Sequence:
#
# PCOD8158279 Si02
#       8
#     8   8   8   8   8   8   8   8
#     4  10  22  34  57  81 111 147 184 231 276 333
#     4   9  16  31  53  75 106 138 180 223 263 325
#     4  10  19  33  51  82 111 136 174 225 288 332
#     4  10  20  37  56  77 102 148 195 222 261 328
#     4   9  16  29  53  80 105 138 175 222 271 322
#     4  11  22  32  55  84 115 140 173 233 291 331
#     4  10  21  36  57  78 108 146 188 228 268 333
#     4   9  18  33  52  80 106 143 186 225 271 324
#
# _framework density 17.896025999999999
#
# number of rings (size 3 to 8) (size 9 to 14) (size 15 to 20)
#    0.000    2.250    2.500    0.750    8.750    0.000 
#    0.000    0.625    0.000    1.500    0.000    0.000 
#    0.000    0.000    0.000    0.000    0.000    0.000 
#
# Total GULP energy -396588.855635 kJ/mol
# GULP energy per Si atom -12393.401739 kJ/mol
# Density = 1.785529 g / cm^3
# Si number density = 17.896026 Si / 1000 Ang^3
#
#
#
# Elastic Constant Matrix: (Units=GPa)
#
#
# Indices 1 2 3 4 5 6 
#
# 1 92.2051 37.8243 41.1713 0.0000 0.0000 0.0000
# 2 37.8243 46.6545 29.6809 0.0000 0.0000 0.0000
# 3 41.1713 29.6809 93.3909 0.0000 0.0000 0.0000
# 4 0.0000 0.0000 0.0000 20.3850 0.0000 0.0000
# 5 0.0000 0.0000 0.0000 0.0000 35.9238 0.0000
# 6 0.0000 0.0000 0.0000 0.0000 0.0000 25.3859
#
#
#
# Elastic Compliance Matrix: (Units=1/GPa)
#
#
# Indices 1 2 3 4 5 6 
#
# 1 0.017358 -0.011537 -0.003986 0.000000 0.000000 0.000000
# 2 -0.011537 0.034534 -0.005889 0.000000 0.000000 0.000000
# 3 -0.003986 -0.005889 0.014336 0.000000 0.000000 0.000000
# 4 0.000000 0.000000 0.000000 0.049056 0.000000 0.000000
# 5 0.000000 0.000000 0.000000 0.000000 0.027837 0.000000
# 6 0.000000 0.000000 0.000000 0.000000 0.000000 0.039392
#
#
# Mechanical properties :
#
#
# Convention : Reuss Voigt Hill
#
# Bulk Modulus (GPa) = 42.72653 49.95595 46.34124
# Shear Modulus (GPa) = 21.44653 24.57720 23.01186
#
# Velocity S-wave (km/s) = 3.46554 3.70987 3.58979
# Velocity P-wave (km/s) = 6.31981 6.80632 6.56757
#
# Compressibility (1/GPa) = 0.02340466
#
# Stress axis : x y z
#
# Youngs Moduli (GPa) = 57.61145 28.95674 69.75221
#
# Poissons Ratio (x) = 0.33407 0.27800
# Poissons Ratio (y) = 0.66466 0.41080
# Poissons Ratio (z) = 0.22961 0.17054
#
# Static dielectric constant tensor:
#      x y z
#    x 3.325300 0.000000 0.000000 
#    y 0.000000 2.973250 0.000000 
#    z 0.000000 0.000000 3.575810 
# 
# 
# High freq. dielectric constant tensor:
#      x y z
#    x 1.697180 0.000000 0.000000 
#    y 0.000000 1.638490 0.000000 
#    z 0.000000 0.000000 1.708700 
# 
# From -- ./inp_files/24544.got.cif
#   From: 2010.03.12/outbox.cif.g09.slc.cpg/sg20_13_cif.got.tgz:24544.got - 2010.04.14 01:38:04.
