data_PCOD8158430
_publ_section_title
;
Structure prediction by ZEFSAII (Michael W. Deem and Ramdas Pophale) SiO2 
 PCOD8158430
Probable space group: C 2 2 21
;
_chemical_formula_sum "Si O2"
_cell_formula_units_Z 56
_cell_length_a 11.714077
_cell_length_b 18.951413
_cell_length_c 13.648844
_cell_angle_alpha 90.000000
_cell_angle_beta 90.000000
_cell_angle_gamma 90.000000
_cell_volume 3030.020317
_symmetry_space_group_name_H-M "C 2 2 21"
_symmetry_group_IT_number 20
_symmetry_cell_setting 'orthorhombic'
loop_
_space_group_symop_operation_xyz
x,y,z
-x,-y,1/2+z
x,-y,-z
-x,y,1/2-z
1/2+x,1/2+y,z
1/2-x,1/2-y,1/2+z
1/2+x,1/2-y,-z
1/2-x,1/2+y,1/2-z
loop_
_atom_site_type_symbol
_atom_site_label
_atom_site_fract_x
_atom_site_fract_y
_atom_site_fract_z
Si Si1 0.574697 0.788435 0.891700
Si Si2 0.000000 0.473466 0.250000
Si Si3 0.254527 0.579101 0.522818
Si Si4 0.014688 0.561764 0.433036
Si Si5 0.338893 0.742625 0.807439
Si Si6 0.363931 0.299271 0.576905
Si Si7 0.000000 0.254803 0.250000
Si Si8 0.688219 0.131998 0.731781
O O1 0.566050 0.872633 0.908004
O O2 0.460772 0.746417 0.859891
O O3 0.661988 0.775473 0.802510
O O4 0.619759 0.759305 0.993760
O O5 0.950025 0.522560 0.165896
O O6 0.107829 0.425818 0.214097
O O7 0.292409 0.500000 0.500000
O O8 0.355395 0.624232 0.472749
O O9 0.248062 0.598903 0.636894
O O10 0.127934 0.593257 0.481893
O O11 0.956950 0.500000 0.500000
O O12 0.257826 0.789535 0.873369
O O13 0.290086 0.661835 0.801306
O O14 0.463037 0.294326 0.658461
O O15 0.105282 0.301418 0.290521
#
# Coordination Sequence:
#
# PCOD8158430 Si02
#       8
#     8   4   8   8   8   8   4   8
#     4  11  22  38  59  87 123 153 196 247 290 349
#     4  11  20  34  60  82 131 148 180 246 303 356
#     4  11  20  36  58  83 115 153 190 232 296 355
#     4  11  22  34  55  90 121 148 184 237 310 356
#     4  10  22  35  58  89 115 153 203 233 295 346
#     4  11  22  37  62  85 116 153 198 244 287 350
#     4   9  22  34  60  86 115 148 196 240 291 340
#     4  10  19  37  56  89 114 153 193 239 292 351
#
# _framework density 18.481725000000001
#
# number of rings (size 3 to 8) (size 9 to 14) (size 15 to 20)
#    0.000    1.429    5.714    1.714    4.000    0.000 
#    0.000    0.000    3.143    0.000    0.000    0.000 
#    0.000    0.000    0.000    0.000    0.000    0.000 
#
# Total GULP energy -346988.532330 kJ/mol
# GULP energy per Si atom -12392.447583 kJ/mol
# Density = 1.843966 g / cm^3
# Si number density = 18.481725 Si / 1000 Ang^3
#
#
#
# Elastic Constant Matrix: (Units=GPa)
#
#
# Indices 1 2 3 4 5 6 
#
# 1 56.4689 31.0834 26.2728 0.0000 0.0000 0.0000
# 2 31.0834 112.8206 27.4152 0.0000 0.0000 0.0000
# 3 26.2728 27.4152 80.6855 0.0000 0.0000 0.0000
# 4 0.0000 0.0000 0.0000 33.7240 0.0000 0.0000
# 5 0.0000 0.0000 0.0000 0.0000 33.2828 0.0000
# 6 0.0000 0.0000 0.0000 0.0000 0.0000 13.3864
#
#
#
# Elastic Compliance Matrix: (Units=1/GPa)
#
#
# Indices 1 2 3 4 5 6 
#
# 1 0.023164 -0.004958 -0.005858 0.000000 0.000000 0.000000
# 2 -0.004958 0.010723 -0.002029 0.000000 0.000000 0.000000
# 3 -0.005858 -0.002029 0.014991 0.000000 0.000000 0.000000
# 4 0.000000 0.000000 0.000000 0.029653 0.000000 0.000000
# 5 0.000000 0.000000 0.000000 0.000000 0.030046 0.000000
# 6 0.000000 0.000000 0.000000 0.000000 0.000000 0.074702
#
#
# Mechanical properties :
#
#
# Convention : Reuss Voigt Hill
#
# Bulk Modulus (GPa) = 43.12771 46.61306 44.87039
# Shear Modulus (GPa) = 23.07377 27.09222 25.08299
#
# Velocity S-wave (km/s) = 3.53719 3.83285 3.68799
# Velocity P-wave (km/s) = 6.32995 6.69803 6.51659
#
# Compressibility (1/GPa) = 0.02318695
#
# Stress axis : x y z
#
# Youngs Moduli (GPa) = 43.17114 93.25986 66.70879
#
# Poissons Ratio (x) = 0.46242 0.39076
# Poissons Ratio (y) = 0.21406 0.13534
# Poissons Ratio (z) = 0.25289 0.18920
#
# Static dielectric constant tensor:
#      x y z
#    x 3.287770 0.000000 0.000000 
#    y 0.000000 3.454170 0.000000 
#    z 0.000000 0.000000 3.687410 
# 
# 
# High freq. dielectric constant tensor:
#      x y z
#    x 1.691610 0.000000 0.000000 
#    y 0.000000 1.712530 0.000000 
#    z 0.000000 0.000000 1.726760 
# 
# From -- ./inp_files/14342.got.cif
#   From: 2010.03.12/outbox.cif.g09.slc.cpg/sg20_8_cif.got.tgz:14342.got - 2010.04.14 01:38:04.
