data_PCOD8158877
_publ_section_title
;
Structure prediction by ZEFSAII (Michael W. Deem and Ramdas Pophale) SiO2 
 PCOD8158877
Probable space group: C 2 2 21
;
_chemical_formula_sum "Si O2"
_cell_formula_units_Z 56
_cell_length_a 9.212917
_cell_length_b 23.940838
_cell_length_c 12.219395
_cell_angle_alpha 90.000000
_cell_angle_beta 90.000000
_cell_angle_gamma 90.000000
_cell_volume 2695.170289
_symmetry_space_group_name_H-M "C 2 2 21"
_symmetry_group_IT_number 20
_symmetry_cell_setting 'orthorhombic'
loop_
_space_group_symop_operation_xyz
x,y,z
-x,-y,1/2+z
x,-y,-z
-x,y,1/2-z
1/2+x,1/2+y,z
1/2-x,1/2-y,1/2+z
1/2+x,1/2-y,-z
1/2-x,1/2+y,1/2-z
loop_
_atom_site_type_symbol
_atom_site_label
_atom_site_fract_x
_atom_site_fract_y
_atom_site_fract_z
Si Si1 0.146093 0.693238 0.187199
Si Si2 0.233869 0.311440 0.329129
Si Si3 0.651739 0.516534 0.800096
Si Si4 0.504344 0.141535 0.508256
Si Si5 0.253633 0.106661 0.637483
Si Si6 0.748547 0.897978 0.648481
Si Si7 0.058162 0.888178 0.045691
O O1 0.254495 0.745265 0.185912
O O2 0.229107 0.641614 0.246063
O O3 0.000000 0.709750 0.250000
O O4 0.102718 0.680506 0.062417
O O5 0.221262 0.337667 0.208830
O O6 0.377853 0.336495 0.385823
O O7 0.092529 0.322473 0.403057
O O8 0.500000 0.496500 0.750000
O O9 0.738880 0.553463 0.714006
O O10 0.749490 0.462530 0.818637
O O11 0.623922 0.553278 0.908947
O O12 0.399039 0.097190 0.567523
O O13 0.611543 0.107474 0.431087
O O14 0.114849 0.113464 0.557802
O O15 0.896212 0.882849 0.581729
#
# Coordination Sequence:
#
# PCOD8158877 Si02
#       7
#     8   8   8   8   8   8   8
#     4  10  22  40  59  86 124 160 198 249 301 357
#     4  10  20  39  62  86 118 158 202 250 300 353
#     4   9  19  38  63  88 117 154 202 249 291 351
#     4  10  23  40  59  89 123 157 198 244 305 366
#     4  10  20  39  63  90 118 153 204 252 297 358
#     4  10  21  40  61  89 125 159 197 246 304 357
#     4   9  19  36  65  90 112 157 203 248 299 352
#
# _framework density 20.777909000000001
#
# number of rings (size 3 to 8) (size 9 to 14) (size 15 to 20)
#    0.000    2.286    0.000    3.000    0.000    5.714 
#    0.000   26.429    0.000    0.000    0.000    0.000 
#    0.000    0.000    0.000    0.000    0.000    0.000 
#
# Total GULP energy -347203.827435 kJ/mol
# GULP energy per Si atom -12400.136694 kJ/mol
# Density = 2.073062 g / cm^3
# Si number density = 20.777909 Si / 1000 Ang^3
#
#
#
# Elastic Constant Matrix: (Units=GPa)
#
#
# Indices 1 2 3 4 5 6 
#
# 1 108.5008 65.9364 61.2298 0.0000 0.0000 0.0000
# 2 65.9364 137.8551 44.6348 0.0000 0.0000 0.0000
# 3 61.2298 44.6348 80.5508 0.0000 0.0000 0.0000
# 4 0.0000 0.0000 0.0000 16.0597 0.0000 0.0000
# 5 0.0000 0.0000 0.0000 0.0000 35.2875 0.0000
# 6 0.0000 0.0000 0.0000 0.0000 0.0000 21.7458
#
#
#
# Elastic Compliance Matrix: (Units=1/GPa)
#
#
# Indices 1 2 3 4 5 6 
#
# 1 0.018903 -0.005349 -0.011405 0.000000 0.000000 0.000000
# 2 -0.005349 0.010353 -0.001671 0.000000 0.000000 0.000000
# 3 -0.011405 -0.001671 0.022010 0.000000 0.000000 0.000000
# 4 0.000000 0.000000 0.000000 0.062268 0.000000 0.000000
# 5 0.000000 0.000000 0.000000 0.000000 0.028339 0.000000
# 6 0.000000 0.000000 0.000000 0.000000 0.000000 0.045986
#
#
# Mechanical properties :
#
#
# Convention : Reuss Voigt Hill
#
# Bulk Modulus (GPa) = 69.36557 74.50096 71.93327
# Shear Modulus (GPa) = 21.78507 24.95899 23.37203
#
# Velocity S-wave (km/s) = 3.24153 3.46963 3.35752
# Velocity P-wave (km/s) = 6.88961 7.21005 7.05165
#
# Compressibility (1/GPa) = 0.01441637
#
# Stress axis : x y z
#
# Youngs Moduli (GPa) = 52.90109 96.58667 45.43340
#
# Poissons Ratio (x) = 0.51661 0.51818
# Poissons Ratio (y) = 0.28295 0.07593
# Poissons Ratio (z) = 0.60335 0.16143
#
# Static dielectric constant tensor:
#      x y z
#    x 3.737990 0.000000 0.000000 
#    y 0.000000 3.495170 0.000000 
#    z 0.000000 0.000000 3.941020 
# 
# 
# High freq. dielectric constant tensor:
#      x y z
#    x 1.812670 0.000000 0.000000 
#    y 0.000000 1.797510 0.000000 
#    z 0.000000 0.000000 1.819140 
# 
# From -- ./inp_files/19192.got.cif
#   From: 2010.03.12/outbox.cif.g09.slc.cpg/sg20_10_cif.got.tgz:19192.got - 2010.04.14 01:38:04.
