data_PCOD8158795
_publ_section_title
;
Structure prediction by ZEFSAII (Michael W. Deem and Ramdas Pophale) SiO2 
 PCOD8158795
Probable space group: C 2 2 21
;
_chemical_formula_sum "Si O2"
_cell_formula_units_Z 32
_cell_length_a 8.248956
_cell_length_b 12.279773
_cell_length_c 13.149690
_cell_angle_alpha 90.000000
_cell_angle_beta 90.000000
_cell_angle_gamma 90.000000
_cell_volume 1332.001888
_symmetry_space_group_name_H-M "C 2 2 21"
_symmetry_group_IT_number 20
_symmetry_cell_setting 'orthorhombic'
loop_
_space_group_symop_operation_xyz
x,y,z
-x,-y,1/2+z
x,-y,-z
-x,y,1/2-z
1/2+x,1/2+y,z
1/2-x,1/2-y,1/2+z
1/2+x,1/2-y,-z
1/2-x,1/2+y,1/2-z
loop_
_atom_site_type_symbol
_atom_site_label
_atom_site_fract_x
_atom_site_fract_y
_atom_site_fract_z
Si Si1 0.320629 0.270152 0.973182
Si Si2 0.323963 0.890390 0.702840
Si Si3 0.588121 0.434077 0.349148
Si Si4 0.881115 0.856661 0.609411
O O1 0.370416 0.345372 0.068207
O O2 0.252331 0.156287 0.018099
O O3 0.179071 0.322119 0.902156
O O4 0.484727 0.260163 0.906550
O O5 0.500000 0.897806 0.750000
O O6 0.201168 0.833955 0.782653
O O7 0.258274 0.011964 0.683332
O O8 0.500000 0.380398 0.250000
O O9 0.468921 0.526662 0.396011
#
# Coordination Sequence:
#
# PCOD8158795 Si02
#       4
#     8   8   8   8
#     4  11  21  39  64  90 123 169 215 258 326 390
#     4  10  20  38  58  86 129 166 207 267 318 373
#     4   9  21  42  63  88 127 165 204 265 326 375
#     4  10  21  37  60  90 121 160 210 262 312 378
#
# _framework density 24.023990999999999
#
# number of rings (size 3 to 8) (size 9 to 14) (size 15 to 20)
#    0.000    2.000    0.000    6.750    0.000    3.000 
#    0.000   23.750    0.000    0.000    0.000    0.000 
#    0.000    0.000    0.000    0.000    0.000    0.000 
#
# Total GULP energy -198255.718584 kJ/mol
# GULP energy per Si atom -12390.982411 kJ/mol
# Density = 2.396931 g / cm^3
# Si number density = 24.023991 Si / 1000 Ang^3
#
#
#
# Elastic Constant Matrix: (Units=GPa)
#
#
# Indices 1 2 3 4 5 6 
#
# 1 141.9181 49.4449 69.1668 0.0000 0.0000 0.0000
# 2 49.4449 43.2121 44.8123 0.0000 0.0000 0.0000
# 3 69.1668 44.8123 146.4652 0.0000 0.0000 0.0000
# 4 0.0000 0.0000 0.0000 40.6279 0.0000 0.0000
# 5 0.0000 0.0000 0.0000 0.0000 59.8648 0.0000
# 6 0.0000 0.0000 0.0000 0.0000 0.0000 14.8358
#
#
#
# Elastic Compliance Matrix: (Units=1/GPa)
#
#
# Indices 1 2 3 4 5 6 
#
# 1 0.012174 -0.011671 -0.002178 0.000000 0.000000 0.000000
# 2 -0.011671 0.045086 -0.008283 0.000000 0.000000 0.000000
# 3 -0.002178 -0.008283 0.010390 0.000000 0.000000 0.000000
# 4 0.000000 0.000000 0.000000 0.024614 0.000000 0.000000
# 5 0.000000 0.000000 0.000000 0.000000 0.016704 0.000000
# 6 0.000000 0.000000 0.000000 0.000000 0.000000 0.067404
#
#
# Mechanical properties :
#
#
# Convention : Reuss Voigt Hill
#
# Bulk Modulus (GPa) = 42.76081 73.16037 57.96059
# Shear Modulus (GPa) = 21.88829 34.27715 28.08272
#
# Velocity S-wave (km/s) = 3.02172 3.78138 3.42269
# Velocity P-wave (km/s) = 5.47834 7.04161 6.30859
#
# Compressibility (1/GPa) = 0.02338590
#
# Stress axis : x y z
#
# Youngs Moduli (GPa) = 82.14039 22.17990 96.24276
#
# Poissons Ratio (x) = 0.25887 0.20964
# Poissons Ratio (y) = 0.95869 0.79715
# Poissons Ratio (z) = 0.17892 0.18371
#
# Static dielectric constant tensor:
#      x y z
#    x 5.164030 0.000000 0.000000 
#    y 0.000000 3.897180 0.000000 
#    z 0.000000 0.000000 4.984160 
# 
# 
# High freq. dielectric constant tensor:
#      x y z
#    x 1.962110 0.000000 0.000000 
#    y 0.000000 1.899080 0.000000 
#    z 0.000000 0.000000 1.983720 
# 
# From -- ./inp_files/12491.got.cif
#   From: 2010.03.12/outbox.cif.g09.slc.cpg/sg20_7_cif.got.tgz:12491.got - 2010.04.14 01:38:04.
