data_PCOD8158005
_publ_section_title
;
Structure prediction by ZEFSAII (Michael W. Deem and Ramdas Pophale) SiO2 
 PCOD8158005
Probable space group: C 2 2 21
;
_chemical_formula_sum "Si O2"
_cell_formula_units_Z 40
_cell_length_a 8.654007
_cell_length_b 17.181848
_cell_length_c 13.845485
_cell_angle_alpha 90.000000
_cell_angle_beta 90.000000
_cell_angle_gamma 90.000000
_cell_volume 2058.710542
_symmetry_space_group_name_H-M "C 2 2 21"
_symmetry_group_IT_number 20
_symmetry_cell_setting 'orthorhombic'
loop_
_space_group_symop_operation_xyz
x,y,z
-x,-y,1/2+z
x,-y,-z
-x,y,1/2-z
1/2+x,1/2+y,z
1/2-x,1/2-y,1/2+z
1/2+x,1/2-y,-z
1/2-x,1/2+y,1/2-z
loop_
_atom_site_type_symbol
_atom_site_label
_atom_site_fract_x
_atom_site_fract_y
_atom_site_fract_z
Si Si1 0.317591 0.750659 0.102714
Si Si2 0.749194 0.913308 0.610292
Si Si3 0.549149 0.764097 0.601548
Si Si4 0.500000 0.355173 0.250000
Si Si5 0.500000 0.353168 0.750000
Si Si6 0.241264 0.084097 0.891203
O O1 0.394215 0.699769 0.183846
O O2 0.352429 0.841865 0.127980
O O3 0.135751 0.732848 0.100033
O O4 0.389737 0.730886 0.999316
O O5 0.616541 0.849212 0.627573
O O6 0.817774 0.906751 0.501971
O O7 0.890588 0.905969 0.684089
O O8 0.676242 0.000300 0.624304
O O9 0.604756 0.702715 0.683354
O O10 0.401855 0.411383 0.318096
#
# Coordination Sequence:
#
# PCOD8158005 Si02
#       6
#     8   8   8   4   4   8
#     4  10  21  37  58  80 106 142 181 220 264 318
#     4  10  20  35  54  79 110 141 177 220 269 316
#     4  10  20  35  57  80 107 140 181 224 264 315
#     4  10  17  32  55  80 104 140 176 214 263 322
#     4  12  21  34  57  84 106 140 182 220 263 320
#     4   9  19  34  54  76 108 143 174 219 269 314
#
# _framework density 19.429639000000002
#
# number of rings (size 3 to 8) (size 9 to 14) (size 15 to 20)
#    0.000    2.000    0.000    6.600    0.000    0.000 
#    0.000    3.000    0.000   40.800    0.000    0.000 
#    0.000    0.000    0.000    0.000    0.000    0.000 
#
# Total GULP energy -247840.721861 kJ/mol
# GULP energy per Si atom -12392.036093 kJ/mol
# Density = 1.938542 g / cm^3
# Si number density = 19.429639 Si / 1000 Ang^3
#
#
#
# Elastic Constant Matrix: (Units=GPa)
#
#
# Indices 1 2 3 4 5 6 
#
# 1 78.0152 29.1011 26.6335 0.0000 0.0000 0.0000
# 2 29.1011 118.1163 30.9958 0.0000 0.0000 0.0000
# 3 26.6335 30.9958 90.8292 0.0000 0.0000 0.0000
# 4 0.0000 0.0000 0.0000 19.2989 0.0000 0.0000
# 5 0.0000 0.0000 0.0000 0.0000 32.8245 0.0000
# 6 0.0000 0.0000 0.0000 0.0000 0.0000 22.8682
#
#
#
# Elastic Compliance Matrix: (Units=1/GPa)
#
#
# Indices 1 2 3 4 5 6 
#
# 1 0.015042 -0.002799 -0.003455 0.000000 0.000000 0.000000
# 2 -0.002799 0.009820 -0.002530 0.000000 0.000000 0.000000
# 3 -0.003455 -0.002530 0.012886 0.000000 0.000000 0.000000
# 4 0.000000 0.000000 0.000000 0.051816 0.000000 0.000000
# 5 0.000000 0.000000 0.000000 0.000000 0.030465 0.000000
# 6 0.000000 0.000000 0.000000 0.000000 0.000000 0.043729
#
#
# Mechanical properties :
#
#
# Convention : Reuss Voigt Hill
#
# Bulk Modulus (GPa) = 49.55825 51.15795 50.35810
# Shear Modulus (GPa) = 26.58809 28.34702 27.46755
#
# Velocity S-wave (km/s) = 3.70324 3.82377 3.76399
# Velocity P-wave (km/s) = 6.62172 6.77363 6.69811
#
# Compressibility (1/GPa) = 0.02017828
#
# Stress axis : x y z
#
# Youngs Moduli (GPa) = 66.48139 101.83430 77.60148
#
# Poissons Ratio (x) = 0.28505 0.26815
# Poissons Ratio (y) = 0.18609 0.19635
# Poissons Ratio (z) = 0.22972 0.25767
#
# Static dielectric constant tensor:
#      x y z
#    x 3.200080 0.000000 0.000000 
#    y 0.000000 3.860650 0.000000 
#    z 0.000000 0.000000 3.911630 
# 
# 
# High freq. dielectric constant tensor:
#      x y z
#    x 1.716520 0.000000 0.000000 
#    y 0.000000 1.766730 0.000000 
#    z 0.000000 0.000000 1.781920 
# 
# From -- ./inp_files/18733.got.cif
#   From: 2010.03.12/outbox.cif.g09.slc.cpg/sg20_10_cif.got.tgz:18733.got - 2010.04.14 01:38:04.
