data_PCOD8158667
_publ_section_title
;
Structure prediction by ZEFSAII (Michael W. Deem and Ramdas Pophale) SiO2 
 PCOD8158667
Probable space group: C 2 2 21
;
_chemical_formula_sum "Si O2"
_cell_formula_units_Z 32
_cell_length_a 18.831523
_cell_length_b 9.584472
_cell_length_c 7.700716
_cell_angle_alpha 90.000000
_cell_angle_beta 90.000000
_cell_angle_gamma 90.000000
_cell_volume 1389.903809
_symmetry_space_group_name_H-M "C 2 2 21"
_symmetry_group_IT_number 20
_symmetry_cell_setting 'orthorhombic'
loop_
_space_group_symop_operation_xyz
x,y,z
-x,-y,1/2+z
x,-y,-z
-x,y,1/2-z
1/2+x,1/2+y,z
1/2-x,1/2-y,1/2+z
1/2+x,1/2-y,-z
1/2-x,1/2+y,1/2-z
loop_
_atom_site_type_symbol
_atom_site_label
_atom_site_fract_x
_atom_site_fract_y
_atom_site_fract_z
Si Si1 0.464455 0.656932 0.561926
Si Si2 0.578103 0.153116 0.547987
Si Si3 0.168320 0.263846 0.777294
Si Si4 0.708226 0.948478 0.301264
O O1 0.462590 0.500000 0.500000
O O2 0.500000 0.669895 0.750000
O O3 0.509906 0.747711 0.421496
O O4 0.383927 0.715536 0.567730
O O5 0.623786 0.223865 0.396963
O O6 0.632702 0.136204 0.710342
O O7 0.548067 0.000000 0.500000
O O8 0.228056 0.148376 0.741076
O O9 0.204274 0.413926 0.822194
O O10 0.718299 0.000000 0.500000
#
# Coordination Sequence:
#
# PCOD8158667 Si02
#       4
#     8   8   8   8
#     4  10  20  36  57  82 112 145 183 228 274 326
#     4   8  18  36  53  74 109 147 182 225 275 323
#     4   9  18  34  56  79 108 143 182 225 272 328
#     4   9  18  34  54  77 108 141 177 226 275 325
#
# _framework density 23.023174999999998
#
# number of rings (size 3 to 8) (size 9 to 14) (size 15 to 20)
#    0.000    3.500    0.000    0.750    0.000    4.000 
#    0.000   17.500    0.000    0.000    0.000    0.000 
#    0.000    0.000    0.000    0.000    0.000    0.000 
#
# Total GULP energy -198224.290198 kJ/mol
# GULP energy per Si atom -12389.018137 kJ/mol
# Density = 2.297077 g / cm^3
# Si number density = 23.023175 Si / 1000 Ang^3
#
#
#
# Elastic Constant Matrix: (Units=GPa)
#
#
# Indices 1 2 3 4 5 6 
#
# 1 166.3165 131.5340 10.2384 0.0000 0.0000 0.0000
# 2 131.5340 210.7067 24.1592 0.0000 0.0000 0.0000
# 3 10.2384 24.1592 10.0995 0.0000 0.0000 0.0000
# 4 0.0000 0.0000 0.0000 30.2403 0.0000 0.0000
# 5 0.0000 0.0000 0.0000 0.0000 -0.5708 0.0000
# 6 0.0000 0.0000 0.0000 0.0000 0.0000 26.8210
#
#
#
# Elastic Compliance Matrix: (Units=1/GPa)
#
#
# Indices 1 2 3 4 5 6 
#
# 1 0.012345 -0.008641 0.008157 0.000000 0.000000 0.000000
# 2 -0.008641 0.012589 -0.021353 0.000000 0.000000 0.000000
# 3 0.008157 -0.021353 0.141826 0.000000 0.000000 0.000000
# 4 0.000000 0.000000 0.000000 0.033068 0.000000 0.000000
# 5 0.000000 0.000000 0.000000 0.000000 -1.751977 0.000000
# 6 0.000000 0.000000 0.000000 0.000000 0.000000 0.037284
#
#
# Mechanical properties :
#
#
# Convention : Reuss Voigt Hill
#
# Bulk Modulus (GPa) = 8.12458 79.88731 44.00595
# Shear Modulus (GPa) = -3.49611 26.04417 11.27403
#
# Velocity S-wave (km/s) = -1.23362 3.36700 2.21528
# Velocity P-wave (km/s) = 1.22778 7.06326 5.06937
#
# Compressibility (1/GPa) = 0.12308325
#
# Stress axis : x y z
#
# Youngs Moduli (GPa) = 81.00614 79.43614 7.05091
#
# Poissons Ratio (x) = 0.68645 -0.05751
# Poissons Ratio (y) = 0.70001 0.15056
# Poissons Ratio (z) = -0.66076 1.69623
#
# Static dielectric constant tensor:
#      x y z
#    x 4.627260 0.000000 0.000000 
#    y 0.000000 4.430220 0.000000 
#    z 0.000000 0.000000 3.696570 
# 
# 
# High freq. dielectric constant tensor:
#      x y z
#    x 1.919290 0.000000 0.000000 
#    y 0.000000 1.919210 0.000000 
#    z 0.000000 0.000000 1.866680 
# 
# From -- ./inp_files/9808.got.cif
#   From: 2010.03.12/outbox.cif.g09.slc.cpg/sg20_5_cif.got.tgz:9808.got - 2010.04.14 01:38:04.
