data_PCOD8158897
_publ_section_title
;
Structure prediction by ZEFSAII (Michael W. Deem and Ramdas Pophale) SiO2 
 PCOD8158897
Probable space group: C 2 2 21
;
_chemical_formula_sum "Si O2"
_cell_formula_units_Z 48
_cell_length_a 24.237403
_cell_length_b 5.529418
_cell_length_c 17.546244
_cell_angle_alpha 90.000000
_cell_angle_beta 90.000000
_cell_angle_gamma 90.000000
_cell_volume 2351.525380
_symmetry_space_group_name_H-M "C 2 2 21"
_symmetry_group_IT_number 20
_symmetry_cell_setting 'orthorhombic'
loop_
_space_group_symop_operation_xyz
x,y,z
-x,-y,1/2+z
x,-y,-z
-x,y,1/2-z
1/2+x,1/2+y,z
1/2-x,1/2-y,1/2+z
1/2+x,1/2-y,-z
1/2-x,1/2+y,1/2-z
loop_
_atom_site_type_symbol
_atom_site_label
_atom_site_fract_x
_atom_site_fract_y
_atom_site_fract_z
Si Si1 0.063581 0.259684 0.456251
Si Si2 0.052907 0.864127 0.921970
Si Si3 0.055223 0.797402 0.216065
Si Si4 0.370988 0.390596 0.814837
Si Si5 0.746768 0.522440 0.703544
Si Si6 0.137610 0.586418 0.837146
O O1 0.083721 0.500000 0.500000
O O2 0.103568 0.256779 0.384081
O O3 0.999867 0.310616 0.433191
O O4 0.068227 0.000000 0.500000
O O5 0.111927 0.739981 0.905960
O O6 0.035182 0.010361 0.846493
O O7 0.063865 0.000000 0.000000
O O8 0.096585 0.636144 0.168341
O O9 0.000000 0.668326 0.250000
O O10 0.086973 0.901666 0.289241
O O11 0.311636 0.500046 0.840175
O O12 0.361504 0.215311 0.744069
O O13 0.754803 0.285152 0.756162
O O14 0.798796 0.516812 0.644544
#
# Coordination Sequence:
#
# PCOD8158897 Si02
#       6
#     8   8   8   8   8   8
#     4  11  26  41  63  92 128 174 210 254 329 389
#     4  10  24  39  58  92 133 171 205 262 332 392
#     4  11  21  36  63  97 125 158 220 267 325 377
#     4  10  22  40  62  92 129 162 214 272 313 379
#     4  10  20  39  64  95 124 163 210 265 324 369
#     4  10  23  35  65  94 123 166 216 265 320 388
#
# _framework density 20.412282000000001
#
# number of rings (size 3 to 8) (size 9 to 14) (size 15 to 20)
#    0.000    1.667    3.333    0.000    9.333    0.000 
#    0.000    0.000    3.667    0.000    0.000    0.000 
#    0.000    0.000    0.000    0.000    0.000    0.000 
#
# Total GULP energy -297319.974106 kJ/mol
# GULP energy per Si atom -12388.332254 kJ/mol
# Density = 2.036582 g / cm^3
# Si number density = 20.412282 Si / 1000 Ang^3
#
#
#
# Elastic Constant Matrix: (Units=GPa)
#
#
# Indices 1 2 3 4 5 6 
#
# 1 169.9143 32.7621 70.0602 0.0000 0.0000 0.0000
# 2 32.7621 83.2167 22.8389 0.0000 0.0000 0.0000
# 3 70.0602 22.8389 86.0529 0.0000 0.0000 0.0000
# 4 0.0000 0.0000 0.0000 22.4680 0.0000 0.0000
# 5 0.0000 0.0000 0.0000 0.0000 23.6864 0.0000
# 6 0.0000 0.0000 0.0000 0.0000 0.0000 29.5598
#
#
#
# Elastic Compliance Matrix: (Units=1/GPa)
#
#
# Indices 1 2 3 4 5 6 
#
# 1 0.009068 -0.001665 -0.006941 0.000000 0.000000 0.000000
# 2 -0.001665 0.013267 -0.002165 0.000000 0.000000 0.000000
# 3 -0.006941 -0.002165 0.017847 0.000000 0.000000 0.000000
# 4 0.000000 0.000000 0.000000 0.044508 0.000000 0.000000
# 5 0.000000 0.000000 0.000000 0.000000 0.042218 0.000000
# 6 0.000000 0.000000 0.000000 0.000000 0.000000 0.033830
#
#
# Mechanical properties :
#
#
# Convention : Reuss Voigt Hill
#
# Bulk Modulus (GPa) = 53.65269 65.61179 59.63224
# Shear Modulus (GPa) = 26.52610 29.37768 27.95189
#
# Velocity S-wave (km/s) = 3.60879 3.79782 3.70451
# Velocity P-wave (km/s) = 6.61106 7.17247 6.89748
#
# Compressibility (1/GPa) = 0.01863839
#
# Stress axis : x y z
#
# Youngs Moduli (GPa) = 110.27299 75.37688 56.03315
#
# Poissons Ratio (x) = 0.12552 0.38893
# Poissons Ratio (y) = 0.18363 0.12133
# Poissons Ratio (z) = 0.76542 0.16321
#
# Static dielectric constant tensor:
#      x y z
#    x 4.310400 0.000000 0.000000 
#    y 0.000000 3.782130 0.000000 
#    z 0.000000 0.000000 3.148390 
# 
# 
# High freq. dielectric constant tensor:
#      x y z
#    x 1.816890 0.000000 0.000000 
#    y 0.000000 1.795840 0.000000 
#    z 0.000000 0.000000 1.768240 
# 
# From -- ./inp_files/22805.got.cif
#   From: 2010.03.12/outbox.cif.g09.slc.cpg/sg20_12_cif.got.tgz:22805.got - 2010.04.14 01:38:04.
