data_PCOD8158975
_publ_section_title
;
Structure prediction by ZEFSAII (Michael W. Deem and Ramdas Pophale) SiO2 
 PCOD8158975
Probable space group: C 2 2 21
;
_chemical_formula_sum "Si O2"
_cell_formula_units_Z 32
_cell_length_a 7.350992
_cell_length_b 21.922776
_cell_length_c 8.211854
_cell_angle_alpha 90.000000
_cell_angle_beta 90.000000
_cell_angle_gamma 90.000000
_cell_volume 1323.374359
_symmetry_space_group_name_H-M "C 2 2 21"
_symmetry_group_IT_number 20
_symmetry_cell_setting 'orthorhombic'
loop_
_space_group_symop_operation_xyz
x,y,z
-x,-y,1/2+z
x,-y,-z
-x,y,1/2-z
1/2+x,1/2+y,z
1/2-x,1/2-y,1/2+z
1/2+x,1/2-y,-z
1/2-x,1/2+y,1/2-z
loop_
_atom_site_type_symbol
_atom_site_label
_atom_site_fract_x
_atom_site_fract_y
_atom_site_fract_z
Si Si1 0.597440 0.878009 0.085055
Si Si2 0.468147 0.566588 0.941080
Si Si3 0.741487 0.842013 0.569545
Si Si4 0.212837 0.771388 0.246173
O O1 0.500000 0.902766 0.250000
O O2 0.686998 0.811559 0.115604
O O3 0.755088 0.923715 0.024502
O O4 0.450303 0.878260 0.937832
O O5 0.500000 0.576848 0.750000
O O6 0.527112 0.500000 0.000000
O O7 0.587713 0.613850 0.046225
O O8 0.711816 0.792077 0.426968
O O9 0.759814 0.800836 0.731985
O O10 0.000000 0.784935 0.250000
#
# Coordination Sequence:
#
# PCOD8158975 Si02
#       4
#     8   8   8   8
#     4  10  20  40  70  93 132 184 214 279 354 398
#     4  12  25  50  69  95 138 188 236 287 336 413
#     4  11  23  43  70 103 139 181 226 289 354 410
#     4  11  20  41  70 101 144 172 219 285 355 415
#
# _framework density 24.180612
#
# number of rings (size 3 to 8) (size 9 to 14) (size 15 to 20)
#    0.000    1.000    7.500    1.500    0.000    1.000 
#   13.500    0.000    0.000    0.000    0.000    0.000 
#    0.000    0.000    0.000    0.000    0.000    0.000 
#
# Total GULP energy -198394.226437 kJ/mol
# GULP energy per Si atom -12399.639152 kJ/mol
# Density = 2.412558 g / cm^3
# Si number density = 24.180612 Si / 1000 Ang^3
#
#
#
# Elastic Constant Matrix: (Units=GPa)
#
#
# Indices 1 2 3 4 5 6 
#
# 1 171.3728 43.9108 15.9751 0.0000 0.0000 0.0000
# 2 43.9108 113.1052 27.5465 0.0000 0.0000 0.0000
# 3 15.9751 27.5465 22.2147 0.0000 0.0000 0.0000
# 4 0.0000 0.0000 0.0000 35.8967 0.0000 0.0000
# 5 0.0000 0.0000 0.0000 0.0000 9.2049 0.0000
# 6 0.0000 0.0000 0.0000 0.0000 0.0000 28.8679
#
#
#
# Elastic Compliance Matrix: (Units=1/GPa)
#
#
# Indices 1 2 3 4 5 6 
#
# 1 0.006556 -0.002002 -0.002233 0.000000 0.000000 0.000000
# 2 -0.002002 0.013278 -0.015025 0.000000 0.000000 0.000000
# 3 -0.002233 -0.015025 0.065252 0.000000 0.000000 0.000000
# 4 0.000000 0.000000 0.000000 0.027858 0.000000 0.000000
# 5 0.000000 0.000000 0.000000 0.000000 0.108638 0.000000
# 6 0.000000 0.000000 0.000000 0.000000 0.000000 0.034641
#
#
# Mechanical properties :
#
#
# Convention : Reuss Voigt Hill
#
# Bulk Modulus (GPa) = 21.47430 53.50637 37.49033
# Shear Modulus (GPa) = 16.11531 29.41126 22.76328
#
# Velocity S-wave (km/s) = 2.58438 3.49136 3.07153
# Velocity P-wave (km/s) = 4.21965 6.19908 5.30255
#
# Compressibility (1/GPa) = 0.04656729
#
# Stress axis : x y z
#
# Youngs Moduli (GPa) = 152.52690 75.31411 15.32510
#
# Poissons Ratio (x) = 0.15074 0.03422
# Poissons Ratio (y) = 0.30529 0.23026
# Poissons Ratio (z) = 0.34056 1.13161
#
# Static dielectric constant tensor:
#      x y z
#    x 4.649540 0.000000 0.000000 
#    y 0.000000 4.132700 0.000000 
#    z 0.000000 0.000000 4.095690 
# 
# 
# High freq. dielectric constant tensor:
#      x y z
#    x 1.984060 0.000000 0.000000 
#    y 0.000000 1.931720 0.000000 
#    z 0.000000 0.000000 1.935420 
# 
# From -- ./inp_files/5994.got.cif
#   From: 2010.03.12/outbox.cif.g09.slc.cpg/sg20_3_cif.got.tgz:5994.got - 2010.04.14 01:38:04.
