data_PCOD8158550
_publ_section_title
;
Structure prediction by ZEFSAII (Michael W. Deem and Ramdas Pophale) SiO2 
 PCOD8158550
Probable space group: C 2 2 21
;
_chemical_formula_sum "Si O2"
_cell_formula_units_Z 56
_cell_length_a 14.529379
_cell_length_b 19.778100
_cell_length_c 9.732318
_cell_angle_alpha 90.000000
_cell_angle_beta 90.000000
_cell_angle_gamma 90.000000
_cell_volume 2796.713069
_symmetry_space_group_name_H-M "C 2 2 21"
_symmetry_group_IT_number 20
_symmetry_cell_setting 'orthorhombic'
loop_
_space_group_symop_operation_xyz
x,y,z
-x,-y,1/2+z
x,-y,-z
-x,y,1/2-z
1/2+x,1/2+y,z
1/2-x,1/2-y,1/2+z
1/2+x,1/2-y,-z
1/2-x,1/2+y,1/2-z
loop_
_atom_site_type_symbol
_atom_site_label
_atom_site_fract_x
_atom_site_fract_y
_atom_site_fract_z
Si Si1 0.094785 0.529469 0.299542
Si Si2 0.728585 0.167922 0.760947
Si Si3 0.551905 0.775548 0.112882
Si Si4 0.419149 0.688645 0.651085
Si Si5 0.918904 0.028843 0.651037
Si Si6 0.907427 0.610534 0.945677
Si Si7 0.238437 0.021431 0.649083
O O1 0.068936 0.457016 0.362773
O O2 0.129205 0.586501 0.405982
O O3 0.166939 0.519054 0.176155
O O4 0.000000 0.561904 0.250000
O O5 0.658638 0.210848 0.852866
O O6 0.820610 0.209996 0.718859
O O7 0.679284 0.148554 0.618675
O O8 0.752665 0.102239 0.851622
O O9 0.500000 0.748370 0.250000
O O10 0.498788 0.842516 0.057416
O O11 0.557011 0.719003 0.996928
O O12 0.500000 0.714061 0.750000
O O13 0.417657 0.608769 0.635155
O O14 0.827267 0.000831 0.724278
O O15 0.000000 0.004280 0.750000
O O16 0.930037 0.000000 0.500000
O O17 0.199500 0.000000 0.500000
#
# Coordination Sequence:
#
# PCOD8158550 Si02
#       7
#     8   8   8   8   8   8   8
#     4  10  20  30  55  86 124 160 191 233 288 356
#     4   9  20  38  60  80 120 160 191 245 304 342
#     4  10  21  40  61  84 117 161 202 245 292 351
#     4  10  23  41  61  84 118 154 200 254 300 350
#     4  10  22  41  66  87 116 154 197 255 315 351
#     4   9  19  35  56  83 118 159 195 236 295 350
#     4  10  21  35  56  89 128 155 194 239 297 362
#
# _framework density 20.023506000000001
#
# number of rings (size 3 to 8) (size 9 to 14) (size 15 to 20)
#    0.000    2.286    0.000    2.571   10.000    3.429 
#    0.000    1.429    0.000    0.000    0.000    0.000 
#    0.000    0.000    0.000    0.000    0.000    0.000 
#
# Total GULP energy -347050.696382 kJ/mol
# GULP energy per Si atom -12394.667728 kJ/mol
# Density = 1.997793 g / cm^3
# Si number density = 20.023506 Si / 1000 Ang^3
#
#
#
# Elastic Constant Matrix: (Units=GPa)
#
#
# Indices 1 2 3 4 5 6 
#
# 1 133.6429 33.0845 58.4210 0.0000 0.0000 0.0000
# 2 33.0845 39.2701 46.0777 0.0000 0.0000 0.0000
# 3 58.4210 46.0777 149.6295 0.0000 0.0000 0.0000
# 4 0.0000 0.0000 0.0000 27.6233 0.0000 0.0000
# 5 0.0000 0.0000 0.0000 0.0000 29.7624 0.0000
# 6 0.0000 0.0000 0.0000 0.0000 0.0000 11.2416
#
#
#
# Elastic Compliance Matrix: (Units=1/GPa)
#
#
# Indices 1 2 3 4 5 6 
#
# 1 0.009828 -0.005915 -0.002016 0.000000 0.000000 0.000000
# 2 -0.005915 0.043431 -0.011065 0.000000 0.000000 0.000000
# 3 -0.002016 -0.011065 0.010878 0.000000 0.000000 0.000000
# 4 0.000000 0.000000 0.000000 0.036201 0.000000 0.000000
# 5 0.000000 0.000000 0.000000 0.000000 0.033599 0.000000
# 6 0.000000 0.000000 0.000000 0.000000 0.000000 0.088955
#
#
# Mechanical properties :
#
#
# Convention : Reuss Voigt Hill
#
# Bulk Modulus (GPa) = 38.24755 66.41211 52.32983
# Shear Modulus (GPa) = 18.54606 26.05608 22.30107
#
# Velocity S-wave (km/s) = 3.04668 3.61123 3.34090
# Velocity P-wave (km/s) = 5.61419 7.11527 6.40883
#
# Compressibility (1/GPa) = 0.02614547
#
# Stress axis : x y z
#
# Youngs Moduli (GPa) = 101.74927 23.02510 91.93168
#
# Poissons Ratio (x) = 0.13619 0.18532
# Poissons Ratio (y) = 0.60182 1.01722
# Poissons Ratio (z) = 0.20511 0.25477
#
# Static dielectric constant tensor:
#      x y z
#    x 3.898310 0.000000 0.000000 
#    y 0.000000 3.338960 0.000000 
#    z 0.000000 0.000000 3.664880 
# 
# 
# High freq. dielectric constant tensor:
#      x y z
#    x 1.792870 0.000000 0.000000 
#    y 0.000000 1.749220 0.000000 
#    z 0.000000 0.000000 1.784510 
# 
# From -- ./inp_files/8761.got.cif
#   From: 2010.03.12/outbox.cif.g09.slc.cpg/sg20_5_cif.got.tgz:8761.got - 2010.04.14 01:38:04.
