data_PCOD8158732
_publ_section_title
;
Structure prediction by ZEFSAII (Michael W. Deem and Ramdas Pophale) SiO2 
 PCOD8158732
Probable space group: C 2 2 21
;
_chemical_formula_sum "Si O2"
_cell_formula_units_Z 56
_cell_length_a 17.923222
_cell_length_b 5.012371
_cell_length_c 30.441618
_cell_angle_alpha 90.000000
_cell_angle_beta 90.000000
_cell_angle_gamma 90.000000
_cell_volume 2734.809152
_symmetry_space_group_name_H-M "C 2 2 21"
_symmetry_group_IT_number 20
_symmetry_cell_setting 'orthorhombic'
loop_
_space_group_symop_operation_xyz
x,y,z
-x,-y,1/2+z
x,-y,-z
-x,y,1/2-z
1/2+x,1/2+y,z
1/2-x,1/2-y,1/2+z
1/2+x,1/2-y,-z
1/2-x,1/2+y,1/2-z
loop_
_atom_site_type_symbol
_atom_site_label
_atom_site_fract_x
_atom_site_fract_y
_atom_site_fract_z
Si Si1 0.249303 0.458501 0.448626
Si Si2 0.699063 0.446907 0.748187
Si Si3 0.615181 0.077886 0.610333
Si Si4 0.191599 0.540761 0.900635
Si Si5 0.036005 0.465648 0.854839
Si Si6 0.452400 0.538354 0.294397
Si Si7 0.170309 0.921300 0.346031
O O1 0.253479 0.500000 0.500000
O O2 0.161670 0.475114 0.434438
O O3 0.299856 0.673664 0.423537
O O4 0.284191 0.174300 0.436832
O O5 0.733559 0.152677 0.744774
O O6 0.636940 0.465961 0.786118
O O7 0.654184 0.508875 0.703962
O O8 0.528679 0.996084 0.608157
O O9 0.619770 0.388591 0.623458
O O10 0.652421 0.889906 0.647567
O O11 0.109057 0.494274 0.883883
O O12 0.243375 0.522170 0.857493
O O13 0.027145 0.680932 0.816229
O O14 0.028713 0.183873 0.830526
O O15 0.500000 0.498872 0.250000
#
# Coordination Sequence:
#
# PCOD8158732 Si02
#       7
#     8   8   8   8   8   8   8
#     4  10  21  40  63  89 114 144 186 233 288 356
#     4  12  23  36  55  80 110 149 197 245 283 319
#     4  10  21  37  61  80 108 148 184 224 275 341
#     4  10  21  37  62  86 115 152 187 237 296 346
#     4  12  23  40  58  86 120 155 199 240 289 353
#     4  12  25  39  57  84 121 161 199 249 294 330
#     4  10  20  37  54  79 109 149 195 230 274 337
#
# _framework density 20.476749999999999
#
# number of rings (size 3 to 8) (size 9 to 14) (size 15 to 20)
#    0.000    1.143    0.000    7.714    0.000    2.286 
#    0.000    1.429    0.000    0.000    0.000    0.000 
#    0.000    0.000    0.000    0.000    0.000    0.000 
#
# Total GULP energy -347227.639328 kJ/mol
# GULP energy per Si atom -12400.987119 kJ/mol
# Density = 2.043014 g / cm^3
# Si number density = 20.476750 Si / 1000 Ang^3
#
#
#
# Elastic Constant Matrix: (Units=GPa)
#
#
# Indices 1 2 3 4 5 6 
#
# 1 129.3820 4.9509 20.4006 0.0000 0.0000 0.0000
# 2 4.9509 75.6285 -1.0860 0.0000 0.0000 0.0000
# 3 20.4006 -1.0860 66.0912 0.0000 0.0000 0.0000
# 4 0.0000 0.0000 0.0000 25.3361 0.0000 0.0000
# 5 0.0000 0.0000 0.0000 0.0000 24.8484 0.0000
# 6 0.0000 0.0000 0.0000 0.0000 0.0000 26.4073
#
#
#
# Elastic Compliance Matrix: (Units=1/GPa)
#
#
# Indices 1 2 3 4 5 6 
#
# 1 0.008149 -0.000570 -0.002525 0.000000 0.000000 0.000000
# 2 -0.000570 0.013265 0.000394 0.000000 0.000000 0.000000
# 3 -0.002525 0.000394 0.015916 0.000000 0.000000 0.000000
# 4 0.000000 0.000000 0.000000 0.039469 0.000000 0.000000
# 5 0.000000 0.000000 0.000000 0.000000 0.040244 0.000000
# 6 0.000000 0.000000 0.000000 0.000000 0.000000 0.037868
#
#
# Mechanical properties :
#
#
# Convention : Reuss Voigt Hill
#
# Bulk Modulus (GPa) = 31.31888 35.51473 33.41681
# Shear Modulus (GPa) = 29.24712 31.77410 30.51061
#
# Velocity S-wave (km/s) = 3.78340 3.94346 3.86426
# Velocity P-wave (km/s) = 5.86630 6.17382 6.02202
#
# Compressibility (1/GPa) = 0.03192962
#
# Stress axis : x y z
#
# Youngs Moduli (GPa) = 122.71532 75.38359 62.82826
#
# Poissons Ratio (x) = 0.04295 0.15862
# Poissons Ratio (y) = 0.06991 -0.02474
# Poissons Ratio (z) = 0.30982 -0.02969
#
# Static dielectric constant tensor:
#      x y z
#    x 3.793980 0.000000 0.000000 
#    y 0.000000 3.963090 0.000000 
#    z 0.000000 0.000000 3.457930 
# 
# 
# High freq. dielectric constant tensor:
#      x y z
#    x 1.806020 0.000000 0.000000 
#    y 0.000000 1.822340 0.000000 
#    z 0.000000 0.000000 1.772770 
# 
# From -- ./inp_files/31287.got.cif
#   From: 2010.03.12/outbox.cif.g09.slc.cpg/sg20_16_cif.got.tgz:31287.got - 2010.04.14 01:38:04.
