data_PCOD8158560
_publ_section_title
;
Structure prediction by ZEFSAII (Michael W. Deem and Ramdas Pophale) SiO2 
 PCOD8158560
Probable space group: C 2 2 21
;
_chemical_formula_sum "Si O2"
_cell_formula_units_Z 64
_cell_length_a 10.135434
_cell_length_b 18.751113
_cell_length_c 19.170007
_cell_angle_alpha 90.000000
_cell_angle_beta 90.000000
_cell_angle_gamma 90.000000
_cell_volume 3643.272640
_symmetry_space_group_name_H-M "C 2 2 21"
_symmetry_group_IT_number 20
_symmetry_cell_setting 'orthorhombic'
loop_
_space_group_symop_operation_xyz
x,y,z
-x,-y,1/2+z
x,-y,-z
-x,y,1/2-z
1/2+x,1/2+y,z
1/2-x,1/2-y,1/2+z
1/2+x,1/2-y,-z
1/2-x,1/2+y,1/2-z
loop_
_atom_site_type_symbol
_atom_site_label
_atom_site_fract_x
_atom_site_fract_y
_atom_site_fract_z
Si Si1 0.518648 0.548960 0.561471
Si Si2 0.129650 0.454069 0.285231
Si Si3 0.119396 0.047934 0.705994
Si Si4 0.888383 0.782633 0.200007
Si Si5 0.637229 0.784359 0.280201
Si Si6 0.207680 0.286107 0.437408
Si Si7 0.016305 0.215020 0.548569
Si Si8 0.786027 0.453169 0.065216
O O1 0.571498 0.500000 0.500000
O O2 0.609160 0.524963 0.625867
O O3 0.534821 0.630818 0.540767
O O4 0.367329 0.532629 0.580203
O O5 0.249379 0.484526 0.239516
O O6 0.132985 0.369247 0.280618
O O7 0.136514 0.478752 0.365676
O O8 0.000000 0.486518 0.250000
O O9 0.111673 0.132858 0.708566
O O10 0.000000 0.014928 0.750000
O O11 0.746952 0.754227 0.226501
O O12 0.920086 0.758584 0.121350
O O13 0.000000 0.749611 0.250000
O O14 0.500000 0.753230 0.250000
O O15 0.671767 0.760391 0.359051
O O16 0.100432 0.250003 0.487246
O O17 0.360022 0.264633 0.454849
O O18 0.188401 0.370227 0.448663
O O19 0.836957 0.500000 0.000000
#
# Coordination Sequence:
#
# PCOD8158560 Si02
#       8
#     8   8   8   8   8   8   8   8
#     4   9  17  31  52  75  98 127 165 204 243 288
#     4   9  16  27  45  72  98 121 158 205 246 280
#     4   9  14  25  47  71  91 117 161 207 239 271
#     4   9  15  28  47  68  92 123 164 206 241 277
#     4   9  17  28  47  72  96 122 163 212 245 278
#     4  10  20  33  50  76 102 130 165 201 247 298
#     4  10  20  32  51  74 102 133 162 202 249 298
#     4   9  17  32  53  73  97 131 166 198 239 296
#
# _framework density 17.566624000000001
#
# number of rings (size 3 to 8) (size 9 to 14) (size 15 to 20)
#    0.000    2.750    2.500    0.000    1.750    0.000 
#    2.250    0.625    0.000    3.000    0.000    0.000 
#    0.000    0.000    0.000    0.000    0.000    0.000 
#
# Total GULP energy -396600.968824 kJ/mol
# GULP energy per Si atom -12393.780276 kJ/mol
# Density = 1.752664 g / cm^3
# Si number density = 17.566624 Si / 1000 Ang^3
#
#
#
# Elastic Constant Matrix: (Units=GPa)
#
#
# Indices 1 2 3 4 5 6 
#
# 1 149.5347 24.0780 96.0917 0.0000 0.0000 0.0000
# 2 24.0780 22.8367 37.2760 0.0000 0.0000 0.0000
# 3 96.0917 37.2760 162.1899 0.0000 0.0000 0.0000
# 4 0.0000 0.0000 0.0000 25.9365 0.0000 0.0000
# 5 0.0000 0.0000 0.0000 0.0000 39.5295 0.0000
# 6 0.0000 0.0000 0.0000 0.0000 0.0000 13.9561
#
#
#
# Elastic Compliance Matrix: (Units=1/GPa)
#
#
# Indices 1 2 3 4 5 6 
#
# 1 0.010831 -0.001513 -0.006069 0.000000 0.000000 0.000000
# 2 -0.001513 0.070291 -0.015258 0.000000 0.000000 0.000000
# 3 -0.006069 -0.015258 0.013268 0.000000 0.000000 0.000000
# 4 0.000000 0.000000 0.000000 0.038556 0.000000 0.000000
# 5 0.000000 0.000000 0.000000 0.000000 0.025298 0.000000
# 6 0.000000 0.000000 0.000000 0.000000 0.000000 0.071653
#
#
# Mechanical properties :
#
#
# Convention : Reuss Voigt Hill
#
# Bulk Modulus (GPa) = 20.53028 72.16141 46.34585
# Shear Modulus (GPa) = 17.13416 27.69212 22.41314
#
# Velocity S-wave (km/s) = 3.12650 3.97470 3.57584
# Velocity P-wave (km/s) = 4.97451 7.88874 6.59462
#
# Compressibility (1/GPa) = 0.04870853
#
# Stress axis : x y z
#
# Youngs Moduli (GPa) = 92.32531 14.22665 75.36731
#
# Poissons Ratio (x) = 0.02153 0.45743
# Poissons Ratio (y) = 0.13969 1.14999
# Poissons Ratio (z) = 0.56036 0.21708
#
# Static dielectric constant tensor:
#      x y z
#    x 3.481610 0.000000 0.000000 
#    y 0.000000 2.721640 0.000000 
#    z 0.000000 0.000000 3.440170 
# 
# 
# High freq. dielectric constant tensor:
#      x y z
#    x 1.683040 0.000000 0.000000 
#    y 0.000000 1.614840 0.000000 
#    z 0.000000 0.000000 1.694720 
# 
# From -- ./inp_files/23988.got.cif
#   From: 2010.03.12/outbox.cif.g09.slc.cpg/sg20_12_cif.got.tgz:23988.got - 2010.04.14 01:38:04.
