data_PCOD8158389
_publ_section_title
;
Structure prediction by ZEFSAII (Michael W. Deem and Ramdas Pophale) SiO2 
 PCOD8158389
Probable space group: C 2 2 21
;
_chemical_formula_sum "Si O2"
_cell_formula_units_Z 56
_cell_length_a 24.454201
_cell_length_b 5.075743
_cell_length_c 26.195857
_cell_angle_alpha 90.000000
_cell_angle_beta 90.000000
_cell_angle_gamma 90.000000
_cell_volume 3251.514634
_symmetry_space_group_name_H-M "C 2 2 21"
_symmetry_group_IT_number 20
_symmetry_cell_setting 'orthorhombic'
loop_
_space_group_symop_operation_xyz
x,y,z
-x,-y,1/2+z
x,-y,-z
-x,y,1/2-z
1/2+x,1/2+y,z
1/2-x,1/2-y,1/2+z
1/2+x,1/2-y,-z
1/2-x,1/2+y,1/2-z
loop_
_atom_site_type_symbol
_atom_site_label
_atom_site_fract_x
_atom_site_fract_y
_atom_site_fract_z
Si Si1 0.911870 0.018341 0.943102
Si Si2 0.275818 0.043416 0.312260
Si Si3 0.092607 0.500000 0.000000
Si Si4 0.702440 0.956741 0.699233
Si Si5 0.363308 0.981443 0.108730
Si Si6 0.314937 0.949164 0.579623
Si Si7 0.983328 0.000000 0.500000
Si Si8 0.251064 0.050140 0.055691
O O1 0.900069 0.298754 0.917809
O O2 0.977501 0.990173 0.949689
O O3 0.888572 0.798238 0.905569
O O4 0.884319 0.000000 0.000000
O O5 0.309992 0.023671 0.259712
O O6 0.245527 0.320829 0.317105
O O7 0.229389 0.821230 0.315223
O O8 0.318908 0.015814 0.358994
O O9 0.128131 0.510726 0.948244
O O10 0.054314 0.250667 0.998347
O O11 0.643505 0.988069 0.670248
O O12 0.299949 0.001063 0.094097
O O13 0.269422 0.150271 0.558724
O O14 0.298581 0.650247 0.566371
O O15 0.275461 0.000000 0.000000
#
# Coordination Sequence:
#
# PCOD8158389 Si02
#       8
#     8   8   4   8   8   8   4   8
#     4  10  22  36  53  76 104 133 175 216 268 322
#     4  10  19  36  46  76 109 148 180 209 236 293
#     4  12  22  38  57  74  99 140 182 216 272 310
#     4  10  20  31  54  70 111 149 177 203 246 299
#     4  12  19  33  53  80 106 149 169 201 263 320
#     4  12  21  34  52  78 107 146 178 209 244 315
#     4  10  24  42  53  74 101 134 178 234 268 316
#     4  12  21  31  45  79 118 140 167 200 251 314
#
# _framework density 17.222742
#
# number of rings (size 3 to 8) (size 9 to 14) (size 15 to 20)
#    0.429    0.571    4.286    4.714    0.000    0.000 
#    0.000    0.000    0.000    0.000    0.000    6.000 
#    0.000    0.000    0.000    0.000    0.000    0.000 
#
# Total GULP energy -347136.799781 kJ/mol
# GULP energy per Si atom -12397.742849 kJ/mol
# Density = 1.718354 g / cm^3
# Si number density = 17.222742 Si / 1000 Ang^3
#
#
#
# Elastic Constant Matrix: (Units=GPa)
#
#
# Indices 1 2 3 4 5 6 
#
# 1 77.4737 16.0109 30.1066 0.0000 0.0000 0.0000
# 2 16.0109 72.2146 9.1178 0.0000 0.0000 0.0000
# 3 30.1066 9.1178 117.9286 0.0000 0.0000 0.0000
# 4 0.0000 0.0000 0.0000 22.9501 0.0000 0.0000
# 5 0.0000 0.0000 0.0000 0.0000 8.9560 0.0000
# 6 0.0000 0.0000 0.0000 0.0000 0.0000 32.7535
#
#
#
# Elastic Compliance Matrix: (Units=1/GPa)
#
#
# Indices 1 2 3 4 5 6 
#
# 1 0.014888 -0.002849 -0.003581 0.000000 0.000000 0.000000
# 2 -0.002849 0.014529 -0.000396 0.000000 0.000000 0.000000
# 3 -0.003581 -0.000396 0.009424 0.000000 0.000000 0.000000
# 4 0.000000 0.000000 0.000000 0.043573 0.000000 0.000000
# 5 0.000000 0.000000 0.000000 0.000000 0.111656 0.000000
# 6 0.000000 0.000000 0.000000 0.000000 0.000000 0.030531
#
#
# Mechanical properties :
#
#
# Convention : Reuss Voigt Hill
#
# Bulk Modulus (GPa) = 39.69714 42.00973 40.85343
# Shear Modulus (GPa) = 20.27170 27.09070 23.68120
#
# Velocity S-wave (km/s) = 3.43451 3.97036 3.71212
# Velocity P-wave (km/s) = 6.23114 6.74265 6.49193
#
# Compressibility (1/GPa) = 0.02519073
#
# Stress axis : x y z
#
# Youngs Moduli (GPa) = 67.16944 68.82675 106.10738
#
# Poissons Ratio (x) = 0.19607 0.37992
# Poissons Ratio (y) = 0.19135 0.04203
# Poissons Ratio (z) = 0.24050 0.02726
#
# Static dielectric constant tensor:
#      x y z
#    x 2.904020 0.000000 0.000000 
#    y 0.000000 3.366730 0.000000 
#    z 0.000000 0.000000 3.584860 
# 
# 
# High freq. dielectric constant tensor:
#      x y z
#    x 1.616780 0.000000 0.000000 
#    y 0.000000 1.691330 0.000000 
#    z 0.000000 0.000000 1.669630 
# 
# From -- ./inp_files/30540.got.cif
#   From: 2010.03.12/outbox.cif.g09.slc.cpg/sg20_16_cif.got.tgz:30540.got - 2010.04.14 01:38:04.
