data_PCOD8158814
_publ_section_title
;
Structure prediction by ZEFSAII (Michael W. Deem and Ramdas Pophale) SiO2 
 PCOD8158814
Probable space group: C 2 2 21
;
_chemical_formula_sum "Si O2"
_cell_formula_units_Z 44
_cell_length_a 22.007411
_cell_length_b 8.892701
_cell_length_c 10.655061
_cell_angle_alpha 90.000000
_cell_angle_beta 90.000000
_cell_angle_gamma 90.000000
_cell_volume 2085.252184
_symmetry_space_group_name_H-M "C 2 2 21"
_symmetry_group_IT_number 20
_symmetry_cell_setting 'orthorhombic'
loop_
_space_group_symop_operation_xyz
x,y,z
-x,-y,1/2+z
x,-y,-z
-x,y,1/2-z
1/2+x,1/2+y,z
1/2-x,1/2-y,1/2+z
1/2+x,1/2-y,-z
1/2-x,1/2+y,1/2-z
loop_
_atom_site_type_symbol
_atom_site_label
_atom_site_fract_x
_atom_site_fract_y
_atom_site_fract_z
Si Si1 0.000000 0.455033 0.750000
Si Si2 0.523255 0.702888 0.559118
Si Si3 0.571838 0.779006 0.154863
Si Si4 0.761303 0.877226 0.859780
Si Si5 0.209383 0.312768 0.118428
Si Si6 0.000000 0.041177 0.250000
Si Si7 0.869279 0.000000 0.000000
O O1 0.027513 0.353123 0.640585
O O2 0.057460 0.555187 0.793009
O O3 0.480734 0.739196 0.443406
O O4 0.492684 0.561831 0.628621
O O5 0.591475 0.649743 0.527563
O O6 0.638950 0.769866 0.099855
O O7 0.560526 0.648566 0.259993
O O8 0.760818 0.779924 0.733167
O O9 0.826537 0.956384 0.881621
O O10 0.712315 0.011191 0.845428
O O11 0.743162 0.779808 0.985153
#
# Coordination Sequence:
#
# PCOD8158814 Si02
#       7
#     4   8   8   8   8   4   4
#     4  10  26  34  60  98 134 170 204 258 348 392
#     4  11  21  39  60  97 128 171 212 258 332 393
#     4  11  22  41  63  95 138 169 211 276 331 398
#     4  10  25  46  68  95 129 181 227 279 330 379
#     4  10  24  46  67  94 133 173 230 280 327 395
#     4  10  20  38  60  96 126 172 214 250 328 394
#     4  10  20  42  66  90 136 170 224 274 312 408
#
# _framework density 21.100563999999999
#
# number of rings (size 3 to 8) (size 9 to 14) (size 15 to 20)
#    0.000    1.818    1.818    1.636    7.636    3.636 
#   13.091    0.000    0.000    0.000    0.000    0.000 
#    0.000    0.000    0.000    0.000    0.000    0.000 
#
# Total GULP energy -272614.854679 kJ/mol
# GULP energy per Si atom -12391.584304 kJ/mol
# Density = 2.105254 g / cm^3
# Si number density = 21.100564 Si / 1000 Ang^3
#
#
#
# Elastic Constant Matrix: (Units=GPa)
#
#
# Indices 1 2 3 4 5 6 
#
# 1 119.8105 28.8777 36.6016 0.0000 0.0000 0.0000
# 2 28.8777 113.7662 42.7912 0.0000 0.0000 0.0000
# 3 36.6016 42.7912 107.4275 0.0000 0.0000 0.0000
# 4 0.0000 0.0000 0.0000 37.9373 0.0000 0.0000
# 5 0.0000 0.0000 0.0000 0.0000 21.1176 0.0000
# 6 0.0000 0.0000 0.0000 0.0000 0.0000 18.0025
#
#
#
# Elastic Compliance Matrix: (Units=1/GPa)
#
#
# Indices 1 2 3 4 5 6 
#
# 1 0.009503 -0.001405 -0.002678 0.000000 0.000000 0.000000
# 2 -0.001405 0.010547 -0.003722 0.000000 0.000000 0.000000
# 3 -0.002678 -0.003722 0.011704 0.000000 0.000000 0.000000
# 4 0.000000 0.000000 0.000000 0.026359 0.000000 0.000000
# 5 0.000000 0.000000 0.000000 0.000000 0.047354 0.000000
# 6 0.000000 0.000000 0.000000 0.000000 0.000000 0.055548
#
#
# Mechanical properties :
#
#
# Convention : Reuss Voigt Hill
#
# Bulk Modulus (GPa) = 61.94712 61.94946 61.94829
# Shear Modulus (GPa) = 27.47147 30.92704 29.19926
#
# Velocity S-wave (km/s) = 3.61214 3.83260 3.72400
# Velocity P-wave (km/s) = 6.84241 7.00057 6.92194
#
# Compressibility (1/GPa) = 0.01614280
#
# Stress axis : x y z
#
# Youngs Moduli (GPa) = 105.22628 94.81672 85.44213
#
# Poissons Ratio (x) = 0.13321 0.22884
# Poissons Ratio (y) = 0.14783 0.31805
# Poissons Ratio (z) = 0.28182 0.35294
#
# Static dielectric constant tensor:
#      x y z
#    x 3.686250 0.000000 0.000000 
#    y 0.000000 4.156050 0.000000 
#    z 0.000000 0.000000 5.289680 
# 
# 
# High freq. dielectric constant tensor:
#      x y z
#    x 1.814880 0.000000 0.000000 
#    y 0.000000 1.832720 0.000000 
#    z 0.000000 0.000000 1.837880 
# 
# From -- ./inp_files/13061.got.cif
#   From: 2010.03.12/outbox.cif.g09.slc.cpg/sg20_7_cif.got.tgz:13061.got - 2010.04.14 01:38:04.
