data_PCOD8158817
_publ_section_title
;
Structure prediction by ZEFSAII (Michael W. Deem and Ramdas Pophale) SiO2 
 PCOD8158817
Probable space group: C 2 2 21
;
_chemical_formula_sum "Si O2"
_cell_formula_units_Z 20
_cell_length_a 11.249998
_cell_length_b 16.863864
_cell_length_c 4.889604
_cell_angle_alpha 90.000000
_cell_angle_beta 90.000000
_cell_angle_gamma 90.000000
_cell_volume 927.648025
_symmetry_space_group_name_H-M "C 2 2 21"
_symmetry_group_IT_number 20
_symmetry_cell_setting 'orthorhombic'
loop_
_space_group_symop_operation_xyz
x,y,z
-x,-y,1/2+z
x,-y,-z
-x,y,1/2-z
1/2+x,1/2+y,z
1/2-x,1/2-y,1/2+z
1/2+x,1/2-y,-z
1/2-x,1/2+y,1/2-z
loop_
_atom_site_type_symbol
_atom_site_label
_atom_site_fract_x
_atom_site_fract_y
_atom_site_fract_z
Si Si1 0.575380 0.000000 0.000000
Si Si2 0.128268 0.815052 0.143553
Si Si3 0.725175 0.853991 0.864129
O O1 0.652090 0.065312 0.164329
O O2 0.500000 0.960927 0.250000
O O3 0.226660 0.856011 0.329775
O O4 0.136271 0.719995 0.175239
O O5 0.000000 0.843018 0.250000
O O6 0.161145 0.845988 0.840059
#
# Coordination Sequence:
#
# PCOD8158817 Si02
#       3
#     4   8   8
#     4  12  24  40  62  88 122 156 192 250 304 344
#     4  10  20  38  61  86 119 157 195 243 291 344
#     4  10  22  37  59  91 119 151 202 240 288 360
#
# _framework density 21.559902999999998
#
# number of rings (size 3 to 8) (size 9 to 14) (size 15 to 20)
#    0.000    1.600    0.000    4.800    0.000    6.400 
#    0.000    4.000    0.000    0.000    0.000    0.000 
#    0.000    0.000    0.000    0.000    0.000    0.000 
#
# Total GULP energy -123974.191018 kJ/mol
# GULP energy per Si atom -12397.419102 kJ/mol
# Density = 2.151083 g / cm^3
# Si number density = 21.559903 Si / 1000 Ang^3
#
#
#
# Elastic Constant Matrix: (Units=GPa)
#
#
# Indices 1 2 3 4 5 6 
#
# 1 88.5627 43.8755 16.0184 0.0000 0.0000 0.0000
# 2 43.8755 97.7420 31.2436 0.0000 0.0000 0.0000
# 3 16.0184 31.2436 93.0931 0.0000 0.0000 0.0000
# 4 0.0000 0.0000 0.0000 27.5338 0.0000 0.0000
# 5 0.0000 0.0000 0.0000 0.0000 21.8933 0.0000
# 6 0.0000 0.0000 0.0000 0.0000 0.0000 21.0930
#
#
#
# Elastic Compliance Matrix: (Units=1/GPa)
#
#
# Indices 1 2 3 4 5 6 
#
# 1 0.014531 -0.006411 -0.000349 0.000000 0.000000 0.000000
# 2 -0.006411 0.014289 -0.003693 0.000000 0.000000 0.000000
# 3 -0.000349 -0.003693 0.012041 0.000000 0.000000 0.000000
# 4 0.000000 0.000000 0.000000 0.036319 0.000000 0.000000
# 5 0.000000 0.000000 0.000000 0.000000 0.045676 0.000000
# 6 0.000000 0.000000 0.000000 0.000000 0.000000 0.047409
#
#
# Mechanical properties :
#
#
# Convention : Reuss Voigt Hill
#
# Bulk Modulus (GPa) = 50.10909 51.29699 50.70304
# Shear Modulus (GPa) = 25.27519 26.65470 25.96495
#
# Velocity S-wave (km/s) = 3.42764 3.51993 3.47409
# Velocity P-wave (km/s) = 6.24157 6.35329 6.29768
#
# Compressibility (1/GPa) = 0.01995646
#
# Stress axis : x y z
#
# Youngs Moduli (GPa) = 68.81957 69.98229 83.04828
#
# Poissons Ratio (x) = 0.44868 0.02895
# Poissons Ratio (y) = 0.44122 0.30666
# Poissons Ratio (z) = 0.02399 0.25841
#
# Static dielectric constant tensor:
#      x y z
#    x 3.607200 0.000000 0.000000 
#    y 0.000000 3.530590 0.000000 
#    z 0.000000 0.000000 4.026340 
# 
# 
# High freq. dielectric constant tensor:
#      x y z
#    x 1.841410 0.000000 0.000000 
#    y 0.000000 1.817460 0.000000 
#    z 0.000000 0.000000 1.867100 
# 
# From -- ./inp_files/48.got.cif
#   From: 2010.03.12/outbox.cif.g09.slc.cpg/sg20_1_cif.got.tgz:48.got - 2010.04.14 01:38:04.
