data_PCOD8158788
_publ_section_title
;
Structure prediction by ZEFSAII (Michael W. Deem and Ramdas Pophale) SiO2 
 PCOD8158788
Probable space group: C 2 2 21
;
_chemical_formula_sum "Si O2"
_cell_formula_units_Z 60
_cell_length_a 28.627077
_cell_length_b 5.187266
_cell_length_c 19.684744
_cell_angle_alpha 90.000000
_cell_angle_beta 90.000000
_cell_angle_gamma 90.000000
_cell_volume 2923.110926
_symmetry_space_group_name_H-M "C 2 2 21"
_symmetry_group_IT_number 20
_symmetry_cell_setting 'orthorhombic'
loop_
_space_group_symop_operation_xyz
x,y,z
-x,-y,1/2+z
x,-y,-z
-x,y,1/2-z
1/2+x,1/2+y,z
1/2-x,1/2-y,1/2+z
1/2+x,1/2-y,-z
1/2-x,1/2+y,1/2-z
loop_
_atom_site_type_symbol
_atom_site_label
_atom_site_fract_x
_atom_site_fract_y
_atom_site_fract_z
Si Si1 0.011906 0.000000 0.500000
Si Si2 0.475281 0.105164 0.576667
Si Si3 0.947165 0.074927 0.766995
Si Si4 0.810272 0.311627 0.261110
Si Si5 0.162148 0.740518 0.456671
Si Si6 0.710870 0.690477 0.679478
Si Si7 0.936494 0.685436 0.096156
Si Si8 0.409949 0.929509 0.301523
O O1 0.045441 0.228825 0.522245
O O2 0.980173 0.086268 0.435450
O O3 0.430898 0.048363 0.622949
O O4 0.466553 0.000000 0.500000
O O5 0.524274 0.029070 0.615106
O O6 0.937551 0.088986 0.847512
O O7 0.914210 0.292692 0.733535
O O8 0.000000 0.146964 0.750000
O O9 0.936424 0.787306 0.742221
O O10 0.766675 0.323597 0.312148
O O11 0.808298 0.539157 0.206451
O O12 0.856001 0.348225 0.307400
O O13 0.813338 0.042701 0.220530
O O14 0.182727 0.500000 0.500000
O O15 0.199788 0.827265 0.400389
O O16 0.117192 0.613403 0.417858
O O17 0.150562 0.000000 0.500000
#
# Coordination Sequence:
#
# PCOD8158788 Si02
#       8
#     4   8   8   8   8   8   8   8
#     4  10  20  38  56  74 116 170 200 246 274 384
#     4  10  23  39  58  81 120 169 211 248 300 366
#     4  12  25  39  61  93 131 165 205 270 311 352
#     4  10  21  42  70  92 120 163 208 265 324 379
#     4  12  24  38  60  93 129 165 207 258 316 386
#     4  10  22  43  66  94 124 160 208 262 326 385
#     4  11  22  38  57  85 123 170 210 243 312 374
#     4  12  24  41  62  95 123 162 212 264 311 372
#
# _framework density 20.526078999999999
#
# number of rings (size 3 to 8) (size 9 to 14) (size 15 to 20)
#    0.000    1.067    2.000    5.600    3.733    0.000 
#    0.000    0.667    1.467    0.000    0.000    0.000 
#    0.000    0.000    0.000    0.000    0.000    0.000 
#
# Total GULP energy -371737.657987 kJ/mol
# GULP energy per Si atom -12391.255266 kJ/mol
# Density = 2.047936 g / cm^3
# Si number density = 20.526079 Si / 1000 Ang^3
#
#
#
# Elastic Constant Matrix: (Units=GPa)
#
#
# Indices 1 2 3 4 5 6 
#
# 1 113.8176 20.5497 49.1884 0.0000 0.0000 0.0000
# 2 20.5497 86.4317 17.2221 0.0000 0.0000 0.0000
# 3 49.1884 17.2221 98.9107 0.0000 0.0000 0.0000
# 4 0.0000 0.0000 0.0000 29.7289 0.0000 0.0000
# 5 0.0000 0.0000 0.0000 0.0000 30.5172 0.0000
# 6 0.0000 0.0000 0.0000 0.0000 0.0000 22.4769
#
#
#
# Elastic Compliance Matrix: (Units=1/GPa)
#
#
# Indices 1 2 3 4 5 6 
#
# 1 0.011411 -0.001639 -0.005389 0.000000 0.000000 0.000000
# 2 -0.001639 0.012221 -0.001313 0.000000 0.000000 0.000000
# 3 -0.005389 -0.001313 0.013019 0.000000 0.000000 0.000000
# 4 0.000000 0.000000 0.000000 0.033637 0.000000 0.000000
# 5 0.000000 0.000000 0.000000 0.000000 0.032768 0.000000
# 6 0.000000 0.000000 0.000000 0.000000 0.000000 0.044490
#
#
# Mechanical properties :
#
#
# Convention : Reuss Voigt Hill
#
# Bulk Modulus (GPa) = 50.07889 52.56447 51.32168
# Shear Modulus (GPa) = 29.25939 30.69127 29.97533
#
# Velocity S-wave (km/s) = 3.77964 3.87102 3.82560
# Velocity P-wave (km/s) = 6.59532 6.75603 6.67616
#
# Compressibility (1/GPa) = 0.01996850
#
# Stress axis : x y z
#
# Youngs Moduli (GPa) = 87.63449 81.82548 76.81194
#
# Poissons Ratio (x) = 0.13413 0.41396
# Poissons Ratio (y) = 0.14365 0.10083
# Poissons Ratio (z) = 0.47229 0.10742
#
# Static dielectric constant tensor:
#      x y z
#    x 3.696320 0.000000 0.000000 
#    y 0.000000 4.125210 0.000000 
#    z 0.000000 0.000000 3.748950 
# 
# 
# High freq. dielectric constant tensor:
#      x y z
#    x 1.784830 0.000000 0.000000 
#    y 0.000000 1.818620 0.000000 
#    z 0.000000 0.000000 1.799180 
# 
# From -- ./inp_files/22926.got.cif
#   From: 2010.03.12/outbox.cif.g09.slc.cpg/sg20_12_cif.got.tgz:22926.got - 2010.04.14 01:38:04.
