data_PCOD8158793
_publ_section_title
;
Structure prediction by ZEFSAII (Michael W. Deem and Ramdas Pophale) SiO2 
 PCOD8158793
Probable space group: C 2 2 21
;
_chemical_formula_sum "Si O2"
_cell_formula_units_Z 44
_cell_length_a 23.922306
_cell_length_b 8.338663
_cell_length_c 11.076696
_cell_angle_alpha 90.000000
_cell_angle_beta 90.000000
_cell_angle_gamma 90.000000
_cell_volume 2209.579849
_symmetry_space_group_name_H-M "C 2 2 21"
_symmetry_group_IT_number 20
_symmetry_cell_setting 'orthorhombic'
loop_
_space_group_symop_operation_xyz
x,y,z
-x,-y,1/2+z
x,-y,-z
-x,y,1/2-z
1/2+x,1/2+y,z
1/2-x,1/2-y,1/2+z
1/2+x,1/2-y,-z
1/2-x,1/2+y,1/2-z
loop_
_atom_site_type_symbol
_atom_site_label
_atom_site_fract_x
_atom_site_fract_y
_atom_site_fract_z
Si Si1 0.000000 0.140570 0.250000
Si Si2 0.279033 0.394819 0.885738
Si Si3 0.574390 0.595040 0.881750
Si Si4 0.983802 0.313818 0.000763
Si Si5 0.312934 0.316510 0.266314
Si Si6 0.356951 0.183089 0.028086
O O1 0.985011 0.252190 0.137544
O O2 0.947113 0.028562 0.280454
O O3 0.292892 0.504561 0.769458
O O4 0.231503 0.267599 0.852957
O O5 0.258191 0.500000 0.000000
O O6 0.335182 0.297249 0.920312
O O7 0.628602 0.685906 0.835744
O O8 0.592605 0.500000 0.000000
O O9 0.525954 0.721971 0.913085
O O10 0.999841 0.500000 0.000000
O O11 0.922110 0.281649 0.948251
O O12 0.320254 0.215164 0.145525
O O13 0.346610 0.000000 0.000000
#
# Coordination Sequence:
#
# PCOD8158793 Si02
#       6
#     4   8   8   8   8   8
#     4  10  20  38  58  82 118 156 190 236 292 352
#     4  10  23  39  59  86 113 152 198 239 288 348
#     4  10  22  37  59  86 115 153 193 235 289 353
#     4  10  22  38  59  89 119 150 195 240 290 348
#     4  11  22  39  60  83 116 153 193 246 292 335
#     4  10  21  38  60  85 114 151 193 238 290 354
#
# _framework density 19.913288999999999
#
# number of rings (size 3 to 8) (size 9 to 14) (size 15 to 20)
#    0.000    1.818    0.000    3.273    0.000   13.091 
#    0.000    5.455    0.000    0.000    0.000    0.000 
#    0.000    0.000    0.000    0.000    0.000    0.000 
#
# Total GULP energy -272873.884094 kJ/mol
# GULP energy per Si atom -12403.358368 kJ/mol
# Density = 1.986797 g / cm^3
# Si number density = 19.913289 Si / 1000 Ang^3
#
#
#
# Elastic Constant Matrix: (Units=GPa)
#
#
# Indices 1 2 3 4 5 6 
#
# 1 106.0857 66.1466 43.7879 0.0000 0.0000 0.0000
# 2 66.1466 138.1422 52.9420 0.0000 0.0000 0.0000
# 3 43.7879 52.9420 77.5852 0.0000 0.0000 0.0000
# 4 0.0000 0.0000 0.0000 33.9679 0.0000 0.0000
# 5 0.0000 0.0000 0.0000 0.0000 26.2768 0.0000
# 6 0.0000 0.0000 0.0000 0.0000 0.0000 25.0654
#
#
#
# Elastic Compliance Matrix: (Units=1/GPa)
#
#
# Indices 1 2 3 4 5 6 
#
# 1 0.014603 -0.005191 -0.004699 0.000000 0.000000 0.000000
# 2 -0.005191 0.011648 -0.005018 0.000000 0.000000 0.000000
# 3 -0.004699 -0.005018 0.018966 0.000000 0.000000 0.000000
# 4 0.000000 0.000000 0.000000 0.029440 0.000000 0.000000
# 5 0.000000 0.000000 0.000000 0.000000 0.038056 0.000000
# 6 0.000000 0.000000 0.000000 0.000000 0.000000 0.039896
#
#
# Mechanical properties :
#
#
# Convention : Reuss Voigt Hill
#
# Bulk Modulus (GPa) = 64.94075 71.95178 68.44627
# Shear Modulus (GPa) = 26.65833 27.65778 27.15805
#
# Velocity S-wave (km/s) = 3.66282 3.73085 3.69699
# Velocity P-wave (km/s) = 7.11132 7.40068 7.25744
#
# Compressibility (1/GPa) = 0.01539865
#
# Stress axis : x y z
#
# Youngs Moduli (GPa) = 68.47958 85.85217 52.72716
#
# Poissons Ratio (x) = 0.44569 0.24778
# Poissons Ratio (y) = 0.35550 0.26460
# Poissons Ratio (z) = 0.32180 0.43083
#
# Static dielectric constant tensor:
#      x y z
#    x 3.582270 0.000000 0.000000 
#    y 0.000000 3.725000 0.000000 
#    z 0.000000 0.000000 3.653610 
# 
# 
# High freq. dielectric constant tensor:
#      x y z
#    x 1.776240 0.000000 0.000000 
#    y 0.000000 1.788370 0.000000 
#    z 0.000000 0.000000 1.780480 
# 
# From -- ./inp_files/16598.got.cif
#   From: 2010.03.12/outbox.cif.g09.slc.cpg/sg20_9_cif.got.tgz:16598.got - 2010.04.14 01:38:04.
