data_PCOD8158940
_publ_section_title
;
Structure prediction by ZEFSAII (Michael W. Deem and Ramdas Pophale) SiO2 
 PCOD8158940
Probable space group: C 2 2 21
;
_chemical_formula_sum "Si O2"
_cell_formula_units_Z 56
_cell_length_a 20.978594
_cell_length_b 9.422478
_cell_length_c 14.455591
_cell_angle_alpha 90.000000
_cell_angle_beta 90.000000
_cell_angle_gamma 90.000000
_cell_volume 2857.441594
_symmetry_space_group_name_H-M "C 2 2 21"
_symmetry_group_IT_number 20
_symmetry_cell_setting 'orthorhombic'
loop_
_space_group_symop_operation_xyz
x,y,z
-x,-y,1/2+z
x,-y,-z
-x,y,1/2-z
1/2+x,1/2+y,z
1/2-x,1/2-y,1/2+z
1/2+x,1/2-y,-z
1/2-x,1/2+y,1/2-z
loop_
_atom_site_type_symbol
_atom_site_label
_atom_site_fract_x
_atom_site_fract_y
_atom_site_fract_z
Si Si1 0.023469 0.762904 0.149770
Si Si2 0.773092 0.331199 0.980874
Si Si3 0.269658 0.749597 0.669121
Si Si4 0.871897 0.027199 0.606363
Si Si5 0.171823 0.252299 0.169398
Si Si6 0.377114 0.040974 0.288045
Si Si7 0.594159 0.109135 0.417565
O O1 0.059814 0.895717 0.104510
O O2 0.070347 0.628543 0.155963
O O3 0.000000 0.811724 0.250000
O O4 0.963863 0.720415 0.085980
O O5 0.718580 0.270604 0.915890
O O6 0.841908 0.300673 0.936103
O O7 0.766955 0.500000 0.000000
O O8 0.766828 0.235147 0.072096
O O9 0.319018 0.619848 0.659762
O O10 0.213175 0.720383 0.739859
O O11 0.307225 0.889250 0.701351
O O12 0.851163 0.000000 0.500000
O O13 0.875359 0.883507 0.667389
O O14 0.126003 0.388617 0.161875
O O15 0.397489 0.027656 0.180416
O O16 0.580623 0.000000 0.500000
#
# Coordination Sequence:
#
# PCOD8158940 Si02
#       7
#     8   8   8   8   8   8   8
#     4   9  22  44  62  84 118 168 209 254 307 358
#     4  11  20  37  61  91 125 160 198 250 316 365
#     4  11  20  37  57  93 130 159 195 252 312 373
#     4  11  22  41  64  86 125 166 206 250 312 368
#     4  12  20  35  62  96 122 155 202 251 309 370
#     4  10  22  36  61  92 124 158 205 253 304 361
#     4  10  20  40  63  88 120 166 210 254 299 367
#
# _framework density 19.597949
#
# number of rings (size 3 to 8) (size 9 to 14) (size 15 to 20)
#    0.000    1.429    4.286    2.571    0.000    1.714 
#    0.000    5.000    0.000    0.000    0.000    0.000 
#    0.000    0.000    0.000    0.000    0.000    0.000 
#
# Total GULP energy -347133.651956 kJ/mol
# GULP energy per Si atom -12397.630427 kJ/mol
# Density = 1.955334 g / cm^3
# Si number density = 19.597949 Si / 1000 Ang^3
#
#
#
# Elastic Constant Matrix: (Units=GPa)
#
#
# Indices 1 2 3 4 5 6 
#
# 1 100.9322 51.6021 27.5502 0.0000 0.0000 0.0000
# 2 51.6021 120.8030 42.6420 0.0000 0.0000 0.0000
# 3 27.5502 42.6420 96.1706 0.0000 0.0000 0.0000
# 4 0.0000 0.0000 0.0000 27.4079 0.0000 0.0000
# 5 0.0000 0.0000 0.0000 0.0000 34.3271 0.0000
# 6 0.0000 0.0000 0.0000 0.0000 0.0000 30.7202
#
#
#
# Elastic Compliance Matrix: (Units=1/GPa)
#
#
# Indices 1 2 3 4 5 6 
#
# 1 0.012851 -0.004967 -0.001479 0.000000 0.000000 0.000000
# 2 -0.004967 0.011734 -0.003780 0.000000 0.000000 0.000000
# 3 -0.001479 -0.003780 0.012498 0.000000 0.000000 0.000000
# 4 0.000000 0.000000 0.000000 0.036486 0.000000 0.000000
# 5 0.000000 0.000000 0.000000 0.000000 0.029132 0.000000
# 6 0.000000 0.000000 0.000000 0.000000 0.000000 0.032552
#
#
# Mechanical properties :
#
#
# Convention : Reuss Voigt Hill
#
# Bulk Modulus (GPa) = 60.13027 62.38825 61.25926
# Shear Modulus (GPa) = 31.00819 31.56513 31.28666
#
# Velocity S-wave (km/s) = 3.98202 4.01763 3.99986
# Velocity P-wave (km/s) = 7.20351 7.30924 7.25656
#
# Compressibility (1/GPa) = 0.01663056
#
# Stress axis : x y z
#
# Youngs Moduli (GPa) = 77.81558 85.22221 80.01381
#
# Poissons Ratio (x) = 0.42333 0.11833
# Poissons Ratio (y) = 0.38654 0.30244
# Poissons Ratio (z) = 0.11508 0.32213
#
# Static dielectric constant tensor:
#      x y z
#    x 3.776570 0.000000 0.000000 
#    y 0.000000 3.575640 0.000000 
#    z 0.000000 0.000000 3.456650 
# 
# 
# High freq. dielectric constant tensor:
#      x y z
#    x 1.768920 0.000000 0.000000 
#    y 0.000000 1.743450 0.000000 
#    z 0.000000 0.000000 1.765620 
# 
# From -- ./inp_files/21756.got.cif
#   From: 2010.03.12/outbox.cif.g09.slc.cpg/sg20_11_cif.got.tgz:21756.got - 2010.04.14 01:38:04.
