data_PCOD8158399
_publ_section_title
;
Structure prediction by ZEFSAII (Michael W. Deem and Ramdas Pophale) SiO2 
 PCOD8158399
Probable space group: C 2 2 21
;
_chemical_formula_sum "Si O2"
_cell_formula_units_Z 48
_cell_length_a 31.907788
_cell_length_b 15.084881
_cell_length_c 4.870118
_cell_angle_alpha 90.000000
_cell_angle_beta 90.000000
_cell_angle_gamma 90.000000
_cell_volume 2344.110447
_symmetry_space_group_name_H-M "C 2 2 21"
_symmetry_group_IT_number 20
_symmetry_cell_setting 'orthorhombic'
loop_
_space_group_symop_operation_xyz
x,y,z
-x,-y,1/2+z
x,-y,-z
-x,y,1/2-z
1/2+x,1/2+y,z
1/2-x,1/2-y,1/2+z
1/2+x,1/2-y,-z
1/2-x,1/2+y,1/2-z
loop_
_atom_site_type_symbol
_atom_site_label
_atom_site_fract_x
_atom_site_fract_y
_atom_site_fract_z
Si Si1 0.655138 0.671865 0.607475
Si Si2 0.820792 0.561306 0.752138
Si Si3 0.372145 0.223205 0.595438
Si Si4 0.425658 0.584778 0.823024
Si Si5 0.047070 0.812986 0.813794
Si Si6 0.754402 0.810318 0.254014
O O1 0.647433 0.701178 0.294248
O O2 0.625124 0.589794 0.706722
O O3 0.703291 0.642230 0.645580
O O4 0.646071 0.758564 0.793258
O O5 0.808152 0.500000 0.500000
O O6 0.860154 0.624254 0.682203
O O7 0.779958 0.617299 0.837777
O O8 0.835513 0.500000 0.000000
O O9 0.423075 0.233656 0.579120
O O10 0.448393 0.601045 0.525513
O O11 0.440936 0.500000 0.000000
O O12 0.436709 0.667735 0.010084
O O13 0.000000 0.782261 0.750000
O O14 0.765365 0.751760 0.519407
#
# Coordination Sequence:
#
# PCOD8158399 Si02
#       6
#     8   8   8   8   8   8
#     4  10  19  36  58  80 108 160 200 226 277 349
#     4  12  24  37  57  89 117 145 194 244 295 337
#     4  10  20  38  59  80 112 152 190 240 285 347
#     4  10  21  35  55  84 120 152 185 239 295 336
#     4  10  21  37  60  85 109 148 202 236 282 356
#     4  12  21  37  60  82 116 159 199 239 284 344
#
# _framework density 20.476848
#
# number of rings (size 3 to 8) (size 9 to 14) (size 15 to 20)
#    0.000    1.333    3.333    3.000    0.000    2.000 
#    0.000    3.333    0.000    1.000    0.000    0.000 
#    0.000    0.000    0.000    0.000    0.000    0.000 
#
# Total GULP energy -297449.583341 kJ/mol
# GULP energy per Si atom -12393.732639 kJ/mol
# Density = 2.043024 g / cm^3
# Si number density = 20.476848 Si / 1000 Ang^3
#
#
#
# Elastic Constant Matrix: (Units=GPa)
#
#
# Indices 1 2 3 4 5 6 
#
# 1 132.4945 28.9017 5.7439 0.0000 0.0000 0.0000
# 2 28.9017 59.4729 8.7758 0.0000 0.0000 0.0000
# 3 5.7439 8.7758 89.3978 0.0000 0.0000 0.0000
# 4 0.0000 0.0000 0.0000 32.6138 0.0000 0.0000
# 5 0.0000 0.0000 0.0000 0.0000 25.4833 0.0000
# 6 0.0000 0.0000 0.0000 0.0000 0.0000 33.6518
#
#
#
# Elastic Compliance Matrix: (Units=1/GPa)
#
#
# Indices 1 2 3 4 5 6 
#
# 1 0.008444 -0.004083 -0.000142 0.000000 0.000000 0.000000
# 2 -0.004083 0.019035 -0.001606 0.000000 0.000000 0.000000
# 3 -0.000142 -0.001606 0.011353 0.000000 0.000000 0.000000
# 4 0.000000 0.000000 0.000000 0.030662 0.000000 0.000000
# 5 0.000000 0.000000 0.000000 0.000000 0.039241 0.000000
# 6 0.000000 0.000000 0.000000 0.000000 0.000000 0.029716
#
#
# Mechanical properties :
#
#
# Convention : Reuss Voigt Hill
#
# Bulk Modulus (GPa) = 36.80408 40.91201 38.85804
# Shear Modulus (GPa) = 31.41294 34.21272 32.81283
#
# Velocity S-wave (km/s) = 3.92097 4.09198 4.00739
# Velocity P-wave (km/s) = 6.20574 6.50759 6.35846
#
# Compressibility (1/GPa) = 0.02717090
#
# Stress axis : x y z
#
# Youngs Moduli (GPa) = 118.42443 52.53363 88.08439
#
# Poissons Ratio (x) = 0.21448 0.01249
# Poissons Ratio (y) = 0.48349 0.14149
# Poissons Ratio (z) = 0.01679 0.08438
#
# Static dielectric constant tensor:
#      x y z
#    x 3.929860 0.000000 0.000000 
#    y 0.000000 3.381830 0.000000 
#    z 0.000000 0.000000 3.860210 
# 
# 
# High freq. dielectric constant tensor:
#      x y z
#    x 1.799140 0.000000 0.000000 
#    y 0.000000 1.748400 0.000000 
#    z 0.000000 0.000000 1.826800 
# 
# From -- ./inp_files/4622.got.cif
#   From: 2010.03.12/outbox.cif.g09.slc.cpg/sg20_3_cif.got.tgz:4622.got - 2010.04.14 01:38:04.
