data_PCOD8158498
_publ_section_title
;
Structure prediction by ZEFSAII (Michael W. Deem and Ramdas Pophale) SiO2 
 PCOD8158498
Probable space group: C 2 2 21
;
_chemical_formula_sum "Si O2"
_cell_formula_units_Z 64
_cell_length_a 13.121275
_cell_length_b 13.874659
_cell_length_c 17.779489
_cell_angle_alpha 90.000000
_cell_angle_beta 90.000000
_cell_angle_gamma 90.000000
_cell_volume 3236.813156
_symmetry_space_group_name_H-M "C 2 2 21"
_symmetry_group_IT_number 20
_symmetry_cell_setting 'orthorhombic'
loop_
_space_group_symop_operation_xyz
x,y,z
-x,-y,1/2+z
x,-y,-z
-x,y,1/2-z
1/2+x,1/2+y,z
1/2-x,1/2-y,1/2+z
1/2+x,1/2-y,-z
1/2-x,1/2+y,1/2-z
loop_
_atom_site_type_symbol
_atom_site_label
_atom_site_fract_x
_atom_site_fract_y
_atom_site_fract_z
Si Si1 0.604994 0.393706 0.652481
Si Si2 0.803090 0.290941 0.913452
Si Si3 0.766847 0.562123 0.798162
Si Si4 0.863972 0.304155 0.078623
Si Si5 0.045698 0.557649 0.924943
Si Si6 0.767835 0.914842 0.131021
Si Si7 0.628771 0.599830 0.174184
Si Si8 0.560912 0.916866 0.682126
O O1 0.640720 0.307840 0.598833
O O2 0.662357 0.490148 0.624394
O O3 0.484343 0.403402 0.641436
O O4 0.631516 0.366875 0.738576
O O5 0.822658 0.177210 0.905099
O O6 0.698151 0.327786 0.875441
O O7 0.902981 0.337295 0.876274
O O8 0.804046 0.320579 0.000832
O O9 0.803089 0.639033 0.857913
O O10 0.751807 0.612802 0.717976
O O11 0.664977 0.511474 0.830067
O O12 0.843212 0.473459 0.784350
O O13 0.980288 0.343233 0.074736
O O14 0.164779 0.576903 0.917079
O O15 0.014516 0.493555 0.854468
O O16 0.020093 0.500000 0.000000
O O17 0.500000 0.865454 0.750000
#
# Coordination Sequence:
#
# PCOD8158498 Si02
#       8
#     8   8   8   8   8   8   8   8
#     4  10  22  42  62  90 122 164 210 252 302 376
#     4  11  23  39  60  93 126 163 203 254 313 371
#     4   9  20  38  66  92 115 158 213 255 307 365
#     4  11  23  38  62  93 123 158 207 251 311 372
#     4  11  22  39  63  91 123 157 201 259 312 363
#     4  11  23  40  62  90 125 162 205 253 310 365
#     4   9  20  42  67  84 121 162 207 257 304 368
#     4  10  19  39  62  91 119 155 205 258 305 361
#
# _framework density 19.772534
#
# number of rings (size 3 to 8) (size 9 to 14) (size 15 to 20)
#    0.000    1.750    2.500    1.500    1.750    1.000 
#    4.500    3.750    0.000    0.000    0.000    0.000 
#    0.000    0.000    0.000    0.000    0.000    0.000 
#
# Total GULP energy -396784.737897 kJ/mol
# GULP energy per Si atom -12399.523059 kJ/mol
# Density = 1.972753 g / cm^3
# Si number density = 19.772534 Si / 1000 Ang^3
#
#
#
# Elastic Constant Matrix: (Units=GPa)
#
#
# Indices 1 2 3 4 5 6 
#
# 1 85.8366 45.6831 41.9379 0.0000 0.0000 0.0000
# 2 45.6831 113.3644 38.2781 0.0000 0.0000 0.0000
# 3 41.9379 38.2781 89.6463 0.0000 0.0000 0.0000
# 4 0.0000 0.0000 0.0000 25.6411 0.0000 0.0000
# 5 0.0000 0.0000 0.0000 0.0000 25.3413 0.0000
# 6 0.0000 0.0000 0.0000 0.0000 0.0000 17.4617
#
#
#
# Elastic Compliance Matrix: (Units=1/GPa)
#
#
# Indices 1 2 3 4 5 6 
#
# 1 0.017163 -0.004914 -0.005931 0.000000 0.000000 0.000000
# 2 -0.004914 0.011714 -0.002703 0.000000 0.000000 0.000000
# 3 -0.005931 -0.002703 0.015084 0.000000 0.000000 0.000000
# 4 0.000000 0.000000 0.000000 0.039000 0.000000 0.000000
# 5 0.000000 0.000000 0.000000 0.000000 0.039461 0.000000
# 6 0.000000 0.000000 0.000000 0.000000 0.000000 0.057268
#
#
# Mechanical properties :
#
#
# Convention : Reuss Voigt Hill
#
# Bulk Modulus (GPa) = 59.29370 60.07170 59.68270
# Shear Modulus (GPa) = 23.53973 24.55203 24.04588
#
# Velocity S-wave (km/s) = 3.45414 3.52763 3.49108
# Velocity P-wave (km/s) = 6.77947 6.85854 6.81912
#
# Compressibility (1/GPa) = 0.01686520
#
# Stress axis : x y z
#
# Youngs Moduli (GPa) = 58.26532 85.36885 66.29657
#
# Poissons Ratio (x) = 0.41947 0.39320
# Poissons Ratio (y) = 0.28629 0.17920
# Poissons Ratio (z) = 0.34557 0.23076
#
# Static dielectric constant tensor:
#      x y z
#    x 3.701520 0.000000 0.000000 
#    y 0.000000 3.613050 0.000000 
#    z 0.000000 0.000000 3.573450 
# 
# 
# High freq. dielectric constant tensor:
#      x y z
#    x 1.768780 0.000000 0.000000 
#    y 0.000000 1.765220 0.000000 
#    z 0.000000 0.000000 1.775780 
# 
# From -- ./inp_files/24455.got.cif
#   From: 2010.03.12/outbox.cif.g09.slc.cpg/sg20_13_cif.got.tgz:24455.got - 2010.04.14 01:38:04.
