data_PCOD8158304
_publ_section_title
;
Structure prediction by ZEFSAII (Michael W. Deem and Ramdas Pophale) SiO2 
 PCOD8158304
Probable space group: C 2 2 21
;
_chemical_formula_sum "Si O2"
_cell_formula_units_Z 48
_cell_length_a 32.220304
_cell_length_b 5.076369
_cell_length_c 14.555713
_cell_angle_alpha 90.000000
_cell_angle_beta 90.000000
_cell_angle_gamma 90.000000
_cell_volume 2380.763748
_symmetry_space_group_name_H-M "C 2 2 21"
_symmetry_group_IT_number 20
_symmetry_cell_setting 'orthorhombic'
loop_
_space_group_symop_operation_xyz
x,y,z
-x,-y,1/2+z
x,-y,-z
-x,y,1/2-z
1/2+x,1/2+y,z
1/2-x,1/2-y,1/2+z
1/2+x,1/2-y,-z
1/2-x,1/2+y,1/2-z
loop_
_atom_site_type_symbol
_atom_site_label
_atom_site_fract_x
_atom_site_fract_y
_atom_site_fract_z
Si Si1 0.831069 0.761993 0.060404
Si Si2 0.451791 0.116023 0.767715
Si Si3 0.604624 0.108207 0.905940
Si Si4 0.776449 0.192214 0.759335
Si Si5 0.908820 0.896769 0.170173
Si Si6 0.146123 0.901759 0.154093
O O1 0.802899 0.728432 0.150673
O O2 0.879182 0.828270 0.084532
O O3 0.829458 0.500000 0.000000
O O4 0.812847 0.000000 0.000000
O O5 0.500000 0.145460 0.750000
O O6 0.431585 0.144437 0.667358
O O7 0.436187 0.337859 0.840358
O O8 0.441074 0.837142 0.812185
O O9 0.630780 0.379119 0.919513
O O10 0.638596 0.894358 0.877279
O O11 0.583957 0.000000 0.000000
O O12 0.755886 0.459070 0.720544
O O13 0.805335 0.076838 0.677767
O O14 0.879183 0.961306 0.254400
#
# Coordination Sequence:
#
# PCOD8158304 Si02
#       6
#     8   8   8   8   8   8
#     4  11  22  39  61  85 113 150 195 244 286 334
#     4  10  19  34  56  82 112 148 186 229 282 342
#     4  10  19  34  54  78 107 143 187 231 269 316
#     4  11  22  39  60  83 114 150 185 228 289 352
#     4   9  19  35  56  78 106 146 188 222 271 341
#     4   9  19  35  55  76 102 143 185 216 264 335
#
# _framework density 20.161597
#
# number of rings (size 3 to 8) (size 9 to 14) (size 15 to 20)
#    0.000    2.000    0.000    4.000    0.000    5.333 
#    0.000   10.833    0.000    2.000    0.000    0.000 
#    0.000    0.000    0.000    0.000    0.000    0.000 
#
# Total GULP energy -297507.797040 kJ/mol
# GULP energy per Si atom -12396.158210 kJ/mol
# Density = 2.011571 g / cm^3
# Si number density = 20.161597 Si / 1000 Ang^3
#
#
#
# Elastic Constant Matrix: (Units=GPa)
#
#
# Indices 1 2 3 4 5 6 
#
# 1 94.0973 74.2650 33.7587 0.0000 0.0000 0.0000
# 2 74.2650 122.1285 34.8305 0.0000 0.0000 0.0000
# 3 33.7587 34.8305 73.1139 0.0000 0.0000 0.0000
# 4 0.0000 0.0000 0.0000 36.4005 0.0000 0.0000
# 5 0.0000 0.0000 0.0000 0.0000 13.5088 0.0000
# 6 0.0000 0.0000 0.0000 0.0000 0.0000 -1.3986
#
#
#
# Elastic Compliance Matrix: (Units=1/GPa)
#
#
# Indices 1 2 3 4 5 6 
#
# 1 0.021536 -0.011873 -0.004288 0.000000 0.000000 0.000000
# 2 -0.011873 0.016021 -0.002150 0.000000 0.000000 0.000000
# 3 -0.004288 -0.002150 0.016681 0.000000 0.000000 0.000000
# 4 0.000000 0.000000 0.000000 0.027472 0.000000 0.000000
# 5 0.000000 0.000000 0.000000 0.000000 0.074026 0.000000
# 6 0.000000 0.000000 0.000000 0.000000 0.000000 -0.715025
#
#
# Mechanical properties :
#
#
# Convention : Reuss Voigt Hill
#
# Bulk Modulus (GPa) = 56.76369 63.89422 60.32895
# Shear Modulus (GPa) = -9.67504 19.46785 4.89641
#
# Velocity S-wave (km/s) = -2.19298 3.11077 1.56008
# Velocity P-wave (km/s) = 4.66940 6.68299 5.76479
#
# Compressibility (1/GPa) = 0.01761690
#
# Stress axis : x y z
#
# Youngs Moduli (GPa) = 46.43328 62.41713 59.94729
#
# Poissons Ratio (x) = 0.74109 0.25703
# Poissons Ratio (y) = 0.55131 0.12890
# Poissons Ratio (z) = 0.19909 0.13421
#
# Static dielectric constant tensor:
#      x y z
#    x 3.559370 0.000000 0.000000 
#    y 0.000000 3.876710 0.000000 
#    z 0.000000 0.000000 3.749930 
# 
# 
# High freq. dielectric constant tensor:
#      x y z
#    x 1.773700 0.000000 0.000000 
#    y 0.000000 1.809800 0.000000 
#    z 0.000000 0.000000 1.770270 
# 
# From -- ./inp_files/17778.got.cif
#   From: 2010.03.12/outbox.cif.g09.slc.cpg/sg20_9_cif.got.tgz:17778.got - 2010.04.14 01:38:04.
