data_PCOD8158977
_publ_section_title
;
Structure prediction by ZEFSAII (Michael W. Deem and Ramdas Pophale) SiO2 
 PCOD8158977
Probable space group: C 2 2 21
;
_chemical_formula_sum "Si O2"
_cell_formula_units_Z 40
_cell_length_a 8.497168
_cell_length_b 22.016016
_cell_length_c 9.415281
_cell_angle_alpha 90.000000
_cell_angle_beta 90.000000
_cell_angle_gamma 90.000000
_cell_volume 1761.352269
_symmetry_space_group_name_H-M "C 2 2 21"
_symmetry_group_IT_number 20
_symmetry_cell_setting 'orthorhombic'
loop_
_space_group_symop_operation_xyz
x,y,z
-x,-y,1/2+z
x,-y,-z
-x,y,1/2-z
1/2+x,1/2+y,z
1/2-x,1/2-y,1/2+z
1/2+x,1/2-y,-z
1/2-x,1/2+y,1/2-z
loop_
_atom_site_type_symbol
_atom_site_label
_atom_site_fract_x
_atom_site_fract_y
_atom_site_fract_z
Si Si1 0.477459 0.500000 0.500000
Si Si2 0.497239 0.000000 0.500000
Si Si3 0.751251 0.430528 0.825726
Si Si4 0.873104 0.197406 0.374125
Si Si5 0.393644 0.706235 0.880760
Si Si6 0.757738 0.087302 0.990589
O O1 0.377507 0.518379 0.361398
O O2 0.579742 0.443631 0.446531
O O3 0.588838 0.958756 0.612675
O O4 0.384249 0.951030 0.417988
O O5 0.699114 0.368990 0.907614
O O6 0.766386 0.415635 0.660554
O O7 0.720816 0.238368 0.338840
O O8 0.000000 0.192364 0.250000
O O9 0.975485 0.224311 0.503129
O O10 0.500000 0.684599 0.750000
O O11 0.269870 0.655448 0.934391
#
# Coordination Sequence:
#
# PCOD8158977 Si02
#       6
#     4   4   8   8   8   8
#     4  10  20  40  70  96 128 186 244 284 342 446
#     4  10  26  40  68 110 134 190 238 308 340 448
#     4  11  22  45  72 100 138 194 239 287 375 429
#     4  12  25  51  77 105 147 199 246 303 371 441
#     4  12  28  46  75 114 144 193 249 311 361 436
#     4  11  23  46  69 102 146 185 237 295 376 422
#
# _framework density 22.709821999999999
#
# number of rings (size 3 to 8) (size 9 to 14) (size 15 to 20)
#    0.000    0.800    4.000    2.400    2.800    3.200 
#    3.600    0.000    0.000    0.000    0.000    0.000 
#    0.000    0.000    0.000    0.000    0.000    0.000 
#
# Total GULP energy -247854.906460 kJ/mol
# GULP energy per Si atom -12392.745323 kJ/mol
# Density = 2.265813 g / cm^3
# Si number density = 22.709822 Si / 1000 Ang^3
#
#
#
# Elastic Constant Matrix: (Units=GPa)
#
#
# Indices 1 2 3 4 5 6 
#
# 1 156.8501 65.1647 45.9236 0.0000 0.0000 0.0000
# 2 65.1647 118.3059 35.3060 0.0000 0.0000 0.0000
# 3 45.9236 35.3060 91.5910 0.0000 0.0000 0.0000
# 4 0.0000 0.0000 0.0000 27.8069 0.0000 0.0000
# 5 0.0000 0.0000 0.0000 0.0000 97.1361 0.0000
# 6 0.0000 0.0000 0.0000 0.0000 0.0000 12.6796
#
#
#
# Elastic Compliance Matrix: (Units=1/GPa)
#
#
# Indices 1 2 3 4 5 6 
#
# 1 0.008904 -0.004037 -0.002909 0.000000 0.000000 0.000000
# 2 -0.004037 0.011381 -0.002363 0.000000 0.000000 0.000000
# 3 -0.002909 -0.002363 0.013287 0.000000 0.000000 0.000000
# 4 0.000000 0.000000 0.000000 0.035962 0.000000 0.000000
# 5 0.000000 0.000000 0.000000 0.000000 0.010295 0.000000
# 6 0.000000 0.000000 0.000000 0.000000 0.000000 0.078867
#
#
# Mechanical properties :
#
#
# Convention : Reuss Voigt Hill
#
# Bulk Modulus (GPa) = 66.86215 73.28173 70.07194
# Shear Modulus (GPa) = 27.42749 42.21472 34.82111
#
# Velocity S-wave (km/s) = 3.47902 4.31614 3.91999
# Velocity P-wave (km/s) = 6.75603 7.56159 7.17013
#
# Compressibility (1/GPa) = 0.01495615
#
# Stress axis : x y z
#
# Youngs Moduli (GPa) = 112.30788 87.86329 75.25917
#
# Poissons Ratio (x) = 0.35466 0.21889
# Poissons Ratio (y) = 0.45333 0.17786
# Poissons Ratio (z) = 0.32665 0.20765
#
# Static dielectric constant tensor:
#      x y z
#    x 4.621080 0.000000 0.000000 
#    y 0.000000 1.068970 0.000000 
#    z 0.000000 0.000000 4.147500 
# 
# 
# High freq. dielectric constant tensor:
#      x y z
#    x 1.920330 0.000000 0.000000 
#    y 0.000000 1.898030 0.000000 
#    z 0.000000 0.000000 1.878770 
# 
# From -- ./inp_files/6174.got.cif
#   From: 2010.03.12/outbox.cif.g09.slc.cpg/sg20_4_cif.got.tgz:6174.got - 2010.04.14 01:38:04.
