data_PCOD8158588
_publ_section_title
;
Structure prediction by ZEFSAII (Michael W. Deem and Ramdas Pophale) SiO2 
 PCOD8158588
Probable space group: C 2 2 21
;
_chemical_formula_sum "Si O2"
_cell_formula_units_Z 40
_cell_length_a 27.929878
_cell_length_b 14.047497
_cell_length_c 5.124703
_cell_angle_alpha 90.000000
_cell_angle_beta 90.000000
_cell_angle_gamma 90.000000
_cell_volume 2010.650970
_symmetry_space_group_name_H-M "C 2 2 21"
_symmetry_group_IT_number 20
_symmetry_cell_setting 'orthorhombic'
loop_
_space_group_symop_operation_xyz
x,y,z
-x,-y,1/2+z
x,-y,-z
-x,y,1/2-z
1/2+x,1/2+y,z
1/2-x,1/2-y,1/2+z
1/2+x,1/2-y,-z
1/2-x,1/2+y,1/2-z
loop_
_atom_site_type_symbol
_atom_site_label
_atom_site_fract_x
_atom_site_fract_y
_atom_site_fract_z
Si Si1 0.230778 0.099710 0.412461
Si Si2 0.443955 0.939741 0.251608
Si Si3 0.126186 0.731590 0.795766
Si Si4 0.689844 0.231512 0.307169
Si Si5 0.627562 0.558704 0.248324
O O1 0.268390 0.155836 0.237177
O O2 0.213445 0.163416 0.660927
O O3 0.184764 0.074176 0.237202
O O4 0.254753 0.000000 0.500000
O O5 0.500000 0.917186 0.250000
O O6 0.417708 0.839556 0.270223
O O7 0.428250 0.000000 0.500000
O O8 0.428179 0.000000 0.000000
O O9 0.165581 0.703540 0.580793
O O10 0.103887 0.836474 0.746981
O O11 0.150910 0.729330 0.078765
O O12 0.610936 0.500000 0.500000
O O13 0.609798 0.500000 0.000000
#
# Coordination Sequence:
#
# PCOD8158588 Si02
#       5
#     8   8   8   8   8
#     4  10  21  37  53  73 110 153 188 229 275 320
#     4  10  22  41  64  88 115 149 187 228 288 362
#     4  11  22  38  57  82 113 143 185 242 285 328
#     4  11  23  36  55  82 111 148 196 235 276 335
#     4  10  20  34  54  77 104 145 188 220 264 325
#
# _framework density 19.894055000000002
#
# number of rings (size 3 to 8) (size 9 to 14) (size 15 to 20)
#    0.000    1.600    0.000    7.200    0.000    5.600 
#    0.000    2.000    0.000    1.200    0.000    0.000 
#    0.000    0.000    0.000    0.000    0.000    0.000 
#
# Total GULP energy -248012.794573 kJ/mol
# GULP energy per Si atom -12400.639729 kJ/mol
# Density = 1.984877 g / cm^3
# Si number density = 19.894055 Si / 1000 Ang^3
#
#
#
# Elastic Constant Matrix: (Units=GPa)
#
#
# Indices 1 2 3 4 5 6 
#
# 1 44.9508 58.6226 29.0114 0.0000 0.0000 0.0000
# 2 58.6226 183.8525 60.8748 0.0000 0.0000 0.0000
# 3 29.0114 60.8748 132.6888 0.0000 0.0000 0.0000
# 4 0.0000 0.0000 0.0000 31.0656 0.0000 0.0000
# 5 0.0000 0.0000 0.0000 0.0000 81.5343 0.0000
# 6 0.0000 0.0000 0.0000 0.0000 0.0000 33.1557
#
#
#
# Elastic Compliance Matrix: (Units=1/GPa)
#
#
# Indices 1 2 3 4 5 6 
#
# 1 0.039309 -0.011424 -0.003354 0.000000 0.000000 0.000000
# 2 -0.011424 0.009733 -0.001968 0.000000 0.000000 0.000000
# 3 -0.003354 -0.001968 0.009172 0.000000 0.000000 0.000000
# 4 0.000000 0.000000 0.000000 0.032190 0.000000 0.000000
# 5 0.000000 0.000000 0.000000 0.000000 0.012265 0.000000
# 6 0.000000 0.000000 0.000000 0.000000 0.000000 0.030161
#
#
# Mechanical properties :
#
#
# Convention : Reuss Voigt Hill
#
# Bulk Modulus (GPa) = 40.44538 73.16776 56.80657
# Shear Modulus (GPa) = 28.64318 43.35001 35.99660
#
# Velocity S-wave (km/s) = 3.79857 4.67309 4.25834
# Velocity P-wave (km/s) = 6.29391 8.12253 7.26598
#
# Compressibility (1/GPa) = 0.02472470
#
# Stress axis : x y z
#
# Youngs Moduli (GPa) = 25.43942 102.74207 109.02229
#
# Poissons Ratio (x) = 1.17367 0.36564
# Poissons Ratio (y) = 0.29061 0.21452
# Poissons Ratio (z) = 0.08532 0.20216
#
# Static dielectric constant tensor:
#      x y z
#    x 3.171360 0.000000 0.000000 
#    y 0.000000 4.014970 0.000000 
#    z 0.000000 0.000000 3.764130 
# 
# 
# High freq. dielectric constant tensor:
#      x y z
#    x 1.726410 0.000000 0.000000 
#    y 0.000000 1.794790 0.000000 
#    z 0.000000 0.000000 1.792090 
# 
# From -- ./inp_files/4037.got.cif
#   From: 2010.03.12/outbox.cif.g09.slc.cpg/sg20_3_cif.got.tgz:4037.got - 2010.04.14 01:38:04.
