data_PCOD8158346
_publ_section_title
;
Structure prediction by ZEFSAII (Michael W. Deem and Ramdas Pophale) SiO2 
 PCOD8158346
Probable space group: C 2 2 21
;
_chemical_formula_sum "Si O2"
_cell_formula_units_Z 20
_cell_length_a 12.614541
_cell_length_b 16.555817
_cell_length_c 4.851259
_cell_angle_alpha 90.000000
_cell_angle_beta 90.000000
_cell_angle_gamma 90.000000
_cell_volume 1013.156491
_symmetry_space_group_name_H-M "C 2 2 21"
_symmetry_group_IT_number 20
_symmetry_cell_setting 'orthorhombic'
loop_
_space_group_symop_operation_xyz
x,y,z
-x,-y,1/2+z
x,-y,-z
-x,y,1/2-z
1/2+x,1/2+y,z
1/2-x,1/2-y,1/2+z
1/2+x,1/2-y,-z
1/2-x,1/2+y,1/2-z
loop_
_atom_site_type_symbol
_atom_site_label
_atom_site_fract_x
_atom_site_fract_y
_atom_site_fract_z
Si Si1 0.823620 0.840238 0.635840
Si Si2 0.112669 0.740851 0.356827
Si Si3 0.430672 0.500000 0.500000
O O1 0.849410 0.815258 0.326402
O O2 0.696622 0.832559 0.678857
O O3 0.859458 0.932889 0.655986
O O4 0.889050 0.779867 0.837772
O O5 0.000000 0.707239 0.250000
O O6 0.500000 0.461804 0.250000
#
# Coordination Sequence:
#
# PCOD8158346 Si02
#       3
#     8   8   4
#     4  10  21  33  53  81 104 134 176 211 257 312
#     4  10  19  35  55  76 104 138 174 214 253 303
#     4  12  22  34  54  80 110 136 166 218 268 306
#
# _framework density 19.740289000000001
#
# number of rings (size 3 to 8) (size 9 to 14) (size 15 to 20)
#    0.000    1.600    0.000    7.200    0.000    0.000 
#    0.000    0.000    0.000   16.800    0.000    0.000 
#    0.000    0.000    0.000    0.000    0.000    0.000 
#
# Total GULP energy -123940.790710 kJ/mol
# GULP energy per Si atom -12394.079071 kJ/mol
# Density = 1.969536 g / cm^3
# Si number density = 19.740289 Si / 1000 Ang^3
#
#
#
# Elastic Constant Matrix: (Units=GPa)
#
#
# Indices 1 2 3 4 5 6 
#
# 1 164.2319 61.4136 26.7259 0.0000 0.0000 0.0000
# 2 61.4136 91.8828 22.7640 0.0000 0.0000 0.0000
# 3 26.7259 22.7640 74.5539 0.0000 0.0000 0.0000
# 4 0.0000 0.0000 0.0000 23.6630 0.0000 0.0000
# 5 0.0000 0.0000 0.0000 0.0000 29.0851 0.0000
# 6 0.0000 0.0000 0.0000 0.0000 0.0000 26.9891
#
#
#
# Elastic Compliance Matrix: (Units=1/GPa)
#
#
# Indices 1 2 3 4 5 6 
#
# 1 0.008247 -0.005171 -0.001377 0.000000 0.000000 0.000000
# 2 -0.005171 0.015016 -0.002731 0.000000 0.000000 0.000000
# 3 -0.001377 -0.002731 0.014741 0.000000 0.000000 0.000000
# 4 0.000000 0.000000 0.000000 0.042260 0.000000 0.000000
# 5 0.000000 0.000000 0.000000 0.000000 0.034382 0.000000
# 6 0.000000 0.000000 0.000000 0.000000 0.000000 0.037052
#
#
# Mechanical properties :
#
#
# Convention : Reuss Voigt Hill
#
# Bulk Modulus (GPa) = 51.42807 61.38618 56.40712
# Shear Modulus (GPa) = 28.29041 30.59845 29.44443
#
# Velocity S-wave (km/s) = 3.78978 3.94134 3.86630
# Velocity P-wave (km/s) = 6.72747 7.20254 6.96905
#
# Compressibility (1/GPa) = 0.01944463
#
# Stress axis : x y z
#
# Youngs Moduli (GPa) = 121.26097 66.59472 67.83850
#
# Poissons Ratio (x) = 0.34434 0.09344
# Poissons Ratio (y) = 0.62701 0.18529
# Poissons Ratio (z) = 0.16703 0.18190
#
# Static dielectric constant tensor:
#      x y z
#    x 3.955330 0.000000 0.000000 
#    y 0.000000 3.132910 0.000000 
#    z 0.000000 0.000000 3.793960 
# 
# 
# High freq. dielectric constant tensor:
#      x y z
#    x 1.773390 0.000000 0.000000 
#    y 0.000000 1.719120 0.000000 
#    z 0.000000 0.000000 1.795860 
# 
# From -- ./inp_files/23.got.cif
#   From: 2010.03.12/outbox.cif.g09.slc.cpg/sg20_1_cif.got.tgz:23.got - 2010.04.14 01:38:04.
