data_PCOD8158553
_publ_section_title
;
Structure prediction by ZEFSAII (Michael W. Deem and Ramdas Pophale) SiO2 
 PCOD8158553
Probable space group: C 2 2 21
;
_chemical_formula_sum "Si O2"
_cell_formula_units_Z 60
_cell_length_a 21.143146
_cell_length_b 7.055135
_cell_length_c 19.739673
_cell_angle_alpha 90.000000
_cell_angle_beta 90.000000
_cell_angle_gamma 90.000000
_cell_volume 2944.522594
_symmetry_space_group_name_H-M "C 2 2 21"
_symmetry_group_IT_number 20
_symmetry_cell_setting 'orthorhombic'
loop_
_space_group_symop_operation_xyz
x,y,z
-x,-y,1/2+z
x,-y,-z
-x,y,1/2-z
1/2+x,1/2+y,z
1/2-x,1/2-y,1/2+z
1/2+x,1/2-y,-z
1/2-x,1/2+y,1/2-z
loop_
_atom_site_type_symbol
_atom_site_label
_atom_site_fract_x
_atom_site_fract_y
_atom_site_fract_z
Si Si1 0.587380 0.537111 0.654533
Si Si2 0.590185 0.000000 0.500000
Si Si3 0.227656 0.770210 0.848916
Si Si4 0.440130 0.170241 0.784164
Si Si5 0.371345 0.012097 0.334008
Si Si6 0.321454 0.321123 0.040954
Si Si7 0.318263 0.629106 0.732875
Si Si8 0.993097 0.627737 0.124583
O O1 0.579671 0.309711 0.655009
O O2 0.634697 0.580591 0.595511
O O3 0.615584 0.586686 0.728859
O O4 0.522014 0.649138 0.636345
O O5 0.636786 0.817733 0.493247
O O6 0.542730 0.968145 0.561963
O O7 0.171869 0.632506 0.876888
O O8 0.270410 0.802199 0.916302
O O9 0.264110 0.662191 0.788443
O O10 0.202092 0.968043 0.820319
O O11 0.500000 0.275736 0.750000
O O12 0.385708 0.120093 0.731289
O O13 0.462602 0.967344 0.810089
O O14 0.328436 0.187912 0.313124
O O15 0.431972 0.083046 0.377367
O O16 0.291676 0.500000 0.000000
#
# Coordination Sequence:
#
# PCOD8158553 Si02
#       8
#     8   4   8   8   8   8   8   8
#     4  10  20  34  60  89 121 157 196 258 316 367
#     4  10  22  44  66  86 118 160 224 266 308 364
#     4  11  23  38  61  93 127 171 204 258 326 376
#     4  10  20  31  55  88 124 154 192 247 312 381
#     4  11  22  36  58  92 134 164 198 254 324 388
#     4  10  23  42  64  89 117 165 221 264 303 368
#     4  11  21  36  57  91 131 157 201 252 321 394
#     4  10  22  37  59  91 120 164 206 256 314 367
#
# _framework density 20.376818
#
# number of rings (size 3 to 8) (size 9 to 14) (size 15 to 20)
#    0.000    1.600    4.000    0.800    1.867    1.067 
#    1.200    0.000    0.000    0.000    0.000    0.000 
#    0.000    0.000    0.000    0.000    0.000    0.000 
#
# Total GULP energy -371703.306884 kJ/mol
# GULP energy per Si atom -12390.110229 kJ/mol
# Density = 2.033044 g / cm^3
# Si number density = 20.376818 Si / 1000 Ang^3
#
#
#
# Elastic Constant Matrix: (Units=GPa)
#
#
# Indices 1 2 3 4 5 6 
#
# 1 103.2842 43.4143 29.8573 0.0000 0.0000 0.0000
# 2 43.4143 114.6243 34.8112 0.0000 0.0000 0.0000
# 3 29.8573 34.8112 64.8760 0.0000 0.0000 0.0000
# 4 0.0000 0.0000 0.0000 29.7162 0.0000 0.0000
# 5 0.0000 0.0000 0.0000 0.0000 20.0545 0.0000
# 6 0.0000 0.0000 0.0000 0.0000 0.0000 37.4576
#
#
#
# Elastic Compliance Matrix: (Units=1/GPa)
#
#
# Indices 1 2 3 4 5 6 
#
# 1 0.012237 -0.003494 -0.003757 0.000000 0.000000 0.000000
# 2 -0.003494 0.011420 -0.004520 0.000000 0.000000 0.000000
# 3 -0.003757 -0.004520 0.019568 0.000000 0.000000 0.000000
# 4 0.000000 0.000000 0.000000 0.033652 0.000000 0.000000
# 5 0.000000 0.000000 0.000000 0.000000 0.049864 0.000000
# 6 0.000000 0.000000 0.000000 0.000000 0.000000 0.026697
#
#
# Mechanical properties :
#
#
# Convention : Reuss Voigt Hill
#
# Bulk Modulus (GPa) = 50.80269 55.43888 53.12079
# Shear Modulus (GPa) = 27.24203 29.09244 28.16724
#
# Velocity S-wave (km/s) = 3.66035 3.78262 3.72199
# Velocity P-wave (km/s) = 6.54599 6.80761 6.67808
#
# Compressibility (1/GPa) = 0.01968400
#
# Stress axis : x y z
#
# Youngs Moduli (GPa) = 81.72212 87.56505 51.10301
#
# Poissons Ratio (x) = 0.30592 0.19199
# Poissons Ratio (y) = 0.28551 0.23098
# Poissons Ratio (z) = 0.30702 0.39579
#
# Static dielectric constant tensor:
#      x y z
#    x 4.751280 0.000000 0.000000 
#    y 0.000000 3.764880 0.000000 
#    z 0.000000 0.000000 3.302830 
# 
# 
# High freq. dielectric constant tensor:
#      x y z
#    x 1.794640 0.000000 0.000000 
#    y 0.000000 1.805400 0.000000 
#    z 0.000000 0.000000 1.768910 
# 
# From -- ./inp_files/28032.got.cif
#   From: 2010.03.12/outbox.cif.g09.slc.cpg/sg20_15_cif.got.tgz:28032.got - 2010.04.14 01:38:04.
