data_PCOD8158802
_publ_section_title
;
Structure prediction by ZEFSAII (Michael W. Deem and Ramdas Pophale) SiO2 
 PCOD8158802
Probable space group: C 2 2 21
;
_chemical_formula_sum "Si O2"
_cell_formula_units_Z 32
_cell_length_a 12.285866
_cell_length_b 8.056787
_cell_length_c 13.809849
_cell_angle_alpha 90.000000
_cell_angle_beta 90.000000
_cell_angle_gamma 90.000000
_cell_volume 1366.962455
_symmetry_space_group_name_H-M "C 2 2 21"
_symmetry_group_IT_number 20
_symmetry_cell_setting 'orthorhombic'
loop_
_space_group_symop_operation_xyz
x,y,z
-x,-y,1/2+z
x,-y,-z
-x,y,1/2-z
1/2+x,1/2+y,z
1/2-x,1/2-y,1/2+z
1/2+x,1/2-y,-z
1/2-x,1/2+y,1/2-z
loop_
_atom_site_type_symbol
_atom_site_label
_atom_site_fract_x
_atom_site_fract_y
_atom_site_fract_z
Si Si1 0.114831 0.331854 0.553957
Si Si2 0.848741 0.836700 0.863331
Si Si3 0.951857 0.061266 0.603295
Si Si4 0.765077 0.481586 0.211196
O O1 0.078336 0.500000 0.500000
O O2 0.175158 0.210937 0.475535
O O3 0.008736 0.240618 0.595012
O O4 0.195913 0.366310 0.643044
O O5 0.850435 0.670333 0.795985
O O6 0.964856 0.924996 0.854171
O O7 0.752626 0.955849 0.821484
O O8 0.851740 0.083669 0.674691
O O9 0.906916 0.000000 0.500000
#
# Coordination Sequence:
#
# PCOD8158802 Si02
#       4
#     8   8   8   8
#     4   9  20  39  60  88 121 153 201 252 293 357
#     4  10  21  36  59  88 117 154 200 246 291 355
#     4  10  20  38  60  82 115 154 191 241 301 354
#     4  11  21  39  60  84 121 161 199 247 307 354
#
# _framework density 23.409568
#
# number of rings (size 3 to 8) (size 9 to 14) (size 15 to 20)
#    0.000    2.000    0.000    4.500    0.000    0.000 
#    0.000   26.250    0.000    0.000    0.000    0.000 
#    0.000    0.000    0.000    0.000    0.000    0.000 
#
# Total GULP energy -198344.707077 kJ/mol
# GULP energy per Si atom -12396.544192 kJ/mol
# Density = 2.335629 g / cm^3
# Si number density = 23.409568 Si / 1000 Ang^3
#
#
#
# Elastic Constant Matrix: (Units=GPa)
#
#
# Indices 1 2 3 4 5 6 
#
# 1 72.8098 46.8686 29.9207 0.0000 0.0000 0.0000
# 2 46.8686 111.4838 30.2906 0.0000 0.0000 0.0000
# 3 29.9207 30.2906 64.1061 0.0000 0.0000 0.0000
# 4 0.0000 0.0000 0.0000 39.0797 0.0000 0.0000
# 5 0.0000 0.0000 0.0000 0.0000 30.9823 0.0000
# 6 0.0000 0.0000 0.0000 0.0000 0.0000 29.5297
#
#
#
# Elastic Compliance Matrix: (Units=1/GPa)
#
#
# Indices 1 2 3 4 5 6 
#
# 1 0.020912 -0.007044 -0.006432 0.000000 0.000000 0.000000
# 2 -0.007044 0.012664 -0.002696 0.000000 0.000000 0.000000
# 3 -0.006432 -0.002696 0.019875 0.000000 0.000000 0.000000
# 4 0.000000 0.000000 0.000000 0.025589 0.000000 0.000000
# 5 0.000000 0.000000 0.000000 0.000000 0.032276 0.000000
# 6 0.000000 0.000000 0.000000 0.000000 0.000000 0.033864
#
#
# Mechanical properties :
#
#
# Convention : Reuss Voigt Hill
#
# Bulk Modulus (GPa) = 47.37829 51.39550 49.38689
# Shear Modulus (GPa) = 27.09147 29.33965 28.21556
#
# Velocity S-wave (km/s) = 3.40558 3.54406 3.47551
# Velocity P-wave (km/s) = 5.97886 6.22493 6.10313
#
# Compressibility (1/GPa) = 0.02110672
#
# Stress axis : x y z
#
# Youngs Moduli (GPa) = 47.81965 78.96551 50.31412
#
# Poissons Ratio (x) = 0.55623 0.32362
# Poissons Ratio (y) = 0.33684 0.13565
# Poissons Ratio (z) = 0.30758 0.21290
#
# Static dielectric constant tensor:
#      x y z
#    x 3.757860 0.000000 0.000000 
#    y 0.000000 4.660630 0.000000 
#    z 0.000000 0.000000 4.413640 
# 
# 
# High freq. dielectric constant tensor:
#      x y z
#    x 1.889000 0.000000 0.000000 
#    y 0.000000 1.938960 0.000000 
#    z 0.000000 0.000000 1.930790 
# 
# From -- ./inp_files/18169.got.cif
#   From: 2010.03.12/outbox.cif.g09.slc.cpg/sg20_10_cif.got.tgz:18169.got - 2010.04.14 01:38:04.
