data_PCOD8158331
_publ_section_title
;
Structure prediction by ZEFSAII (Michael W. Deem and Ramdas Pophale) SiO2 
 PCOD8158331
Probable space group: C 2 2 21
;
_chemical_formula_sum "Si O2"
_cell_formula_units_Z 56
_cell_length_a 11.011834
_cell_length_b 11.677375
_cell_length_c 21.172555
_cell_angle_alpha 90.000000
_cell_angle_beta 90.000000
_cell_angle_gamma 90.000000
_cell_volume 2722.564345
_symmetry_space_group_name_H-M "C 2 2 21"
_symmetry_group_IT_number 20
_symmetry_cell_setting 'orthorhombic'
loop_
_space_group_symop_operation_xyz
x,y,z
-x,-y,1/2+z
x,-y,-z
-x,y,1/2-z
1/2+x,1/2+y,z
1/2-x,1/2-y,1/2+z
1/2+x,1/2-y,-z
1/2-x,1/2+y,1/2-z
loop_
_atom_site_type_symbol
_atom_site_label
_atom_site_fract_x
_atom_site_fract_y
_atom_site_fract_z
Si Si1 0.054693 0.880440 0.985441
Si Si2 0.752192 0.815248 0.421615
Si Si3 0.823005 0.434476 0.560153
Si Si4 0.657454 0.049603 0.687564
Si Si5 0.873710 0.401121 0.328586
Si Si6 0.573395 0.828336 0.520794
Si Si7 0.263568 0.668680 0.377929
O O1 0.143355 0.894051 0.925347
O O2 0.116398 0.845282 0.051897
O O3 0.962290 0.777992 0.975268
O O4 0.988126 0.000000 0.000000
O O5 0.742700 0.676806 0.424590
O O6 0.737594 0.857521 0.350106
O O7 0.659657 0.887387 0.467745
O O8 0.766549 0.500000 0.500000
O O9 0.813525 0.517987 0.619574
O O10 0.963678 0.407014 0.543343
O O11 0.682641 0.065630 0.761307
O O12 0.517677 0.076639 0.670921
O O13 0.703800 0.922154 0.670326
O O14 0.835789 0.269613 0.342197
O O15 0.652085 0.783078 0.580175
#
# Coordination Sequence:
#
# PCOD8158331 Si02
#       7
#     8   8   8   8   8   8   8
#     4  10  19  34  58  91 125 156 209 254 325 393
#     4  10  21  36  58  88 123 169 205 265 332 381
#     4  11  21  38  62  94 128 161 223 271 327 394
#     4  11  23  43  66  88 127 175 216 270 322 387
#     4  11  25  41  65  95 121 170 224 266 319 398
#     4  10  21  34  62  93 126 163 202 274 328 372
#     4  11  22  41  64  94 127 169 218 263 328 393
#
# _framework density 20.568843999999999
#
# number of rings (size 3 to 8) (size 9 to 14) (size 15 to 20)
#    0.000    1.429    2.857    4.286    2.000    1.714 
#    0.000    0.000    0.000    0.000    0.000    0.000 
#    0.000    0.000    0.000    0.000    0.000    0.000 
#
# Total GULP energy -346944.083771 kJ/mol
# GULP energy per Si atom -12390.860135 kJ/mol
# Density = 2.052203 g / cm^3
# Si number density = 20.568844 Si / 1000 Ang^3
#
#
#
# Elastic Constant Matrix: (Units=GPa)
#
#
# Indices 1 2 3 4 5 6 
#
# 1 50.3999 22.8240 23.7226 0.0000 0.0000 0.0000
# 2 22.8240 122.2146 52.1997 0.0000 0.0000 0.0000
# 3 23.7226 52.1997 146.0792 0.0000 0.0000 0.0000
# 4 0.0000 0.0000 0.0000 37.8831 0.0000 0.0000
# 5 0.0000 0.0000 0.0000 0.0000 18.2608 0.0000
# 6 0.0000 0.0000 0.0000 0.0000 0.0000 29.5026
#
#
#
# Elastic Compliance Matrix: (Units=1/GPa)
#
#
# Indices 1 2 3 4 5 6 
#
# 1 0.022442 -0.003109 -0.002533 0.000000 0.000000 0.000000
# 2 -0.003109 0.010087 -0.003100 0.000000 0.000000 0.000000
# 3 -0.002533 -0.003100 0.008365 0.000000 0.000000 0.000000
# 4 0.000000 0.000000 0.000000 0.026397 0.000000 0.000000
# 5 0.000000 0.000000 0.000000 0.000000 0.054762 0.000000
# 6 0.000000 0.000000 0.000000 0.000000 0.000000 0.033895
#
#
# Mechanical properties :
#
#
# Convention : Reuss Voigt Hill
#
# Bulk Modulus (GPa) = 42.71831 57.35402 50.03616
# Shear Modulus (GPa) = 27.58856 31.79246 29.69051
#
# Velocity S-wave (km/s) = 3.66632 3.93575 3.80342
# Velocity P-wave (km/s) = 6.22383 6.97123 6.60811
#
# Compressibility (1/GPa) = 0.02340916
#
# Stress axis : x y z
#
# Youngs Moduli (GPa) = 44.55989 99.13955 119.55143
#
# Poissons Ratio (x) = 0.30822 0.30288
# Poissons Ratio (y) = 0.13854 0.37055
# Poissons Ratio (z) = 0.11289 0.30728
#
# Static dielectric constant tensor:
#      x y z
#    x 3.768420 0.000000 0.000000 
#    y 0.000000 3.821300 0.000000 
#    z 0.000000 0.000000 3.710390 
# 
# 
# High freq. dielectric constant tensor:
#      x y z
#    x 1.799950 0.000000 0.000000 
#    y 0.000000 1.812680 0.000000 
#    z 0.000000 0.000000 1.793490 
# 
# From -- ./inp_files/27201.got.cif
#   From: 2010.03.12/outbox.cif.g09.slc.cpg/sg20_14_cif.got.tgz:27201.got - 2010.04.14 01:38:04.
