data_PCOD8158295
_publ_section_title
;
Structure prediction by ZEFSAII (Michael W. Deem and Ramdas Pophale) SiO2 
 PCOD8158295
Probable space group: C 2 2 21
;
_chemical_formula_sum "Si O2"
_cell_formula_units_Z 64
_cell_length_a 23.681661
_cell_length_b 9.135190
_cell_length_c 15.211549
_cell_angle_alpha 90.000000
_cell_angle_beta 90.000000
_cell_angle_gamma 90.000000
_cell_volume 3290.812856
_symmetry_space_group_name_H-M "C 2 2 21"
_symmetry_group_IT_number 20
_symmetry_cell_setting 'orthorhombic'
loop_
_space_group_symop_operation_xyz
x,y,z
-x,-y,1/2+z
x,-y,-z
-x,y,1/2-z
1/2+x,1/2+y,z
1/2-x,1/2-y,1/2+z
1/2+x,1/2-y,-z
1/2-x,1/2+y,1/2-z
loop_
_atom_site_type_symbol
_atom_site_label
_atom_site_fract_x
_atom_site_fract_y
_atom_site_fract_z
Si Si1 0.446092 0.174341 0.997277
Si Si2 0.128140 0.828701 0.643900
Si Si3 0.746350 0.166591 0.102688
Si Si4 0.856158 0.836308 0.659473
Si Si5 0.625866 0.667782 0.640061
Si Si6 0.434881 0.673331 0.499788
Si Si7 0.251520 0.827544 0.400806
Si Si8 0.859485 0.828543 0.337630
O O1 0.413568 0.226654 0.910470
O O2 0.508991 0.233783 0.992154
O O3 0.418099 0.237565 0.085242
O O4 0.446131 0.000000 0.000000
O O5 0.191828 0.773765 0.626918
O O6 0.113596 0.810795 0.746843
O O7 0.120808 0.997080 0.612818
O O8 0.698877 0.240604 0.162155
O O9 0.743961 0.996244 0.123982
O O10 0.733164 0.202739 0.001722
O O11 0.897130 0.778658 0.583268
O O12 0.795924 0.756895 0.659509
O O13 0.842499 0.005279 0.643758
O O14 0.688424 0.727501 0.619182
O O15 0.611467 0.690276 0.742665
O O16 0.448281 0.500000 0.500000
O O17 0.403409 0.724515 0.588591
#
# Coordination Sequence:
#
# PCOD8158295 Si02
#       8
#     8   8   8   8   8   8   8   8
#     4  12  26  41  60  85 111 150 198 248 297 340
#     4  10  21  40  62  86 119 157 193 233 289 350
#     4  10  19  33  57  87 122 160 188 227 291 344
#     4  10  21  37  62  90 117 154 196 238 283 339
#     4  10  21  40  62  86 119 157 193 233 289 350
#     4  10  22  41  60  83 115 152 196 242 289 342
#     4  10  19  33  57  87 122 160 188 227 291 344
#     4  10  21  37  62  90 117 154 196 238 283 339
#
# _framework density 19.448083
#
# number of rings (size 3 to 8) (size 9 to 14) (size 15 to 20)
#    0.000    1.750    2.500    1.875    0.000    4.000 
#    0.000    5.000    0.000    0.000    0.000    0.000 
#    0.000    0.000    0.000    0.000    0.000    0.000 
#
# Total GULP energy -396925.931309 kJ/mol
# GULP energy per Si atom -12403.935353 kJ/mol
# Density = 1.940382 g / cm^3
# Si number density = 19.448083 Si / 1000 Ang^3
#
#
#
# Elastic Constant Matrix: (Units=GPa)
#
#
# Indices 1 2 3 4 5 6 
#
# 1 64.7619 20.3145 9.5231 0.0000 0.0000 0.0000
# 2 20.3145 51.7362 11.6933 0.0000 0.0000 0.0000
# 3 9.5231 11.6933 56.3707 0.0000 0.0000 0.0000
# 4 0.0000 0.0000 0.0000 24.0839 0.0000 0.0000
# 5 0.0000 0.0000 0.0000 0.0000 14.8947 0.0000
# 6 0.0000 0.0000 0.0000 0.0000 0.0000 34.0758
#
#
#
# Elastic Compliance Matrix: (Units=1/GPa)
#
#
# Indices 1 2 3 4 5 6 
#
# 1 0.017752 -0.006602 -0.001629 0.000000 0.000000 0.000000
# 2 -0.006602 0.022735 -0.003601 0.000000 0.000000 0.000000
# 3 -0.001629 -0.003601 0.018762 0.000000 0.000000 0.000000
# 4 0.000000 0.000000 0.000000 0.041521 0.000000 0.000000
# 5 0.000000 0.000000 0.000000 0.000000 0.067138 0.000000
# 6 0.000000 0.000000 0.000000 0.000000 0.000000 0.029346
#
#
# Mechanical properties :
#
#
# Convention : Reuss Voigt Hill
#
# Bulk Modulus (GPa) = 28.10233 28.43674 28.26953
# Shear Modulus (GPa) = 21.47949 23.36674 22.42311
#
# Velocity S-wave (km/s) = 3.32694 3.47002 3.39923
# Velocity P-wave (km/s) = 5.40734 5.54151 5.47483
#
# Compressibility (1/GPa) = 0.03558424
#
# Stress axis : x y z
#
# Youngs Moduli (GPa) = 56.33263 43.98512 53.29950
#
# Poissons Ratio (x) = 0.29039 0.08685
# Poissons Ratio (y) = 0.37191 0.19192
# Poissons Ratio (z) = 0.09179 0.15838
#
# Static dielectric constant tensor:
#      x y z
#    x 3.494520 0.000000 0.000000 
#    y 0.000000 3.367820 0.000000 
#    z 0.000000 0.000000 3.736550 
# 
# 
# High freq. dielectric constant tensor:
#      x y z
#    x 1.753740 0.000000 0.000000 
#    y 0.000000 1.740480 0.000000 
#    z 0.000000 0.000000 1.773460 
# 
# From -- ./inp_files/19357.got.cif
#   From: 2010.03.12/outbox.cif.g09.slc.cpg/sg20_10_cif.got.tgz:19357.got - 2010.04.14 01:38:04.
