data_PCOD8158384
_publ_section_title
;
Structure prediction by ZEFSAII (Michael W. Deem and Ramdas Pophale) SiO2 
 PCOD8158384
Probable space group: C 2 2 21
;
_chemical_formula_sum "Si O2"
_cell_formula_units_Z 60
_cell_length_a 18.054279
_cell_length_b 17.510818
_cell_length_c 9.045470
_cell_angle_alpha 90.000000
_cell_angle_beta 90.000000
_cell_angle_gamma 90.000000
_cell_volume 2859.681865
_symmetry_space_group_name_H-M "C 2 2 21"
_symmetry_group_IT_number 20
_symmetry_cell_setting 'orthorhombic'
loop_
_space_group_symop_operation_xyz
x,y,z
-x,-y,1/2+z
x,-y,-z
-x,y,1/2-z
1/2+x,1/2+y,z
1/2-x,1/2-y,1/2+z
1/2+x,1/2-y,-z
1/2-x,1/2+y,1/2-z
loop_
_atom_site_type_symbol
_atom_site_label
_atom_site_fract_x
_atom_site_fract_y
_atom_site_fract_z
Si Si1 0.625639 0.421884 0.467045
Si Si2 0.500000 0.177137 0.250000
Si Si3 0.238775 0.812890 0.920785
Si Si4 0.411632 0.918336 0.531017
Si Si5 0.230727 0.910341 0.202308
Si Si6 0.135237 0.691925 0.798979
Si Si7 0.761366 0.432615 0.682891
Si Si8 0.396789 0.254140 0.006250
O O1 0.576668 0.500000 0.500000
O O2 0.655449 0.409854 0.299449
O O3 0.689959 0.437672 0.583442
O O4 0.584048 0.343982 0.509694
O O5 0.556697 0.120828 0.174436
O O6 0.546918 0.225272 0.368587
O O7 0.163770 0.764548 0.893982
O O8 0.263326 0.853448 0.770251
O O9 0.215254 0.878109 0.038414
O O10 0.309256 0.759682 0.961848
O O11 0.420345 0.860846 0.393035
O O12 0.326784 0.935704 0.565639
O O13 0.451671 0.000000 0.500000
O O14 0.290319 0.853507 0.268620
O O15 0.264167 0.996129 0.201843
O O16 0.088867 0.714558 0.652371
#
# Coordination Sequence:
#
# PCOD8158384 Si02
#       8
#     8   4   8   8   8   8   8   8
#     4  10  19  35  64  94 124 152 193 247 327 384
#     4  12  30  42  66  84 112 174 226 262 286 358
#     4  11  21  33  60  94 127 156 199 249 316 370
#     4  12  24  45  61  84 125 168 211 253 305 360
#     4  10  20  31  55  95 122 164 183 239 324 370
#     4  11  22  37  64  89 125 164 193 261 320 370
#     4  11  18  38  59  91 129 159 192 249 317 375
#     4  11  23  41  58  91 123 160 214 253 303 367
#
# _framework density 20.981356000000002
#
# number of rings (size 3 to 8) (size 9 to 14) (size 15 to 20)
#    0.000    1.067    6.667    0.800    3.733    1.600 
#    0.000    0.000    0.000    1.600    0.000    0.000 
#    0.000    0.000    0.000    0.000    0.000    0.000 
#
# Total GULP energy -371786.796458 kJ/mol
# GULP energy per Si atom -12392.893215 kJ/mol
# Density = 2.093360 g / cm^3
# Si number density = 20.981356 Si / 1000 Ang^3
#
#
#
# Elastic Constant Matrix: (Units=GPa)
#
#
# Indices 1 2 3 4 5 6 
#
# 1 29.2191 24.6070 27.8356 0.0000 0.0000 0.0000
# 2 24.6070 163.1557 60.0647 0.0000 0.0000 0.0000
# 3 27.8356 60.0647 121.1778 0.0000 0.0000 0.0000
# 4 0.0000 0.0000 0.0000 40.5694 0.0000 0.0000
# 5 0.0000 0.0000 0.0000 0.0000 13.6882 0.0000
# 6 0.0000 0.0000 0.0000 0.0000 0.0000 -28.6545
#
#
#
# Elastic Compliance Matrix: (Units=1/GPa)
#
#
# Indices 1 2 3 4 5 6 
#
# 1 0.045560 -0.003692 -0.008635 0.000000 0.000000 0.000000
# 2 -0.003692 0.007796 -0.003016 0.000000 0.000000 0.000000
# 3 -0.008635 -0.003016 0.011731 0.000000 0.000000 0.000000
# 4 0.000000 0.000000 0.000000 0.024649 0.000000 0.000000
# 5 0.000000 0.000000 0.000000 0.000000 0.073056 0.000000
# 6 0.000000 0.000000 0.000000 0.000000 0.000000 -0.034899
#
#
# Mechanical properties :
#
#
# Convention : Reuss Voigt Hill
#
# Bulk Modulus (GPa) = 29.07003 59.84080 44.45541
# Shear Modulus (GPa) = 29.40333 18.52363 23.96348
#
# Velocity S-wave (km/s) = 3.74759 2.97452 3.38321
# Velocity P-wave (km/s) = 5.71062 6.35452 6.04115
#
# Compressibility (1/GPa) = 0.03439969
#
# Stress axis : x y z
#
# Youngs Moduli (GPa) = 21.94895 128.26394 85.24352
#
# Poissons Ratio (x) = 0.47359 0.73611
# Poissons Ratio (y) = 0.08104 0.25712
# Poissons Ratio (z) = 0.18954 0.38689
#
# Static dielectric constant tensor:
#      x y z
#    x 3.238840 0.000000 0.000000 
#    y 0.000000 4.788870 0.000000 
#    z 0.000000 0.000000 6.335350 
# 
# 
# High freq. dielectric constant tensor:
#      x y z
#    x 1.760390 0.000000 0.000000 
#    y 0.000000 1.848170 0.000000 
#    z 0.000000 0.000000 1.832340 
# 
# From -- ./inp_files/9593.got.cif
#   From: 2010.03.12/outbox.cif.g09.slc.cpg/sg20_5_cif.got.tgz:9593.got - 2010.04.14 01:38:04.
