data_PCOD8158482
_publ_section_title
;
Structure prediction by ZEFSAII (Michael W. Deem and Ramdas Pophale) SiO2 
 PCOD8158482
Probable space group: C 2 2 21
;
_chemical_formula_sum "Si O2"
_cell_formula_units_Z 56
_cell_length_a 11.630430
_cell_length_b 14.848137
_cell_length_c 13.548407
_cell_angle_alpha 90.000000
_cell_angle_beta 90.000000
_cell_angle_gamma 90.000000
_cell_volume 2339.677359
_symmetry_space_group_name_H-M "C 2 2 21"
_symmetry_group_IT_number 20
_symmetry_cell_setting 'orthorhombic'
loop_
_space_group_symop_operation_xyz
x,y,z
-x,-y,1/2+z
x,-y,-z
-x,y,1/2-z
1/2+x,1/2+y,z
1/2-x,1/2-y,1/2+z
1/2+x,1/2-y,-z
1/2-x,1/2+y,1/2-z
loop_
_atom_site_type_symbol
_atom_site_label
_atom_site_fract_x
_atom_site_fract_y
_atom_site_fract_z
Si Si1 0.061368 0.405123 0.551560
Si Si2 0.918595 0.824200 0.955433
Si Si3 0.449072 0.525774 0.350861
Si Si4 0.187522 0.330896 0.372902
Si Si5 0.687827 0.915355 0.932787
Si Si6 0.544440 0.682053 0.855964
Si Si7 0.698169 0.982853 0.713764
O O1 0.040767 0.500000 0.500000
O O2 0.158505 0.355694 0.486876
O O3 0.103510 0.419506 0.663817
O O4 0.933383 0.360067 0.564819
O O5 0.901017 0.754432 0.862035
O O6 0.789180 0.856052 0.978351
O O7 0.003242 0.907778 0.934635
O O8 0.970064 0.773996 0.053749
O O9 0.500000 0.564119 0.250000
O O10 0.489093 0.423403 0.366410
O O11 0.311889 0.528307 0.352270
O O12 0.319577 0.298442 0.364639
O O13 0.161216 0.410775 0.294716
O O14 0.720344 0.952148 0.824274
O O15 0.672530 0.000000 0.000000
O O16 0.500000 0.718595 0.750000
#
# Coordination Sequence:
#
# PCOD8158482 Si02
#       7
#     8   8   8   8   8   8   8
#     4   9  20  41  63  90 126 179 227 262 333 423
#     4  12  24  40  66 105 141 169 229 301 350 398
#     4  10  19  38  66 100 131 178 237 284 334 413
#     4  10  24  43  68 101 139 179 226 291 361 405
#     4  11  23  38  67  97 133 182 230 277 336 418
#     4  10  23  44  73  97 134 190 235 278 349 427
#     4  10  20  43  71  92 131 186 239 272 334 431
#
# _framework density 23.934923000000001
#
# number of rings (size 3 to 8) (size 9 to 14) (size 15 to 20)
#    0.000    1.714    1.429    2.571    6.000    2.286 
#    2.571    4.286    0.000    0.000    0.000    0.000 
#    0.000    0.000    0.000    0.000    0.000    0.000 
#
# Total GULP energy -346958.082434 kJ/mol
# GULP energy per Si atom -12391.360087 kJ/mol
# Density = 2.388045 g / cm^3
# Si number density = 23.934923 Si / 1000 Ang^3
#
#
#
# Elastic Constant Matrix: (Units=GPa)
#
#
# Indices 1 2 3 4 5 6 
#
# 1 122.0999 26.3998 32.4431 0.0000 0.0000 0.0000
# 2 26.3998 42.3603 -3.4774 0.0000 0.0000 0.0000
# 3 32.4431 -3.4774 92.5902 0.0000 0.0000 0.0000
# 4 0.0000 0.0000 0.0000 24.0452 0.0000 0.0000
# 5 0.0000 0.0000 0.0000 0.0000 59.2065 0.0000
# 6 0.0000 0.0000 0.0000 0.0000 0.0000 39.1742
#
#
#
# Elastic Compliance Matrix: (Units=1/GPa)
#
#
# Indices 1 2 3 4 5 6 
#
# 1 0.010791 -0.007057 -0.004046 0.000000 0.000000 0.000000
# 2 -0.007057 0.028296 0.003536 0.000000 0.000000 0.000000
# 3 -0.004046 0.003536 0.012351 0.000000 0.000000 0.000000
# 4 0.000000 0.000000 0.000000 0.041588 0.000000 0.000000
# 5 0.000000 0.000000 0.000000 0.000000 0.016890 0.000000
# 6 0.000000 0.000000 0.000000 0.000000 0.000000 0.025527
#
#
# Mechanical properties :
#
#
# Convention : Reuss Voigt Hill
#
# Bulk Modulus (GPa) = 27.54708 40.86460 34.20584
# Shear Modulus (GPa) = 30.73532 37.93085 34.33308
#
# Velocity S-wave (km/s) = 3.58735 3.98521 3.79150
# Velocity P-wave (km/s) = 5.35658 6.18758 5.78701
#
# Compressibility (1/GPa) = 0.03630148
#
# Stress axis : x y z
#
# Youngs Moduli (GPa) = 92.66954 35.34120 80.96630
#
# Poissons Ratio (x) = 0.24942 0.32760
# Poissons Ratio (y) = 0.65400 -0.28626
# Poissons Ratio (z) = 0.37496 -0.12495
#
# Static dielectric constant tensor:
#      x y z
#    x 4.450290 0.000000 0.000000 
#    y 0.000000 4.683820 0.000000 
#    z 0.000000 0.000000 4.183210 
# 
# 
# High freq. dielectric constant tensor:
#      x y z
#    x 1.958230 0.000000 0.000000 
#    y 0.000000 1.960910 0.000000 
#    z 0.000000 0.000000 1.930890 
# 
# From -- ./inp_files/20065.got.cif
#   From: 2010.03.12/outbox.cif.g09.slc.cpg/sg20_11_cif.got.tgz:20065.got - 2010.04.14 01:38:04.
