data_PCOD8158182
_publ_section_title
;
Structure prediction by ZEFSAII (Michael W. Deem and Ramdas Pophale) SiO2 
 PCOD8158182
Probable space group: C 2 2 21
;
_chemical_formula_sum "Si O2"
_cell_formula_units_Z 48
_cell_length_a 9.834789
_cell_length_b 14.418248
_cell_length_c 15.800869
_cell_angle_alpha 90.000000
_cell_angle_beta 90.000000
_cell_angle_gamma 90.000000
_cell_volume 2240.569968
_symmetry_space_group_name_H-M "C 2 2 21"
_symmetry_group_IT_number 20
_symmetry_cell_setting 'orthorhombic'
loop_
_space_group_symop_operation_xyz
x,y,z
-x,-y,1/2+z
x,-y,-z
-x,y,1/2-z
1/2+x,1/2+y,z
1/2-x,1/2-y,1/2+z
1/2+x,1/2-y,-z
1/2-x,1/2+y,1/2-z
loop_
_atom_site_type_symbol
_atom_site_label
_atom_site_fract_x
_atom_site_fract_y
_atom_site_fract_z
Si Si1 0.787863 0.834761 0.748338
Si Si2 0.954849 0.869378 0.382335
Si Si3 0.293775 0.769279 0.084127
Si Si4 0.000000 0.711211 0.250000
Si Si5 0.000000 0.017428 0.250000
Si Si6 0.938954 0.314135 0.341559
Si Si7 0.734052 0.599379 0.537677
O O1 0.781840 0.754302 0.817232
O O2 0.628907 0.856859 0.731562
O O3 0.872742 0.921878 0.783567
O O4 0.868704 0.787920 0.669563
O O5 0.814610 0.851935 0.434203
O O6 0.992624 0.775287 0.333017
O O7 0.074543 0.899545 0.443897
O O8 0.930735 0.956072 0.321487
O O9 0.450132 0.805241 0.081031
O O10 0.246881 0.682326 0.028641
O O11 0.823947 0.384209 0.377337
O O12 0.000000 0.348604 0.250000
O O13 0.777194 0.500000 0.500000
#
# Coordination Sequence:
#
# PCOD8158182 Si02
#       7
#     8   8   8   4   4   8   8
#     4  10  18  37  65  94 125 169 218 267 323 397
#     4  10  22  38  62  92 126 169 210 268 331 405
#     4  10  21  41  63  92 128 175 214 266 344 402
#     4   9  18  36  64  87 122 166 217 256 320 392
#     4  11  20  36  64  97 126 154 225 274 316 392
#     4  10  21  41  68  92 130 183 222 273 341 409
#     4  12  24  40  66  95 131 170 226 287 346 400
#
# _framework density 21.423120999999998
#
# number of rings (size 3 to 8) (size 9 to 14) (size 15 to 20)
#    0.000    1.667    4.167    2.000    2.333    0.000 
#    0.000    5.833    3.667    0.000    0.000    0.000 
#    0.000    0.000    0.000    0.000    0.000    0.000 
#
# Total GULP energy -297331.791438 kJ/mol
# GULP energy per Si atom -12388.824643 kJ/mol
# Density = 2.137436 g / cm^3
# Si number density = 21.423121 Si / 1000 Ang^3
#
#
#
# Elastic Constant Matrix: (Units=GPa)
#
#
# Indices 1 2 3 4 5 6 
#
# 1 158.9517 50.8851 29.0995 0.0000 0.0000 0.0000
# 2 50.8851 90.6877 27.6220 0.0000 0.0000 0.0000
# 3 29.0995 27.6220 55.7886 0.0000 0.0000 0.0000
# 4 0.0000 0.0000 0.0000 22.4129 0.0000 0.0000
# 5 0.0000 0.0000 0.0000 0.0000 33.4802 0.0000
# 6 0.0000 0.0000 0.0000 0.0000 0.0000 26.6145
#
#
#
# Elastic Compliance Matrix: (Units=1/GPa)
#
#
# Indices 1 2 3 4 5 6 
#
# 1 0.007905 -0.003744 -0.002270 0.000000 0.000000 0.000000
# 2 -0.003744 0.014759 -0.005354 0.000000 0.000000 0.000000
# 3 -0.002270 -0.005354 0.021760 0.000000 0.000000 0.000000
# 4 0.000000 0.000000 0.000000 0.044617 0.000000 0.000000
# 5 0.000000 0.000000 0.000000 0.000000 0.029868 0.000000
# 6 0.000000 0.000000 0.000000 0.000000 0.000000 0.037574
#
#
# Mechanical properties :
#
#
# Convention : Reuss Voigt Hill
#
# Bulk Modulus (GPa) = 46.10996 57.84902 51.97949
# Shear Modulus (GPa) = 26.81711 29.68962 28.25337
#
# Velocity S-wave (km/s) = 3.54189 3.72676 3.63550
# Velocity P-wave (km/s) = 6.18845 6.75130 6.47599
#
# Compressibility (1/GPa) = 0.02168729
#
# Stress axis : x y z
#
# Youngs Moduli (GPa) = 126.49540 67.75669 45.95688
#
# Poissons Ratio (x) = 0.25371 0.10430
# Poissons Ratio (y) = 0.47366 0.24606
# Poissons Ratio (z) = 0.28708 0.36278
#
# Static dielectric constant tensor:
#      x y z
#    x 4.744390 0.000000 0.000000 
#    y 0.000000 3.556580 0.000000 
#    z 0.000000 0.000000 3.727830 
# 
# 
# High freq. dielectric constant tensor:
#      x y z
#    x 1.865310 0.000000 0.000000 
#    y 0.000000 1.808900 0.000000 
#    z 0.000000 0.000000 1.816100 
# 
# From -- ./inp_files/23514.got.cif
#   From: 2010.03.12/outbox.cif.g09.slc.cpg/sg20_12_cif.got.tgz:23514.got - 2010.04.14 01:38:04.
