data_PCOD8158603
_publ_section_title
;
Structure prediction by ZEFSAII (Michael W. Deem and Ramdas Pophale) SiO2 
 PCOD8158603
Probable space group: C 2 2 21
;
_chemical_formula_sum "Si O2"
_cell_formula_units_Z 60
_cell_length_a 22.218074
_cell_length_b 15.443429
_cell_length_c 9.418414
_cell_angle_alpha 90.000000
_cell_angle_beta 90.000000
_cell_angle_gamma 90.000000
_cell_volume 3231.676806
_symmetry_space_group_name_H-M "C 2 2 21"
_symmetry_group_IT_number 20
_symmetry_cell_setting 'orthorhombic'
loop_
_space_group_symop_operation_xyz
x,y,z
-x,-y,1/2+z
x,-y,-z
-x,y,1/2-z
1/2+x,1/2+y,z
1/2-x,1/2-y,1/2+z
1/2+x,1/2-y,-z
1/2-x,1/2+y,1/2-z
loop_
_atom_site_type_symbol
_atom_site_label
_atom_site_fract_x
_atom_site_fract_y
_atom_site_fract_z
Si Si1 0.748828 0.500000 0.000000
Si Si2 0.171910 0.739840 0.582889
Si Si3 0.345937 0.824559 0.531310
Si Si4 0.707778 0.342832 0.156858
Si Si5 0.569159 0.834663 0.231923
Si Si6 0.160696 0.611007 0.340818
Si Si7 0.779063 0.100388 0.958795
Si Si8 0.045518 0.481046 0.645569
O O1 0.706065 0.424449 0.052984
O O2 0.789551 0.537077 0.129617
O O3 0.225106 0.696209 0.673147
O O4 0.109230 0.723026 0.661616
O O5 0.175991 0.700500 0.421882
O O6 0.184284 0.842900 0.575420
O O7 0.337001 0.726474 0.586548
O O8 0.404755 0.826559 0.429453
O O9 0.351356 0.881996 0.673504
O O10 0.289185 0.864306 0.448016
O O11 0.688087 0.379697 0.309670
O O12 0.500000 0.801498 0.250000
O O13 0.571651 0.935106 0.273876
O O14 0.098308 0.580405 0.408594
O O15 0.782577 0.000000 0.000000
O O16 0.009209 0.500000 0.500000
O O17 0.000000 0.431210 0.750000
#
# Coordination Sequence:
#
# PCOD8158603 Si02
#       8
#     4   8   8   8   8   8   8   8
#     4  10  20  34  58  80 120 150 186 224 314 356
#     4  10  20  39  58  80 124 157 195 241 301 357
#     4  11  24  35  58  86 124 156 201 243 296 363
#     4  10  20  37  55  88 119 154 189 242 301 360
#     4  11  24  40  58  86 121 166 208 241 292 363
#     4  11  20  35  55  77 114 166 186 238 288 349
#     4  11  22  35  60  94 122 150 199 255 310 359
#     4  11  23  36  53  81 115 154 203 243 282 342
#
# _framework density 18.566212
#
# number of rings (size 3 to 8) (size 9 to 14) (size 15 to 20)
#    0.000    1.333    4.667    1.600    5.600    1.067 
#    0.000    0.000    0.000    0.000    5.200    0.000 
#    0.000    0.000    0.000    0.000    0.000    0.000 
#
# Total GULP energy -371799.304799 kJ/mol
# GULP energy per Si atom -12393.310160 kJ/mol
# Density = 1.852395 g / cm^3
# Si number density = 18.566212 Si / 1000 Ang^3
#
#
#
# Elastic Constant Matrix: (Units=GPa)
#
#
# Indices 1 2 3 4 5 6 
#
# 1 65.3571 20.4581 22.5743 0.0000 0.0000 0.0000
# 2 20.4581 113.5610 30.8349 0.0000 0.0000 0.0000
# 3 22.5743 30.8349 117.4960 0.0000 0.0000 0.0000
# 4 0.0000 0.0000 0.0000 13.9738 0.0000 0.0000
# 5 0.0000 0.0000 0.0000 0.0000 32.3721 0.0000
# 6 0.0000 0.0000 0.0000 0.0000 0.0000 10.7054
#
#
#
# Elastic Compliance Matrix: (Units=1/GPa)
#
#
# Indices 1 2 3 4 5 6 
#
# 1 0.016944 -0.002335 -0.002643 0.000000 0.000000 0.000000
# 2 -0.002335 0.009803 -0.002124 0.000000 0.000000 0.000000
# 3 -0.002643 -0.002124 0.009576 0.000000 0.000000 0.000000
# 4 0.000000 0.000000 0.000000 0.071562 0.000000 0.000000
# 5 0.000000 0.000000 0.000000 0.000000 0.030891 0.000000
# 6 0.000000 0.000000 0.000000 0.000000 0.000000 0.093411
#
#
# Mechanical properties :
#
#
# Convention : Reuss Voigt Hill
#
# Bulk Modulus (GPa) = 45.20777 49.34985 47.27881
# Shear Modulus (GPa) = 19.70332 26.24673 22.97503
#
# Velocity S-wave (km/s) = 3.26121 3.76398 3.52158
# Velocity P-wave (km/s) = 6.21152 6.74746 6.48503
#
# Compressibility (1/GPa) = 0.02212009
#
# Stress axis : x y z
#
# Youngs Moduli (GPa) = 59.01713 102.00722 104.42673
#
# Poissons Ratio (x) = 0.23818 0.27597
# Poissons Ratio (y) = 0.13780 0.22181
# Poissons Ratio (z) = 0.15596 0.21667
#
# Static dielectric constant tensor:
#      x y z
#    x 3.236480 0.000000 0.000000 
#    y 0.000000 3.356360 0.000000 
#    z 0.000000 0.000000 3.504240 
# 
# 
# High freq. dielectric constant tensor:
#      x y z
#    x 1.681750 0.000000 0.000000 
#    y 0.000000 1.708960 0.000000 
#    z 0.000000 0.000000 1.742060 
# 
# From -- ./inp_files/10782.got.cif
#   From: 2010.03.12/outbox.cif.g09.slc.cpg/sg20_6_cif.got.tgz:10782.got - 2010.04.14 01:38:04.
