data_PCOD8158970
_publ_section_title
;
Structure prediction by ZEFSAII (Michael W. Deem and Ramdas Pophale) SiO2 
 PCOD8158970
Probable space group: C 2 2 21
;
_chemical_formula_sum "Si O2"
_cell_formula_units_Z 64
_cell_length_a 8.588606
_cell_length_b 20.573234
_cell_length_c 17.397189
_cell_angle_alpha 90.000000
_cell_angle_beta 90.000000
_cell_angle_gamma 90.000000
_cell_volume 3074.003286
_symmetry_space_group_name_H-M "C 2 2 21"
_symmetry_group_IT_number 20
_symmetry_cell_setting 'orthorhombic'
loop_
_space_group_symop_operation_xyz
x,y,z
-x,-y,1/2+z
x,-y,-z
-x,y,1/2-z
1/2+x,1/2+y,z
1/2-x,1/2-y,1/2+z
1/2+x,1/2-y,-z
1/2-x,1/2+y,1/2-z
loop_
_atom_site_type_symbol
_atom_site_label
_atom_site_fract_x
_atom_site_fract_y
_atom_site_fract_z
Si Si1 0.738717 0.245071 0.409313
Si Si2 0.177458 0.041477 0.231612
Si Si3 0.540481 0.178511 0.020956
Si Si4 0.175381 0.565769 0.535845
Si Si5 0.731165 0.358162 0.646813
Si Si6 0.683618 0.228178 0.740490
Si Si7 0.832676 0.414613 0.210422
Si Si8 0.398805 0.608437 0.416782
O O1 0.566797 0.237274 0.446229
O O2 0.724719 0.267077 0.320930
O O3 0.831594 0.179159 0.406547
O O4 0.833748 0.296535 0.459899
O O5 0.272422 0.092956 0.283885
O O6 0.192916 0.060811 0.142113
O O7 0.000000 0.052765 0.250000
O O8 0.228538 0.968375 0.254716
O O9 0.623681 0.141655 0.090363
O O10 0.433651 0.126855 0.979321
O O11 0.105284 0.500000 0.500000
O O12 0.173142 0.556195 0.626006
O O13 0.349873 0.580272 0.500876
O O14 0.718187 0.284980 0.679849
O O15 0.582689 0.384946 0.598484
O O16 0.500000 0.229131 0.750000
O O17 0.738468 0.157923 0.708234
O O18 0.000000 0.413870 0.250000
#
# Coordination Sequence:
#
# PCOD8158970 Si02
#       8
#     8   8   8   8   8   8   8   8
#     4  11  22  42  62  95 131 170 221 277 337 397
#     4  10  21  42  64  94 128 174 223 273 331 402
#     4  11  26  40  67  97 134 173 222 278 343 402
#     4  11  24  44  65  96 136 176 227 271 335 407
#     4  11  22  41  70  98 126 172 229 285 335 407
#     4  11  21  41  68  96 131 172 225 277 343 392
#     4  11  25  41  68  92 134 181 218 272 338 396
#     4  10  20  40  69  92 124 172 218 279 331 404
#
# _framework density 20.819756000000002
#
# number of rings (size 3 to 8) (size 9 to 14) (size 15 to 20)
#    0.000    1.250    3.750    2.625    5.250    0.500 
#    2.250    1.875    0.000    0.000    0.000    0.000 
#    0.000    0.000    0.000    0.000    0.000    0.000 
#
# Total GULP energy -396641.360609 kJ/mol
# GULP energy per Si atom -12395.042519 kJ/mol
# Density = 2.077237 g / cm^3
# Si number density = 20.819756 Si / 1000 Ang^3
#
#
#
# Elastic Constant Matrix: (Units=GPa)
#
#
# Indices 1 2 3 4 5 6 
#
# 1 57.9330 7.6813 24.0370 0.0000 0.0000 0.0000
# 2 7.6813 113.5956 10.7112 0.0000 0.0000 0.0000
# 3 24.0370 10.7112 90.4057 0.0000 0.0000 0.0000
# 4 0.0000 0.0000 0.0000 18.1185 0.0000 0.0000
# 5 0.0000 0.0000 0.0000 0.0000 21.8055 0.0000
# 6 0.0000 0.0000 0.0000 0.0000 0.0000 3.6994
#
#
#
# Elastic Compliance Matrix: (Units=1/GPa)
#
#
# Indices 1 2 3 4 5 6 
#
# 1 0.019480 -0.000838 -0.005080 0.000000 0.000000 0.000000
# 2 -0.000838 0.008939 -0.000836 0.000000 0.000000 0.000000
# 3 -0.005080 -0.000836 0.012511 0.000000 0.000000 0.000000
# 4 0.000000 0.000000 0.000000 0.055192 0.000000 0.000000
# 5 0.000000 0.000000 0.000000 0.000000 0.045860 0.000000
# 6 0.000000 0.000000 0.000000 0.000000 0.000000 0.270314
#
#
# Mechanical properties :
#
#
# Convention : Reuss Voigt Hill
#
# Bulk Modulus (GPa) = 36.46849 38.53260 37.50055
# Shear Modulus (GPa) = 11.49569 23.35833 17.42701
#
# Velocity S-wave (km/s) = 2.35234 3.35316 2.89631
# Velocity P-wave (km/s) = 4.99323 5.79133 5.40702
#
# Compressibility (1/GPa) = 0.02742093
#
# Stress axis : x y z
#
# Youngs Moduli (GPa) = 51.33410 111.87333 79.92964
#
# Poissons Ratio (x) = 0.09378 0.40605
# Poissons Ratio (y) = 0.04303 0.06684
# Poissons Ratio (z) = 0.26078 0.09355
#
# Static dielectric constant tensor:
#      x y z
#    x 3.725900 0.000000 0.000000 
#    y 0.000000 4.094260 0.000000 
#    z 0.000000 0.000000 4.216660 
# 
# 
# High freq. dielectric constant tensor:
#      x y z
#    x 1.793140 0.000000 0.000000 
#    y 0.000000 1.830310 0.000000 
#    z 0.000000 0.000000 1.821930 
# 
# From -- ./inp_files/23929.got.cif
#   From: 2010.03.12/outbox.cif.g09.slc.cpg/sg20_12_cif.got.tgz:23929.got - 2010.04.14 01:38:04.
