data_PCOD8158543
_publ_section_title
;
Structure prediction by ZEFSAII (Michael W. Deem and Ramdas Pophale) SiO2 
 PCOD8158543
Probable space group: C 2 2 21
;
_chemical_formula_sum "Si O2"
_cell_formula_units_Z 28
_cell_length_a 14.062066
_cell_length_b 5.304518
_cell_length_c 14.614778
_cell_angle_alpha 90.000000
_cell_angle_beta 90.000000
_cell_angle_gamma 90.000000
_cell_volume 1090.152568
_symmetry_space_group_name_H-M "C 2 2 21"
_symmetry_group_IT_number 20
_symmetry_cell_setting 'orthorhombic'
loop_
_space_group_symop_operation_xyz
x,y,z
-x,-y,1/2+z
x,-y,-z
-x,y,1/2-z
1/2+x,1/2+y,z
1/2-x,1/2-y,1/2+z
1/2+x,1/2-y,-z
1/2-x,1/2+y,1/2-z
loop_
_atom_site_type_symbol
_atom_site_label
_atom_site_fract_x
_atom_site_fract_y
_atom_site_fract_z
Si Si1 0.467700 0.750087 0.050757
Si Si2 0.301101 0.146633 0.223613
Si Si3 0.236327 0.749024 0.478030
Si Si4 0.000000 0.422094 0.250000
O O1 0.497434 0.749872 0.158179
O O2 0.507681 0.500000 0.000000
O O3 0.352790 0.752625 0.048235
O O4 0.507795 0.000000 0.000000
O O5 0.255693 0.380000 0.279652
O O6 0.305428 0.257653 0.122437
O O7 0.407761 0.100258 0.258214
O O8 0.299227 0.500000 0.500000
O O9 0.298133 0.000000 0.500000
#
# Coordination Sequence:
#
# PCOD8158543 Si02
#       4
#     8   8   8   4
#     4  10  22  41  76 110 147 215 250 313 414 450
#     4  12  28  47  78 123 152 209 277 322 402 482
#     4  10  19  43  73 100 157 204 239 324 402 438
#     4  12  26  52  86 112 172 208 268 344 394 480
#
# _framework density 25.684477000000001
#
# number of rings (size 3 to 8) (size 9 to 14) (size 15 to 20)
#    0.000    1.143    5.714    1.714    4.000    4.571 
#    0.000    5.714    0.000    0.000    0.000    0.000 
#    0.000    0.000    0.000    0.000    0.000    0.000 
#
# Total GULP energy -173434.689890 kJ/mol
# GULP energy per Si atom -12388.192135 kJ/mol
# Density = 2.562602 g / cm^3
# Si number density = 25.684477 Si / 1000 Ang^3
#
#
#
# Elastic Constant Matrix: (Units=GPa)
#
#
# Indices 1 2 3 4 5 6 
#
# 1 115.7487 43.9726 10.8982 0.0000 0.0000 0.0000
# 2 43.9726 285.7698 80.1832 0.0000 0.0000 0.0000
# 3 10.8982 80.1832 174.4436 0.0000 0.0000 0.0000
# 4 0.0000 0.0000 0.0000 49.5826 0.0000 0.0000
# 5 0.0000 0.0000 0.0000 0.0000 9.5999 0.0000
# 6 0.0000 0.0000 0.0000 0.0000 0.0000 9.4281
#
#
#
# Elastic Compliance Matrix: (Units=1/GPa)
#
#
# Indices 1 2 3 4 5 6 
#
# 1 0.009177 -0.001436 0.000087 0.000000 0.000000 0.000000
# 2 -0.001436 0.004242 -0.001860 0.000000 0.000000 0.000000
# 3 0.000087 -0.001860 0.006582 0.000000 0.000000 0.000000
# 4 0.000000 0.000000 0.000000 0.020168 0.000000 0.000000
# 5 0.000000 0.000000 0.000000 0.000000 0.104168 0.000000
# 6 0.000000 0.000000 0.000000 0.000000 0.000000 0.106066
#
#
# Mechanical properties :
#
#
# Convention : Reuss Voigt Hill
#
# Bulk Modulus (GPa) = 73.62766 94.00779 83.81773
# Shear Modulus (GPa) = 19.13139 43.11598 31.12369
#
# Velocity S-wave (km/s) = 2.73218 4.10161 3.48483
# Velocity P-wave (km/s) = 6.21945 7.68840 6.99260
#
# Compressibility (1/GPa) = 0.01358185
#
# Stress axis : x y z
#
# Youngs Moduli (GPa) = 108.96880 235.72011 151.92630
#
# Poissons Ratio (x) = 0.33861 -0.01321
# Poissons Ratio (y) = 0.15653 0.28262
# Poissons Ratio (z) = -0.00948 0.43850
#
# Static dielectric constant tensor:
#      x y z
#    x 4.151720 0.000000 0.000000 
#    y 0.000000 6.460670 0.000000 
#    z 0.000000 0.000000 4.656530 
# 
# 
# High freq. dielectric constant tensor:
#      x y z
#    x 1.985830 0.000000 0.000000 
#    y 0.000000 2.055760 0.000000 
#    z 0.000000 0.000000 2.038590 
# 
# From -- ./inp_files/17405.got.cif
#   From: 2010.03.12/outbox.cif.g09.slc.cpg/sg20_9_cif.got.tgz:17405.got - 2010.04.14 01:38:04.
