data_PCOD8158349
_publ_section_title
;
Structure prediction by ZEFSAII (Michael W. Deem and Ramdas Pophale) SiO2 
 PCOD8158349
Probable space group: C 2 2 21
;
_chemical_formula_sum "Si O2"
_cell_formula_units_Z 64
_cell_length_a 9.733164
_cell_length_b 29.797132
_cell_length_c 10.268509
_cell_angle_alpha 90.000000
_cell_angle_beta 90.000000
_cell_angle_gamma 90.000000
_cell_volume 2978.076805
_symmetry_space_group_name_H-M "C 2 2 21"
_symmetry_group_IT_number 20
_symmetry_cell_setting 'orthorhombic'
loop_
_space_group_symop_operation_xyz
x,y,z
-x,-y,1/2+z
x,-y,-z
-x,y,1/2-z
1/2+x,1/2+y,z
1/2-x,1/2-y,1/2+z
1/2+x,1/2-y,-z
1/2-x,1/2+y,1/2-z
loop_
_atom_site_type_symbol
_atom_site_label
_atom_site_fract_x
_atom_site_fract_y
_atom_site_fract_z
Si Si1 0.150630 0.441900 0.793807
Si Si2 0.486681 0.649377 0.093627
Si Si3 0.142926 0.285693 0.787814
Si Si4 0.962708 0.664710 0.525984
Si Si5 0.750944 0.401999 0.455707
Si Si6 0.216731 0.362077 0.601639
Si Si7 0.628030 0.486139 0.348758
Si Si8 0.582285 0.256630 0.627524
O O1 0.144372 0.426235 0.944013
O O2 0.201684 0.401328 0.704697
O O3 0.258947 0.482097 0.783086
O O4 0.000000 0.458576 0.750000
O O5 0.500000 0.644035 0.250000
O O6 0.378768 0.614193 0.039159
O O7 0.634808 0.636674 0.032867
O O8 0.436944 0.698672 0.039243
O O9 0.205080 0.311846 0.664360
O O10 0.254424 0.249988 0.842959
O O11 0.000000 0.260194 0.750000
O O12 0.108783 0.325636 0.887736
O O13 0.846001 0.637790 0.609148
O O14 0.098122 0.634186 0.507482
O O15 0.006132 0.712046 0.585034
O O16 0.694538 0.436227 0.347622
O O17 0.591313 0.500000 0.500000
O O18 0.500000 0.486983 0.250000
O O19 0.500000 0.274176 0.750000
#
# Coordination Sequence:
#
# PCOD8158349 Si02
#       8
#     8   8   8   8   8   8   8   8
#     4  11  19  38  68 100 125 161 222 286 345 411
#     4  11  19  33  61  92 126 172 218 279 326 401
#     4  10  19  35  56  85 117 163 214 277 321 385
#     4  11  22  35  62  89 126 169 210 277 333 402
#     4  11  21  41  64  94 136 171 217 276 351 414
#     4  11  19  34  61  94 124 158 229 269 335 398
#     4  10  26  45  73 107 139 176 225 288 361 431
#     4  11  22  37  53  86 125 169 230 268 329 386
#
# _framework density 21.490379000000001
#
# number of rings (size 3 to 8) (size 9 to 14) (size 15 to 20)
#    0.000    1.250    7.500    0.375    5.250    0.000 
#    0.000    5.000    0.000    0.000    0.000    0.000 
#    0.000    0.000    0.000    0.000    0.000    0.000 
#
# Total GULP energy -396421.242254 kJ/mol
# GULP energy per Si atom -12388.163820 kJ/mol
# Density = 2.144147 g / cm^3
# Si number density = 21.490379 Si / 1000 Ang^3
#
#
#
# Elastic Constant Matrix: (Units=GPa)
#
#
# Indices 1 2 3 4 5 6 
#
# 1 181.4386 51.0852 32.8302 0.0000 0.0000 0.0000
# 2 51.0852 103.1986 20.1931 0.0000 0.0000 0.0000
# 3 32.8302 20.1931 33.5743 0.0000 0.0000 0.0000
# 4 0.0000 0.0000 0.0000 28.5633 0.0000 0.0000
# 5 0.0000 0.0000 0.0000 0.0000 25.2182 0.0000
# 6 0.0000 0.0000 0.0000 0.0000 0.0000 22.7266
#
#
#
# Elastic Compliance Matrix: (Units=1/GPa)
#
#
# Indices 1 2 3 4 5 6 
#
# 1 0.007218 -0.002484 -0.005564 0.000000 0.000000 0.000000
# 2 -0.002484 0.011838 -0.004690 0.000000 0.000000 0.000000
# 3 -0.005564 -0.004690 0.038046 0.000000 0.000000 0.000000
# 4 0.000000 0.000000 0.000000 0.035010 0.000000 0.000000
# 5 0.000000 0.000000 0.000000 0.000000 0.039654 0.000000
# 6 0.000000 0.000000 0.000000 0.000000 0.000000 0.044001
#
#
# Mechanical properties :
#
#
# Convention : Reuss Voigt Hill
#
# Bulk Modulus (GPa) = 31.62088 58.49210 45.05649
# Shear Modulus (GPa) = 23.60889 29.57514 26.59201
#
# Velocity S-wave (km/s) = 3.31808 3.71375 3.52147
# Velocity P-wave (km/s) = 5.42452 6.75767 6.12746
#
# Compressibility (1/GPa) = 0.03162467
#
# Stress axis : x y z
#
# Youngs Moduli (GPa) = 138.54924 84.47663 26.28398
#
# Poissons Ratio (x) = 0.20986 0.14623
# Poissons Ratio (y) = 0.34419 0.12328
# Poissons Ratio (z) = 0.77083 0.39624
#
# Static dielectric constant tensor:
#      x y z
#    x 4.349610 0.000000 0.000000 
#    y 0.000000 3.794390 0.000000 
#    z 0.000000 0.000000 3.785120 
# 
# 
# High freq. dielectric constant tensor:
#      x y z
#    x 1.870780 0.000000 0.000000 
#    y 0.000000 1.831960 0.000000 
#    z 0.000000 0.000000 1.785990 
# 
# From -- ./inp_files/13395.got.cif
#   From: 2010.03.12/outbox.cif.g09.slc.cpg/sg20_7_cif.got.tgz:13395.got - 2010.04.14 01:38:04.
