data_PCOD8158587
_publ_section_title
;
Structure prediction by ZEFSAII (Michael W. Deem and Ramdas Pophale) SiO2 
 PCOD8158587
Probable space group: C 2 2 21
;
_chemical_formula_sum "Si O2"
_cell_formula_units_Z 64
_cell_length_a 8.732378
_cell_length_b 20.914240
_cell_length_c 19.173824
_cell_angle_alpha 90.000000
_cell_angle_beta 90.000000
_cell_angle_gamma 90.000000
_cell_volume 3501.735595
_symmetry_space_group_name_H-M "C 2 2 21"
_symmetry_group_IT_number 20
_symmetry_cell_setting 'orthorhombic'
loop_
_space_group_symop_operation_xyz
x,y,z
-x,-y,1/2+z
x,-y,-z
-x,y,1/2-z
1/2+x,1/2+y,z
1/2-x,1/2-y,1/2+z
1/2+x,1/2-y,-z
1/2-x,1/2+y,1/2-z
loop_
_atom_site_type_symbol
_atom_site_label
_atom_site_fract_x
_atom_site_fract_y
_atom_site_fract_z
Si Si1 0.318432 0.688727 0.463183
Si Si2 0.320724 0.562631 0.536856
Si Si3 0.676926 0.497669 0.827549
Si Si4 0.176926 0.997669 0.672451
Si Si5 0.318432 0.688727 0.036817
Si Si6 0.320324 0.137110 0.170666
Si Si7 0.679276 0.562631 0.536856
Si Si8 0.679676 0.862890 0.829334
O O1 0.250578 0.627588 0.505636
O O2 0.500000 0.692755 0.466084
O O3 0.250000 0.750000 0.500000
O O4 0.264807 0.684628 0.382694
O O5 0.249153 0.500000 0.500000
O O6 0.285250 0.555717 0.619555
O O7 0.500000 0.564865 0.521138
O O8 0.714333 0.522850 0.750000
O O9 0.500000 0.476759 0.835050
O O10 0.776087 0.435798 0.846613
O O11 0.276087 0.935798 0.653387
O O12 0.214750 0.055717 0.619555
O O13 0.264808 0.684628 0.117306
O O14 0.250579 0.627588 0.994364
O O15 0.270358 0.154179 0.250000
O O16 0.500000 0.145662 0.160849
O O17 0.750847 0.500000 0.500000
#
# Coordination Sequence:
#
# PCOD8158587 Si02
#       8
#     8   8   8   8   8   8   8   8
#     4  11  22  37  56  78 110 146 183 225 271 325
#     4   9  16  30  52  78 105 135 175 222 264 312
#     4   9  16  29  52  79 104 135 177 220 266 319
#     4   9  16  29  52  79 104 135 177 220 266 319
#     4  11  22  37  56  78 110 146 183 225 271 325
#     4  10  20  34  53  79 109 139 176 222 271 323
#     4   9  16  30  52  78 105 135 175 222 264 312
#     4  10  20  34  53  79 109 139 176 222 271 323
#
# _framework density 18.27665
#
# number of rings (size 3 to 8) (size 9 to 14) (size 15 to 20)
#    0.000    2.250    2.500    1.500    0.000    1.500 
#    0.000    5.000    0.000    4.500    0.000    0.000 
#    0.000    0.000    0.000    0.000    0.000    0.000 
#
# Total GULP energy -396689.695237 kJ/mol
# GULP energy per Si atom -12396.552976 kJ/mol
# Density = 1.823505 g / cm^3
# Si number density = 18.276650 Si / 1000 Ang^3
#
#
#
# Elastic Constant Matrix: (Units=GPa)
#
#
# Indices 1 2 3 4 5 6 
#
# 1 53.5500 32.8442 37.9935 0.0000 0.0000 0.0000
# 2 32.8442 124.1679 78.7265 0.0000 0.0000 0.0000
# 3 37.9935 78.7265 149.9936 0.0000 0.0000 0.0000
# 4 0.0000 0.0000 0.0000 32.8588 0.0000 0.0000
# 5 0.0000 0.0000 0.0000 0.0000 24.1818 0.0000
# 6 0.0000 0.0000 0.0000 0.0000 0.0000 22.9414
#
#
#
# Elastic Compliance Matrix: (Units=1/GPa)
#
#
# Indices 1 2 3 4 5 6 
#
# 1 0.023857 -0.003715 -0.004093 0.000000 0.000000 0.000000
# 2 -0.003715 0.012649 -0.005698 0.000000 0.000000 0.000000
# 3 -0.004093 -0.005698 0.010694 0.000000 0.000000 0.000000
# 4 0.000000 0.000000 0.000000 0.030433 0.000000 0.000000
# 5 0.000000 0.000000 0.000000 0.000000 0.041353 0.000000
# 6 0.000000 0.000000 0.000000 0.000000 0.000000 0.043589
#
#
# Mechanical properties :
#
#
# Convention : Reuss Voigt Hill
#
# Bulk Modulus (GPa) = 49.53503 69.64888 59.59195
# Shear Modulus (GPa) = 25.46889 27.87289 26.67089
#
# Velocity S-wave (km/s) = 3.73704 3.90943 3.82421
# Velocity P-wave (km/s) = 6.76627 7.65304 7.22328
#
# Compressibility (1/GPa) = 0.02018773
#
# Stress axis : x y z
#
# Youngs Moduli (GPa) = 41.91674 79.05705 93.50754
#
# Poissons Ratio (x) = 0.29373 0.38271
# Poissons Ratio (y) = 0.15574 0.53280
# Poissons Ratio (z) = 0.17156 0.45046
#
# Static dielectric constant tensor:
#      x y z
#    x 3.178610 0.000000 0.000000 
#    y 0.000000 3.234270 0.000000 
#    z 0.000000 0.000000 3.767590 
# 
# 
# High freq. dielectric constant tensor:
#      x y z
#    x 1.687040 0.000000 0.000000 
#    y 0.000000 1.676460 0.000000 
#    z 0.000000 0.000000 1.729170 
# 
# From -- ./inp_files/23915.got.cif
#   From: 2010.03.12/outbox.cif.g09.slc.cpg/sg20_12_cif.got.tgz:23915.got - 2010.04.14 01:38:04.
