data_PCOD8158721
_publ_section_title
;
Structure prediction by ZEFSAII (Michael W. Deem and Ramdas Pophale) SiO2 
 PCOD8158721
Probable space group: C 2 2 21
;
_chemical_formula_sum "Si O2"
_cell_formula_units_Z 64
_cell_length_a 26.805494
_cell_length_b 8.736034
_cell_length_c 14.071648
_cell_angle_alpha 90.000000
_cell_angle_beta 90.000000
_cell_angle_gamma 90.000000
_cell_volume 3295.209975
_symmetry_space_group_name_H-M "C 2 2 21"
_symmetry_group_IT_number 20
_symmetry_cell_setting 'orthorhombic'
loop_
_space_group_symop_operation_xyz
x,y,z
-x,-y,1/2+z
x,-y,-z
-x,y,1/2-z
1/2+x,1/2+y,z
1/2-x,1/2-y,1/2+z
1/2+x,1/2-y,-z
1/2-x,1/2+y,1/2-z
loop_
_atom_site_type_symbol
_atom_site_label
_atom_site_fract_x
_atom_site_fract_y
_atom_site_fract_z
Si Si1 0.346053 0.806403 0.689756
Si Si2 0.803716 0.759412 0.838403
Si Si3 0.710892 0.122994 0.858539
Si Si4 0.555131 0.842566 0.712289
Si Si5 0.288647 0.325957 0.468806
Si Si6 0.321359 0.597485 0.863976
Si Si7 0.580226 0.346139 0.461464
Si Si8 0.395638 0.908255 0.089276
O O1 0.405939 0.824501 0.700333
O O2 0.333379 0.683929 0.607829
O O3 0.326697 0.735137 0.788316
O O4 0.320077 0.968296 0.662080
O O5 0.779567 0.718869 0.737219
O O6 0.761936 0.742510 0.920729
O O7 0.848152 0.639343 0.850334
O O8 0.830493 0.924729 0.826878
O O9 0.765225 0.087750 0.901742
O O10 0.688983 0.228799 0.942318
O O11 0.500000 0.858298 0.750000
O O12 0.556925 0.698564 0.640075
O O13 0.567867 0.995393 0.655118
O O14 0.278824 0.500000 0.500000
O O15 0.359545 0.634618 0.949556
O O16 0.554758 0.500000 0.500000
O O17 0.570774 0.227531 0.546360
O O18 0.373643 0.000000 0.000000
#
# Coordination Sequence:
#
# PCOD8158721 Si02
#       8
#     8   8   8   8   8   8   8   8
#     4  11  23  41  61  86 121 164 207 254 315 375
#     4  12  22  37  61  88 130 170 210 250 304 367
#     4  12  23  37  58  91 127 175 210 245 301 379
#     4  10  23  44  67  88 120 158 209 269 325 373
#     4  12  26  38  56  88 134 173 214 244 300 380
#     4  11  21  35  58  89 131 163 196 256 310 356
#     4  10  20  36  65  95 122 151 200 262 317 366
#     4  10  20  37  61  93 120 159 206 256 307 368
#
# _framework density 19.422131
#
# number of rings (size 3 to 8) (size 9 to 14) (size 15 to 20)
#    0.000    1.000    5.000    2.250    1.750    0.000 
#    0.000    5.000    0.000    0.000    0.000    0.000 
#    0.000    0.000    0.000    0.000    0.000    0.000 
#
# Total GULP energy -396565.097756 kJ/mol
# GULP energy per Si atom -12392.659305 kJ/mol
# Density = 1.937793 g / cm^3
# Si number density = 19.422131 Si / 1000 Ang^3
#
#
#
# Elastic Constant Matrix: (Units=GPa)
#
#
# Indices 1 2 3 4 5 6 
#
# 1 114.7701 28.8092 31.7975 0.0000 0.0000 0.0000
# 2 28.8092 115.1034 38.6029 0.0000 0.0000 0.0000
# 3 31.7975 38.6029 85.6028 0.0000 0.0000 0.0000
# 4 0.0000 0.0000 0.0000 35.9122 0.0000 0.0000
# 5 0.0000 0.0000 0.0000 0.0000 18.2236 0.0000
# 6 0.0000 0.0000 0.0000 0.0000 0.0000 15.2116
#
#
#
# Elastic Compliance Matrix: (Units=1/GPa)
#
#
# Indices 1 2 3 4 5 6 
#
# 1 0.009919 -0.001469 -0.003022 0.000000 0.000000 0.000000
# 2 -0.001469 0.010454 -0.004168 0.000000 0.000000 0.000000
# 3 -0.003022 -0.004168 0.014684 0.000000 0.000000 0.000000
# 4 0.000000 0.000000 0.000000 0.027846 0.000000 0.000000
# 5 0.000000 0.000000 0.000000 0.000000 0.054874 0.000000
# 6 0.000000 0.000000 0.000000 0.000000 0.000000 0.065739
#
#
# Mechanical properties :
#
#
# Convention : Reuss Voigt Hill
#
# Bulk Modulus (GPa) = 56.37670 57.09948 56.73809
# Shear Modulus (GPa) = 24.18412 28.28725 26.23569
#
# Velocity S-wave (km/s) = 3.53254 3.82048 3.67933
# Velocity P-wave (km/s) = 6.76229 6.99460 6.87942
#
# Compressibility (1/GPa) = 0.01773782
#
# Stress axis : x y z
#
# Youngs Moduli (GPa) = 100.81559 95.66161 68.10086
#
# Poissons Ratio (x) = 0.14054 0.20580
# Poissons Ratio (y) = 0.14811 0.28387
# Poissons Ratio (z) = 0.30466 0.39875
#
# Static dielectric constant tensor:
#      x y z
#    x 3.139900 0.000000 0.000000 
#    y 0.000000 3.999410 0.000000 
#    z 0.000000 0.000000 3.713180 
# 
# 
# High freq. dielectric constant tensor:
#      x y z
#    x 1.708270 0.000000 0.000000 
#    y 0.000000 1.775420 0.000000 
#    z 0.000000 0.000000 1.763380 
# 
# From -- ./inp_files/22351.got.cif
#   From: 2010.03.12/outbox.cif.g09.slc.cpg/sg20_12_cif.got.tgz:22351.got - 2010.04.14 01:38:04.
