data_PCOD8158395
_publ_section_title
;
Structure prediction by ZEFSAII (Michael W. Deem and Ramdas Pophale) SiO2 
 PCOD8158395
Probable space group: C 2 2 21
;
_chemical_formula_sum "Si O2"
_cell_formula_units_Z 48
_cell_length_a 9.278657
_cell_length_b 17.566700
_cell_length_c 15.723882
_cell_angle_alpha 90.000000
_cell_angle_beta 90.000000
_cell_angle_gamma 90.000000
_cell_volume 2562.920183
_symmetry_space_group_name_H-M "C 2 2 21"
_symmetry_group_IT_number 20
_symmetry_cell_setting 'orthorhombic'
loop_
_space_group_symop_operation_xyz
x,y,z
-x,-y,1/2+z
x,-y,-z
-x,y,1/2-z
1/2+x,1/2+y,z
1/2-x,1/2-y,1/2+z
1/2+x,1/2-y,-z
1/2-x,1/2+y,1/2-z
loop_
_atom_site_type_symbol
_atom_site_label
_atom_site_fract_x
_atom_site_fract_y
_atom_site_fract_z
Si Si1 0.094623 0.925635 0.331433
Si Si2 0.688347 0.723953 0.917298
Si Si3 0.818938 0.957413 0.414446
Si Si4 0.358404 0.270784 0.081609
Si Si5 0.831702 0.304665 0.751010
Si Si6 0.832495 0.519682 0.242685
O O1 0.152826 0.857288 0.387915
O O2 0.235382 0.973361 0.308927
O O3 0.000000 0.895894 0.250000
O O4 0.983050 0.976249 0.386281
O O5 0.705334 0.633093 0.919485
O O6 0.524990 0.751775 0.931787
O O7 0.742479 0.756245 0.825426
O O8 0.781099 0.761180 0.991821
O O9 0.706064 0.995545 0.351724
O O10 0.783946 0.000000 0.500000
O O11 0.278665 0.220647 0.154843
O O12 0.797139 0.392827 0.738161
O O13 0.000000 0.286472 0.750000
O O14 0.000000 0.500366 0.250000
#
# Coordination Sequence:
#
# PCOD8158395 Si02
#       6
#     8   8   8   8   8   8
#     4   9  19  36  56  76 106 146 179 213 269 329
#     4  10  21  35  56  80 105 140 179 216 265 320
#     4  10  20  36  55  78 108 142 179 222 271 323
#     4  10  19  36  56  77 106 141 176 218 264 316
#     4   9  18  35  54  74 106 142 173 211 266 319
#     4  10  20  34  55  79 104 139 179 222 269 317
#
# _framework density 18.728636999999999
#
# number of rings (size 3 to 8) (size 9 to 14) (size 15 to 20)
#    0.000    2.333    0.000    4.500    0.000    4.000 
#    0.000    3.333    0.000    0.000    0.000    0.000 
#    0.000    0.000    0.000    0.000    0.000    0.000 
#
# Total GULP energy -297514.154135 kJ/mol
# GULP energy per Si atom -12396.423089 kJ/mol
# Density = 1.868601 g / cm^3
# Si number density = 18.728637 Si / 1000 Ang^3
#
#
#
# Elastic Constant Matrix: (Units=GPa)
#
#
# Indices 1 2 3 4 5 6 
#
# 1 85.8618 53.0839 44.9117 0.0000 0.0000 0.0000
# 2 53.0839 94.6553 57.3808 0.0000 0.0000 0.0000
# 3 44.9117 57.3808 129.5597 0.0000 0.0000 0.0000
# 4 0.0000 0.0000 0.0000 35.9720 0.0000 0.0000
# 5 0.0000 0.0000 0.0000 0.0000 28.7850 0.0000
# 6 0.0000 0.0000 0.0000 0.0000 0.0000 17.3862
#
#
#
# Elastic Compliance Matrix: (Units=1/GPa)
#
#
# Indices 1 2 3 4 5 6 
#
# 1 0.018389 -0.008815 -0.002470 0.000000 0.000000 0.000000
# 2 -0.008815 0.018668 -0.005212 0.000000 0.000000 0.000000
# 3 -0.002470 -0.005212 0.010883 0.000000 0.000000 0.000000
# 4 0.000000 0.000000 0.000000 0.027799 0.000000 0.000000
# 5 0.000000 0.000000 0.000000 0.000000 0.034740 0.000000
# 6 0.000000 0.000000 0.000000 0.000000 0.000000 0.057517
#
#
# Mechanical properties :
#
#
# Convention : Reuss Voigt Hill
#
# Bulk Modulus (GPa) = 66.91304 68.98105 67.94705
# Shear Modulus (GPa) = 24.27502 26.74198 25.50850
#
# Velocity S-wave (km/s) = 3.60411 3.78281 3.69454
# Velocity P-wave (km/s) = 7.28867 7.48274 7.38634
#
# Compressibility (1/GPa) = 0.01494477
#
# Stress axis : x y z
#
# Youngs Moduli (GPa) = 54.38130 53.56796 91.88513
#
# Poissons Ratio (x) = 0.47221 0.22698
# Poissons Ratio (y) = 0.47938 0.47891
# Poissons Ratio (z) = 0.13434 0.27920
#
# Static dielectric constant tensor:
#      x y z
#    x 3.274810 0.000000 0.000000 
#    y 0.000000 3.391500 0.000000 
#    z 0.000000 0.000000 3.947490 
# 
# 
# High freq. dielectric constant tensor:
#      x y z
#    x 1.705440 0.000000 0.000000 
#    y 0.000000 1.730590 0.000000 
#    z 0.000000 0.000000 1.738920 
# 
# From -- ./inp_files/18891.got.cif
#   From: 2010.03.12/outbox.cif.g09.slc.cpg/sg20_10_cif.got.tgz:18891.got - 2010.04.14 01:38:04.
