data_PCOD8158030
_publ_section_title
;
Structure prediction by ZEFSAII (Michael W. Deem and Ramdas Pophale) SiO2 
 PCOD8158030
Probable space group: C 2 2 21
;
_chemical_formula_sum "Si O2"
_cell_formula_units_Z 60
_cell_length_a 36.024308
_cell_length_b 28.083511
_cell_length_c 5.151173
_cell_angle_alpha 90.000000
_cell_angle_beta 90.000000
_cell_angle_gamma 90.000000
_cell_volume 5211.385319
_symmetry_space_group_name_H-M "C 2 2 21"
_symmetry_group_IT_number 20
_symmetry_cell_setting 'orthorhombic'
loop_
_space_group_symop_operation_xyz
x,y,z
-x,-y,1/2+z
x,-y,-z
-x,y,1/2-z
1/2+x,1/2+y,z
1/2-x,1/2-y,1/2+z
1/2+x,1/2-y,-z
1/2-x,1/2+y,1/2-z
loop_
_atom_site_type_symbol
_atom_site_label
_atom_site_fract_x
_atom_site_fract_y
_atom_site_fract_z
Si Si1 0.837085 0.656060 0.094494
Si Si2 0.758787 0.604374 0.089147
Si Si3 0.500000 0.968874 0.250000
Si Si4 0.200697 0.248770 0.595479
Si Si5 0.357014 0.106192 0.600265
Si Si6 0.720532 0.300712 0.909090
Si Si7 0.419629 0.967199 0.250721
Si Si8 0.778912 0.445592 0.418321
O O1 0.797176 0.632078 0.096815
O O2 0.832584 0.712966 0.118345
O O3 0.862263 0.633083 0.324342
O O4 0.854959 0.647241 0.815227
O O5 0.725390 0.642292 0.067276
O O6 0.753637 0.578970 0.364047
O O7 0.758895 0.565496 0.856347
O O8 0.493101 0.000000 0.500000
O O9 0.460480 0.941669 0.211733
O O10 0.239645 0.275839 0.592662
O O11 0.197303 0.215132 0.343490
O O12 0.196914 0.215069 0.843419
O O13 0.391116 0.074531 0.693597
O O14 0.320801 0.073293 0.590048
O O15 0.418956 0.000000 0.500000
O O16 0.409201 0.000000 0.000000
O O17 0.781031 0.500000 0.500000
#
# Coordination Sequence:
#
# PCOD8158030 Si02
#       8
#     8   8   4   8   8   8   8   8
#     4   9  17  26  34  48  65  79  93 116 143 174
#     4   9  17  26  34  45  60  75  98 124 144 170
#     4   8  16  28  40  52  64  76  96 128 156 176
#     4   9  15  23  35  47  60  75  93 113 142 174
#     4  10  18  26  36  48  64  81  99 119 144 182
#     4   9  15  23  35  47  57  74  95 118 142 168
#     4  10  18  28  40  52  64  80 102 126 152 181
#     4  10  18  26  34  44  60  81 100 121 149 180
#
# _framework density 11.513253000000001
#
# number of rings (size 3 to 8) (size 9 to 14) (size 15 to 20)
#    0.000    2.667    0.000    3.200    0.000    8.533 
#    0.000    0.000    0.000    0.000    0.000    0.000 
#    0.000    0.000    0.000    0.000    0.000    0.000 
#
# Total GULP energy -371660.087845 kJ/mol
# GULP energy per Si atom -12388.669595 kJ/mol
# Density = 1.148705 g / cm^3
# Si number density = 11.513253 Si / 1000 Ang^3
#
#
#
# Elastic Constant Matrix: (Units=GPa)
#
#
# Indices 1 2 3 4 5 6 
#
# 1 29.6515 34.1032 19.5611 0.0000 0.0000 0.0000
# 2 34.1032 57.9254 32.4791 0.0000 0.0000 0.0000
# 3 19.5611 32.4791 94.4920 0.0000 0.0000 0.0000
# 4 0.0000 0.0000 0.0000 20.1475 0.0000 0.0000
# 5 0.0000 0.0000 0.0000 0.0000 9.5242 0.0000
# 6 0.0000 0.0000 0.0000 0.0000 0.0000 7.3801
#
#
#
# Elastic Compliance Matrix: (Units=1/GPa)
#
#
# Indices 1 2 3 4 5 6 
#
# 1 0.104483 -0.061176 -0.000602 0.000000 0.000000 0.000000
# 2 -0.061176 0.057205 -0.006998 0.000000 0.000000 0.000000
# 3 -0.000602 -0.006998 0.013113 0.000000 0.000000 0.000000
# 4 0.000000 0.000000 0.000000 0.049634 0.000000 0.000000
# 5 0.000000 0.000000 0.000000 0.000000 0.104996 0.000000
# 6 0.000000 0.000000 0.000000 0.000000 0.000000 0.135500
#
#
# Mechanical properties :
#
#
# Convention : Reuss Voigt Hill
#
# Bulk Modulus (GPa) = 26.84697 39.37287 33.10992
# Shear Modulus (GPa) = 8.13141 13.80538 10.96839
#
# Velocity S-wave (km/s) = 2.66045 3.46654 3.08989
# Velocity P-wave (km/s) = 5.72767 7.09187 6.44596
#
# Compressibility (1/GPa) = 0.03724815
#
# Stress axis : x y z
#
# Youngs Moduli (GPa) = 9.57093 17.48104 76.26059
#
# Poissons Ratio (x) = 1.06943 0.04588
# Poissons Ratio (y) = 0.58552 0.53370
# Poissons Ratio (z) = 0.00576 0.12234
#
# Static dielectric constant tensor:
#      x y z
#    x 2.249210 0.000000 0.000000 
#    y 0.000000 2.363380 0.000000 
#    z 0.000000 0.000000 2.756940 
# 
# 
# High freq. dielectric constant tensor:
#      x y z
#    x 1.375900 0.000000 0.000000 
#    y 0.000000 1.416810 0.000000 
#    z 0.000000 0.000000 1.463170 
# 
# From -- ./inp_files/4838.got.cif
#   From: 2010.03.12/outbox.cif.g09.slc.cpg/sg20_3_cif.got.tgz:4838.got - 2010.04.14 01:38:04.
