data_PCOD8158660
_publ_section_title
;
Structure prediction by ZEFSAII (Michael W. Deem and Ramdas Pophale) SiO2 
 PCOD8158660
Probable space group: C 2 2 21
;
_chemical_formula_sum "Si O2"
_cell_formula_units_Z 56
_cell_length_a 33.270289
_cell_length_b 5.172727
_cell_length_c 16.085955
_cell_angle_alpha 90.000000
_cell_angle_beta 90.000000
_cell_angle_gamma 90.000000
_cell_volume 2768.362649
_symmetry_space_group_name_H-M "C 2 2 21"
_symmetry_group_IT_number 20
_symmetry_cell_setting 'orthorhombic'
loop_
_space_group_symop_operation_xyz
x,y,z
-x,-y,1/2+z
x,-y,-z
-x,y,1/2-z
1/2+x,1/2+y,z
1/2-x,1/2-y,1/2+z
1/2+x,1/2-y,-z
1/2-x,1/2+y,1/2-z
loop_
_atom_site_type_symbol
_atom_site_label
_atom_site_fract_x
_atom_site_fract_y
_atom_site_fract_z
Si Si1 0.225362 0.201641 0.266241
Si Si2 0.390061 0.274267 0.897447
Si Si3 0.406633 0.233691 0.321505
Si Si4 0.196793 0.250283 0.452439
Si Si5 0.638858 0.732423 0.209689
Si Si6 0.019654 0.251884 0.943615
Si Si7 0.064398 0.727486 0.366631
O O1 0.258058 0.410739 0.237879
O O2 0.212984 0.261619 0.359817
O O3 0.187149 0.222633 0.204951
O O4 0.351713 0.249113 0.957016
O O5 0.374290 0.274637 0.804288
O O6 0.412831 0.542785 0.915295
O O7 0.420689 0.036691 0.909750
O O8 0.380089 0.487875 0.337288
O O9 0.440087 0.219954 0.391357
O O10 0.427322 0.232868 0.231337
O O11 0.377059 0.991435 0.333718
O O12 0.213512 0.500000 0.500000
O O13 0.213608 0.000000 0.500000
O O14 0.982908 0.235810 0.879057
O O15 0.013785 0.500000 0.000000
O O16 0.021733 0.000000 0.000000
#
# Coordination Sequence:
#
# PCOD8158660 Si02
#       7
#     8   8   8   8   8   8   8
#     4  11  22  39  64  92 119 150 190 238 286 340
#     4   9  19  33  54  83 111 141 180 223 276 345
#     4  10  20  39  60  77 108 149 195 232 270 336
#     4  11  22  36  57  86 122 157 184 222 289 360
#     4   9  19  36  61  85 103 138 187 229 271 332
#     4  12  25  37  53  80 113 149 191 245 294 318
#     4  10  20  36  56  81 110 148 191 231 279 339
#
# _framework density 20.228562
#
# number of rings (size 3 to 8) (size 9 to 14) (size 15 to 20)
#    0.000    1.714    0.000    4.714    0.000    8.000 
#    0.000    5.714    0.000   17.143    0.000    0.000 
#    0.000    0.000    0.000    0.000    0.000    0.000 
#
# Total GULP energy -347310.734912 kJ/mol
# GULP energy per Si atom -12403.954818 kJ/mol
# Density = 2.018252 g / cm^3
# Si number density = 20.228562 Si / 1000 Ang^3
#
#
#
# Elastic Constant Matrix: (Units=GPa)
#
#
# Indices 1 2 3 4 5 6 
#
# 1 107.7857 23.2990 17.4813 0.0000 0.0000 0.0000
# 2 23.2990 138.0556 13.8092 0.0000 0.0000 0.0000
# 3 17.4813 13.8092 45.8227 0.0000 0.0000 0.0000
# 4 0.0000 0.0000 0.0000 19.3396 0.0000 0.0000
# 5 0.0000 0.0000 0.0000 0.0000 24.4786 0.0000
# 6 0.0000 0.0000 0.0000 0.0000 0.0000 24.8941
#
#
#
# Elastic Compliance Matrix: (Units=1/GPa)
#
#
# Indices 1 2 3 4 5 6 
#
# 1 0.010133 -0.001365 -0.003454 0.000000 0.000000 0.000000
# 2 -0.001365 0.007652 -0.001786 0.000000 0.000000 0.000000
# 3 -0.003454 -0.001786 0.023679 0.000000 0.000000 0.000000
# 4 0.000000 0.000000 0.000000 0.051708 0.000000 0.000000
# 5 0.000000 0.000000 0.000000 0.000000 0.040852 0.000000
# 6 0.000000 0.000000 0.000000 0.000000 0.000000 0.040170
#
#
# Mechanical properties :
#
#
# Convention : Reuss Voigt Hill
#
# Bulk Modulus (GPa) = 35.39154 44.53810 39.96482
# Shear Modulus (GPa) = 25.40370 29.54742 27.47556
#
# Velocity S-wave (km/s) = 3.54762 3.82603 3.68945
# Velocity P-wave (km/s) = 5.85787 6.44851 6.16027
#
# Compressibility (1/GPa) = 0.02825534
#
# Stress axis : x y z
#
# Youngs Moduli (GPa) = 98.68844 130.67891 42.23110
#
# Poissons Ratio (x) = 0.17832 0.14589
# Poissons Ratio (y) = 0.13466 0.07541
# Poissons Ratio (z) = 0.34092 0.23333
#
# Static dielectric constant tensor:
#      x y z
#    x 3.697160 0.000000 0.000000 
#    y 0.000000 3.993030 0.000000 
#    z 0.000000 0.000000 3.412650 
# 
# 
# High freq. dielectric constant tensor:
#      x y z
#    x 1.785580 0.000000 0.000000 
#    y 0.000000 1.811630 0.000000 
#    z 0.000000 0.000000 1.774150 
# 
# From -- ./inp_files/22290.got.cif
#   From: 2010.03.12/outbox.cif.g09.slc.cpg/sg20_12_cif.got.tgz:22290.got - 2010.04.14 01:38:04.
