data_PCOD8158974
_publ_section_title
;
Structure prediction by ZEFSAII (Michael W. Deem and Ramdas Pophale) SiO2 
 PCOD8158974
Probable space group: C 2 2 21
;
_chemical_formula_sum "Si O2"
_cell_formula_units_Z 40
_cell_length_a 16.601880
_cell_length_b 7.123637
_cell_length_c 15.512467
_cell_angle_alpha 90.000000
_cell_angle_beta 90.000000
_cell_angle_gamma 90.000000
_cell_volume 1834.593802
_symmetry_space_group_name_H-M "C 2 2 21"
_symmetry_group_IT_number 20
_symmetry_cell_setting 'orthorhombic'
loop_
_space_group_symop_operation_xyz
x,y,z
-x,-y,1/2+z
x,-y,-z
-x,y,1/2-z
1/2+x,1/2+y,z
1/2-x,1/2-y,1/2+z
1/2+x,1/2-y,-z
1/2-x,1/2+y,1/2-z
loop_
_atom_site_type_symbol
_atom_site_label
_atom_site_fract_x
_atom_site_fract_y
_atom_site_fract_z
Si Si1 0.331587 0.357391 0.791054
Si Si2 0.256111 0.511845 0.624419
Si Si3 0.500000 0.785441 0.250000
Si Si4 0.611451 0.500000 0.000000
Si Si5 0.427130 0.872668 0.423077
Si Si6 0.762039 0.876747 0.079090
O O1 0.287630 0.372998 0.699813
O O2 0.426763 0.347884 0.777347
O O3 0.311576 0.549088 0.839366
O O4 0.303206 0.172025 0.843224
O O5 0.331157 0.603028 0.572076
O O6 0.216673 0.345921 0.564037
O O7 0.473925 0.911759 0.332911
O O8 0.557745 0.342875 0.953565
O O9 0.333195 0.911820 0.407311
O O10 0.462602 0.000000 0.500000
O O11 0.794076 0.000000 0.000000
#
# Coordination Sequence:
#
# PCOD8158974 Si02
#       6
#     8   8   4   4   8   8
#     4  12  22  39  64  91 130 159 212 261 317 372
#     4  11  20  38  67  91 116 167 216 261 304 376
#     4  12  24  44  60  98 140 168 204 270 326 390
#     4  10  20  40  70  92 118 172 220 262 312 384
#     4  10  21  43  67  90 129 173 215 263 325 389
#     4  10  21  42  68  94 120 166 221 268 304 381
#
# _framework density 21.803189
#
# number of rings (size 3 to 8) (size 9 to 14) (size 15 to 20)
#    0.000    1.200    6.000    3.600    0.000    0.000 
#    7.200    2.000    0.000    0.000    0.000    0.000 
#    0.000    0.000    0.000    0.000    0.000    0.000 
#
# Total GULP energy -247885.824947 kJ/mol
# GULP energy per Si atom -12394.291247 kJ/mol
# Density = 2.175356 g / cm^3
# Si number density = 21.803189 Si / 1000 Ang^3
#
#
#
# Elastic Constant Matrix: (Units=GPa)
#
#
# Indices 1 2 3 4 5 6 
#
# 1 66.4168 26.1599 20.0233 0.0000 0.0000 0.0000
# 2 26.1599 89.9856 26.6748 0.0000 0.0000 0.0000
# 3 20.0233 26.6748 109.0808 0.0000 0.0000 0.0000
# 4 0.0000 0.0000 0.0000 38.1330 0.0000 0.0000
# 5 0.0000 0.0000 0.0000 0.0000 41.1463 0.0000
# 6 0.0000 0.0000 0.0000 0.0000 0.0000 18.4307
#
#
#
# Elastic Compliance Matrix: (Units=1/GPa)
#
#
# Indices 1 2 3 4 5 6 
#
# 1 0.017445 -0.004444 -0.002115 0.000000 0.000000 0.000000
# 2 -0.004444 0.013114 -0.002391 0.000000 0.000000 0.000000
# 3 -0.002115 -0.002391 0.010141 0.000000 0.000000 0.000000
# 4 0.000000 0.000000 0.000000 0.026224 0.000000 0.000000
# 5 0.000000 0.000000 0.000000 0.000000 0.024304 0.000000
# 6 0.000000 0.000000 0.000000 0.000000 0.000000 0.054257
#
#
# Mechanical properties :
#
#
# Convention : Reuss Voigt Hill
#
# Bulk Modulus (GPa) = 43.86457 45.68879 44.77668
# Shear Modulus (GPa) = 29.24242 32.38366 30.81304
#
# Velocity S-wave (km/s) = 3.66621 3.85810 3.76338
# Velocity P-wave (km/s) = 6.17119 6.39118 6.28215
#
# Compressibility (1/GPa) = 0.02279744
#
# Stress axis : x y z
#
# Youngs Moduli (GPa) = 57.32406 76.25615 98.61414
#
# Poissons Ratio (x) = 0.33891 0.20861
# Poissons Ratio (y) = 0.25477 0.23579
# Poissons Ratio (z) = 0.12126 0.18233
#
# Static dielectric constant tensor:
#      x y z
#    x 3.448430 0.000000 0.000000 
#    y 0.000000 3.995390 0.000000 
#    z 0.000000 0.000000 4.630180 
# 
# 
# High freq. dielectric constant tensor:
#      x y z
#    x 1.803600 0.000000 0.000000 
#    y 0.000000 1.850030 0.000000 
#    z 0.000000 0.000000 1.889210 
# 
# From -- ./inp_files/20518.got.cif
#   From: 2010.03.12/outbox.cif.g09.slc.cpg/sg20_11_cif.got.tgz:20518.got - 2010.04.14 01:38:04.
