data_PCOD8158158
_publ_section_title
;
Structure prediction by ZEFSAII (Michael W. Deem and Ramdas Pophale) SiO2 
 PCOD8158158
Probable space group: C 2 2 21
;
_chemical_formula_sum "Si O2"
_cell_formula_units_Z 52
_cell_length_a 16.339897
_cell_length_b 9.056264
_cell_length_c 18.475107
_cell_angle_alpha 90.000000
_cell_angle_beta 90.000000
_cell_angle_gamma 90.000000
_cell_volume 2733.917161
_symmetry_space_group_name_H-M "C 2 2 21"
_symmetry_group_IT_number 20
_symmetry_cell_setting 'orthorhombic'
loop_
_space_group_symop_operation_xyz
x,y,z
-x,-y,1/2+z
x,-y,-z
-x,y,1/2-z
1/2+x,1/2+y,z
1/2-x,1/2-y,1/2+z
1/2+x,1/2-y,-z
1/2-x,1/2+y,1/2-z
loop_
_atom_site_type_symbol
_atom_site_label
_atom_site_fract_x
_atom_site_fract_y
_atom_site_fract_z
Si Si1 0.000000 0.516555 0.250000
Si Si2 0.728884 0.964991 0.886000
Si Si3 0.641973 0.786193 0.384713
Si Si4 0.960099 0.693284 0.621611
Si Si5 0.707932 0.000000 0.500000
Si Si6 0.284542 0.297083 0.615456
Si Si7 0.828370 0.542375 0.222886
Si Si8 0.396506 0.000000 0.500000
O O1 0.957362 0.421340 0.312674
O O2 0.922288 0.608258 0.218339
O O3 0.807100 0.862430 0.894066
O O4 0.698625 0.971211 0.804654
O O5 0.658917 0.908914 0.941536
O O6 0.746471 0.865185 0.091338
O O7 0.548537 0.728185 0.377139
O O8 0.649634 0.891719 0.454429
O O9 0.671114 0.880051 0.314612
O O10 0.882342 0.801963 0.632433
O O11 0.952431 0.614315 0.543647
O O12 0.768380 0.091003 0.449165
O O13 0.233645 0.345367 0.685615
#
# Coordination Sequence:
#
# PCOD8158158 Si02
#       8
#     4   8   8   8   4   8   8   4
#     4  10  18  36  58  88 112 152 206 242 282 352
#     4  11  20  36  59  87 113 157 192 238 297 348
#     4  10  21  35  62  86 118 152 198 245 293 347
#     4  10  20  35  59  90 115 156 194 250 289 352
#     4  10  21  40  57  88 116 160 196 241 296 349
#     4  10  21  38  61  85 123 154 198 240 293 358
#     4  10  20  35  60  86 117 151 199 240 286 351
#     4  10  19  34  57  82 118 152 200 235 286 363
#
# _framework density 19.020326000000001
#
# number of rings (size 3 to 8) (size 9 to 14) (size 15 to 20)
#    0.000    1.846    3.077    3.231    2.154    0.000 
#    0.000    2.308   10.154    0.000    0.000    0.000 
#    0.000    0.000    0.000    0.000    0.000    0.000 
#
# Total GULP energy -322175.554197 kJ/mol
# GULP energy per Si atom -12391.367469 kJ/mol
# Density = 1.897704 g / cm^3
# Si number density = 19.020326 Si / 1000 Ang^3
#
#
#
# Elastic Constant Matrix: (Units=GPa)
#
#
# Indices 1 2 3 4 5 6 
#
# 1 143.3113 53.5615 33.5732 0.0000 0.0000 0.0000
# 2 53.5615 71.8738 21.1051 0.0000 0.0000 0.0000
# 3 33.5732 21.1051 120.6167 0.0000 0.0000 0.0000
# 4 0.0000 0.0000 0.0000 20.2267 0.0000 0.0000
# 5 0.0000 0.0000 0.0000 0.0000 32.3759 0.0000
# 6 0.0000 0.0000 0.0000 0.0000 0.0000 -15.6066
#
#
#
# Elastic Compliance Matrix: (Units=1/GPa)
#
#
# Indices 1 2 3 4 5 6 
#
# 1 0.009939 -0.006952 -0.001550 0.000000 0.000000 0.000000
# 2 -0.006952 0.019529 -0.001482 0.000000 0.000000 0.000000
# 3 -0.001550 -0.001482 0.008982 0.000000 0.000000 0.000000
# 4 0.000000 0.000000 0.000000 0.049440 0.000000 0.000000
# 5 0.000000 0.000000 0.000000 0.000000 0.030887 0.000000
# 6 0.000000 0.000000 0.000000 0.000000 0.000000 -0.064075
#
#
# Mechanical properties :
#
#
# Convention : Reuss Voigt Hill
#
# Bulk Modulus (GPa) = 54.10728 61.36459 57.73594
# Shear Modulus (GPa) = 61.85872 22.56999 42.21435
#
# Velocity S-wave (km/s) = 5.70903 3.44848 4.71620
# Velocity P-wave (km/s) = 8.48329 6.94181 7.75096
#
# Compressibility (1/GPa) = 0.01848180
#
# Stress axis : x y z
#
# Youngs Moduli (GPa) = 100.61308 51.20608 111.33948
#
# Poissons Ratio (x) = 0.35596 0.17259
# Poissons Ratio (y) = 0.69942 0.16502
# Poissons Ratio (z) = 0.15596 0.07590
#
# Static dielectric constant tensor:
#      x y z
#    x 3.765030 0.000000 0.000000 
#    y 0.000000 3.267870 0.000000 
#    z 0.000000 0.000000 3.810660 
# 
# 
# High freq. dielectric constant tensor:
#      x y z
#    x 1.749400 0.000000 0.000000 
#    y 0.000000 1.692720 0.000000 
#    z 0.000000 0.000000 1.766340 
# 
# From -- ./inp_files/24935.got.cif
#   From: 2010.03.12/outbox.cif.g09.slc.cpg/sg20_13_cif.got.tgz:24935.got - 2010.04.14 01:38:04.
