data_PCOD8158453
_publ_section_title
;
Structure prediction by ZEFSAII (Michael W. Deem and Ramdas Pophale) SiO2 
 PCOD8158453
Probable space group: C 2 2 21
;
_chemical_formula_sum "Si O2"
_cell_formula_units_Z 48
_cell_length_a 14.163862
_cell_length_b 17.352681
_cell_length_c 9.482915
_cell_angle_alpha 90.000000
_cell_angle_beta 90.000000
_cell_angle_gamma 90.000000
_cell_volume 2330.720133
_symmetry_space_group_name_H-M "C 2 2 21"
_symmetry_group_IT_number 20
_symmetry_cell_setting 'orthorhombic'
loop_
_space_group_symop_operation_xyz
x,y,z
-x,-y,1/2+z
x,-y,-z
-x,y,1/2-z
1/2+x,1/2+y,z
1/2-x,1/2-y,1/2+z
1/2+x,1/2-y,-z
1/2-x,1/2+y,1/2-z
loop_
_atom_site_type_symbol
_atom_site_label
_atom_site_fract_x
_atom_site_fract_y
_atom_site_fract_z
Si Si1 0.119711 0.094109 0.358213
Si Si2 0.033768 0.000000 0.000000
Si Si3 0.144650 0.623693 0.482543
Si Si4 0.390587 0.995375 0.225015
Si Si5 0.854914 0.860925 0.541676
Si Si6 0.516107 0.251994 0.591794
Si Si7 0.226090 0.500000 0.000000
O O1 0.144068 0.097752 0.194249
O O2 0.088885 0.177849 0.409915
O O3 0.210009 0.071770 0.451802
O O4 0.034226 0.033211 0.377017
O O5 0.100070 0.928909 0.056994
O O6 0.142204 0.564975 0.610239
O O7 0.132410 0.581134 0.332486
O O8 0.248055 0.662645 0.494950
O O9 0.060339 0.685697 0.494513
O O10 0.500000 0.986772 0.250000
O O11 0.338856 0.974719 0.370118
O O12 0.915849 0.782314 0.530972
O O13 0.500000 0.219965 0.750000
#
# Coordination Sequence:
#
# PCOD8158453 Si02
#       7
#     8   4   8   8   8   8   4
#     4   9  19  36  61  94 125 162 206 260 329 382
#     4   9  16  30  63  90 122 156 199 260 321 376
#     4  11  22  42  64  93 127 166 215 263 317 382
#     4  11  24  41  63  92 126 168 217 263 317 376
#     4  10  19  37  63  94 127 166 207 266 321 379
#     4   9  20  40  62  92 128 168 208 258 325 383
#     4  11  20  40  63  94 124 164 215 266 315 386
#
# _framework density 20.594494000000001
#
# number of rings (size 3 to 8) (size 9 to 14) (size 15 to 20)
#    0.000    2.000    1.667    4.000    0.000    0.000 
#   12.000    0.000    0.000    0.000    0.000    0.000 
#    0.000    0.000    0.000    0.000    0.000    0.000 
#
# Total GULP energy -297493.084996 kJ/mol
# GULP energy per Si atom -12395.545208 kJ/mol
# Density = 2.054762 g / cm^3
# Si number density = 20.594494 Si / 1000 Ang^3
#
#
#
# Elastic Constant Matrix: (Units=GPa)
#
#
# Indices 1 2 3 4 5 6 
#
# 1 156.9066 40.5376 44.4621 0.0000 0.0000 0.0000
# 2 40.5376 84.0487 36.1980 0.0000 0.0000 0.0000
# 3 44.4621 36.1980 81.8605 0.0000 0.0000 0.0000
# 4 0.0000 0.0000 0.0000 20.1004 0.0000 0.0000
# 5 0.0000 0.0000 0.0000 0.0000 37.4052 0.0000
# 6 0.0000 0.0000 0.0000 0.0000 0.0000 36.4715
#
#
#
# Elastic Compliance Matrix: (Units=1/GPa)
#
#
# Indices 1 2 3 4 5 6 
#
# 1 0.007914 -0.002428 -0.003225 0.000000 0.000000 0.000000
# 2 -0.002428 0.015442 -0.005509 0.000000 0.000000 0.000000
# 3 -0.003225 -0.005509 0.016404 0.000000 0.000000 0.000000
# 4 0.000000 0.000000 0.000000 0.049750 0.000000 0.000000
# 5 0.000000 0.000000 0.000000 0.000000 0.026734 0.000000
# 6 0.000000 0.000000 0.000000 0.000000 0.000000 0.027419
#
#
# Mechanical properties :
#
#
# Convention : Reuss Voigt Hill
#
# Bulk Modulus (GPa) = 57.35639 62.80123 60.07881
# Shear Modulus (GPa) = 29.10366 32.23662 30.67014
#
# Velocity S-wave (km/s) = 3.76330 3.96068 3.86325
# Velocity P-wave (km/s) = 6.84062 7.17471 7.00965
#
# Compressibility (1/GPa) = 0.01743485
#
# Stress axis : x y z
#
# Youngs Moduli (GPa) = 126.35177 64.75927 60.96207
#
# Poissons Ratio (x) = 0.15726 0.19660
# Poissons Ratio (y) = 0.30682 0.33586
# Poissons Ratio (z) = 0.40747 0.35678
#
# Static dielectric constant tensor:
#      x y z
#    x 3.972160 0.000000 0.000000 
#    y 0.000000 3.649590 0.000000 
#    z 0.000000 0.000000 3.611000 
# 
# 
# High freq. dielectric constant tensor:
#      x y z
#    x 1.825170 0.000000 0.000000 
#    y 0.000000 1.788830 0.000000 
#    z 0.000000 0.000000 1.784650 
# 
# From -- ./inp_files/8488.got.cif
#   From: 2010.03.12/outbox.cif.g09.slc.cpg/sg20_5_cif.got.tgz:8488.got - 2010.04.14 01:38:04.
