data_PCOD8158834
_publ_section_title
;
Structure prediction by ZEFSAII (Michael W. Deem and Ramdas Pophale) SiO2 
 PCOD8158834
Probable space group: C 2 2 21
;
_chemical_formula_sum "Si O2"
_cell_formula_units_Z 64
_cell_length_a 11.697142
_cell_length_b 19.033067
_cell_length_c 14.092386
_cell_angle_alpha 90.000000
_cell_angle_beta 90.000000
_cell_angle_gamma 90.000000
_cell_volume 3137.422949
_symmetry_space_group_name_H-M "C 2 2 21"
_symmetry_group_IT_number 20
_symmetry_cell_setting 'orthorhombic'
loop_
_space_group_symop_operation_xyz
x,y,z
-x,-y,1/2+z
x,-y,-z
-x,y,1/2-z
1/2+x,1/2+y,z
1/2-x,1/2-y,1/2+z
1/2+x,1/2-y,-z
1/2-x,1/2+y,1/2-z
loop_
_atom_site_type_symbol
_atom_site_label
_atom_site_fract_x
_atom_site_fract_y
_atom_site_fract_z
Si Si1 0.038205 0.504130 0.854749
Si Si2 0.506201 0.685260 0.644225
Si Si3 0.533622 0.886976 0.513743
Si Si4 0.797577 0.282449 0.917687
Si Si5 0.393612 0.357871 0.688543
Si Si6 0.526919 0.423592 0.519806
Si Si7 0.236247 0.075764 0.348497
Si Si8 0.341294 0.791284 0.568890
O O1 0.175514 0.489918 0.853622
O O2 0.000000 0.523309 0.750000
O O3 0.993262 0.567052 0.920860
O O4 0.980164 0.432816 0.890918
O O5 0.500000 0.654156 0.750000
O O6 0.600300 0.747079 0.640969
O O7 0.536035 0.620708 0.576286
O O8 0.383897 0.720134 0.619477
O O9 0.659454 0.852723 0.525449
O O10 0.444620 0.823316 0.507643
O O11 0.697405 0.298646 0.841834
O O12 0.759631 0.227073 0.996849
O O13 0.500000 0.325746 0.750000
O O14 0.439933 0.386977 0.590450
O O15 0.333446 0.420621 0.749224
O O16 0.474918 0.500000 0.500000
O O17 0.652762 0.433628 0.562919
O O18 0.297873 0.151591 0.355361
#
# Coordination Sequence:
#
# PCOD8158834 Si02
#       8
#     8   8   8   8   8   8   8   8
#     4  10  20  40  62  93 125 161 217 266 304 374
#     4  11  23  40  65  95 124 160 214 262 314 383
#     4   9  22  36  62  93 126 161 210 259 317 374
#     4  11  20  40  66  90 130 166 199 263 328 363
#     4  10  22  40  62  94 124 169 213 257 310 382
#     4  11  24  41  60  89 128 164 213 260 304 379
#     4  10  21  38  67  87 118 171 213 253 320 372
#     4  10  20  38  63  90 123 162 203 257 316 386
#
# _framework density 20.398906
#
# number of rings (size 3 to 8) (size 9 to 14) (size 15 to 20)
#    0.000    1.750    2.500    1.500    3.500    5.000 
#    4.500    4.375    0.000    0.000    0.000    0.000 
#    0.000    0.000    0.000    0.000    0.000    0.000 
#
# Total GULP energy -396713.866570 kJ/mol
# GULP energy per Si atom -12397.308330 kJ/mol
# Density = 2.035248 g / cm^3
# Si number density = 20.398906 Si / 1000 Ang^3
#
#
#
# Elastic Constant Matrix: (Units=GPa)
#
#
# Indices 1 2 3 4 5 6 
#
# 1 90.2750 22.3348 41.7778 0.0000 0.0000 0.0000
# 2 22.3348 74.3923 41.6323 0.0000 0.0000 0.0000
# 3 41.7778 41.6323 139.7858 0.0000 0.0000 0.0000
# 4 0.0000 0.0000 0.0000 8.1353 0.0000 0.0000
# 5 0.0000 0.0000 0.0000 0.0000 22.9268 0.0000
# 6 0.0000 0.0000 0.0000 0.0000 0.0000 26.8211
#
#
#
# Elastic Compliance Matrix: (Units=1/GPa)
#
#
# Indices 1 2 3 4 5 6 
#
# 1 0.013122 -0.002094 -0.003298 0.000000 0.000000 0.000000
# 2 -0.002094 0.016465 -0.004278 0.000000 0.000000 0.000000
# 3 -0.003298 -0.004278 0.009414 0.000000 0.000000 0.000000
# 4 0.000000 0.000000 0.000000 0.122921 0.000000 0.000000
# 5 0.000000 0.000000 0.000000 0.000000 0.043617 0.000000
# 6 0.000000 0.000000 0.000000 0.000000 0.000000 0.037284
#
#
# Mechanical properties :
#
#
# Convention : Reuss Voigt Hill
#
# Bulk Modulus (GPa) = 50.86347 57.32701 54.09524
# Shear Modulus (GPa) = 18.60702 24.82385 21.71544
#
# Velocity S-wave (km/s) = 3.02347 3.49222 3.26627
# Velocity P-wave (km/s) = 6.09730 6.66519 6.38756
#
# Compressibility (1/GPa) = 0.01966047
#
# Stress axis : x y z
#
# Youngs Moduli (GPa) = 76.21039 60.73508 106.22931
#
# Poissons Ratio (x) = 0.12717 0.35035
# Poissons Ratio (y) = 0.15957 0.45445
# Poissons Ratio (z) = 0.25135 0.25982
#
# Static dielectric constant tensor:
#      x y z
#    x 3.852880 0.000000 0.000000 
#    y 0.000000 3.509510 0.000000 
#    z 0.000000 0.000000 3.588550 
# 
# 
# High freq. dielectric constant tensor:
#      x y z
#    x 1.804670 0.000000 0.000000 
#    y 0.000000 1.778590 0.000000 
#    z 0.000000 0.000000 1.796520 
# 
# From -- ./inp_files/20272.got.cif
#   From: 2010.03.12/outbox.cif.g09.slc.cpg/sg20_11_cif.got.tgz:20272.got - 2010.04.14 01:38:04.
