data_PCOD8158613
_publ_section_title
;
Structure prediction by ZEFSAII (Michael W. Deem and Ramdas Pophale) SiO2 
 PCOD8158613
Probable space group: C 2 2 21
;
_chemical_formula_sum "Si O2"
_cell_formula_units_Z 44
_cell_length_a 6.593553
_cell_length_b 24.834974
_cell_length_c 13.368965
_cell_angle_alpha 90.000000
_cell_angle_beta 90.000000
_cell_angle_gamma 90.000000
_cell_volume 2189.177609
_symmetry_space_group_name_H-M "C 2 2 21"
_symmetry_group_IT_number 20
_symmetry_cell_setting 'orthorhombic'
loop_
_space_group_symop_operation_xyz
x,y,z
-x,-y,1/2+z
x,-y,-z
-x,y,1/2-z
1/2+x,1/2+y,z
1/2-x,1/2-y,1/2+z
1/2+x,1/2-y,-z
1/2-x,1/2+y,1/2-z
loop_
_atom_site_type_symbol
_atom_site_label
_atom_site_fract_x
_atom_site_fract_y
_atom_site_fract_z
Si Si1 0.369231 0.995167 0.157378
Si Si2 0.000000 0.062894 0.750000
Si Si3 0.941475 0.148517 0.598492
Si Si4 0.400835 0.088782 0.005264
Si Si5 0.871153 0.732700 0.850471
Si Si6 0.178947 0.686921 0.010288
O O1 0.500000 0.012462 0.250000
O O2 0.342052 0.048514 0.093157
O O3 0.162872 0.976967 0.206627
O O4 0.463305 0.945716 0.093331
O O5 0.936971 0.103016 0.839722
O O6 0.804033 0.122169 0.512087
O O7 0.785910 0.183268 0.668494
O O8 0.109572 0.185293 0.548431
O O9 0.587927 0.127744 0.034271
O O10 0.000000 0.744827 0.750000
O O11 0.021915 0.719725 0.941934
O O12 0.730703 0.783173 0.884868
#
# Coordination Sequence:
#
# PCOD8158613 Si02
#       6
#     8   4   8   8   8   8
#     4  10  20  39  60  90 119 155 202 252 309 371
#     4  10  20  34  64  90 112 158 204 254 298 372
#     4  10  20  38  60  90 122 158 209 255 307 372
#     4   9  22  38  60  88 124 155 200 259 311 373
#     4  11  23  39  62  91 125 165 215 262 316 379
#     4  11  21  41  61  88 125 165 202 266 315 377
#
# _framework density 20.098872
#
# number of rings (size 3 to 8) (size 9 to 14) (size 15 to 20)
#    0.000    1.818    1.818    2.182    0.000    6.545 
#    3.273    3.636    0.000    0.000    0.000    0.000 
#    0.000    0.000    0.000    0.000    0.000    0.000 
#
# Total GULP energy -272645.979268 kJ/mol
# GULP energy per Si atom -12392.999058 kJ/mol
# Density = 2.005313 g / cm^3
# Si number density = 20.098872 Si / 1000 Ang^3
#
#
#
# Elastic Constant Matrix: (Units=GPa)
#
#
# Indices 1 2 3 4 5 6 
#
# 1 78.7604 61.4361 49.5457 0.0000 0.0000 0.0000
# 2 61.4361 114.8783 58.9969 0.0000 0.0000 0.0000
# 3 49.5457 58.9969 104.9234 0.0000 0.0000 0.0000
# 4 0.0000 0.0000 0.0000 38.7090 0.0000 0.0000
# 5 0.0000 0.0000 0.0000 0.0000 35.2290 0.0000
# 6 0.0000 0.0000 0.0000 0.0000 0.0000 35.0161
#
#
#
# Elastic Compliance Matrix: (Units=1/GPa)
#
#
# Indices 1 2 3 4 5 6 
#
# 1 0.024058 -0.009887 -0.005801 0.000000 0.000000 0.000000
# 2 -0.009887 0.016302 -0.004498 0.000000 0.000000 0.000000
# 3 -0.005801 -0.004498 0.014799 0.000000 0.000000 0.000000
# 4 0.000000 0.000000 0.000000 0.025834 0.000000 0.000000
# 5 0.000000 0.000000 0.000000 0.000000 0.028386 0.000000
# 6 0.000000 0.000000 0.000000 0.000000 0.000000 0.028558
#
#
# Mechanical properties :
#
#
# Convention : Reuss Voigt Hill
#
# Bulk Modulus (GPa) = 67.62353 70.94662 69.28507
# Shear Modulus (GPa) = 27.28680 30.36303 28.82492
#
# Velocity S-wave (km/s) = 3.68860 3.89097 3.79113
# Velocity P-wave (km/s) = 7.20135 7.45397 7.32875
#
# Compressibility (1/GPa) = 0.01478775
#
# Stress axis : x y z
#
# Youngs Moduli (GPa) = 41.56572 61.34136 67.57114
#
# Poissons Ratio (x) = 0.60648 0.39200
# Poissons Ratio (y) = 0.41096 0.30392
# Poissons Ratio (z) = 0.24113 0.27590
#
# Static dielectric constant tensor:
#      x y z
#    x 3.590110 0.000000 0.000000 
#    y 0.000000 3.708770 0.000000 
#    z 0.000000 0.000000 3.526330 
# 
# 
# High freq. dielectric constant tensor:
#      x y z
#    x 1.785710 0.000000 0.000000 
#    y 0.000000 1.790270 0.000000 
#    z 0.000000 0.000000 1.771280 
# 
# From -- ./inp_files/17721.got.cif
#   From: 2010.03.12/outbox.cif.g09.slc.cpg/sg20_9_cif.got.tgz:17721.got - 2010.04.14 01:38:04.
