data_PCOD8158905
_publ_section_title
;
Structure prediction by ZEFSAII (Michael W. Deem and Ramdas Pophale) SiO2 
 PCOD8158905
Probable space group: C 2 2 21
;
_chemical_formula_sum "Si O2"
_cell_formula_units_Z 48
_cell_length_a 9.032507
_cell_length_b 18.203859
_cell_length_c 14.877787
_cell_angle_alpha 90.000000
_cell_angle_beta 90.000000
_cell_angle_gamma 90.000000
_cell_volume 2446.302204
_symmetry_space_group_name_H-M "C 2 2 21"
_symmetry_group_IT_number 20
_symmetry_cell_setting 'orthorhombic'
loop_
_space_group_symop_operation_xyz
x,y,z
-x,-y,1/2+z
x,-y,-z
-x,y,1/2-z
1/2+x,1/2+y,z
1/2-x,1/2-y,1/2+z
1/2+x,1/2-y,-z
1/2-x,1/2+y,1/2-z
loop_
_atom_site_type_symbol
_atom_site_label
_atom_site_fract_x
_atom_site_fract_y
_atom_site_fract_z
Si Si1 0.023700 0.081463 0.491669
Si Si2 0.676693 0.033548 0.753026
Si Si3 0.644132 0.819813 0.690492
Si Si4 0.877230 0.155636 0.826353
Si Si5 0.203210 0.452895 0.575340
Si Si6 0.857925 0.904744 0.806549
O O1 0.056350 0.125234 0.581782
O O2 0.097703 0.122192 0.406056
O O3 0.849227 0.076457 0.474269
O O4 0.091441 0.000000 0.500000
O O5 0.500000 0.034461 0.750000
O O6 0.735455 0.111511 0.788707
O O7 0.740168 0.010168 0.655348
O O8 0.738653 0.970374 0.819000
O O9 0.500000 0.822116 0.750000
O O10 0.671564 0.738869 0.651240
O O11 0.619190 0.880635 0.612004
O O12 0.786774 0.837699 0.751480
O O13 0.000000 0.152511 0.750000
O O14 0.111353 0.500000 0.500000
O O15 0.000000 0.933652 0.750000
#
# Coordination Sequence:
#
# PCOD8158905 Si02
#       6
#     8   8   8   8   8   8
#     4  11  20  36  69  96 113 161 222 261 302 381
#     4  11  22  40  62  92 132 164 209 267 325 373
#     4  10  23  43  60  89 133 172 204 261 332 369
#     4  11  23  43  64  90 131 173 215 260 317 388
#     4  10  20  39  65  91 119 163 216 261 312 373
#     4  11  19  39  66  89 125 169 216 257 309 381
#
# _framework density 19.621449999999999
#
# number of rings (size 3 to 8) (size 9 to 14) (size 15 to 20)
#    0.000    1.333    5.000    4.500    0.000    0.667 
#   15.000    0.000    0.000    0.000    0.000    0.000 
#    0.000    0.000    0.000    0.000    0.000    0.000 
#
# Total GULP energy -297447.784786 kJ/mol
# GULP energy per Si atom -12393.657699 kJ/mol
# Density = 1.957679 g / cm^3
# Si number density = 19.621450 Si / 1000 Ang^3
#
#
#
# Elastic Constant Matrix: (Units=GPa)
#
#
# Indices 1 2 3 4 5 6 
#
# 1 100.8151 41.9119 28.5329 0.0000 0.0000 0.0000
# 2 41.9119 157.3939 70.9479 0.0000 0.0000 0.0000
# 3 28.5329 70.9479 129.7180 0.0000 0.0000 0.0000
# 4 0.0000 0.0000 0.0000 31.6978 0.0000 0.0000
# 5 0.0000 0.0000 0.0000 0.0000 22.2260 0.0000
# 6 0.0000 0.0000 0.0000 0.0000 0.0000 22.1479
#
#
#
# Elastic Compliance Matrix: (Units=1/GPa)
#
#
# Indices 1 2 3 4 5 6 
#
# 1 0.011274 -0.002501 -0.001112 0.000000 0.000000 0.000000
# 2 -0.002501 0.008987 -0.004365 0.000000 0.000000 0.000000
# 3 -0.001112 -0.004365 0.010341 0.000000 0.000000 0.000000
# 4 0.000000 0.000000 0.000000 0.031548 0.000000 0.000000
# 5 0.000000 0.000000 0.000000 0.000000 0.044992 0.000000
# 6 0.000000 0.000000 0.000000 0.000000 0.000000 0.045151
#
#
# Mechanical properties :
#
#
# Convention : Reuss Voigt Hill
#
# Bulk Modulus (GPa) = 68.27941 74.52360 71.40150
# Shear Modulus (GPa) = 28.87982 31.64995 30.26489
#
# Velocity S-wave (km/s) = 3.84063 4.02061 3.93165
# Velocity P-wave (km/s) = 7.38520 7.72120 7.55507
#
# Compressibility (1/GPa) = 0.01464570
#
# Stress axis : x y z
#
# Youngs Moduli (GPa) = 88.70357 111.26986 96.70044
#
# Poissons Ratio (x) = 0.27826 0.10753
# Poissons Ratio (y) = 0.22182 0.42213
# Poissons Ratio (z) = 0.09864 0.48573
#
# Static dielectric constant tensor:
#      x y z
#    x 3.641580 0.000000 0.000000 
#    y 0.000000 3.808240 0.000000 
#    z 0.000000 0.000000 3.945770 
# 
# 
# High freq. dielectric constant tensor:
#      x y z
#    x 1.753260 0.000000 0.000000 
#    y 0.000000 1.753510 0.000000 
#    z 0.000000 0.000000 1.772630 
# 
# From -- ./inp_files/18844.got.cif
#   From: 2010.03.12/outbox.cif.g09.slc.cpg/sg20_10_cif.got.tgz:18844.got - 2010.04.14 01:38:04.
