data_PCOD8158684
_publ_section_title
;
Structure prediction by ZEFSAII (Michael W. Deem and Ramdas Pophale) SiO2 
 PCOD8158684
Probable space group: C 2 2 21
;
_chemical_formula_sum "Si O2"
_cell_formula_units_Z 48
_cell_length_a 19.959574
_cell_length_b 8.181292
_cell_length_c 14.478636
_cell_angle_alpha 90.000000
_cell_angle_beta 90.000000
_cell_angle_gamma 90.000000
_cell_volume 2364.290358
_symmetry_space_group_name_H-M "C 2 2 21"
_symmetry_group_IT_number 20
_symmetry_cell_setting 'orthorhombic'
loop_
_space_group_symop_operation_xyz
x,y,z
-x,-y,1/2+z
x,-y,-z
-x,y,1/2-z
1/2+x,1/2+y,z
1/2-x,1/2-y,1/2+z
1/2+x,1/2-y,-z
1/2-x,1/2+y,1/2-z
loop_
_atom_site_type_symbol
_atom_site_label
_atom_site_fract_x
_atom_site_fract_y
_atom_site_fract_z
Si Si1 0.820084 0.015951 0.188947
Si Si2 0.895950 0.217499 0.942383
Si Si3 0.426712 0.917828 0.764920
Si Si4 0.295916 0.888066 0.191976
Si Si5 0.507048 0.500000 0.000000
Si Si6 0.434436 0.585633 0.688620
Si Si7 0.309693 0.000000 0.000000
O O1 0.797831 0.198562 0.165232
O O2 0.875531 0.022503 0.268650
O O3 0.849155 0.929395 0.096942
O O4 0.756736 0.913518 0.226152
O O5 0.929686 0.314932 0.859008
O O6 0.853924 0.336835 0.006825
O O7 0.957260 0.155343 0.005183
O O8 0.500000 0.002021 0.750000
O O9 0.413700 0.779071 0.685863
O O10 0.368080 0.051089 0.769930
O O11 0.271587 0.990392 0.099268
O O12 0.554847 0.488875 0.087816
O O13 0.500000 0.561783 0.750000
#
# Coordination Sequence:
#
# PCOD8158684 Si02
#       7
#     8   8   8   8   4   8   4
#     4  11  22  42  60  92 125 171 207 259 321 378
#     4  10  20  36  61  88 126 156 215 249 308 374
#     4   9  17  38  56  87 122 161 200 256 311 368
#     4  11  23  38  66  85 125 169 207 262 321 370
#     4  12  18  35  64  90 121 176 204 266 314 369
#     4  10  20  36  59  89 125 159 207 259 313 370
#     4  10  22  37  58  98 115 164 218 256 298 391
#
# _framework density 20.302076
#
# number of rings (size 3 to 8) (size 9 to 14) (size 15 to 20)
#    0.000    1.667    5.000    4.000    0.000    1.333 
#    3.000    0.000    0.000    2.000    0.000    0.000 
#    0.000    0.000    0.000    0.000    0.000    0.000 
#
# Total GULP energy -297453.856636 kJ/mol
# GULP energy per Si atom -12393.910693 kJ/mol
# Density = 2.025587 g / cm^3
# Si number density = 20.302076 Si / 1000 Ang^3
#
#
#
# Elastic Constant Matrix: (Units=GPa)
#
#
# Indices 1 2 3 4 5 6 
#
# 1 77.8742 19.9474 20.1441 0.0000 0.0000 0.0000
# 2 19.9474 89.1984 19.1714 0.0000 0.0000 0.0000
# 3 20.1441 19.1714 82.2627 0.0000 0.0000 0.0000
# 4 0.0000 0.0000 0.0000 27.7248 0.0000 0.0000
# 5 0.0000 0.0000 0.0000 0.0000 30.3974 0.0000
# 6 0.0000 0.0000 0.0000 0.0000 0.0000 29.6998
#
#
#
# Elastic Compliance Matrix: (Units=1/GPa)
#
#
# Indices 1 2 3 4 5 6 
#
# 1 0.014246 -0.002564 -0.002891 0.000000 0.000000 0.000000
# 2 -0.002564 0.012264 -0.002230 0.000000 0.000000 0.000000
# 3 -0.002891 -0.002230 0.013384 0.000000 0.000000 0.000000
# 4 0.000000 0.000000 0.000000 0.036069 0.000000 0.000000
# 5 0.000000 0.000000 0.000000 0.000000 0.032898 0.000000
# 6 0.000000 0.000000 0.000000 0.000000 0.000000 0.033670
#
#
# Mechanical properties :
#
#
# Convention : Reuss Voigt Hill
#
# Bulk Modulus (GPa) = 40.77859 40.87344 40.82601
# Shear Modulus (GPa) = 30.10687 30.23590 30.17138
#
# Velocity S-wave (km/s) = 3.85508 3.86333 3.85921
# Velocity P-wave (km/s) = 6.32021 6.33062 6.32542
#
# Compressibility (1/GPa) = 0.02452267
#
# Stress axis : x y z
#
# Youngs Moduli (GPa) = 70.19566 81.54095 74.71722
#
# Poissons Ratio (x) = 0.20911 0.21599
# Poissons Ratio (y) = 0.18002 0.16663
# Poissons Ratio (z) = 0.20292 0.18184
#
# Static dielectric constant tensor:
#      x y z
#    x 3.832060 0.000000 0.000000 
#    y 0.000000 3.743760 0.000000 
#    z 0.000000 0.000000 4.713760 
# 
# 
# High freq. dielectric constant tensor:
#      x y z
#    x 1.782960 0.000000 0.000000 
#    y 0.000000 1.789050 0.000000 
#    z 0.000000 0.000000 1.785790 
# 
# From -- ./inp_files/21664.got.cif
#   From: 2010.03.12/outbox.cif.g09.slc.cpg/sg20_11_cif.got.tgz:21664.got - 2010.04.14 01:38:04.
