data_PCOD8158022
_publ_section_title
;
Structure prediction by ZEFSAII (Michael W. Deem and Ramdas Pophale) SiO2 
 PCOD8158022
Probable space group: C 2 2 21
;
_chemical_formula_sum "Si O2"
_cell_formula_units_Z 52
_cell_length_a 13.662531
_cell_length_b 11.804825
_cell_length_c 17.314222
_cell_angle_alpha 90.000000
_cell_angle_beta 90.000000
_cell_angle_gamma 90.000000
_cell_volume 2792.503302
_symmetry_space_group_name_H-M "C 2 2 21"
_symmetry_group_IT_number 20
_symmetry_cell_setting 'orthorhombic'
loop_
_space_group_symop_operation_xyz
x,y,z
-x,-y,1/2+z
x,-y,-z
-x,y,1/2-z
1/2+x,1/2+y,z
1/2-x,1/2-y,1/2+z
1/2+x,1/2-y,-z
1/2-x,1/2+y,1/2-z
loop_
_atom_site_type_symbol
_atom_site_label
_atom_site_fract_x
_atom_site_fract_y
_atom_site_fract_z
Si Si1 0.500000 0.193548 0.750000
Si Si2 0.387003 0.367106 0.517094
Si Si3 0.035185 0.345289 0.959356
Si Si4 0.930032 0.161302 0.120842
Si Si5 0.331156 0.224098 0.018067
Si Si6 0.684957 0.545324 0.585704
Si Si7 0.603899 0.948949 0.119958
O O1 0.573251 0.275793 0.702987
O O2 0.443450 0.112670 0.691925
O O3 0.398569 0.500000 0.500000
O O4 0.429105 0.285984 0.448093
O O5 0.457886 0.336424 0.589327
O O6 0.273048 0.336989 0.530392
O O7 0.918291 0.363638 0.964961
O O8 0.066742 0.421587 0.887230
O O9 0.085236 0.383914 0.039685
O O10 0.897638 0.030156 0.127817
O O11 0.849952 0.226079 0.067699
O O12 0.347703 0.324585 0.079786
O O13 0.708278 0.500000 0.500000
O O14 0.781619 0.542252 0.637505
#
# Coordination Sequence:
#
# PCOD8158022 Si02
#       7
#     4   8   8   8   8   8   8
#     4  12  22  38  56  84 130 164 204 252 320 370
#     4  11  20  34  59  93 120 149 203 266 299 349
#     4  10  19  36  55  89 112 154 202 249 300 352
#     4  10  21  36  57  86 122 165 196 245 311 379
#     4  10  18  32  58  88 115 141 202 256 301 340
#     4  10  17  36  63  85 108 155 204 250 296 362
#     4  11  20  37  61  82 120 160 199 251 304 375
#
# _framework density 18.621285
#
# number of rings (size 3 to 8) (size 9 to 14) (size 15 to 20)
#    0.000    1.538    6.154    3.231    2.154    0.000 
#    0.000    4.615    0.000    3.692    0.000    0.000 
#    0.000    0.000    0.000    0.000    0.000    0.000 
#
# Total GULP energy -322126.711923 kJ/mol
# GULP energy per Si atom -12389.488920 kJ/mol
# Density = 1.857890 g / cm^3
# Si number density = 18.621285 Si / 1000 Ang^3
#
#
#
# Elastic Constant Matrix: (Units=GPa)
#
#
# Indices 1 2 3 4 5 6 
#
# 1 118.5392 33.3709 23.9247 0.0000 0.0000 0.0000
# 2 33.3709 127.8398 46.4457 0.0000 0.0000 0.0000
# 3 23.9247 46.4457 72.8755 0.0000 0.0000 0.0000
# 4 0.0000 0.0000 0.0000 29.7518 0.0000 0.0000
# 5 0.0000 0.0000 0.0000 0.0000 14.9735 0.0000
# 6 0.0000 0.0000 0.0000 0.0000 0.0000 38.1294
#
#
#
# Elastic Compliance Matrix: (Units=1/GPa)
#
#
# Indices 1 2 3 4 5 6 
#
# 1 0.009316 -0.001719 -0.001963 0.000000 0.000000 0.000000
# 2 -0.001719 0.010496 -0.006125 0.000000 0.000000 0.000000
# 3 -0.001963 -0.006125 0.018270 0.000000 0.000000 0.000000
# 4 0.000000 0.000000 0.000000 0.033611 0.000000 0.000000
# 5 0.000000 0.000000 0.000000 0.000000 0.066785 0.000000
# 6 0.000000 0.000000 0.000000 0.000000 0.000000 0.026226
#
#
# Mechanical properties :
#
#
# Convention : Reuss Voigt Hill
#
# Bulk Modulus (GPa) = 54.14605 58.52634 56.33620
# Shear Modulus (GPa) = 26.25006 30.93850 28.59428
#
# Velocity S-wave (km/s) = 3.75864 4.08052 3.92289
# Velocity P-wave (km/s) = 6.92656 7.32795 7.13008
#
# Compressibility (1/GPa) = 0.01846857
#
# Stress axis : x y z
#
# Youngs Moduli (GPa) = 107.34156 95.27129 54.73335
#
# Poissons Ratio (x) = 0.16374 0.10745
# Poissons Ratio (y) = 0.18448 0.33526
# Poissons Ratio (z) = 0.21072 0.58358
#
# Static dielectric constant tensor:
#      x y z
#    x 3.565340 0.000000 0.000000 
#    y 0.000000 3.889720 0.000000 
#    z 0.000000 0.000000 2.973540 
# 
# 
# High freq. dielectric constant tensor:
#      x y z
#    x 1.734480 0.000000 0.000000 
#    y 0.000000 1.743460 0.000000 
#    z 0.000000 0.000000 1.654800 
# 
# From -- ./inp_files/24928.got.cif
#   From: 2010.03.12/outbox.cif.g09.slc.cpg/sg20_13_cif.got.tgz:24928.got - 2010.04.14 01:38:04.
