data_PCOD8158478
_publ_section_title
;
Structure prediction by ZEFSAII (Michael W. Deem and Ramdas Pophale) SiO2 
 PCOD8158478
Probable space group: C 2 2 21
;
_chemical_formula_sum "Si O2"
_cell_formula_units_Z 64
_cell_length_a 17.902636
_cell_length_b 14.870824
_cell_length_c 11.931215
_cell_angle_alpha 90.000000
_cell_angle_beta 90.000000
_cell_angle_gamma 90.000000
_cell_volume 3176.410968
_symmetry_space_group_name_H-M "C 2 2 21"
_symmetry_group_IT_number 20
_symmetry_cell_setting 'orthorhombic'
loop_
_space_group_symop_operation_xyz
x,y,z
-x,-y,1/2+z
x,-y,-z
-x,y,1/2-z
1/2+x,1/2+y,z
1/2-x,1/2-y,1/2+z
1/2+x,1/2-y,-z
1/2-x,1/2+y,1/2-z
loop_
_atom_site_type_symbol
_atom_site_label
_atom_site_fract_x
_atom_site_fract_y
_atom_site_fract_z
Si Si1 0.711348 0.934008 0.101670
Si Si2 0.286173 0.252816 0.139882
Si Si3 0.085233 0.634490 0.744284
Si Si4 0.355343 0.681613 0.277574
Si Si5 0.081600 0.846904 0.240527
Si Si6 0.851535 0.097883 0.521446
Si Si7 0.184076 0.598645 0.535027
Si Si8 0.638059 0.489975 0.634685
O O1 0.746038 0.835003 0.069610
O O2 0.635769 0.925308 0.172517
O O3 0.777492 0.983193 0.171178
O O4 0.690863 0.000000 0.000000
O O5 0.228368 0.222171 0.238210
O O6 0.360845 0.282116 0.200194
O O7 0.313418 0.171162 0.063710
O O8 0.083458 0.739652 0.776299
O O9 0.122960 0.631222 0.623030
O O10 0.000000 0.598181 0.750000
O O11 0.352854 0.646151 0.403402
O O12 0.375753 0.610776 0.180044
O O13 0.096401 0.851045 0.108311
O O14 0.000000 0.803873 0.250000
O O15 0.081349 0.944837 0.300396
O O16 0.769317 0.090891 0.579281
O O17 0.885280 0.000000 0.500000
O O18 0.156373 0.500000 0.500000
O O19 0.627847 0.500000 0.500000
#
# Coordination Sequence:
#
# PCOD8158478 Si02
#       8
#     8   8   8   8   8   8   8   8
#     4   9  20  39  65  92 119 157 211 262 308 356
#     4   9  21  40  64  96 118 159 217 261 313 364
#     4  11  25  40  57  91 133 166 207 253 316 388
#     4  10  21  39  66  91 122 166 215 271 309 358
#     4  11  23  39  58  91 136 167 197 249 317 395
#     4  10  19  38  63  91 120 158 218 262 304 367
#     4  10  22  40  68  88 117 164 216 270 305 361
#     4  10  21  38  66  95 120 163 216 264 315 364
#
# _framework density 20.148526
#
# number of rings (size 3 to 8) (size 9 to 14) (size 15 to 20)
#    0.000    2.000    1.250    2.250    8.750    2.500 
#    4.500    0.625    0.000    0.000    0.000    0.000 
#    0.000    0.000    0.000    0.000    0.000    0.000 
#
# Total GULP energy -396575.417433 kJ/mol
# GULP energy per Si atom -12392.981795 kJ/mol
# Density = 2.010267 g / cm^3
# Si number density = 20.148526 Si / 1000 Ang^3
#
#
#
# Elastic Constant Matrix: (Units=GPa)
#
#
# Indices 1 2 3 4 5 6 
#
# 1 101.6917 9.4803 41.5038 0.0000 0.0000 0.0000
# 2 9.4803 82.7968 30.0640 0.0000 0.0000 0.0000
# 3 41.5038 30.0640 96.3643 0.0000 0.0000 0.0000
# 4 0.0000 0.0000 0.0000 32.6479 0.0000 0.0000
# 5 0.0000 0.0000 0.0000 0.0000 59.5486 0.0000
# 6 0.0000 0.0000 0.0000 0.0000 0.0000 6.1505
#
#
#
# Elastic Compliance Matrix: (Units=1/GPa)
#
#
# Indices 1 2 3 4 5 6 
#
# 1 0.011954 0.000565 -0.005325 0.000000 0.000000 0.000000
# 2 0.000565 0.013647 -0.004501 0.000000 0.000000 0.000000
# 3 -0.005325 -0.004501 0.014075 0.000000 0.000000 0.000000
# 4 0.000000 0.000000 0.000000 0.030630 0.000000 0.000000
# 5 0.000000 0.000000 0.000000 0.000000 0.016793 0.000000
# 6 0.000000 0.000000 0.000000 0.000000 0.000000 0.162587
#
#
# Mechanical properties :
#
#
# Convention : Reuss Voigt Hill
#
# Bulk Modulus (GPa) = 47.27156 49.21655 48.24406
# Shear Modulus (GPa) = 18.16463 32.98972 25.57717
#
# Velocity S-wave (km/s) = 3.00582 4.05078 3.56677
# Velocity P-wave (km/s) = 5.96314 6.80869 6.39990
#
# Compressibility (1/GPa) = 0.02115437
#
# Stress axis : x y z
#
# Youngs Moduli (GPa) = 83.65224 73.27379 71.04833
#
# Poissons Ratio (x) = -0.04138 0.37832
# Poissons Ratio (y) = -0.04724 0.31979
# Poissons Ratio (z) = 0.44544 0.32981
#
# Static dielectric constant tensor:
#      x y z
#    x 3.574400 0.000000 0.000000 
#    y 0.000000 3.305150 0.000000 
#    z 0.000000 0.000000 3.601920 
# 
# 
# High freq. dielectric constant tensor:
#      x y z
#    x 1.770840 0.000000 0.000000 
#    y 0.000000 1.791660 0.000000 
#    z 0.000000 0.000000 1.779610 
# 
# From -- ./inp_files/15905.got.cif
#   From: 2010.03.12/outbox.cif.g09.slc.cpg/sg20_8_cif.got.tgz:15905.got - 2010.04.14 01:38:04.
