data_PCOD8158494
_publ_section_title
;
Structure prediction by ZEFSAII (Michael W. Deem and Ramdas Pophale) SiO2 
 PCOD8158494
Probable space group: C 2 2 21
;
_chemical_formula_sum "Si O2"
_cell_formula_units_Z 52
_cell_length_a 8.363997
_cell_length_b 11.824096
_cell_length_c 26.007325
_cell_angle_alpha 90.000000
_cell_angle_beta 90.000000
_cell_angle_gamma 90.000000
_cell_volume 2572.038709
_symmetry_space_group_name_H-M "C 2 2 21"
_symmetry_group_IT_number 20
_symmetry_cell_setting 'orthorhombic'
loop_
_space_group_symop_operation_xyz
x,y,z
-x,-y,1/2+z
x,-y,-z
-x,y,1/2-z
1/2+x,1/2+y,z
1/2-x,1/2-y,1/2+z
1/2+x,1/2-y,-z
1/2-x,1/2+y,1/2-z
loop_
_atom_site_type_symbol
_atom_site_label
_atom_site_fract_x
_atom_site_fract_y
_atom_site_fract_z
Si Si1 0.495949 0.500000 0.000000
Si Si2 0.215537 0.070991 0.686543
Si Si3 0.500000 0.276158 0.250000
Si Si4 0.775118 0.577711 0.572260
Si Si5 0.517981 0.267409 0.982521
Si Si6 0.000000 0.661486 0.750000
Si Si7 0.722536 0.687363 0.314499
Si Si8 0.186852 0.681968 0.071470
O O1 0.390539 0.569455 0.958431
O O2 0.595343 0.395793 0.974339
O O3 0.252541 0.118320 0.630338
O O4 0.366439 0.082603 0.724513
O O5 0.066986 0.143496 0.705699
O O6 0.161769 0.940918 0.683525
O O7 0.365707 0.195908 0.273809
O O8 0.893833 0.669872 0.548731
O O9 0.849052 0.451828 0.571135
O O10 0.335337 0.279108 0.964303
O O11 0.532404 0.237357 0.043715
O O12 0.074380 0.737215 0.704316
O O13 0.783002 0.726968 0.370821
#
# Coordination Sequence:
#
# PCOD8158494 Si02
#       8
#     4   8   4   8   8   4   8   8
#     4  10  22  36  56  84 116 150 184 246 280 336
#     4  10  21  36  62  82 115 152 184 235 284 337
#     4  10  22  36  60  86 112 148 190 236 282 334
#     4  10  19  39  60  82 114 156 185 229 295 333
#     4  11  19  39  57  82 118 147 190 234 279 344
#     4  10  20  38  58  84 116 148 186 236 284 334
#     4  10  21  38  57  87 112 146 193 233 284 339
#     4  10  22  36  62  83 116 155 189 237 286 340
#
# _framework density 20.217424999999999
#
# number of rings (size 3 to 8) (size 9 to 14) (size 15 to 20)
#    0.000    1.846    3.077    1.846    2.154    0.000 
#    2.769    0.000    3.385    0.000    0.000    0.000 
#    0.000    0.000    0.000    0.000    0.000    0.000 
#
# Total GULP energy -322188.153854 kJ/mol
# GULP energy per Si atom -12391.852071 kJ/mol
# Density = 2.017141 g / cm^3
# Si number density = 20.217425 Si / 1000 Ang^3
#
#
#
# Elastic Constant Matrix: (Units=GPa)
#
#
# Indices 1 2 3 4 5 6 
#
# 1 35.3589 21.6223 12.2484 0.0000 0.0000 0.0000
# 2 21.6223 90.2524 27.4619 0.0000 0.0000 0.0000
# 3 12.2484 27.4619 110.5008 0.0000 0.0000 0.0000
# 4 0.0000 0.0000 0.0000 17.2752 0.0000 0.0000
# 5 0.0000 0.0000 0.0000 0.0000 19.7966 0.0000
# 6 0.0000 0.0000 0.0000 0.0000 0.0000 20.5046
#
#
#
# Elastic Compliance Matrix: (Units=1/GPa)
#
#
# Indices 1 2 3 4 5 6 
#
# 1 0.033485 -0.007457 -0.001858 0.000000 0.000000 0.000000
# 2 -0.007457 0.013647 -0.002565 0.000000 0.000000 0.000000
# 3 -0.001858 -0.002565 0.009893 0.000000 0.000000 0.000000
# 4 0.000000 0.000000 0.000000 0.057887 0.000000 0.000000
# 5 0.000000 0.000000 0.000000 0.000000 0.050514 0.000000
# 6 0.000000 0.000000 0.000000 0.000000 0.000000 0.048770
#
#
# Mechanical properties :
#
#
# Convention : Reuss Voigt Hill
#
# Bulk Modulus (GPa) = 30.06189 39.86417 34.96303
# Shear Modulus (GPa) = 20.07678 23.16723 21.62201
#
# Velocity S-wave (km/s) = 3.15468 3.38879 3.27383
# Velocity P-wave (km/s) = 5.30763 5.92220 5.62331
#
# Compressibility (1/GPa) = 0.03326471
#
# Stress axis : x y z
#
# Youngs Moduli (GPa) = 29.86410 73.27629 101.07978
#
# Poissons Ratio (x) = 0.54640 0.18785
# Poissons Ratio (y) = 0.22269 0.25927
# Poissons Ratio (z) = 0.05550 0.18796
#
# Static dielectric constant tensor:
#      x y z
#    x 3.375780 0.000000 0.000000 
#    y 0.000000 3.892050 0.000000 
#    z 0.000000 0.000000 3.951430 
# 
# 
# High freq. dielectric constant tensor:
#      x y z
#    x 1.760600 0.000000 0.000000 
#    y 0.000000 1.803420 0.000000 
#    z 0.000000 0.000000 1.802160 
# 
# From -- ./inp_files/30136.got.cif
#   From: 2010.03.12/outbox.cif.g09.slc.cpg/sg20_16_cif.got.tgz:30136.got - 2010.04.14 01:38:04.
