data_PCOD8158142
_publ_section_title
;
Structure prediction by ZEFSAII (Michael W. Deem and Ramdas Pophale) SiO2 
 PCOD8158142
Probable space group: C 2 2 21
;
_chemical_formula_sum "Si O2"
_cell_formula_units_Z 60
_cell_length_a 27.687748
_cell_length_b 17.450300
_cell_length_c 6.163029
_cell_angle_alpha 90.000000
_cell_angle_beta 90.000000
_cell_angle_gamma 90.000000
_cell_volume 2977.726065
_symmetry_space_group_name_H-M "C 2 2 21"
_symmetry_group_IT_number 20
_symmetry_cell_setting 'orthorhombic'
loop_
_space_group_symop_operation_xyz
x,y,z
-x,-y,1/2+z
x,-y,-z
-x,y,1/2-z
1/2+x,1/2+y,z
1/2-x,1/2-y,1/2+z
1/2+x,1/2-y,-z
1/2-x,1/2+y,1/2-z
loop_
_atom_site_type_symbol
_atom_site_label
_atom_site_fract_x
_atom_site_fract_y
_atom_site_fract_z
Si Si1 0.204775 0.322149 0.936451
Si Si2 0.393669 0.310638 0.815331
Si Si3 0.893815 0.500000 0.500000
Si Si4 0.133844 0.079599 0.920731
Si Si5 0.545730 0.579693 0.616644
Si Si6 0.691167 0.316109 0.356196
Si Si7 0.666463 0.070342 0.382197
Si Si8 0.113801 0.643074 0.769468
O O1 0.191701 0.238499 0.852468
O O2 0.206736 0.374288 0.719138
O O3 0.256341 0.325574 0.046342
O O4 0.164445 0.349902 0.102958
O O5 0.376794 0.360188 0.611162
O O6 0.413020 0.226185 0.738315
O O7 0.435531 0.355333 0.947667
O O8 0.346796 0.290360 0.960401
O O9 0.862772 0.469814 0.694821
O O10 0.919607 0.422876 0.394362
O O11 0.085069 0.060469 0.795212
O O12 0.173414 0.104839 0.745615
O O13 0.155595 0.000000 0.000000
O O14 0.531762 0.500000 0.500000
O O15 0.500000 0.612583 0.750000
O O16 0.627650 0.116246 0.527927
O O17 0.693767 0.000000 0.500000
#
# Coordination Sequence:
#
# PCOD8158142 Si02
#       8
#     8   8   4   8   8   8   8   8
#     4  11  21  35  55  77 106 156 215 252 309 366
#     4  11  22  39  60  87 118 163 200 259 314 369
#     4   8  18  30  54  80 110 148 192 238 302 358
#     4  11  23  43  61  84 122 160 209 257 316 377
#     4  11  24  40  67  94 119 164 204 249 319 394
#     4  11  24  35  57  79 108 159 213 262 308 376
#     4   9  18  34  53  75 107 147 191 251 305 349
#     4  10  18  35  56  81 115 159 201 258 306 358
#
# _framework density 20.149602000000002
#
# number of rings (size 3 to 8) (size 9 to 14) (size 15 to 20)
#    0.000    1.600    4.000    1.200    0.000    0.000 
#    0.000   12.000    0.000    0.000    0.000    0.000 
#    0.000    0.000  102.000    0.000    0.533    0.800 
#
# Total GULP energy -371646.970642 kJ/mol
# GULP energy per Si atom -12388.232355 kJ/mol
# Density = 2.010374 g / cm^3
# Si number density = 20.149602 Si / 1000 Ang^3
#
#
#
# Elastic Constant Matrix: (Units=GPa)
#
#
# Indices 1 2 3 4 5 6 
#
# 1 34.3671 13.2699 12.0773 0.0000 0.0000 0.0000
# 2 13.2699 144.3273 41.3286 0.0000 0.0000 0.0000
# 3 12.0773 41.3286 97.7016 0.0000 0.0000 0.0000
# 4 0.0000 0.0000 0.0000 47.7987 0.0000 0.0000
# 5 0.0000 0.0000 0.0000 0.0000 25.5324 0.0000
# 6 0.0000 0.0000 0.0000 0.0000 0.0000 16.8132
#
#
#
# Elastic Compliance Matrix: (Units=1/GPa)
#
#
# Indices 1 2 3 4 5 6 
#
# 1 0.030913 -0.001989 -0.002980 0.000000 0.000000 0.000000
# 2 -0.001989 0.008012 -0.003143 0.000000 0.000000 0.000000
# 3 -0.002980 -0.003143 0.011933 0.000000 0.000000 0.000000
# 4 0.000000 0.000000 0.000000 0.020921 0.000000 0.000000
# 5 0.000000 0.000000 0.000000 0.000000 0.039166 0.000000
# 6 0.000000 0.000000 0.000000 0.000000 0.000000 0.059477
#
#
# Mechanical properties :
#
#
# Convention : Reuss Voigt Hill
#
# Bulk Modulus (GPa) = 28.87367 45.52752 37.20059
# Shear Modulus (GPa) = 25.22828 32.01019 28.61924
#
# Velocity S-wave (km/s) = 3.54227 3.99008 3.77283
# Velocity P-wave (km/s) = 5.57593 6.62355 6.12219
#
# Compressibility (1/GPa) = 0.03463363
#
# Stress axis : x y z
#
# Youngs Moduli (GPa) = 32.34910 124.81892 83.79998
#
# Poissons Ratio (x) = 0.24825 0.24972
# Poissons Ratio (y) = 0.06434 0.26339
# Poissons Ratio (z) = 0.09640 0.39232
#
# Static dielectric constant tensor:
#      x y z
#    x 3.080200 0.000000 0.000000 
#    y 0.000000 4.324140 0.000000 
#    z 0.000000 0.000000 4.162550 
# 
# 
# High freq. dielectric constant tensor:
#      x y z
#    x 1.719600 0.000000 0.000000 
#    y 0.000000 1.811040 0.000000 
#    z 0.000000 0.000000 1.817420 
# 
# From -- ./inp_files/4328.got.cif
#   From: 2010.03.12/outbox.cif.g09.slc.cpg/sg20_3_cif.got.tgz:4328.got - 2010.04.14 01:38:04.
