data_PCOD8158338
_publ_section_title
;
Structure prediction by ZEFSAII (Michael W. Deem and Ramdas Pophale) SiO2 
 PCOD8158338
Probable space group: C 2 2 21
;
_chemical_formula_sum "Si O2"
_cell_formula_units_Z 56
_cell_length_a 14.346370
_cell_length_b 12.564735
_cell_length_c 14.807518
_cell_angle_alpha 90.000000
_cell_angle_beta 90.000000
_cell_angle_gamma 90.000000
_cell_volume 2669.178574
_symmetry_space_group_name_H-M "C 2 2 21"
_symmetry_group_IT_number 20
_symmetry_cell_setting 'orthorhombic'
loop_
_space_group_symop_operation_xyz
x,y,z
-x,-y,1/2+z
x,-y,-z
-x,y,1/2-z
1/2+x,1/2+y,z
1/2-x,1/2-y,1/2+z
1/2+x,1/2-y,-z
1/2-x,1/2+y,1/2-z
loop_
_atom_site_type_symbol
_atom_site_label
_atom_site_fract_x
_atom_site_fract_y
_atom_site_fract_z
Si Si1 0.425613 0.764214 0.827262
Si Si2 0.296129 0.619591 0.477759
Si Si3 0.016795 0.214785 0.002042
Si Si4 0.124069 0.587837 0.942644
Si Si5 0.223357 0.261034 0.191035
Si Si6 0.348087 0.206636 0.884250
Si Si7 0.545614 0.001282 0.654258
O O1 0.500000 0.759988 0.750000
O O2 0.331188 0.711922 0.791156
O O3 0.408612 0.885625 0.859397
O O4 0.460789 0.695046 0.910740
O O5 0.261738 0.500000 0.500000
O O6 0.408951 0.619259 0.489501
O O7 0.281859 0.657321 0.373798
O O8 0.236527 0.701844 0.542241
O O9 0.939639 0.228256 0.081480
O O10 0.085552 0.316472 0.996213
O O11 0.178003 0.635485 0.856473
O O12 0.037313 0.514542 0.915558
O O13 0.185470 0.500000 0.000000
O O14 0.179667 0.237215 0.289502
O O15 0.372806 0.085009 0.863286
O O16 0.500000 0.020584 0.750000
#
# Coordination Sequence:
#
# PCOD8158338 Si02
#       7
#     8   8   8   8   8   8   8
#     4  11  21  37  62  92 130 164 210 263 328 384
#     4  11  24  43  69  96 130 181 228 263 327 411
#     4  10  22  38  66  93 129 167 214 274 327 380
#     4  10  19  35  59  93 126 157 209 269 327 378
#     4  11  23  40  64  98 132 166 222 273 331 391
#     4  11  22  39  68  94 132 166 216 276 334 385
#     4  10  19  34  61  96 122 161 210 264 322 386
#
# _framework density 20.980238
#
# number of rings (size 3 to 8) (size 9 to 14) (size 15 to 20)
#    0.000    1.429    4.286    1.714    0.000    0.000 
#    0.000    0.714   12.571    0.000    0.000    0.000 
#    0.000    0.000    0.000    0.000    0.000    0.000 
#
# Total GULP energy -346944.731331 kJ/mol
# GULP energy per Si atom -12390.883262 kJ/mol
# Density = 2.093249 g / cm^3
# Si number density = 20.980238 Si / 1000 Ang^3
#
#
#
# Elastic Constant Matrix: (Units=GPa)
#
#
# Indices 1 2 3 4 5 6 
#
# 1 100.2218 21.1278 4.7138 0.0000 0.0000 0.0000
# 2 21.1278 48.6096 28.2988 0.0000 0.0000 0.0000
# 3 4.7138 28.2988 70.6844 0.0000 0.0000 0.0000
# 4 0.0000 0.0000 0.0000 18.4163 0.0000 0.0000
# 5 0.0000 0.0000 0.0000 0.0000 22.6977 0.0000
# 6 0.0000 0.0000 0.0000 0.0000 0.0000 25.4385
#
#
#
# Elastic Compliance Matrix: (Units=1/GPa)
#
#
# Indices 1 2 3 4 5 6 
#
# 1 0.011114 -0.005736 0.001555 0.000000 0.000000 0.000000
# 2 -0.005736 0.029784 -0.011542 0.000000 0.000000 0.000000
# 3 0.001555 -0.011542 0.018664 0.000000 0.000000 0.000000
# 4 0.000000 0.000000 0.000000 0.054300 0.000000 0.000000
# 5 0.000000 0.000000 0.000000 0.000000 0.044057 0.000000
# 6 0.000000 0.000000 0.000000 0.000000 0.000000 0.039311
#
#
# Mechanical properties :
#
#
# Convention : Reuss Voigt Hill
#
# Bulk Modulus (GPa) = 35.56473 36.42186 35.99330
# Shear Modulus (GPa) = 21.00416 24.33551 22.66984
#
# Velocity S-wave (km/s) = 3.16751 3.40946 3.29071
# Velocity P-wave (km/s) = 5.51052 5.73559 5.62418
#
# Compressibility (1/GPa) = 0.02811774
#
# Stress axis : x y z
#
# Youngs Moduli (GPa) = 89.97716 33.57460 53.57773
#
# Poissons Ratio (x) = 0.19258 -0.08333
# Poissons Ratio (y) = 0.51611 0.61838
# Poissons Ratio (z) = -0.13994 0.38751
#
# Static dielectric constant tensor:
#      x y z
#    x 4.125110 0.000000 0.000000 
#    y 0.000000 3.661270 0.000000 
#    z 0.000000 0.000000 3.905050 
# 
# 
# High freq. dielectric constant tensor:
#      x y z
#    x 1.828920 0.000000 0.000000 
#    y 0.000000 1.783550 0.000000 
#    z 0.000000 0.000000 1.832290 
# 
# From -- ./inp_files/20760.got.cif
#   From: 2010.03.12/outbox.cif.g09.slc.cpg/sg20_11_cif.got.tgz:20760.got - 2010.04.14 01:38:04.
