data_PCOD8158998
_publ_section_title
;
Structure prediction by ZEFSAII (Michael W. Deem and Ramdas Pophale) SiO2 
 PCOD8158998
Probable space group: C 2 2 21
;
_chemical_formula_sum "Si O2"
_cell_formula_units_Z 64
_cell_length_a 16.905997
_cell_length_b 13.028644
_cell_length_c 13.849731
_cell_angle_alpha 90.000000
_cell_angle_beta 90.000000
_cell_angle_gamma 90.000000
_cell_volume 3050.572446
_symmetry_space_group_name_H-M "C 2 2 21"
_symmetry_group_IT_number 20
_symmetry_cell_setting 'orthorhombic'
loop_
_space_group_symop_operation_xyz
x,y,z
-x,-y,1/2+z
x,-y,-z
-x,y,1/2-z
1/2+x,1/2+y,z
1/2-x,1/2-y,1/2+z
1/2+x,1/2-y,-z
1/2-x,1/2+y,1/2-z
loop_
_atom_site_type_symbol
_atom_site_label
_atom_site_fract_x
_atom_site_fract_y
_atom_site_fract_z
Si Si1 0.329387 0.317517 0.149612
Si Si2 0.085020 0.840000 0.741753
Si Si3 0.451032 0.887035 0.527535
Si Si4 0.158414 0.341411 0.804141
Si Si5 0.601922 0.242545 0.533268
Si Si6 0.265707 0.664248 0.573585
Si Si7 0.843274 0.263371 0.405584
Si Si8 0.784113 0.002374 0.267550
O O1 0.370541 0.227242 0.213066
O O2 0.237293 0.290926 0.146506
O O3 0.331352 0.431072 0.192610
O O4 0.374040 0.326106 0.047698
O O5 0.095045 0.799802 0.634311
O O6 0.089050 0.751584 0.823643
O O7 0.155552 0.906592 0.784595
O O8 0.000000 0.895439 0.750000
O O9 0.421181 0.874456 0.638266
O O10 0.521680 0.810253 0.501373
O O11 0.373654 0.861627 0.464584
O O12 0.480350 0.000000 0.500000
O O13 0.218398 0.267016 0.863162
O O14 0.202582 0.446969 0.771455
O O15 0.674828 0.162942 0.537744
O O16 0.325762 0.669124 0.481688
O O17 0.273835 0.559137 0.632690
#
# Coordination Sequence:
#
# PCOD8158998 Si02
#       8
#     8   8   8   8   8   8   8   8
#     4  10  22  41  67  92 125 176 215 276 320 383
#     4  12  23  42  64  94 129 173 213 270 329 399
#     4  11  24  40  64  98 129 172 219 273 341 398
#     4  10  20  41  65  94 131 163 222 273 329 389
#     4  11  23  43  62  91 137 169 216 272 338 383
#     4   9  21  40  68  95 125 171 217 273 325 390
#     4  10  20  43  66  91 131 167 212 276 333 380
#     4  11  21  41  68  98 124 171 231 260 325 411
#
# _framework density 20.979668
#
# number of rings (size 3 to 8) (size 9 to 14) (size 15 to 20)
#    0.000    1.500    3.750    1.500    0.000    2.500 
#    6.750    2.500    0.000    0.000    0.000    0.000 
#    0.000    0.000    0.000    0.000    0.000    0.000 
#
# Total GULP energy -396537.346295 kJ/mol
# GULP energy per Si atom -12391.792072 kJ/mol
# Density = 2.093192 g / cm^3
# Si number density = 20.979668 Si / 1000 Ang^3
#
#
#
# Elastic Constant Matrix: (Units=GPa)
#
#
# Indices 1 2 3 4 5 6 
#
# 1 76.4665 4.0570 25.9949 0.0000 0.0000 0.0000
# 2 4.0570 53.4001 10.3521 0.0000 0.0000 0.0000
# 3 25.9949 10.3521 113.0521 0.0000 0.0000 0.0000
# 4 0.0000 0.0000 0.0000 21.7983 0.0000 0.0000
# 5 0.0000 0.0000 0.0000 0.0000 25.1741 0.0000
# 6 0.0000 0.0000 0.0000 0.0000 0.0000 18.0659
#
#
#
# Elastic Compliance Matrix: (Units=1/GPa)
#
#
# Indices 1 2 3 4 5 6 
#
# 1 0.014197 -0.000454 -0.003223 0.000000 0.000000 0.000000
# 2 -0.000454 0.019080 -0.001643 0.000000 0.000000 0.000000
# 3 -0.003223 -0.001643 0.009737 0.000000 0.000000 0.000000
# 4 0.000000 0.000000 0.000000 0.045875 0.000000 0.000000
# 5 0.000000 0.000000 0.000000 0.000000 0.039723 0.000000
# 6 0.000000 0.000000 0.000000 0.000000 0.000000 0.055353
#
#
# Mechanical properties :
#
#
# Convention : Reuss Voigt Hill
#
# Bulk Modulus (GPa) = 30.88820 35.96962 33.42891
# Shear Modulus (GPa) = 24.34322 26.50863 25.42593
#
# Velocity S-wave (km/s) = 3.41005 3.55849 3.48506
# Velocity P-wave (km/s) = 5.50086 5.83661 5.67122
#
# Compressibility (1/GPa) = 0.03237482
#
# Stress axis : x y z
#
# Youngs Moduli (GPa) = 70.43574 52.41225 102.70128
#
# Poissons Ratio (x) = 0.02379 0.33100
# Poissons Ratio (y) = 0.03196 0.16871
# Poissons Ratio (z) = 0.22701 0.08610
#
# Static dielectric constant tensor:
#      x y z
#    x 3.701660 0.000000 0.000000 
#    y 0.000000 3.698540 0.000000 
#    z 0.000000 0.000000 4.108340 
# 
# 
# High freq. dielectric constant tensor:
#      x y z
#    x 1.814360 0.000000 0.000000 
#    y 0.000000 1.799830 0.000000 
#    z 0.000000 0.000000 1.844710 
# 
# From -- ./inp_files/21482.got.cif
#   From: 2010.03.12/outbox.cif.g09.slc.cpg/sg20_11_cif.got.tgz:21482.got - 2010.04.14 01:38:04.
