data_PCOD8158669
_publ_section_title
;
Structure prediction by ZEFSAII (Michael W. Deem and Ramdas Pophale) SiO2 
 PCOD8158669
Probable space group: C 2 2 21
;
_chemical_formula_sum "Si O2"
_cell_formula_units_Z 64
_cell_length_a 8.941024
_cell_length_b 23.579657
_cell_length_c 15.104939
_cell_angle_alpha 90.000000
_cell_angle_beta 90.000000
_cell_angle_gamma 90.000000
_cell_volume 3184.518086
_symmetry_space_group_name_H-M "C 2 2 21"
_symmetry_group_IT_number 20
_symmetry_cell_setting 'orthorhombic'
loop_
_space_group_symop_operation_xyz
x,y,z
-x,-y,1/2+z
x,-y,-z
-x,y,1/2-z
1/2+x,1/2+y,z
1/2-x,1/2-y,1/2+z
1/2+x,1/2-y,-z
1/2-x,1/2+y,1/2-z
loop_
_atom_site_type_symbol
_atom_site_label
_atom_site_fract_x
_atom_site_fract_y
_atom_site_fract_z
Si Si1 0.924049 0.870579 0.843328
Si Si2 0.073845 0.368380 0.839123
Si Si3 0.069601 0.237399 0.156944
Si Si4 0.063219 0.065654 0.008400
Si Si5 0.447701 0.346790 0.352540
Si Si6 0.370817 0.827597 0.082999
Si Si7 0.402962 0.065719 0.018637
Si Si8 0.891723 0.735030 0.097980
O O1 0.749306 0.862814 0.827953
O O2 0.000000 0.887652 0.750000
O O3 0.999589 0.816310 0.895431
O O4 0.945593 0.919019 0.915882
O O5 0.000000 0.390475 0.750000
O O6 0.023164 0.415374 0.909336
O O7 0.017158 0.305712 0.862694
O O8 0.247543 0.235727 0.161132
O O9 0.000000 0.221257 0.250000
O O10 0.014250 0.299029 0.128073
O O11 0.035938 0.096882 0.913449
O O12 0.230751 0.076816 0.046432
O O13 0.036145 0.000000 0.000000
O O14 0.500000 0.356941 0.250000
O O15 0.273464 0.327413 0.352932
O O16 0.543528 0.298338 0.401896
O O17 0.424440 0.892137 0.065155
O O18 0.336225 0.788915 0.996502
O O19 0.434673 0.000000 0.000000
#
# Coordination Sequence:
#
# PCOD8158669 Si02
#       8
#     8   8   8   8   8   8   8   8
#     4  11  22  37  60  88 120 154 197 249 303 366
#     4  11  21  36  59  87 116 150 193 243 300 363
#     4  11  21  35  54  82 115 146 183 231 286 347
#     4  10  22  41  62  84 116 159 206 255 308 366
#     4  11  22  37  58  89 123 159 203 254 313 374
#     4  10  20  36  57  82 115 156 195 239 296 359
#     4   9  20  39  60  81 112 153 198 244 294 351
#     4  11  21  35  58  85 118 155 194 239 297 364
#
# _framework density 20.097231000000001
#
# number of rings (size 3 to 8) (size 9 to 14) (size 15 to 20)
#    0.000    1.500    0.000    7.875    0.000    4.000 
#    0.000    1.875    0.000    0.000    0.000    0.000 
#    0.000    0.000    0.000    0.000    0.000    0.000 
#
# Total GULP energy -396561.116147 kJ/mol
# GULP energy per Si atom -12392.534880 kJ/mol
# Density = 2.005149 g / cm^3
# Si number density = 20.097231 Si / 1000 Ang^3
#
#
#
# Elastic Constant Matrix: (Units=GPa)
#
#
# Indices 1 2 3 4 5 6 
#
# 1 136.4551 46.0889 43.7570 0.0000 0.0000 0.0000
# 2 46.0889 135.8254 36.9034 0.0000 0.0000 0.0000
# 3 43.7570 36.9034 94.0422 0.0000 0.0000 0.0000
# 4 0.0000 0.0000 0.0000 16.3887 0.0000 0.0000
# 5 0.0000 0.0000 0.0000 0.0000 34.2878 0.0000
# 6 0.0000 0.0000 0.0000 0.0000 0.0000 22.4125
#
#
#
# Elastic Compliance Matrix: (Units=1/GPa)
#
#
# Indices 1 2 3 4 5 6 
#
# 1 0.009157 -0.002182 -0.003404 0.000000 0.000000 0.000000
# 2 -0.002182 0.008761 -0.002423 0.000000 0.000000 0.000000
# 3 -0.003404 -0.002423 0.013168 0.000000 0.000000 0.000000
# 4 0.000000 0.000000 0.000000 0.061018 0.000000 0.000000
# 5 0.000000 0.000000 0.000000 0.000000 0.029165 0.000000
# 6 0.000000 0.000000 0.000000 0.000000 0.000000 0.044618
#
#
# Mechanical properties :
#
#
# Convention : Reuss Voigt Hill
#
# Bulk Modulus (GPa) = 66.36591 68.86903 67.61747
# Shear Modulus (GPa) = 26.74823 30.58935 28.66879
#
# Velocity S-wave (km/s) = 3.65216 3.90560 3.78101
# Velocity P-wave (km/s) = 7.13292 7.39463 7.26495
#
# Compressibility (1/GPa) = 0.01506798
#
# Stress axis : x y z
#
# Youngs Moduli (GPa) = 109.20376 114.14086 75.94050
#
# Poissons Ratio (x) = 0.24909 0.25853
# Poissons Ratio (y) = 0.23831 0.18397
# Poissons Ratio (z) = 0.37177 0.27651
#
# Static dielectric constant tensor:
#      x y z
#    x 3.593120 0.000000 0.000000 
#    y 0.000000 3.699900 0.000000 
#    z 0.000000 0.000000 3.805600 
# 
# 
# High freq. dielectric constant tensor:
#      x y z
#    x 1.789760 0.000000 0.000000 
#    y 0.000000 1.783740 0.000000 
#    z 0.000000 0.000000 1.777810 
# 
# From -- ./inp_files/19352.got.cif
#   From: 2010.03.12/outbox.cif.g09.slc.cpg/sg20_10_cif.got.tgz:19352.got - 2010.04.14 01:38:04.
