data_PCOD8158598
_publ_section_title
;
Structure prediction by ZEFSAII (Michael W. Deem and Ramdas Pophale) SiO2 
 PCOD8158598
Probable space group: C 2 2 21
;
_chemical_formula_sum "Si O2"
_cell_formula_units_Z 48
_cell_length_a 8.252913
_cell_length_b 14.469060
_cell_length_c 19.668850
_cell_angle_alpha 90.000000
_cell_angle_beta 90.000000
_cell_angle_gamma 90.000000
_cell_volume 2348.694619
_symmetry_space_group_name_H-M "C 2 2 21"
_symmetry_group_IT_number 20
_symmetry_cell_setting 'orthorhombic'
loop_
_space_group_symop_operation_xyz
x,y,z
-x,-y,1/2+z
x,-y,-z
-x,y,1/2-z
1/2+x,1/2+y,z
1/2-x,1/2-y,1/2+z
1/2+x,1/2-y,-z
1/2-x,1/2+y,1/2-z
loop_
_atom_site_type_symbol
_atom_site_label
_atom_site_fract_x
_atom_site_fract_y
_atom_site_fract_z
Si Si1 0.500000 0.037628 0.250000
Si Si2 0.241426 0.817364 0.797396
Si Si3 0.386602 0.316396 0.844241
Si Si4 0.301305 0.688602 0.914547
Si Si5 0.472185 0.000000 0.000000
Si Si6 0.198030 0.500584 0.125171
Si Si7 0.440514 0.799941 0.031733
O O1 0.634112 0.098220 0.289829
O O2 0.591600 0.975499 0.193018
O O3 0.194580 0.775318 0.723929
O O4 0.327333 0.740888 0.843479
O O5 0.074764 0.844559 0.835369
O O6 0.304939 0.411436 0.862706
O O7 0.349948 0.240647 0.902202
O O8 0.321848 0.581062 0.895631
O O9 0.127808 0.697063 0.949834
O O10 0.428300 0.729396 0.968458
O O11 0.372251 0.904232 0.015132
O O12 0.578209 0.025631 0.064747
#
# Coordination Sequence:
#
# PCOD8158598 Si02
#       7
#     4   8   8   8   4   8   8
#     4  10  20  36  58  82 110 146 184 228 270 324
#     4   9  19  35  55  78 110 145 183 225 272 324
#     4   9  18  35  56  79 109 146 180 224 277 328
#     4  10  21  37  56  82 112 145 184 227 274 327
#     4  10  20  34  56  82 106 140 188 230 274 328
#     4  10  20  35  58  82 110 145 184 228 277 329
#     4  10  20  35  56  78 109 145 183 229 274 326
#
# _framework density 20.436885
#
# number of rings (size 3 to 8) (size 9 to 14) (size 15 to 20)
#    0.000    2.333    0.000    3.000    0.000    5.333 
#    0.000   10.000    0.000    1.000    0.000    0.000 
#    0.000    0.000    0.000    0.000    0.000    0.000 
#
# Total GULP energy -297391.397492 kJ/mol
# GULP energy per Si atom -12391.308229 kJ/mol
# Density = 2.039037 g / cm^3
# Si number density = 20.436885 Si / 1000 Ang^3
#
#
#
# Elastic Constant Matrix: (Units=GPa)
#
#
# Indices 1 2 3 4 5 6 
#
# 1 25.1514 15.4185 22.6972 0.0000 0.0000 0.0000
# 2 15.4185 106.6655 73.5677 0.0000 0.0000 0.0000
# 3 22.6972 73.5677 143.5055 0.0000 0.0000 0.0000
# 4 0.0000 0.0000 0.0000 37.4506 0.0000 0.0000
# 5 0.0000 0.0000 0.0000 0.0000 28.3434 0.0000
# 6 0.0000 0.0000 0.0000 0.0000 0.0000 -0.4723
#
#
#
# Elastic Compliance Matrix: (Units=1/GPa)
#
#
# Indices 1 2 3 4 5 6 
#
# 1 0.046830 -0.002569 -0.006090 0.000000 0.000000 0.000000
# 2 -0.002569 0.014644 -0.007101 0.000000 0.000000 0.000000
# 3 -0.006090 -0.007101 0.011572 0.000000 0.000000 0.000000
# 4 0.000000 0.000000 0.000000 0.026702 0.000000 0.000000
# 5 0.000000 0.000000 0.000000 0.000000 0.035282 0.000000
# 6 0.000000 0.000000 0.000000 0.000000 0.000000 -2.117228
#
#
# Mechanical properties :
#
#
# Convention : Reuss Voigt Hill
#
# Bulk Modulus (GPa) = 24.08124 55.40989 39.74557
# Shear Modulus (GPa) = -2.58153 23.97360 10.69604
#
# Velocity S-wave (km/s) = -1.12513 3.42871 2.29021
# Velocity P-wave (km/s) = 3.18134 6.54570 5.14622
#
# Compressibility (1/GPa) = 0.04152610
#
# Stress axis : x y z
#
# Youngs Moduli (GPa) = 21.35397 68.28753 86.41739
#
# Poissons Ratio (x) = 0.17544 0.52625
# Poissons Ratio (y) = 0.05486 0.61364
# Poissons Ratio (z) = 0.13004 0.48490
#
# Static dielectric constant tensor:
#      x y z
#    x 3.536080 0.000000 0.000000 
#    y 0.000000 3.843020 0.000000 
#    z 0.000000 0.000000 4.418850 
# 
# 
# High freq. dielectric constant tensor:
#      x y z
#    x 1.770570 0.000000 0.000000 
#    y 0.000000 1.787230 0.000000 
#    z 0.000000 0.000000 1.826760 
# 
# From -- ./inp_files/23496.got.cif
#   From: 2010.03.12/outbox.cif.g09.slc.cpg/sg20_12_cif.got.tgz:23496.got - 2010.04.14 01:38:04.
