data_PCOD8158982
_publ_section_title
;
Structure prediction by ZEFSAII (Michael W. Deem and Ramdas Pophale) SiO2 
 PCOD8158982
Probable space group: C 2 2 21
;
_chemical_formula_sum "Si O2"
_cell_formula_units_Z 36
_cell_length_a 12.152577
_cell_length_b 7.525899
_cell_length_c 21.317168
_cell_angle_alpha 90.000000
_cell_angle_beta 90.000000
_cell_angle_gamma 90.000000
_cell_volume 1949.648298
_symmetry_space_group_name_H-M "C 2 2 21"
_symmetry_group_IT_number 20
_symmetry_cell_setting 'orthorhombic'
loop_
_space_group_symop_operation_xyz
x,y,z
-x,-y,1/2+z
x,-y,-z
-x,y,1/2-z
1/2+x,1/2+y,z
1/2-x,1/2-y,1/2+z
1/2+x,1/2-y,-z
1/2-x,1/2+y,1/2-z
loop_
_atom_site_type_symbol
_atom_site_label
_atom_site_fract_x
_atom_site_fract_y
_atom_site_fract_z
Si Si1 0.866753 0.435970 0.348966
Si Si2 0.646606 0.264798 0.357464
Si Si3 0.000000 0.360645 0.750000
Si Si4 0.700224 0.578580 0.433600
Si Si5 0.567336 0.931646 0.432585
O O1 0.775472 0.281987 0.335869
O O2 0.911179 0.513022 0.283803
O O3 0.808913 0.594013 0.389568
O O4 0.966051 0.360280 0.391134
O O5 0.565167 0.265393 0.298063
O O6 0.616446 0.436450 0.400540
O O7 0.632849 0.084749 0.396200
O O8 0.737219 0.500000 0.500000
O O9 0.649671 0.770224 0.442771
O O10 0.525987 0.000000 0.500000
#
# Coordination Sequence:
#
# PCOD8158982 Si02
#       5
#     8   8   4   8   8
#     4   9  22  39  58  87 119 152 199 247 283 358
#     4   9  22  41  58  87 121 154 196 250 289 345
#     4  10  20  42  62  80 120 164 198 242 296 346
#     4  10  20  41  60  93 120 147 203 247 293 366
#     4  11  19  37  64  85 121 158 185 243 309 347
#
# _framework density 18.464867000000002
#
# number of rings (size 3 to 8) (size 9 to 14) (size 15 to 20)
#    1.333    0.889    2.222    0.667    0.000    3.556 
#   12.000    2.222    0.000    0.000    0.000    0.000 
#    0.000    0.000    0.000    0.000    0.000    0.000 
#
# Total GULP energy -223041.680045 kJ/mol
# GULP energy per Si atom -12391.204447 kJ/mol
# Density = 1.842284 g / cm^3
# Si number density = 18.464867 Si / 1000 Ang^3
#
#
#
# Elastic Constant Matrix: (Units=GPa)
#
#
# Indices 1 2 3 4 5 6 
#
# 1 86.4352 26.6513 35.4411 0.0000 0.0000 0.0000
# 2 26.6513 77.3251 33.0983 0.0000 0.0000 0.0000
# 3 35.4411 33.0983 118.4156 0.0000 0.0000 0.0000
# 4 0.0000 0.0000 0.0000 26.8154 0.0000 0.0000
# 5 0.0000 0.0000 0.0000 0.0000 32.6986 0.0000
# 6 0.0000 0.0000 0.0000 0.0000 0.0000 22.4598
#
#
#
# Elastic Compliance Matrix: (Units=1/GPa)
#
#
# Indices 1 2 3 4 5 6 
#
# 1 0.013945 -0.003430 -0.003215 0.000000 0.000000 0.000000
# 2 -0.003430 0.015534 -0.003315 0.000000 0.000000 0.000000
# 3 -0.003215 -0.003315 0.010334 0.000000 0.000000 0.000000
# 4 0.000000 0.000000 0.000000 0.037292 0.000000 0.000000
# 5 0.000000 0.000000 0.000000 0.000000 0.030582 0.000000
# 6 0.000000 0.000000 0.000000 0.000000 0.000000 0.044524
#
#
# Mechanical properties :
#
#
# Convention : Reuss Voigt Hill
#
# Bulk Modulus (GPa) = 50.27184 52.50637 51.38911
# Shear Modulus (GPa) = 27.97007 28.86044 28.41525
#
# Velocity S-wave (km/s) = 3.89623 3.95776 3.92711
# Velocity P-wave (km/s) = 6.89388 7.02728 6.96090
#
# Compressibility (1/GPa) = 0.01989185
#
# Stress axis : x y z
#
# Youngs Moduli (GPa) = 71.70880 64.37598 96.77116
#
# Poissons Ratio (x) = 0.22083 0.31111
# Poissons Ratio (y) = 0.24599 0.32081
# Poissons Ratio (z) = 0.23054 0.21342
#
# Static dielectric constant tensor:
#      x y z
#    x 3.325110 0.000000 0.000000 
#    y 0.000000 3.128990 0.000000 
#    z 0.000000 0.000000 3.531250 
# 
# 
# High freq. dielectric constant tensor:
#      x y z
#    x 1.709970 0.000000 0.000000 
#    y 0.000000 1.691690 0.000000 
#    z 0.000000 0.000000 1.732200 
# 
# From -- ./inp_files/26430.got.cif
#   From: 2010.03.12/outbox.cif.g09.slc.cpg/sg20_14_cif.got.tgz:26430.got - 2010.04.14 01:38:04.
