data_PCOD8158917
_publ_section_title
;
Structure prediction by ZEFSAII (Michael W. Deem and Ramdas Pophale) SiO2 
 PCOD8158917
Probable space group: C 2 2 21
;
_chemical_formula_sum "Si O2"
_cell_formula_units_Z 60
_cell_length_a 14.989459
_cell_length_b 8.382745
_cell_length_c 22.692031
_cell_angle_alpha 90.000000
_cell_angle_beta 90.000000
_cell_angle_gamma 90.000000
_cell_volume 2851.317516
_symmetry_space_group_name_H-M "C 2 2 21"
_symmetry_group_IT_number 20
_symmetry_cell_setting 'orthorhombic'
loop_
_space_group_symop_operation_xyz
x,y,z
-x,-y,1/2+z
x,-y,-z
-x,y,1/2-z
1/2+x,1/2+y,z
1/2-x,1/2-y,1/2+z
1/2+x,1/2-y,-z
1/2-x,1/2+y,1/2-z
loop_
_atom_site_type_symbol
_atom_site_label
_atom_site_fract_x
_atom_site_fract_y
_atom_site_fract_z
Si Si1 0.065872 0.046154 0.824435
Si Si2 0.368166 0.372138 0.449935
Si Si3 0.686189 0.250006 0.257625
Si Si4 0.000000 0.222848 0.250000
Si Si5 0.181747 0.259660 0.418677
Si Si6 0.441873 0.317324 0.019453
Si Si7 0.654172 0.898803 0.302418
Si Si8 0.868230 0.922090 0.133968
O O1 0.071141 0.879270 0.788882
O O2 0.961538 0.074342 0.831957
O O3 0.114395 0.036766 0.887811
O O4 0.107550 0.185921 0.784699
O O5 0.346783 0.500000 0.500000
O O6 0.281640 0.258373 0.445424
O O7 0.455576 0.264262 0.466930
O O8 0.778631 0.267428 0.223662
O O9 0.698527 0.343769 0.319386
O O10 0.669034 0.066380 0.271413
O O11 0.054256 0.337373 0.293487
O O12 0.106360 0.285604 0.468972
O O13 0.170493 0.406306 0.373035
O O14 0.166821 0.094924 0.384253
O O15 0.379612 0.308074 0.077171
O O16 0.449526 0.500000 0.000000
#
# Coordination Sequence:
#
# PCOD8158917 Si02
#       8
#     8   8   8   4   8   8   8   8
#     4  11  20  40  72  95 135 178 223 273 345 412
#     4  10  22  37  68  99 129 180 232 275 350 412
#     4  12  24  43  65 101 138 179 230 279 343 419
#     4  12  24  42  66 104 136 176 216 284 344 408
#     4  11  20  42  67  98 136 175 235 289 341 414
#     4   8  19  38  63  94 125 176 229 269 338 412
#     4  12  27  40  66 100 138 179 229 282 346 406
#     4  10  20  39  68  95 130 179 223 279 344 402
#
# _framework density 21.042904
#
# number of rings (size 3 to 8) (size 9 to 14) (size 15 to 20)
#    0.000    1.333    4.000    2.400    1.867    1.067 
#    0.000    0.000    0.000    8.800    0.000    0.000 
#    0.000    0.000    0.000    0.000    0.000    0.000 
#
# Total GULP energy -371892.783481 kJ/mol
# GULP energy per Si atom -12396.426116 kJ/mol
# Density = 2.099501 g / cm^3
# Si number density = 21.042904 Si / 1000 Ang^3
#
#
#
# Elastic Constant Matrix: (Units=GPa)
#
#
# Indices 1 2 3 4 5 6 
#
# 1 122.7181 32.8833 56.4807 0.0000 0.0000 0.0000
# 2 32.8833 79.6113 41.7050 0.0000 0.0000 0.0000
# 3 56.4807 41.7050 147.6587 0.0000 0.0000 0.0000
# 4 0.0000 0.0000 0.0000 28.6360 0.0000 0.0000
# 5 0.0000 0.0000 0.0000 0.0000 40.8030 0.0000
# 6 0.0000 0.0000 0.0000 0.0000 0.0000 28.5334
#
#
#
# Elastic Compliance Matrix: (Units=1/GPa)
#
#
# Indices 1 2 3 4 5 6 
#
# 1 0.010321 -0.002576 -0.003220 0.000000 0.000000 0.000000
# 2 -0.002576 0.015385 -0.003360 0.000000 0.000000 0.000000
# 3 -0.003220 -0.003360 0.008953 0.000000 0.000000 0.000000
# 4 0.000000 0.000000 0.000000 0.034921 0.000000 0.000000
# 5 0.000000 0.000000 0.000000 0.000000 0.024508 0.000000
# 6 0.000000 0.000000 0.000000 0.000000 0.000000 0.035047
#
#
# Mechanical properties :
#
#
# Convention : Reuss Voigt Hill
#
# Bulk Modulus (GPa) = 61.17475 68.01402 64.59439
# Shear Modulus (GPa) = 32.70167 34.18908 33.44537
#
# Velocity S-wave (km/s) = 3.94642 4.03517 3.99104
# Velocity P-wave (km/s) = 7.06400 7.35540 7.21117
#
# Compressibility (1/GPa) = 0.01634661
#
# Stress axis : x y z
#
# Youngs Moduli (GPa) = 96.88785 64.99714 111.69193
#
# Poissons Ratio (x) = 0.16744 0.35969
# Poissons Ratio (y) = 0.24960 0.37529
# Poissons Ratio (z) = 0.31201 0.21839
#
# Static dielectric constant tensor:
#      x y z
#    x 3.931500 0.000000 0.000000 
#    y 0.000000 3.367830 0.000000 
#    z 0.000000 0.000000 4.302110 
# 
# 
# High freq. dielectric constant tensor:
#      x y z
#    x 1.829140 0.000000 0.000000 
#    y 0.000000 1.783200 0.000000 
#    z 0.000000 0.000000 1.851300 
# 
# From -- ./inp_files/29291.got.cif
#   From: 2010.03.12/outbox.cif.g09.slc.cpg/sg20_15_cif.got.tgz:29291.got - 2010.04.14 01:38:04.
