data_PCOD8158278
_publ_section_title
;
Structure prediction by ZEFSAII (Michael W. Deem and Ramdas Pophale) SiO2 
 PCOD8158278
Probable space group: C 2 2 21
;
_chemical_formula_sum "Si O2"
_cell_formula_units_Z 64
_cell_length_a 23.786511
_cell_length_b 16.260701
_cell_length_c 8.775912
_cell_angle_alpha 90.000000
_cell_angle_beta 90.000000
_cell_angle_gamma 90.000000
_cell_volume 3394.394135
_symmetry_space_group_name_H-M "C 2 2 21"
_symmetry_group_IT_number 20
_symmetry_cell_setting 'orthorhombic'
loop_
_space_group_symop_operation_xyz
x,y,z
-x,-y,1/2+z
x,-y,-z
-x,y,1/2-z
1/2+x,1/2+y,z
1/2-x,1/2-y,1/2+z
1/2+x,1/2-y,-z
1/2-x,1/2+y,1/2-z
loop_
_atom_site_type_symbol
_atom_site_label
_atom_site_fract_x
_atom_site_fract_y
_atom_site_fract_z
Si Si1 0.354912 0.583773 0.058231
Si Si2 0.931884 0.413462 0.929224
Si Si3 0.238043 0.196219 0.952839
Si Si4 0.135965 0.263319 0.425635
Si Si5 0.746449 0.589957 0.670659
Si Si6 0.298320 0.549545 0.357997
Si Si7 0.938960 0.415154 0.572058
Si Si8 0.349171 0.817024 0.409918
O O1 0.387003 0.671020 0.029108
O O2 0.346583 0.577699 0.240716
O O3 0.387398 0.500000 0.000000
O O4 0.294952 0.584192 0.972183
O O5 0.926731 0.419777 0.749600
O O6 0.996551 0.398656 0.973746
O O7 0.910018 0.500000 0.000000
O O8 0.896470 0.335722 0.988203
O O9 0.298306 0.239191 0.969973
O O10 0.228474 0.165521 0.780379
O O11 0.237397 0.125086 0.079267
O O12 0.187223 0.256962 0.985537
O O13 0.129833 0.275419 0.245366
O O14 0.746281 0.507073 0.769360
O O15 0.810752 0.602528 0.619772
O O16 0.326603 0.500000 0.500000
O O17 0.918207 0.500000 0.500000
O O18 0.904538 0.339977 0.502195
#
# Coordination Sequence:
#
# PCOD8158278 Si02
#       8
#     8   8   8   8   8   8   8   8
#     4  10  19  33  51  78 111 150 190 227 278 335
#     4  10  23  43  63  86 115 149 199 246 299 347
#     4  10  20  33  49  79 117 148 192 231 285 350
#     4  11  22  34  57  84 117 157 191 244 294 344
#     4   9  20  32  49  75 110 157 188 227 281 338
#     4   9  18  34  50  68 110 156 188 229 271 339
#     4  10  23  41  62  85 114 154 193 245 292 355
#     4  11  21  34  52  85 117 151 195 232 292 350
#
# _framework density 18.854616
#
# number of rings (size 3 to 8) (size 9 to 14) (size 15 to 20)
#    0.000    2.000    2.500    0.750    1.750    7.500 
#    0.000    0.000    0.000    0.000    0.000    6.125 
#    0.000    0.000    0.000    0.000    0.000    0.000 
#
# Total GULP energy -396626.172139 kJ/mol
# GULP energy per Si atom -12394.567879 kJ/mol
# Density = 1.881170 g / cm^3
# Si number density = 18.854616 Si / 1000 Ang^3
#
#
#
# Elastic Constant Matrix: (Units=GPa)
#
#
# Indices 1 2 3 4 5 6 
#
# 1 55.3494 43.9879 29.2510 0.0000 0.0000 0.0000
# 2 43.9879 146.8372 40.6702 0.0000 0.0000 0.0000
# 3 29.2510 40.6702 92.8030 0.0000 0.0000 0.0000
# 4 0.0000 0.0000 0.0000 27.2523 0.0000 0.0000
# 5 0.0000 0.0000 0.0000 0.0000 21.0368 0.0000
# 6 0.0000 0.0000 0.0000 0.0000 0.0000 26.4982
#
#
#
# Elastic Compliance Matrix: (Units=1/GPa)
#
#
# Indices 1 2 3 4 5 6 
#
# 1 0.025907 -0.006259 -0.005423 0.000000 0.000000 0.000000
# 2 -0.006259 0.009263 -0.002087 0.000000 0.000000 0.000000
# 3 -0.005423 -0.002087 0.013399 0.000000 0.000000 0.000000
# 4 0.000000 0.000000 0.000000 0.036694 0.000000 0.000000
# 5 0.000000 0.000000 0.000000 0.000000 0.047536 0.000000
# 6 0.000000 0.000000 0.000000 0.000000 0.000000 0.037738
#
#
# Mechanical properties :
#
#
# Convention : Reuss Voigt Hill
#
# Bulk Modulus (GPa) = 47.54551 58.08976 52.81763
# Shear Modulus (GPa) = 24.38004 27.02950 25.70477
#
# Velocity S-wave (km/s) = 3.59981 3.79037 3.69631
# Velocity P-wave (km/s) = 6.52302 7.07333 6.80374
#
# Compressibility (1/GPa) = 0.02103248
#
# Stress axis : x y z
#
# Youngs Moduli (GPa) = 38.59944 107.95363 74.63096
#
# Poissons Ratio (x) = 0.67568 0.40471
# Poissons Ratio (y) = 0.24159 0.15574
# Poissons Ratio (z) = 0.20932 0.22527
#
# Static dielectric constant tensor:
#      x y z
#    x 3.012750 0.000000 0.000000 
#    y 0.000000 3.826510 0.000000 
#    z 0.000000 0.000000 3.686280 
# 
# 
# High freq. dielectric constant tensor:
#      x y z
#    x 1.671930 0.000000 0.000000 
#    y 0.000000 1.749590 0.000000 
#    z 0.000000 0.000000 1.753600 
# 
# From -- ./inp_files/10813.got.cif
#   From: 2010.03.12/outbox.cif.g09.slc.cpg/sg20_6_cif.got.tgz:10813.got - 2010.04.14 01:38:04.
