data_PCOD8158863
_publ_section_title
;
Structure prediction by ZEFSAII (Michael W. Deem and Ramdas Pophale) SiO2 
 PCOD8158863
Probable space group: C 2 2 21
;
_chemical_formula_sum "Si O2"
_cell_formula_units_Z 56
_cell_length_a 21.424797
_cell_length_b 9.088810
_cell_length_c 13.388736
_cell_angle_alpha 90.000000
_cell_angle_beta 90.000000
_cell_angle_gamma 90.000000
_cell_volume 2607.133791
_symmetry_space_group_name_H-M "C 2 2 21"
_symmetry_group_IT_number 20
_symmetry_cell_setting 'orthorhombic'
loop_
_space_group_symop_operation_xyz
x,y,z
-x,-y,1/2+z
x,-y,-z
-x,y,1/2-z
1/2+x,1/2+y,z
1/2-x,1/2-y,1/2+z
1/2+x,1/2-y,-z
1/2-x,1/2+y,1/2-z
loop_
_atom_site_type_symbol
_atom_site_label
_atom_site_fract_x
_atom_site_fract_y
_atom_site_fract_z
Si Si1 0.845269 0.266799 0.617061
Si Si2 0.047800 0.257887 0.333928
Si Si3 0.941172 0.668361 0.529742
Si Si4 0.342880 0.403339 0.906996
Si Si5 0.233366 0.675227 0.489155
Si Si6 0.862472 0.584607 0.708573
Si Si7 0.274835 0.353649 0.204058
O O1 0.913194 0.237632 0.564698
O O2 0.796417 0.256914 0.525497
O O3 0.848870 0.423250 0.669821
O O4 0.824068 0.156030 0.704444
O O5 0.095403 0.121734 0.341886
O O6 0.087175 0.404644 0.299718
O O7 0.000000 0.208684 0.250000
O O8 0.010572 0.281274 0.438033
O O9 0.946437 0.500000 0.500000
O O10 0.892013 0.683977 0.620487
O O11 0.320946 0.241465 0.941647
O O12 0.288627 0.488745 0.846885
O O13 0.363557 0.500000 0.000000
O O14 0.236964 0.500000 0.500000
O O15 0.218699 0.719114 0.374430
O O16 0.796075 0.651534 0.744636
#
# Coordination Sequence:
#
# PCOD8158863 Si02
#       7
#     8   8   8   8   8   8   8
#     4  11  22  39  64 102 139 174 228 284 346 407
#     4  10  22  42  67  93 126 185 239 282 335 414
#     4   9  20  41  65  94 130 180 225 289 337 402
#     4  10  23  44  63  92 138 183 220 285 361 405
#     4  11  24  39  64 103 139 177 220 279 348 429
#     4  10  20  38  69  96 133 173 222 285 347 408
#     4  11  23  39  67 100 137 179 215 282 359 418
#
# _framework density 21.479527000000001
#
# number of rings (size 3 to 8) (size 9 to 14) (size 15 to 20)
#    0.000    1.714    2.857    0.857    4.000    0.571 
#    5.143    0.000    0.000    0.000    0.000    0.000 
#    0.000    0.000    0.000    0.000    0.000    0.000 
#
# Total GULP energy -346925.415300 kJ/mol
# GULP energy per Si atom -12390.193404 kJ/mol
# Density = 2.143064 g / cm^3
# Si number density = 21.479527 Si / 1000 Ang^3
#
#
#
# Elastic Constant Matrix: (Units=GPa)
#
#
# Indices 1 2 3 4 5 6 
#
# 1 143.9488 47.4644 62.7418 0.0000 0.0000 0.0000
# 2 47.4644 68.8300 27.0269 0.0000 0.0000 0.0000
# 3 62.7418 27.0269 106.4691 0.0000 0.0000 0.0000
# 4 0.0000 0.0000 0.0000 21.5848 0.0000 0.0000
# 5 0.0000 0.0000 0.0000 0.0000 53.5803 0.0000
# 6 0.0000 0.0000 0.0000 0.0000 0.0000 23.6136
#
#
#
# Elastic Compliance Matrix: (Units=1/GPa)
#
#
# Indices 1 2 3 4 5 6 
#
# 1 0.010998 -0.005597 -0.005060 0.000000 0.000000 0.000000
# 2 -0.005597 0.018986 -0.001521 0.000000 0.000000 0.000000
# 3 -0.005060 -0.001521 0.012761 0.000000 0.000000 0.000000
# 4 0.000000 0.000000 0.000000 0.046329 0.000000 0.000000
# 5 0.000000 0.000000 0.000000 0.000000 0.018664 0.000000
# 6 0.000000 0.000000 0.000000 0.000000 0.000000 0.042348
#
#
# Mechanical properties :
#
#
# Convention : Reuss Voigt Hill
#
# Bulk Modulus (GPa) = 54.38586 65.96824 60.17705
# Shear Modulus (GPa) = 27.68992 31.89005 29.78998
#
# Velocity S-wave (km/s) = 3.59434 3.85732 3.72815
# Velocity P-wave (km/s) = 6.52691 7.11459 6.82708
#
# Compressibility (1/GPa) = 0.01838713
#
# Stress axis : x y z
#
# Youngs Moduli (GPa) = 90.92514 52.67161 78.36676
#
# Poissons Ratio (x) = 0.29481 0.39656
# Poissons Ratio (y) = 0.50892 0.11920
# Poissons Ratio (z) = 0.46011 0.08012
#
# Static dielectric constant tensor:
#      x y z
#    x 4.071460 0.000000 0.000000 
#    y 0.000000 3.483280 0.000000 
#    z 0.000000 0.000000 4.156800 
# 
# 
# High freq. dielectric constant tensor:
#      x y z
#    x 1.842270 0.000000 0.000000 
#    y 0.000000 1.810180 0.000000 
#    z 0.000000 0.000000 1.854480 
# 
# From -- ./inp_files/21773.got.cif
#   From: 2010.03.12/outbox.cif.g09.slc.cpg/sg20_11_cif.got.tgz:21773.got - 2010.04.14 01:38:04.
