data_PCOD8158771
_publ_section_title
;
Structure prediction by ZEFSAII (Michael W. Deem and Ramdas Pophale) SiO2 
 PCOD8158771
Probable space group: C 2 2 21
;
_chemical_formula_sum "Si O2"
_cell_formula_units_Z 36
_cell_length_a 8.218541
_cell_length_b 22.139078
_cell_length_c 8.971901
_cell_angle_alpha 90.000000
_cell_angle_beta 90.000000
_cell_angle_gamma 90.000000
_cell_volume 1632.445643
_symmetry_space_group_name_H-M "C 2 2 21"
_symmetry_group_IT_number 20
_symmetry_cell_setting 'orthorhombic'
loop_
_space_group_symop_operation_xyz
x,y,z
-x,-y,1/2+z
x,-y,-z
-x,y,1/2-z
1/2+x,1/2+y,z
1/2-x,1/2-y,1/2+z
1/2+x,1/2-y,-z
1/2-x,1/2+y,1/2-z
loop_
_atom_site_type_symbol
_atom_site_label
_atom_site_fract_x
_atom_site_fract_y
_atom_site_fract_z
Si Si1 0.182681 0.427375 0.228892
Si Si2 0.105916 0.890562 0.997022
Si Si3 0.314107 0.703752 0.265528
Si Si4 0.114584 0.000000 0.500000
Si Si5 0.195985 0.816642 0.432371
O O1 0.263998 0.417021 0.388919
O O2 0.278046 0.479212 0.140085
O O3 0.180650 0.364548 0.139476
O O4 0.000000 0.450490 0.250000
O O5 0.989874 0.840839 0.077448
O O6 0.195165 0.858903 0.858045
O O7 0.994346 0.945122 0.938128
O O8 0.500000 0.726687 0.250000
O O9 0.204286 0.753607 0.345790
O O10 0.243243 0.691946 0.101767
#
# Coordination Sequence:
#
# PCOD8158771 Si02
#       5
#     8   8   8   4   8
#     4  11  24  43  65  96 133 169 216 274 326 383
#     4  10  23  43  68  94 127 173 218 266 327 395
#     4  10  21  37  62  95 129 168 218 269 320 385
#     4  10  22  42  70  96 124 172 222 266 328 390
#     4  10  20  37  62  92 130 171 215 262 324 391
#
# _framework density 22.052800000000001
#
# number of rings (size 3 to 8) (size 9 to 14) (size 15 to 20)
#    0.000    1.778    0.000    4.667    0.000   13.333 
#    0.000    5.556    0.000    0.000    0.000    0.000 
#    0.000    0.000    0.000    0.000    0.000    0.000 
#
# Total GULP energy -223267.715512 kJ/mol
# GULP energy per Si atom -12403.761973 kJ/mol
# Density = 2.200261 g / cm^3
# Si number density = 22.052800 Si / 1000 Ang^3
#
#
#
# Elastic Constant Matrix: (Units=GPa)
#
#
# Indices 1 2 3 4 5 6 
#
# 1 93.9150 49.5850 45.9131 0.0000 0.0000 0.0000
# 2 49.5850 120.2799 44.2100 0.0000 0.0000 0.0000
# 3 45.9131 44.2100 127.2326 0.0000 0.0000 0.0000
# 4 0.0000 0.0000 0.0000 49.8756 0.0000 0.0000
# 5 0.0000 0.0000 0.0000 0.0000 28.0651 0.0000
# 6 0.0000 0.0000 0.0000 0.0000 0.0000 26.3744
#
#
#
# Elastic Compliance Matrix: (Units=1/GPa)
#
#
# Indices 1 2 3 4 5 6 
#
# 1 0.015023 -0.004815 -0.003748 0.000000 0.000000 0.000000
# 2 -0.004815 0.011075 -0.002111 0.000000 0.000000 0.000000
# 3 -0.003748 -0.002111 0.009945 0.000000 0.000000 0.000000
# 4 0.000000 0.000000 0.000000 0.020050 0.000000 0.000000
# 5 0.000000 0.000000 0.000000 0.000000 0.035631 0.000000
# 6 0.000000 0.000000 0.000000 0.000000 0.000000 0.037916
#
#
# Mechanical properties :
#
#
# Convention : Reuss Voigt Hill
#
# Bulk Modulus (GPa) = 68.04909 68.98264 68.51586
# Shear Modulus (GPa) = 32.07477 34.31098 33.19287
#
# Velocity S-wave (km/s) = 3.81787 3.94871 3.88384
# Velocity P-wave (km/s) = 7.09642 7.22069 7.15882
#
# Compressibility (1/GPa) = 0.01469527
#
# Stress axis : x y z
#
# Youngs Moduli (GPa) = 66.56626 90.29466 100.54904
#
# Poissons Ratio (x) = 0.43481 0.37684
# Poissons Ratio (y) = 0.32055 0.21221
# Poissons Ratio (z) = 0.24948 0.19057
#
# Static dielectric constant tensor:
#      x y z
#    x 3.667900 0.000000 0.000000 
#    y 0.000000 4.066040 0.000000 
#    z 0.000000 0.000000 4.091150 
# 
# 
# High freq. dielectric constant tensor:
#      x y z
#    x 1.841890 0.000000 0.000000 
#    y 0.000000 1.872590 0.000000 
#    z 0.000000 0.000000 1.880560 
# 
# From -- ./inp_files/5913.got.cif
#   From: 2010.03.12/outbox.cif.g09.slc.cpg/sg20_3_cif.got.tgz:5913.got - 2010.04.14 01:38:04.
