data_PCOD8158441
_publ_section_title
;
Structure prediction by ZEFSAII (Michael W. Deem and Ramdas Pophale) SiO2 
 PCOD8158441
Probable space group: C 2 2 21
;
_chemical_formula_sum "Si O2"
_cell_formula_units_Z 48
_cell_length_a 16.894156
_cell_length_b 12.193040
_cell_length_c 11.979705
_cell_angle_alpha 90.000000
_cell_angle_beta 90.000000
_cell_angle_gamma 90.000000
_cell_volume 2467.712849
_symmetry_space_group_name_H-M "C 2 2 21"
_symmetry_group_IT_number 20
_symmetry_cell_setting 'orthorhombic'
loop_
_space_group_symop_operation_xyz
x,y,z
-x,-y,1/2+z
x,-y,-z
-x,y,1/2-z
1/2+x,1/2+y,z
1/2-x,1/2-y,1/2+z
1/2+x,1/2-y,-z
1/2-x,1/2+y,1/2-z
loop_
_atom_site_type_symbol
_atom_site_label
_atom_site_fract_x
_atom_site_fract_y
_atom_site_fract_z
Si Si1 0.949894 0.622569 0.481206
Si Si2 0.684191 0.314284 0.665842
Si Si3 0.836381 0.954797 0.118119
Si Si4 0.857143 0.382327 0.733429
Si Si5 0.599582 0.248430 0.449516
Si Si6 0.829479 0.623345 0.676723
O O1 0.983754 0.500000 0.500000
O O2 0.926793 0.647436 0.353040
O O3 0.872863 0.636305 0.558397
O O4 0.018734 0.710104 0.509206
O O5 0.642297 0.434139 0.686614
O O6 0.777432 0.330882 0.683066
O O7 0.667803 0.263805 0.542930
O O8 0.647069 0.230643 0.753994
O O9 0.910334 0.870130 0.107518
O O10 0.765245 0.881904 0.167122
O O11 0.805043 0.000000 0.000000
O O12 0.874829 0.340040 0.857342
O O13 0.855641 0.514088 0.741915
#
# Coordination Sequence:
#
# PCOD8158441 Si02
#       6
#     8   8   8   8   8   8
#     4  10  22  37  59  88 120 154 190 243 305 357
#     4  10  21  35  64  85 112 156 197 246 291 351
#     4   9  18  37  60  81 112 158 197 230 285 355
#     4  10  21  37  61  87 115 154 197 248 296 344
#     4  11  21  36  59  86 118 153 196 235 295 357
#     4  10  19  37  61  87 118 149 193 247 300 345
#
# _framework density 19.451208999999999
#
# number of rings (size 3 to 8) (size 9 to 14) (size 15 to 20)
#    0.000    2.000    1.667    4.000    2.333    0.667 
#    0.000    0.000   22.000    0.000    0.000    0.000 
#    0.000    0.000    0.000    0.000    0.000    0.000 
#
# Total GULP energy -297404.399747 kJ/mol
# GULP energy per Si atom -12391.849989 kJ/mol
# Density = 1.940694 g / cm^3
# Si number density = 19.451209 Si / 1000 Ang^3
#
#
#
# Elastic Constant Matrix: (Units=GPa)
#
#
# Indices 1 2 3 4 5 6 
#
# 1 64.7692 48.3995 19.1100 0.0000 0.0000 0.0000
# 2 48.3995 144.3625 51.5804 0.0000 0.0000 0.0000
# 3 19.1100 51.5804 70.7215 0.0000 0.0000 0.0000
# 4 0.0000 0.0000 0.0000 38.9527 0.0000 0.0000
# 5 0.0000 0.0000 0.0000 0.0000 15.7682 0.0000
# 6 0.0000 0.0000 0.0000 0.0000 0.0000 32.5921
#
#
#
# Elastic Compliance Matrix: (Units=1/GPa)
#
#
# Indices 1 2 3 4 5 6 
#
# 1 0.020627 -0.006660 -0.000717 0.000000 0.000000 0.000000
# 2 -0.006660 0.011518 -0.006601 0.000000 0.000000 0.000000
# 3 -0.000717 -0.006601 0.019148 0.000000 0.000000 0.000000
# 4 0.000000 0.000000 0.000000 0.025672 0.000000 0.000000
# 5 0.000000 0.000000 0.000000 0.000000 0.063419 0.000000
# 6 0.000000 0.000000 0.000000 0.000000 0.000000 0.030682
#
#
# Mechanical properties :
#
#
# Convention : Reuss Voigt Hill
#
# Bulk Modulus (GPa) = 42.84713 57.55924 50.20319
# Shear Modulus (GPa) = 24.17770 28.18014 26.17892
#
# Velocity S-wave (km/s) = 3.52943 3.81039 3.67260
# Velocity P-wave (km/s) = 6.21973 7.00104 6.62192
#
# Compressibility (1/GPa) = 0.02333878
#
# Stress axis : x y z
#
# Youngs Moduli (GPa) = 48.47948 86.81795 52.22390
#
# Poissons Ratio (x) = 0.57816 0.03743
# Poissons Ratio (y) = 0.32285 0.34475
# Poissons Ratio (z) = 0.03475 0.57312
#
# Static dielectric constant tensor:
#      x y z
#    x 3.268730 0.000000 0.000000 
#    y 0.000000 3.947950 0.000000 
#    z 0.000000 0.000000 3.442130 
# 
# 
# High freq. dielectric constant tensor:
#      x y z
#    x 1.730180 0.000000 0.000000 
#    y 0.000000 1.770920 0.000000 
#    z 0.000000 0.000000 1.748300 
# 
# From -- ./inp_files/14097.got.cif
#   From: 2010.03.12/outbox.cif.g09.slc.cpg/sg20_8_cif.got.tgz:14097.got - 2010.04.14 01:38:04.
