data_PCOD8158665
_publ_section_title
;
Structure prediction by ZEFSAII (Michael W. Deem and Ramdas Pophale) SiO2 
 PCOD8158665
Probable space group: C 2 2 21
;
_chemical_formula_sum "Si O2"
_cell_formula_units_Z 56
_cell_length_a 7.990218
_cell_length_b 14.726345
_cell_length_c 20.411583
_cell_angle_alpha 90.000000
_cell_angle_beta 90.000000
_cell_angle_gamma 90.000000
_cell_volume 2401.763754
_symmetry_space_group_name_H-M "C 2 2 21"
_symmetry_group_IT_number 20
_symmetry_cell_setting 'orthorhombic'
loop_
_space_group_symop_operation_xyz
x,y,z
-x,-y,1/2+z
x,-y,-z
-x,y,1/2-z
1/2+x,1/2+y,z
1/2-x,1/2-y,1/2+z
1/2+x,1/2-y,-z
1/2-x,1/2+y,1/2-z
loop_
_atom_site_type_symbol
_atom_site_label
_atom_site_fract_x
_atom_site_fract_y
_atom_site_fract_z
Si Si1 0.370889 0.032299 0.628067
Si Si2 0.299007 0.982498 0.185613
Si Si3 0.306907 0.287869 0.316585
Si Si4 0.685564 0.713783 0.668527
Si Si5 0.500000 0.434685 0.750000
Si Si6 0.579409 0.000000 0.500000
Si Si7 0.628525 0.369569 0.622440
Si Si8 0.790811 0.878710 0.580842
O O1 0.499616 0.993666 0.685202
O O2 0.304106 0.130761 0.648488
O O3 0.469131 0.036827 0.559753
O O4 0.220774 0.964045 0.614200
O O5 0.307724 0.875254 0.173890
O O6 0.176697 0.005585 0.248095
O O7 0.210221 0.030894 0.125206
O O8 0.278384 0.249746 0.242494
O O9 0.494756 0.319722 0.331548
O O10 0.256605 0.213435 0.371150
O O11 0.701681 0.794967 0.616828
O O12 0.512809 0.369536 0.687766
O O13 0.690428 0.909928 0.516488
O O14 0.487872 0.356043 0.565375
#
# Coordination Sequence:
#
# PCOD8158665 Si02
#       8
#     8   8   8   8   4   4   8   8
#     4  11  24  42  64  92 124 166 218 265 310 367
#     4  10  20  36  59  89 128 166 203 245 302 371
#     4  11  21  36  62  99 138 169 193 240 312 390
#     4  11  23  39  64  98 133 166 205 249 311 387
#     4  10  20  36  56  90 132 172 200 246 310 376
#     4  10  24  48  66  82 116 166 220 278 318 346
#     4  11  22  37  62  95 130 164 205 251 313 384
#     4  10  22  43  64  87 121 163 212 263 308 363
#
# _framework density 23.316199999999998
#
# number of rings (size 3 to 8) (size 9 to 14) (size 15 to 20)
#    0.000    1.429    0.000    7.714    0.000    5.143 
#    0.000    8.571    0.000    0.000    0.000    0.000 
#    0.000    0.000    0.000    0.000    0.000    0.000 
#
# Total GULP energy -346971.964316 kJ/mol
# GULP energy per Si atom -12391.855868 kJ/mol
# Density = 2.326313 g / cm^3
# Si number density = 23.316200 Si / 1000 Ang^3
#
#
#
# Elastic Constant Matrix: (Units=GPa)
#
#
# Indices 1 2 3 4 5 6 
#
# 1 135.9615 5.5747 24.0233 0.0000 0.0000 0.0000
# 2 5.5747 61.0528 8.0472 0.0000 0.0000 0.0000
# 3 24.0233 8.0472 51.0618 0.0000 0.0000 0.0000
# 4 0.0000 0.0000 0.0000 29.1360 0.0000 0.0000
# 5 0.0000 0.0000 0.0000 0.0000 33.0327 0.0000
# 6 0.0000 0.0000 0.0000 0.0000 0.0000 42.8068
#
#
#
# Elastic Compliance Matrix: (Units=1/GPa)
#
#
# Indices 1 2 3 4 5 6 
#
# 1 0.008025 -0.000240 -0.003738 0.000000 0.000000 0.000000
# 2 -0.000240 0.016734 -0.002524 0.000000 0.000000 0.000000
# 3 -0.003738 -0.002524 0.021741 0.000000 0.000000 0.000000
# 4 0.000000 0.000000 0.000000 0.034322 0.000000 0.000000
# 5 0.000000 0.000000 0.000000 0.000000 0.030273 0.000000
# 6 0.000000 0.000000 0.000000 0.000000 0.000000 0.023361
#
#
# Mechanical properties :
#
#
# Convention : Reuss Voigt Hill
#
# Bulk Modulus (GPa) = 29.85496 35.92960 32.89228
# Shear Modulus (GPa) = 31.52089 35.02381 33.27235
#
# Velocity S-wave (km/s) = 3.68079 3.87993 3.78167
# Velocity P-wave (km/s) = 5.55846 5.95944 5.76244
#
# Compressibility (1/GPa) = 0.03349527
#
# Stress axis : x y z
#
# Youngs Moduli (GPa) = 124.60557 59.75887 45.99708
#
# Poissons Ratio (x) = 0.01435 0.17193
# Poissons Ratio (y) = 0.02992 0.11611
# Poissons Ratio (z) = 0.46576 0.15085
#
# Static dielectric constant tensor:
#      x y z
#    x 4.713430 0.000000 0.000000 
#    y 0.000000 3.954800 0.000000 
#    z 0.000000 0.000000 4.150890 
# 
# 
# High freq. dielectric constant tensor:
#      x y z
#    x 1.951830 0.000000 0.000000 
#    y 0.000000 1.915440 0.000000 
#    z 0.000000 0.000000 1.885960 
# 
# From -- ./inp_files/26783.got.cif
#   From: 2010.03.12/outbox.cif.g09.slc.cpg/sg20_14_cif.got.tgz:26783.got - 2010.04.14 01:38:04.
