data_PCOD8158213
_publ_section_title
;
Structure prediction by ZEFSAII (Michael W. Deem and Ramdas Pophale) SiO2 
 PCOD8158213
Probable space group: C 2 2 21
;
_chemical_formula_sum "Si O2"
_cell_formula_units_Z 48
_cell_length_a 8.925298
_cell_length_b 15.550619
_cell_length_c 17.798674
_cell_angle_alpha 90.000000
_cell_angle_beta 90.000000
_cell_angle_gamma 90.000000
_cell_volume 2470.347533
_symmetry_space_group_name_H-M "C 2 2 21"
_symmetry_group_IT_number 20
_symmetry_cell_setting 'orthorhombic'
loop_
_space_group_symop_operation_xyz
x,y,z
-x,-y,1/2+z
x,-y,-z
-x,y,1/2-z
1/2+x,1/2+y,z
1/2-x,1/2-y,1/2+z
1/2+x,1/2-y,-z
1/2-x,1/2+y,1/2-z
loop_
_atom_site_type_symbol
_atom_site_label
_atom_site_fract_x
_atom_site_fract_y
_atom_site_fract_z
Si Si1 0.461078 0.340395 0.664669
Si Si2 0.781470 0.312571 0.410524
Si Si3 0.101009 0.494925 0.140651
Si Si4 0.682536 0.061998 0.301451
Si Si5 0.482759 0.241095 0.171200
Si Si6 0.768698 0.654489 0.418127
O O1 0.500000 0.312986 0.750000
O O2 0.384605 0.261443 0.622654
O O3 0.351508 0.424781 0.667361
O O4 0.605431 0.363590 0.615866
O O5 0.848945 0.401337 0.382281
O O6 0.611378 0.302191 0.383179
O O7 0.769259 0.305066 0.499685
O O8 0.184771 0.527753 0.216235
O O9 0.146196 0.562975 0.076257
O O10 0.919140 0.495513 0.150088
O O11 0.603977 0.154250 0.306630
O O12 0.500000 0.292141 0.250000
O O13 0.643415 0.221709 0.134614
#
# Coordination Sequence:
#
# PCOD8158213 Si02
#       6
#     8   8   8   8   8   8
#     4  11  21  38  62  91 114 160 213 244 289 373
#     4  11  24  34  59  94 119 149 199 257 299 349
#     4  10  19  38  59  84 120 154 196 246 306 356
#     4   9  18  37  63  83 107 159 204 237 290 363
#     4  10  18  40  60  80 113 162 200 233 288 359
#     4  11  20  39  61  84 123 159 190 242 310 364
#
# _framework density 19.430464000000001
#
# number of rings (size 3 to 8) (size 9 to 14) (size 15 to 20)
#    0.000    1.667    5.000    2.500    2.333    0.000 
#    3.000    0.000    0.000    6.000    0.000    0.000 
#    0.000    0.000    0.000    0.000    0.000    0.000 
#
# Total GULP energy -297475.538219 kJ/mol
# GULP energy per Si atom -12394.814092 kJ/mol
# Density = 1.938624 g / cm^3
# Si number density = 19.430464 Si / 1000 Ang^3
#
#
#
# Elastic Constant Matrix: (Units=GPa)
#
#
# Indices 1 2 3 4 5 6 
#
# 1 144.3301 36.0222 60.2775 0.0000 0.0000 0.0000
# 2 36.0222 57.9217 36.0497 0.0000 0.0000 0.0000
# 3 60.2775 36.0497 133.1488 0.0000 0.0000 0.0000
# 4 0.0000 0.0000 0.0000 17.4087 0.0000 0.0000
# 5 0.0000 0.0000 0.0000 0.0000 28.7371 0.0000
# 6 0.0000 0.0000 0.0000 0.0000 0.0000 21.5752
#
#
#
# Elastic Compliance Matrix: (Units=1/GPa)
#
#
# Indices 1 2 3 4 5 6 
#
# 1 0.009176 -0.003754 -0.003138 0.000000 0.000000 0.000000
# 2 -0.003754 0.022299 -0.004338 0.000000 0.000000 0.000000
# 3 -0.003138 -0.004338 0.010105 0.000000 0.000000 0.000000
# 4 0.000000 0.000000 0.000000 0.057443 0.000000 0.000000
# 5 0.000000 0.000000 0.000000 0.000000 0.034798 0.000000
# 6 0.000000 0.000000 0.000000 0.000000 0.000000 0.046350
#
#
# Mechanical properties :
#
#
# Convention : Reuss Voigt Hill
#
# Bulk Modulus (GPa) = 52.29744 66.67771 59.48758
# Shear Modulus (GPa) = 23.92303 27.08093 25.50198
#
# Velocity S-wave (km/s) = 3.51267 3.73733 3.62674
# Velocity P-wave (km/s) = 6.58980 7.28107 6.94404
#
# Compressibility (1/GPa) = 0.01912139
#
# Stress axis : x y z
#
# Youngs Moduli (GPa) = 108.98212 44.84474 98.95726
#
# Poissons Ratio (x) = 0.16833 0.31049
# Poissons Ratio (y) = 0.40909 0.42929
# Poissons Ratio (z) = 0.34195 0.19454
#
# Static dielectric constant tensor:
#      x y z
#    x 4.038960 0.000000 0.000000 
#    y 0.000000 3.257070 0.000000 
#    z 0.000000 0.000000 3.649640 
# 
# 
# High freq. dielectric constant tensor:
#      x y z
#    x 1.766110 0.000000 0.000000 
#    y 0.000000 1.726210 0.000000 
#    z 0.000000 0.000000 1.760740 
# 
# From -- ./inp_files/23608.got.cif
#   From: 2010.03.12/outbox.cif.g09.slc.cpg/sg20_12_cif.got.tgz:23608.got - 2010.04.14 01:38:04.
