data_PCOD8158051
_publ_section_title
;
Structure prediction by ZEFSAII (Michael W. Deem and Ramdas Pophale) SiO2 
 PCOD8158051
Probable space group: C 2 2 21
;
_chemical_formula_sum "Si O2"
_cell_formula_units_Z 40
_cell_length_a 8.706186
_cell_length_b 26.600910
_cell_length_c 8.414218
_cell_angle_alpha 90.000000
_cell_angle_beta 90.000000
_cell_angle_gamma 90.000000
_cell_volume 1948.669532
_symmetry_space_group_name_H-M "C 2 2 21"
_symmetry_group_IT_number 20
_symmetry_cell_setting 'orthorhombic'
loop_
_space_group_symop_operation_xyz
x,y,z
-x,-y,1/2+z
x,-y,-z
-x,y,1/2-z
1/2+x,1/2+y,z
1/2-x,1/2-y,1/2+z
1/2+x,1/2-y,-z
1/2-x,1/2+y,1/2-z
loop_
_atom_site_type_symbol
_atom_site_label
_atom_site_fract_x
_atom_site_fract_y
_atom_site_fract_z
Si Si1 0.108481 0.375104 0.029162
Si Si2 0.316980 0.000000 0.000000
Si Si3 0.729589 0.901614 0.350841
Si Si4 0.873843 0.804815 0.442817
Si Si5 0.793139 0.779669 0.089953
Si Si6 0.500000 0.934813 0.750000
O O1 0.223512 0.401230 0.158109
O O2 0.158025 0.316551 0.024805
O O3 0.933750 0.381918 0.085149
O O4 0.119109 0.400111 0.852861
O O5 0.417468 0.971546 0.870973
O O6 0.220435 0.042577 0.907424
O O7 0.855640 0.864974 0.429127
O O8 0.823983 0.782387 0.275018
O O9 0.758420 0.777932 0.564913
O O10 0.047286 0.793214 0.497682
#
# Coordination Sequence:
#
# PCOD8158051 Si02
#       6
#     8   4   8   8   8   4
#     4   9  18  32  52  77 107 137 174 216 262 314
#     4  10  18  30  52  76 104 138 178 222 262 302
#     4   9  18  33  52  75 105 141 177 217 263 308
#     4  10  21  36  55  78 107 140 175 216 265 317
#     4  10  21  36  55  79 108 140 173 215 265 318
#     4  10  18  30  52  82 106 134 176 222 260 308
#
# _framework density 20.526824000000001
#
# number of rings (size 3 to 8) (size 9 to 14) (size 15 to 20)
#    0.000    2.400    0.000    3.600    0.000    7.200 
#    0.000    0.000    0.000   14.400    0.000    0.000 
#    0.000    0.000    0.000    0.000    0.000    0.000 
#
# Total GULP energy -247801.901053 kJ/mol
# GULP energy per Si atom -12390.095053 kJ/mol
# Density = 2.048010 g / cm^3
# Si number density = 20.526824 Si / 1000 Ang^3
#
#
#
# Elastic Constant Matrix: (Units=GPa)
#
#
# Indices 1 2 3 4 5 6 
#
# 1 58.9198 22.7529 3.4669 0.0000 0.0000 0.0000
# 2 22.7529 122.4098 45.8774 0.0000 0.0000 0.0000
# 3 3.4669 45.8774 80.2461 0.0000 0.0000 0.0000
# 4 0.0000 0.0000 0.0000 39.1533 0.0000 0.0000
# 5 0.0000 0.0000 0.0000 0.0000 18.2896 0.0000
# 6 0.0000 0.0000 0.0000 0.0000 0.0000 19.3111
#
#
#
# Elastic Compliance Matrix: (Units=1/GPa)
#
#
# Indices 1 2 3 4 5 6 
#
# 1 0.018421 -0.003978 0.001479 0.000000 0.000000 0.000000
# 2 -0.003978 0.011256 -0.006263 0.000000 0.000000 0.000000
# 3 0.001479 -0.006263 0.015979 0.000000 0.000000 0.000000
# 4 0.000000 0.000000 0.000000 0.025541 0.000000 0.000000
# 5 0.000000 0.000000 0.000000 0.000000 0.054676 0.000000
# 6 0.000000 0.000000 0.000000 0.000000 0.000000 0.051784
#
#
# Mechanical properties :
#
#
# Convention : Reuss Voigt Hill
#
# Bulk Modulus (GPa) = 35.54910 45.08557 40.31734
# Shear Modulus (GPa) = 24.44276 27.98268 26.21272
#
# Velocity S-wave (km/s) = 3.45450 3.69619 3.57739
# Velocity P-wave (km/s) = 5.76779 6.34253 6.06197
#
# Compressibility (1/GPa) = 0.02813011
#
# Stress axis : x y z
#
# Youngs Moduli (GPa) = 54.28441 88.84031 62.58366
#
# Poissons Ratio (x) = 0.35343 -0.09253
# Poissons Ratio (y) = 0.21596 0.39198
# Poissons Ratio (z) = -0.08026 0.55644
#
# Static dielectric constant tensor:
#      x y z
#    x 3.483480 0.000000 0.000000 
#    y 0.000000 4.001360 0.000000 
#    z 0.000000 0.000000 4.162050 
# 
# 
# High freq. dielectric constant tensor:
#      x y z
#    x 1.763200 0.000000 0.000000 
#    y 0.000000 1.808180 0.000000 
#    z 0.000000 0.000000 1.804620 
# 
# From -- ./inp_files/6296.got.cif
#   From: 2010.03.12/outbox.cif.g09.slc.cpg/sg20_4_cif.got.tgz:6296.got - 2010.04.14 01:38:04.
