data_PCOD8158552
_publ_section_title
;
Structure prediction by ZEFSAII (Michael W. Deem and Ramdas Pophale) SiO2 
 PCOD8158552
Probable space group: C 2 2 21
;
_chemical_formula_sum "Si O2"
_cell_formula_units_Z 60
_cell_length_a 19.701875
_cell_length_b 5.330526
_cell_length_c 28.236726
_cell_angle_alpha 90.000000
_cell_angle_beta 90.000000
_cell_angle_gamma 90.000000
_cell_volume 2965.459280
_symmetry_space_group_name_H-M "C 2 2 21"
_symmetry_group_IT_number 20
_symmetry_cell_setting 'orthorhombic'
loop_
_space_group_symop_operation_xyz
x,y,z
-x,-y,1/2+z
x,-y,-z
-x,y,1/2-z
1/2+x,1/2+y,z
1/2-x,1/2-y,1/2+z
1/2+x,1/2-y,-z
1/2-x,1/2+y,1/2-z
loop_
_atom_site_type_symbol
_atom_site_label
_atom_site_fract_x
_atom_site_fract_y
_atom_site_fract_z
Si Si1 0.749140 0.303262 0.278495
Si Si2 0.924138 0.496837 0.601980
Si Si3 0.500000 0.497240 0.250000
Si Si4 0.606479 0.844255 0.202890
Si Si5 0.083069 0.002366 0.554000
Si Si6 0.421240 0.502028 0.445907
Si Si7 0.580372 0.996468 0.398336
Si Si8 0.106915 0.340727 0.702711
O O1 0.754328 0.591761 0.262055
O O2 0.817821 0.235601 0.308211
O O3 0.679310 0.291292 0.308565
O O4 0.916037 0.487236 0.658699
O O5 0.890864 0.245453 0.579997
O O6 0.002164 0.500088 0.587187
O O7 0.891153 0.750303 0.580070
O O8 0.548432 0.642237 0.213384
O O9 0.454731 0.347951 0.212211
O O10 0.614024 0.997923 0.250608
O O11 0.113250 0.250327 0.579690
O O12 0.002147 0.000065 0.557652
O O13 0.107875 0.000000 0.500000
O O14 0.113572 0.754892 0.579732
O O15 0.396474 0.500000 0.500000
O O16 0.588832 0.986089 0.341771
#
# Coordination Sequence:
#
# PCOD8158552 Si02
#       8
#     8   8   4   8   8   8   8   8
#     4  10  22  42  58  78 116 166 206 242 290 348
#     4  10  20  31  52  80 111 151 186 237 288 347
#     4  12  22  36  60  86 122 166 202 252 294 348
#     4  11  24  37  57  86 122 160 204 244 298 355
#     4   9  18  32  50  76 112 148 184 232 296 352
#     4   9  18  32  50  76 112 148 184 232 296 352
#     4  10  20  31  52  80 111 151 186 237 288 347
#     4  11  24  37  57  86 122 160 204 244 298 355
#
# _framework density 20.232955
#
# number of rings (size 3 to 8) (size 9 to 14) (size 15 to 20)
#    0.000    1.867    1.333    2.800    9.333    3.200 
#    0.000    0.000    0.000    0.000    0.000    3.733 
#    0.000    0.000    0.000    0.000    0.000    0.000 
#
# Total GULP energy -371777.684181 kJ/mol
# GULP energy per Si atom -12392.589473 kJ/mol
# Density = 2.018690 g / cm^3
# Si number density = 20.232955 Si / 1000 Ang^3
#
#
#
# Elastic Constant Matrix: (Units=GPa)
#
#
# Indices 1 2 3 4 5 6 
#
# 1 86.2550 24.3039 6.9356 0.0000 0.0000 0.0000
# 2 24.3039 155.6388 77.1625 0.0000 0.0000 0.0000
# 3 6.9356 77.1625 148.4279 0.0000 0.0000 0.0000
# 4 0.0000 0.0000 0.0000 42.4712 0.0000 0.0000
# 5 0.0000 0.0000 0.0000 0.0000 -5.9982 0.0000
# 6 0.0000 0.0000 0.0000 0.0000 0.0000 13.0611
#
#
#
# Elastic Compliance Matrix: (Units=1/GPa)
#
#
# Indices 1 2 3 4 5 6 
#
# 1 0.012162 -0.002179 0.000565 0.000000 0.000000 0.000000
# 2 -0.002179 0.009047 -0.004601 0.000000 0.000000 0.000000
# 3 0.000565 -0.004601 0.009103 0.000000 0.000000 0.000000
# 4 0.000000 0.000000 0.000000 0.023545 0.000000 0.000000
# 5 0.000000 0.000000 0.000000 0.000000 -0.166716 0.000000
# 6 0.000000 0.000000 0.000000 0.000000 0.000000 0.076563
#
#
# Mechanical properties :
#
#
# Convention : Reuss Voigt Hill
#
# Bulk Modulus (GPa) = 55.92794 67.45839 61.69317
# Shear Modulus (GPa) = -279.26963 28.70146 -125.28408
#
# Velocity S-wave (km/s) = -11.76124 3.77045 -7.87751
# Velocity P-wave (km/s) = 12.51933 7.23659 7.22376
#
# Compressibility (1/GPa) = 0.01788015
#
# Stress axis : x y z
#
# Youngs Moduli (GPa) = 82.22246 110.53908 109.85521
#
# Poissons Ratio (x) = 0.24087 -0.06201
# Poissons Ratio (y) = 0.17917 0.50546
# Poissons Ratio (z) = -0.04642 0.50861
#
# Static dielectric constant tensor:
#      x y z
#    x 3.944080 0.000000 0.000000 
#    y 0.000000 4.060920 0.000000 
#    z 0.000000 0.000000 3.497020 
# 
# 
# High freq. dielectric constant tensor:
#      x y z
#    x 1.741960 0.000000 0.000000 
#    y 0.000000 1.805430 0.000000 
#    z 0.000000 0.000000 1.779670 
# 
# From -- ./inp_files/29545.got.cif
#   From: 2010.03.12/outbox.cif.g09.slc.cpg/sg20_15_cif.got.tgz:29545.got - 2010.04.14 01:38:04.
