data_PCOD8158418
_publ_section_title
;
Structure prediction by ZEFSAII (Michael W. Deem and Ramdas Pophale) SiO2 
 PCOD8158418
Probable space group: C 2 2 21
;
_chemical_formula_sum "Si O2"
_cell_formula_units_Z 64
_cell_length_a 9.279111
_cell_length_b 15.177271
_cell_length_c 22.272238
_cell_angle_alpha 90.000000
_cell_angle_beta 90.000000
_cell_angle_gamma 90.000000
_cell_volume 3136.634519
_symmetry_space_group_name_H-M "C 2 2 21"
_symmetry_group_IT_number 20
_symmetry_cell_setting 'orthorhombic'
loop_
_space_group_symop_operation_xyz
x,y,z
-x,-y,1/2+z
x,-y,-z
-x,y,1/2-z
1/2+x,1/2+y,z
1/2-x,1/2-y,1/2+z
1/2+x,1/2-y,-z
1/2-x,1/2+y,1/2-z
loop_
_atom_site_type_symbol
_atom_site_label
_atom_site_fract_x
_atom_site_fract_y
_atom_site_fract_z
Si Si1 0.652435 0.003312 0.378444
Si Si2 0.092526 0.313198 0.571285
Si Si3 0.204594 0.700187 0.129718
Si Si4 0.672248 0.007046 0.155414
Si Si5 0.908183 0.323239 0.064989
Si Si6 0.202754 0.680785 0.875702
Si Si7 0.158080 0.027464 0.229787
Si Si8 0.162354 0.232276 0.244381
O O1 0.672127 0.094728 0.414192
O O2 0.500833 0.009187 0.343101
O O3 0.653509 0.921261 0.423862
O O4 0.788044 0.988685 0.333747
O O5 0.036181 0.317573 0.503180
O O6 0.202508 0.232469 0.576214
O O7 0.965051 0.291808 0.617921
O O8 0.243093 0.595847 0.127993
O O9 0.286088 0.750306 0.076544
O O10 0.246831 0.742737 0.194108
O O11 0.730236 0.924003 0.116919
O O12 0.723052 0.995353 0.223323
O O13 0.036315 0.299218 0.110204
O O14 0.239795 0.711894 0.807901
O O15 0.000000 0.992815 0.250000
O O16 0.157069 0.132125 0.222810
O O17 0.000000 0.269098 0.250000
#
# Coordination Sequence:
#
# PCOD8158418 Si02
#       8
#     8   8   8   8   8   8   8   8
#     4  10  21  39  62  88 118 161 206 250 300 366
#     4  11  23  41  60  92 123 156 211 263 309 355
#     4  10  22  40  61  90 125 159 203 260 309 362
#     4   9  22  37  59  88 123 160 201 244 304 371
#     4  11  23  40  65  85 120 169 209 252 305 378
#     4  11  22  39  64  90 119 161 207 250 309 372
#     4  10  20  35  58  92 125 154 190 248 311 363
#     4  10  19  36  61  90 122 160 197 246 312 377
#
# _framework density 20.404033999999999
#
# number of rings (size 3 to 8) (size 9 to 14) (size 15 to 20)
#    0.000    1.750    2.500    1.500    1.750    1.500 
#    0.000    1.875    0.000    0.000    0.000    0.000 
#    0.000    0.000    0.000    0.000    0.000    0.000 
#
# Total GULP energy -396792.167112 kJ/mol
# GULP energy per Si atom -12399.755222 kJ/mol
# Density = 2.035759 g / cm^3
# Si number density = 20.404034 Si / 1000 Ang^3
#
#
#
# Elastic Constant Matrix: (Units=GPa)
#
#
# Indices 1 2 3 4 5 6 
#
# 1 66.2545 44.2592 35.9742 0.0000 0.0000 0.0000
# 2 44.2592 103.3980 34.1804 0.0000 0.0000 0.0000
# 3 35.9742 34.1804 106.5633 0.0000 0.0000 0.0000
# 4 0.0000 0.0000 0.0000 26.2098 0.0000 0.0000
# 5 0.0000 0.0000 0.0000 0.0000 30.9533 0.0000
# 6 0.0000 0.0000 0.0000 0.0000 0.0000 29.9433
#
#
#
# Elastic Compliance Matrix: (Units=1/GPa)
#
#
# Indices 1 2 3 4 5 6 
#
# 1 0.023514 -0.008324 -0.005268 0.000000 0.000000 0.000000
# 2 -0.008324 0.013765 -0.001605 0.000000 0.000000 0.000000
# 3 -0.005268 -0.001605 0.011677 0.000000 0.000000 0.000000
# 4 0.000000 0.000000 0.000000 0.038154 0.000000 0.000000
# 5 0.000000 0.000000 0.000000 0.000000 0.032307 0.000000
# 6 0.000000 0.000000 0.000000 0.000000 0.000000 0.033396
#
#
# Mechanical properties :
#
#
# Convention : Reuss Voigt Hill
#
# Bulk Modulus (GPa) = 53.87230 56.11594 54.99412
# Shear Modulus (GPa) = 26.39987 28.20809 27.30398
#
# Velocity S-wave (km/s) = 3.60092 3.72220 3.66206
# Velocity P-wave (km/s) = 6.61430 6.78492 6.70015
#
# Compressibility (1/GPa) = 0.01856242
#
# Stress axis : x y z
#
# Youngs Moduli (GPa) = 42.52757 72.64851 85.63534
#
# Poissons Ratio (x) = 0.60470 0.45114
# Poissons Ratio (y) = 0.35398 0.13746
# Poissons Ratio (z) = 0.22404 0.11661
#
# Static dielectric constant tensor:
#      x y z
#    x 3.549870 0.000000 0.000000 
#    y 0.000000 3.820960 0.000000 
#    z 0.000000 0.000000 3.512480 
# 
# 
# High freq. dielectric constant tensor:
#      x y z
#    x 1.782380 0.000000 0.000000 
#    y 0.000000 1.804010 0.000000 
#    z 0.000000 0.000000 1.786290 
# 
# From -- ./inp_files/26907.got.cif
#   From: 2010.03.12/outbox.cif.g09.slc.cpg/sg20_14_cif.got.tgz:26907.got - 2010.04.14 01:38:04.
