data_PCOD8158687
_publ_section_title
;
Structure prediction by ZEFSAII (Michael W. Deem and Ramdas Pophale) SiO2 
 PCOD8158687
Probable space group: C 2 2 21
;
_chemical_formula_sum "Si O2"
_cell_formula_units_Z 56
_cell_length_a 13.367515
_cell_length_b 10.483506
_cell_length_c 20.934185
_cell_angle_alpha 90.000000
_cell_angle_beta 90.000000
_cell_angle_gamma 90.000000
_cell_volume 2933.683688
_symmetry_space_group_name_H-M "C 2 2 21"
_symmetry_group_IT_number 20
_symmetry_cell_setting 'orthorhombic'
loop_
_space_group_symop_operation_xyz
x,y,z
-x,-y,1/2+z
x,-y,-z
-x,y,1/2-z
1/2+x,1/2+y,z
1/2-x,1/2-y,1/2+z
1/2+x,1/2-y,-z
1/2-x,1/2+y,1/2-z
loop_
_atom_site_type_symbol
_atom_site_label
_atom_site_fract_x
_atom_site_fract_y
_atom_site_fract_z
Si Si1 0.364225 0.525779 0.858106
Si Si2 0.508661 0.624023 0.958310
Si Si3 0.362640 0.765843 0.145908
Si Si4 0.000000 0.629741 0.750000
Si Si5 0.000000 0.870259 0.250000
Si Si6 0.862640 0.765843 0.354092
Si Si7 0.135775 0.474221 0.141894
Si Si8 0.491339 0.124023 0.958310
O O1 0.407003 0.607764 0.917220
O O2 0.369743 0.378662 0.878966
O O3 0.429474 0.542443 0.794169
O O4 0.250000 0.568919 0.845428
O O5 0.601060 0.639557 0.909763
O O6 0.531811 0.500000 0.000000
O O7 0.500000 0.750000 1.000000
O O8 0.429996 0.778627 0.208591
O O9 0.250000 0.803885 0.163923
O O10 0.398940 0.860443 0.090237
O O11 0.929474 0.542443 0.705831
O O12 0.070004 0.778627 0.208591
O O13 0.869743 0.621338 0.378966
O O14 0.092997 0.392236 0.082780
O O15 0.468189 0.000000 0.000000
#
# Coordination Sequence:
#
# PCOD8158687 Si02
#       8
#     8   8   8   4   4   8   8   8
#     4  10  21  37  60  86 116 157 194 233 292 352
#     4  11  22  39  61  86 118 151 195 243 287 340
#     4  10  21  37  59  86 117 154 194 239 290 345
#     4  10  20  36  60  86 118 148 196 244 286 334
#     4  10  20  36  60  86 118 148 196 244 286 334
#     4  10  21  37  59  86 117 154 194 239 290 345
#     4  10  21  37  60  86 116 157 194 233 292 352
#     4  11  22  39  61  86 118 151 195 243 287 340
#
# _framework density 19.088629999999998
#
# number of rings (size 3 to 8) (size 9 to 14) (size 15 to 20)
#    0.000    1.714    2.857    1.714    0.000    2.286 
#    0.000    0.000    0.000    0.000    0.000    0.000 
#    0.000    0.000    0.000    0.000    0.000    0.000 
#
# Total GULP energy -347248.474900 kJ/mol
# GULP energy per Si atom -12401.731246 kJ/mol
# Density = 1.904518 g / cm^3
# Si number density = 19.088630 Si / 1000 Ang^3
#
#
#
# Elastic Constant Matrix: (Units=GPa)
#
#
# Indices 1 2 3 4 5 6 
#
# 1 168.0592 55.2978 73.0942 0.0000 0.0000 0.0000
# 2 55.2978 105.8593 57.1063 0.0000 0.0000 0.0000
# 3 73.0942 57.1063 128.3793 0.0000 0.0000 0.0000
# 4 0.0000 0.0000 0.0000 39.1776 0.0000 0.0000
# 5 0.0000 0.0000 0.0000 0.0000 19.7590 0.0000
# 6 0.0000 0.0000 0.0000 0.0000 0.0000 28.9671
#
#
#
# Elastic Compliance Matrix: (Units=1/GPa)
#
#
# Indices 1 2 3 4 5 6 
#
# 1 0.008334 -0.002360 -0.003695 0.000000 0.000000 0.000000
# 2 -0.002360 0.013097 -0.004482 0.000000 0.000000 0.000000
# 3 -0.003695 -0.004482 0.011887 0.000000 0.000000 0.000000
# 4 0.000000 0.000000 0.000000 0.025525 0.000000 0.000000
# 5 0.000000 0.000000 0.000000 0.000000 0.050610 0.000000
# 6 0.000000 0.000000 0.000000 0.000000 0.000000 0.034522
#
#
# Mechanical properties :
#
#
# Convention : Reuss Voigt Hill
#
# Bulk Modulus (GPa) = 81.67705 85.92159 83.79932
# Shear Modulus (GPa) = 29.56282 32.03404 30.79843
#
# Velocity S-wave (km/s) = 3.93964 4.10100 4.02113
# Velocity P-wave (km/s) = 7.97343 8.21790 8.09659
#
# Compressibility (1/GPa) = 0.01224334
#
# Stress axis : x y z
#
# Youngs Moduli (GPa) = 119.99028 76.35157 84.12404
#
# Poissons Ratio (x) = 0.18019 0.31086
# Poissons Ratio (y) = 0.28318 0.37707
# Poissons Ratio (z) = 0.44340 0.34223
#
# Static dielectric constant tensor:
#      x y z
#    x 3.603520 0.000000 0.000000 
#    y 0.000000 3.476140 0.000000 
#    z 0.000000 0.000000 3.614640 
# 
# 
# High freq. dielectric constant tensor:
#      x y z
#    x 1.747020 0.000000 0.000000 
#    y 0.000000 1.736350 0.000000 
#    z 0.000000 0.000000 1.752720 
# 
# From -- ./inp_files/27234.got.cif
#   From: 2010.03.12/outbox.cif.g09.slc.cpg/sg20_14_cif.got.tgz:27234.got - 2010.04.14 01:38:04.
