data_PCOD8158749
_publ_section_title
;
Structure prediction by ZEFSAII (Michael W. Deem and Ramdas Pophale) SiO2 
 PCOD8158749
Probable space group: C 2 2 21
;
_chemical_formula_sum "Si O2"
_cell_formula_units_Z 32
_cell_length_a 9.201597
_cell_length_b 10.149175
_cell_length_c 17.910733
_cell_angle_alpha 90.000000
_cell_angle_beta 90.000000
_cell_angle_gamma 90.000000
_cell_volume 1672.658606
_symmetry_space_group_name_H-M "C 2 2 21"
_symmetry_group_IT_number 20
_symmetry_cell_setting 'orthorhombic'
loop_
_space_group_symop_operation_xyz
x,y,z
-x,-y,1/2+z
x,-y,-z
-x,y,1/2-z
1/2+x,1/2+y,z
1/2-x,1/2-y,1/2+z
1/2+x,1/2-y,-z
1/2-x,1/2+y,1/2-z
loop_
_atom_site_type_symbol
_atom_site_label
_atom_site_fract_x
_atom_site_fract_y
_atom_site_fract_z
Si Si1 0.705043 0.986922 0.087251
Si Si2 0.005192 0.250219 0.069907
Si Si3 0.830996 0.775289 0.419191
Si Si4 0.500972 0.491225 0.162155
O O1 0.645126 0.128835 0.115214
O O2 0.845655 0.940325 0.132851
O O3 0.581313 0.880469 0.101466
O O4 0.748252 0.000000 0.000000
O O5 0.033696 0.134212 0.128318
O O6 0.837558 0.287893 0.058608
O O7 0.070525 0.202944 0.991712
O O8 0.875043 0.885615 0.359325
O O9 0.500000 0.506227 0.250000
#
# Coordination Sequence:
#
# PCOD8158749 Si02
#       4
#     8   8   8   8
#     4   9  20  38  57  81 110 141 189 241 276 324
#     4  10  21  38  61  86 111 143 189 239 280 327
#     4  10  20  37  60  84 108 143 188 233 282 328
#     4  11  23  37  54  81 118 153 183 223 279 339
#
# _framework density 19.131221
#
# number of rings (size 3 to 8) (size 9 to 14) (size 15 to 20)
#    0.000    2.000    0.000    5.250    0.000   12.000 
#    0.000    1.250    0.000    0.000    0.000    0.000 
#    0.000    0.000    0.000    0.000    0.000    0.000 
#
# Total GULP energy -198425.514855 kJ/mol
# GULP energy per Si atom -12401.594678 kJ/mol
# Density = 1.908768 g / cm^3
# Si number density = 19.131221 Si / 1000 Ang^3
#
#
#
# Elastic Constant Matrix: (Units=GPa)
#
#
# Indices 1 2 3 4 5 6 
#
# 1 111.7928 76.8159 44.8861 0.0000 0.0000 0.0000
# 2 76.8159 122.0899 47.1775 0.0000 0.0000 0.0000
# 3 44.8861 47.1775 89.8482 0.0000 0.0000 0.0000
# 4 0.0000 0.0000 0.0000 14.1619 0.0000 0.0000
# 5 0.0000 0.0000 0.0000 0.0000 19.4764 0.0000
# 6 0.0000 0.0000 0.0000 0.0000 0.0000 41.4857
#
#
#
# Elastic Compliance Matrix: (Units=1/GPa)
#
#
# Indices 1 2 3 4 5 6 
#
# 1 0.016602 -0.009084 -0.003524 0.000000 0.000000 0.000000
# 2 -0.009084 0.015246 -0.003467 0.000000 0.000000 0.000000
# 3 -0.003524 -0.003467 0.014711 0.000000 0.000000 0.000000
# 4 0.000000 0.000000 0.000000 0.070612 0.000000 0.000000
# 5 0.000000 0.000000 0.000000 0.000000 0.051344 0.000000
# 6 0.000000 0.000000 0.000000 0.000000 0.000000 0.024105
#
#
# Mechanical properties :
#
#
# Convention : Reuss Voigt Hill
#
# Bulk Modulus (GPa) = 69.40418 73.49890 71.45154
# Shear Modulus (GPa) = 21.77966 25.34822 23.56394
#
# Velocity S-wave (km/s) = 3.37773 3.64396 3.51337
# Velocity P-wave (km/s) = 7.18114 7.49708 7.34081
#
# Compressibility (1/GPa) = 0.01440835
#
# Stress axis : x y z
#
# Youngs Moduli (GPa) = 60.23477 65.59258 67.97587
#
# Poissons Ratio (x) = 0.59581 0.23956
# Poissons Ratio (y) = 0.54715 0.23569
# Poissons Ratio (z) = 0.21228 0.22743
#
# Static dielectric constant tensor:
#      x y z
#    x 3.537700 0.000000 0.000000 
#    y 0.000000 3.821520 0.000000 
#    z 0.000000 0.000000 3.198480 
# 
# 
# High freq. dielectric constant tensor:
#      x y z
#    x 1.750340 0.000000 0.000000 
#    y 0.000000 1.762880 0.000000 
#    z 0.000000 0.000000 1.716670 
# 
# From -- ./inp_files/18161.got.cif
#   From: 2010.03.12/outbox.cif.g09.slc.cpg/sg20_10_cif.got.tgz:18161.got - 2010.04.14 01:38:04.
