data_PCOD8158090
_publ_section_title
;
Structure prediction by ZEFSAII (Michael W. Deem and Ramdas Pophale) SiO2 
 PCOD8158090
Probable space group: C 2 2 21
;
_chemical_formula_sum "Si O2"
_cell_formula_units_Z 48
_cell_length_a 18.754745
_cell_length_b 8.289883
_cell_length_c 16.415093
_cell_angle_alpha 90.000000
_cell_angle_beta 90.000000
_cell_angle_gamma 90.000000
_cell_volume 2552.130703
_symmetry_space_group_name_H-M "C 2 2 21"
_symmetry_group_IT_number 20
_symmetry_cell_setting 'orthorhombic'
loop_
_space_group_symop_operation_xyz
x,y,z
-x,-y,1/2+z
x,-y,-z
-x,y,1/2-z
1/2+x,1/2+y,z
1/2-x,1/2-y,1/2+z
1/2+x,1/2-y,-z
1/2-x,1/2+y,1/2-z
loop_
_atom_site_type_symbol
_atom_site_label
_atom_site_fract_x
_atom_site_fract_y
_atom_site_fract_z
Si Si1 0.917011 0.566172 0.263687
Si Si2 0.807384 0.635576 0.824886
Si Si3 0.807384 0.864424 0.675114
Si Si4 0.417011 0.433828 0.236313
Si Si5 0.327755 0.056470 0.590884
Si Si6 0.827755 0.056470 0.090885
O O1 0.880187 0.453560 0.197257
O O2 0.895015 0.750000 0.250000
O O3 0.890468 0.516471 0.353614
O O4 0.000000 0.537856 0.250000
O O5 0.781207 0.750000 0.750000
O O6 0.750000 0.500000 0.847699
O O7 0.825122 0.748279 0.902802
O O8 0.825122 0.751721 0.597198
O O9 0.880187 0.953560 0.697257
O O10 0.500000 0.462144 0.250000
O O11 0.390468 0.483529 0.146386
O O12 0.343925 0.000000 0.500000
O O13 0.250000 1.000000 0.621696
O O14 0.843925 0.000000 0.000000
#
# Coordination Sequence:
#
# PCOD8158090 Si02
#       6
#     8   8   8   8   8   8
#     4  10  20  36  56  81 112 149 191 227 269 331
#     4  10  18  32  58  83 109 147 191 229 269 330
#     4  10  18  32  58  83 109 147 191 229 269 330
#     4  10  20  36  56  81 112 149 191 227 269 331
#     4  10  21  37  56  82 116 144 179 235 283 324
#     4  10  21  37  56  82 116 144 179 235 283 324
#
# _framework density 18.807812999999999
#
# number of rings (size 3 to 8) (size 9 to 14) (size 15 to 20)
#    0.000    2.000    0.000    7.000    0.000    6.000 
#    0.000   18.333    0.000    0.000    0.000    0.000 
#    0.000    0.000    0.000    0.000    0.000    0.000 
#
# Total GULP energy -297519.947118 kJ/mol
# GULP energy per Si atom -12396.664463 kJ/mol
# Density = 1.876501 g / cm^3
# Si number density = 18.807813 Si / 1000 Ang^3
#
#
#
# Elastic Constant Matrix: (Units=GPa)
#
#
# Indices 1 2 3 4 5 6 
#
# 1 107.9898 66.6801 66.6838 0.0000 0.0000 0.0000
# 2 66.6801 178.7131 77.9112 0.0000 0.0000 0.0000
# 3 66.6838 77.9112 115.3827 0.0000 0.0000 0.0000
# 4 0.0000 0.0000 0.0000 32.7887 0.0000 0.0000
# 5 0.0000 0.0000 0.0000 0.0000 25.7904 0.0000
# 6 0.0000 0.0000 0.0000 0.0000 0.0000 37.1450
#
#
#
# Elastic Compliance Matrix: (Units=1/GPa)
#
#
# Indices 1 2 3 4 5 6 
#
# 1 0.015213 -0.002612 -0.007028 0.000000 0.000000 0.000000
# 2 -0.002612 0.008378 -0.004148 0.000000 0.000000 0.000000
# 3 -0.007028 -0.004148 0.015530 0.000000 0.000000 0.000000
# 4 0.000000 0.000000 0.000000 0.030498 0.000000 0.000000
# 5 0.000000 0.000000 0.000000 0.000000 0.038774 0.000000
# 6 0.000000 0.000000 0.000000 0.000000 0.000000 0.026922
#
#
# Mechanical properties :
#
#
# Convention : Reuss Voigt Hill
#
# Bulk Modulus (GPa) = 86.62201 91.62622 89.12412
# Shear Modulus (GPa) = 29.98682 31.86549 30.92616
#
# Velocity S-wave (km/s) = 3.99730 4.12062 4.05943
# Velocity P-wave (km/s) = 8.21346 8.45353 8.33436
#
# Compressibility (1/GPa) = 0.01154441
#
# Stress axis : x y z
#
# Youngs Moduli (GPa) = 65.73302 119.35363 64.39337
#
# Poissons Ratio (x) = 0.31177 0.45258
# Poissons Ratio (y) = 0.17170 0.26709
# Poissons Ratio (z) = 0.46200 0.49506
#
# Static dielectric constant tensor:
#      x y z
#    x 3.332020 0.000000 0.000000 
#    y 0.000000 3.937370 0.000000 
#    z 0.000000 0.000000 3.172700 
# 
# 
# High freq. dielectric constant tensor:
#      x y z
#    x 1.726590 0.000000 0.000000 
#    y 0.000000 1.757020 0.000000 
#    z 0.000000 0.000000 1.701740 
# 
# From -- ./inp_files/23611.got.cif
#   From: 2010.03.12/outbox.cif.g09.slc.cpg/sg20_12_cif.got.tgz:23611.got - 2010.04.14 01:38:04.
