data_PCOD8158168
_publ_section_title
;
Structure prediction by ZEFSAII (Michael W. Deem and Ramdas Pophale) SiO2 
 PCOD8158168
Probable space group: C 2 2 21
;
_chemical_formula_sum "Si O2"
_cell_formula_units_Z 56
_cell_length_a 12.871498
_cell_length_b 14.995388
_cell_length_c 14.865468
_cell_angle_alpha 90.000000
_cell_angle_beta 90.000000
_cell_angle_gamma 90.000000
_cell_volume 2869.230161
_symmetry_space_group_name_H-M "C 2 2 21"
_symmetry_group_IT_number 20
_symmetry_cell_setting 'orthorhombic'
loop_
_space_group_symop_operation_xyz
x,y,z
-x,-y,1/2+z
x,-y,-z
-x,y,1/2-z
1/2+x,1/2+y,z
1/2-x,1/2-y,1/2+z
1/2+x,1/2-y,-z
1/2-x,1/2+y,1/2-z
loop_
_atom_site_type_symbol
_atom_site_label
_atom_site_fract_x
_atom_site_fract_y
_atom_site_fract_z
Si Si1 0.526196 0.451872 0.647933
Si Si2 0.000000 0.749021 0.250000
Si Si3 0.722810 0.358227 0.115075
Si Si4 0.330811 0.392530 0.191419
Si Si5 0.954559 0.723046 0.435360
Si Si6 0.143009 0.000000 0.000000
Si Si7 0.375951 0.711193 0.067968
Si Si8 0.201680 0.397555 0.024700
O O1 0.500000 0.469348 0.750000
O O2 0.616611 0.525774 0.635177
O O3 0.429737 0.470487 0.582679
O O4 0.557094 0.348235 0.636858
O O5 0.908362 0.810043 0.207523
O O6 0.973536 0.683804 0.334171
O O7 0.714494 0.412560 0.209114
O O8 0.618755 0.305369 0.090016
O O9 0.726223 0.427249 0.033054
O O10 0.825769 0.296851 0.116815
O O11 0.231785 0.372410 0.127436
O O12 0.907307 0.650713 0.502847
O O13 0.058629 0.760376 0.481060
O O14 0.286951 0.643426 0.040184
O O15 0.187107 0.500000 0.000000
#
# Coordination Sequence:
#
# PCOD8158168 Si02
#       8
#     8   4   8   8   8   4   8   8
#     4  12  21  34  66  93 116 160 211 261 305 362
#     4  10  18  36  64  90 120 164 212 252 306 378
#     4  10  23  38  60  92 128 159 203 259 313 368
#     4  11  19  36  60  93 123 159 203 257 312 372
#     4  10  21  39  61  91 124 165 207 256 313 364
#     4  12  20  40  62  90 124 156 208 264 306 370
#     4  11  22  40  59  89 124 160 202 257 313 359
#     4  11  22  37  64  89 121 163 205 254 307 373
#
# _framework density 19.517430000000001
#
# number of rings (size 3 to 8) (size 9 to 14) (size 15 to 20)
#    0.000    1.143    6.429    1.714    0.000    1.143 
#    1.286    1.429    0.000    0.000    0.000    0.000 
#    0.000    0.000    0.000    0.000    0.000    0.000 
#
# Total GULP energy -346878.963320 kJ/mol
# GULP energy per Si atom -12388.534404 kJ/mol
# Density = 1.947301 g / cm^3
# Si number density = 19.517430 Si / 1000 Ang^3
#
#
#
# Elastic Constant Matrix: (Units=GPa)
#
#
# Indices 1 2 3 4 5 6 
#
# 1 44.0063 23.4217 15.7115 0.0000 0.0000 0.0000
# 2 23.4217 80.0917 29.4716 0.0000 0.0000 0.0000
# 3 15.7115 29.4716 107.2283 0.0000 0.0000 0.0000
# 4 0.0000 0.0000 0.0000 28.3023 0.0000 0.0000
# 5 0.0000 0.0000 0.0000 0.0000 32.1743 0.0000
# 6 0.0000 0.0000 0.0000 0.0000 0.0000 -7.8913
#
#
#
# Elastic Compliance Matrix: (Units=1/GPa)
#
#
# Indices 1 2 3 4 5 6 
#
# 1 0.027296 -0.007243 -0.002009 0.000000 0.000000 0.000000
# 2 -0.007243 0.015813 -0.003285 0.000000 0.000000 0.000000
# 3 -0.002009 -0.003285 0.010523 0.000000 0.000000 0.000000
# 4 0.000000 0.000000 0.000000 0.035333 0.000000 0.000000
# 5 0.000000 0.000000 0.000000 0.000000 0.031081 0.000000
# 6 0.000000 0.000000 0.000000 0.000000 0.000000 -0.126722
#
#
# Mechanical properties :
#
#
# Convention : Reuss Voigt Hill
#
# Bulk Modulus (GPa) = 35.01599 40.94844 37.98222
# Shear Modulus (GPa) = 179.10319 21.36516 100.23418
#
# Velocity S-wave (km/s) = 9.58984 3.31217 7.17410
# Velocity P-wave (km/s) = 11.85748 5.97104 9.38757
#
# Compressibility (1/GPa) = 0.02855838
#
# Stress axis : x y z
#
# Youngs Moduli (GPa) = 36.63493 63.24075 95.02961
#
# Poissons Ratio (x) = 0.45807 0.19089
# Poissons Ratio (y) = 0.26536 0.31215
# Poissons Ratio (z) = 0.07359 0.20773
#
# Static dielectric constant tensor:
#      x y z
#    x 3.476130 0.000000 0.000000 
#    y 0.000000 3.493770 0.000000 
#    z 0.000000 0.000000 3.977750 
# 
# 
# High freq. dielectric constant tensor:
#      x y z
#    x 1.739090 0.000000 0.000000 
#    y 0.000000 1.739270 0.000000 
#    z 0.000000 0.000000 1.775560 
# 
# From -- ./inp_files/20879.got.cif
#   From: 2010.03.12/outbox.cif.g09.slc.cpg/sg20_11_cif.got.tgz:20879.got - 2010.04.14 01:38:04.
