data_PCOD8158533
_publ_section_title
;
Structure prediction by ZEFSAII (Michael W. Deem and Ramdas Pophale) SiO2 
 PCOD8158533
Probable space group: C 2 2 21
;
_chemical_formula_sum "Si O2"
_cell_formula_units_Z 40
_cell_length_a 14.100801
_cell_length_b 8.964519
_cell_length_c 13.914170
_cell_angle_alpha 90.000000
_cell_angle_beta 90.000000
_cell_angle_gamma 90.000000
_cell_volume 1758.847075
_symmetry_space_group_name_H-M "C 2 2 21"
_symmetry_group_IT_number 20
_symmetry_cell_setting 'orthorhombic'
loop_
_space_group_symop_operation_xyz
x,y,z
-x,-y,1/2+z
x,-y,-z
-x,y,1/2-z
1/2+x,1/2+y,z
1/2-x,1/2-y,1/2+z
1/2+x,1/2-y,-z
1/2-x,1/2+y,1/2-z
loop_
_atom_site_type_symbol
_atom_site_label
_atom_site_fract_x
_atom_site_fract_y
_atom_site_fract_z
Si Si1 0.000000 0.768679 0.750000
Si Si2 0.185906 0.646226 0.535671
Si Si3 0.800748 0.136304 0.196908
Si Si4 0.000000 0.279142 0.750000
Si Si5 0.684433 0.308267 0.341110
Si Si6 0.483995 0.968942 0.397772
O O1 0.915743 0.866100 0.795880
O O2 0.946824 0.667994 0.667766
O O3 0.247065 0.500000 0.500000
O O4 0.236370 0.742551 0.618548
O O5 0.161855 0.761151 0.450018
O O6 0.093590 0.569028 0.582348
O O7 0.752056 0.180221 0.297063
O O8 0.766895 0.971743 0.163853
O O9 0.912020 0.176901 0.779933
O O10 0.970224 0.379589 0.659973
O O11 0.430766 0.000000 0.500000
#
# Coordination Sequence:
#
# PCOD8158533 Si02
#       6
#     4   8   8   4   8   8
#     4   9  21  40  64  86 132 166 216 266 326 380
#     4  10  19  42  66  93 126 171 206 275 328 385
#     4  11  25  42  64  97 130 176 218 273 323 390
#     4  11  21  38  68  96 124 174 218 268 326 398
#     4  12  24  41  66  95 132 170 223 267 330 388
#     4   9  17  35  67  93 121 166 211 264 331 383
#
# _framework density 22.742170000000002
#
# number of rings (size 3 to 8) (size 9 to 14) (size 15 to 20)
#    0.000    1.600    4.000    2.400    5.600    0.000 
#    3.600    0.000    0.000    0.000    0.000    0.000 
#    0.000    0.000    0.000    0.000    0.000    0.000 
#
# Total GULP energy -247859.764450 kJ/mol
# GULP energy per Si atom -12392.988223 kJ/mol
# Density = 2.269041 g / cm^3
# Si number density = 22.742170 Si / 1000 Ang^3
#
#
#
# Elastic Constant Matrix: (Units=GPa)
#
#
# Indices 1 2 3 4 5 6 
#
# 1 27.7121 -14.5397 -9.0086 0.0000 0.0000 0.0000
# 2 -14.5397 103.1816 16.4786 0.0000 0.0000 0.0000
# 3 -9.0086 16.4786 119.5789 0.0000 0.0000 0.0000
# 4 0.0000 0.0000 0.0000 34.5578 0.0000 0.0000
# 5 0.0000 0.0000 0.0000 0.0000 20.9679 0.0000
# 6 0.0000 0.0000 0.0000 0.0000 0.0000 27.2752
#
#
#
# Elastic Compliance Matrix: (Units=1/GPa)
#
#
# Indices 1 2 3 4 5 6 
#
# 1 0.039556 0.005213 0.002262 0.000000 0.000000 0.000000
# 2 0.005213 0.010597 -0.001068 0.000000 0.000000 0.000000
# 3 0.002262 -0.001068 0.008680 0.000000 0.000000 0.000000
# 4 0.000000 0.000000 0.000000 0.028937 0.000000 0.000000
# 5 0.000000 0.000000 0.000000 0.000000 0.047692 0.000000
# 6 0.000000 0.000000 0.000000 0.000000 0.000000 0.036663
#
#
# Mechanical properties :
#
#
# Convention : Reuss Voigt Hill
#
# Bulk Modulus (GPa) = 13.95752 26.25923 20.10837
# Shear Modulus (GPa) = 27.29361 33.72968 30.51164
#
# Velocity S-wave (km/s) = 3.46805 3.85533 3.66680
# Velocity P-wave (km/s) = 4.71032 5.60264 5.17575
#
# Compressibility (1/GPa) = 0.07164595
#
# Stress axis : x y z
#
# Youngs Moduli (GPa) = 25.28092 94.36907 115.20504
#
# Poissons Ratio (x) = -0.49192 -0.26055
# Poissons Ratio (y) = -0.13178 0.12299
# Poissons Ratio (z) = -0.05718 0.10075
#
# Static dielectric constant tensor:
#      x y z
#    x 3.569720 0.000000 0.000000 
#    y 0.000000 4.244770 0.000000 
#    z 0.000000 0.000000 4.622120 
# 
# 
# High freq. dielectric constant tensor:
#      x y z
#    x 1.848950 0.000000 0.000000 
#    y 0.000000 1.902110 0.000000 
#    z 0.000000 0.000000 1.912640 
# 
# From -- ./inp_files/20513.got.cif
#   From: 2010.03.12/outbox.cif.g09.slc.cpg/sg20_11_cif.got.tgz:20513.got - 2010.04.14 01:38:04.
