data_PCOD8158542
_publ_section_title
;
Structure prediction by ZEFSAII (Michael W. Deem and Ramdas Pophale) SiO2 
 PCOD8158542
Probable space group: C 2 2 21
;
_chemical_formula_sum "Si O2"
_cell_formula_units_Z 48
_cell_length_a 16.174488
_cell_length_b 9.016494
_cell_length_c 15.292719
_cell_angle_alpha 90.000000
_cell_angle_beta 90.000000
_cell_angle_gamma 90.000000
_cell_volume 2230.246922
_symmetry_space_group_name_H-M "C 2 2 21"
_symmetry_group_IT_number 20
_symmetry_cell_setting 'orthorhombic'
loop_
_space_group_symop_operation_xyz
x,y,z
-x,-y,1/2+z
x,-y,-z
-x,y,1/2-z
1/2+x,1/2+y,z
1/2-x,1/2-y,1/2+z
1/2+x,1/2-y,-z
1/2-x,1/2+y,1/2-z
loop_
_atom_site_type_symbol
_atom_site_label
_atom_site_fract_x
_atom_site_fract_y
_atom_site_fract_z
Si Si1 0.250881 0.780565 0.341433
Si Si2 0.399187 0.833724 0.473697
Si Si3 0.041476 0.275560 0.340639
Si Si4 0.144347 0.086706 0.912597
Si Si5 0.169167 0.500547 0.403632
Si Si6 0.848006 0.051461 0.235452
O O1 0.314642 0.812624 0.419705
O O2 0.177756 0.671766 0.373964
O O3 0.296067 0.697210 0.262121
O O4 0.211949 0.933912 0.309988
O O5 0.476515 0.769456 0.419609
O O6 0.388475 0.751862 0.567901
O O7 0.417301 0.000000 0.500000
O O8 0.106000 0.409990 0.345350
O O9 0.084814 0.112457 0.333973
O O10 0.000000 0.313936 0.250000
O O11 0.242739 0.081732 0.900292
O O12 0.107181 0.018238 0.822451
O O13 0.116945 0.000000 0.000000
O O14 0.131574 0.500000 0.500000
#
# Coordination Sequence:
#
# PCOD8158542 Si02
#       6
#     8   8   8   8   8   8
#     4  11  23  42  74 103 129 182 239 280 338 416
#     4  12  26  43  71 106 140 183 229 290 356 409
#     4  12  25  45  65 100 147 178 220 293 358 401
#     4  10  19  43  71  96 132 183 233 279 339 410
#     4  10  21  43  71  97 133 181 225 287 339 410
#     4  11  23  41  73 101 134 183 230 290 339 415
#
# _framework density 21.522281
#
# number of rings (size 3 to 8) (size 9 to 14) (size 15 to 20)
#    0.000    1.000    6.667    2.500    4.667    0.000 
#    0.000    9.167    0.000    0.000    0.000    0.000 
#    0.000    0.000    0.000    0.000    0.000    0.000 
#
# Total GULP energy -297491.378513 kJ/mol
# GULP energy per Si atom -12395.474105 kJ/mol
# Density = 2.147329 g / cm^3
# Si number density = 21.522281 Si / 1000 Ang^3
#
#
#
# Elastic Constant Matrix: (Units=GPa)
#
#
# Indices 1 2 3 4 5 6 
#
# 1 76.9514 68.8606 44.8569 0.0000 0.0000 0.0000
# 2 68.8606 138.9506 58.2178 0.0000 0.0000 0.0000
# 3 44.8569 58.2178 77.5924 0.0000 0.0000 0.0000
# 4 0.0000 0.0000 0.0000 40.6171 0.0000 0.0000
# 5 0.0000 0.0000 0.0000 0.0000 25.6434 0.0000
# 6 0.0000 0.0000 0.0000 0.0000 0.0000 17.9037
#
#
#
# Elastic Compliance Matrix: (Units=1/GPa)
#
#
# Indices 1 2 3 4 5 6 
#
# 1 0.026309 -0.009722 -0.007915 0.000000 0.000000 0.000000
# 2 -0.009722 0.014089 -0.004951 0.000000 0.000000 0.000000
# 3 -0.007915 -0.004951 0.021178 0.000000 0.000000 0.000000
# 4 0.000000 0.000000 0.000000 0.024620 0.000000 0.000000
# 5 0.000000 0.000000 0.000000 0.000000 0.038996 0.000000
# 6 0.000000 0.000000 0.000000 0.000000 0.000000 0.055854
#
#
# Mechanical properties :
#
#
# Convention : Reuss Voigt Hill
#
# Bulk Modulus (GPa) = 60.97285 70.81832 65.89558
# Shear Modulus (GPa) = 21.58069 24.93677 23.25873
#
# Velocity S-wave (km/s) = 3.17000 3.40759 3.29094
# Velocity P-wave (km/s) = 6.46453 6.96120 6.71746
#
# Compressibility (1/GPa) = 0.01640074
#
# Stress axis : x y z
#
# Youngs Moduli (GPa) = 38.01034 70.97798 47.21831
#
# Poissons Ratio (x) = 0.69002 0.37374
# Poissons Ratio (y) = 0.36952 0.23377
# Poissons Ratio (z) = 0.30086 0.35139
#
# Static dielectric constant tensor:
#      x y z
#    x 3.817650 0.000000 0.000000 
#    y 0.000000 4.081680 0.000000 
#    z 0.000000 0.000000 4.215120 
# 
# 
# High freq. dielectric constant tensor:
#      x y z
#    x 1.830130 0.000000 0.000000 
#    y 0.000000 1.849160 0.000000 
#    z 0.000000 0.000000 1.846410 
# 
# From -- ./inp_files/21265.got.cif
#   From: 2010.03.12/outbox.cif.g09.slc.cpg/sg20_11_cif.got.tgz:21265.got - 2010.04.14 01:38:04.
