data_PCOD8158712
_publ_section_title
;
Structure prediction by ZEFSAII (Michael W. Deem and Ramdas Pophale) SiO2 
 PCOD8158712
Probable space group: C 2 2 21
;
_chemical_formula_sum "Si O2"
_cell_formula_units_Z 64
_cell_length_a 22.515065
_cell_length_b 14.908755
_cell_length_c 8.623864
_cell_angle_alpha 90.000000
_cell_angle_beta 90.000000
_cell_angle_gamma 90.000000
_cell_volume 2894.786123
_symmetry_space_group_name_H-M "C 2 2 21"
_symmetry_group_IT_number 20
_symmetry_cell_setting 'orthorhombic'
loop_
_space_group_symop_operation_xyz
x,y,z
-x,-y,1/2+z
x,-y,-z
-x,y,1/2-z
1/2+x,1/2+y,z
1/2-x,1/2-y,1/2+z
1/2+x,1/2-y,-z
1/2-x,1/2+y,1/2-z
loop_
_atom_site_type_symbol
_atom_site_label
_atom_site_fract_x
_atom_site_fract_y
_atom_site_fract_z
Si Si1 0.620468 0.824882 0.615129
Si Si2 0.753345 0.350547 0.847186
Si Si3 0.903793 0.400523 0.555619
Si Si4 0.469823 0.412088 0.588385
Si Si5 0.645285 0.553595 0.254785
Si Si6 0.343065 0.628304 0.913297
Si Si7 0.506876 0.779913 0.432853
Si Si8 0.282776 0.819886 0.502053
O O1 0.684447 0.866743 0.557501
O O2 0.599809 0.886303 0.758820
O O3 0.632007 0.720302 0.658098
O O4 0.570667 0.821810 0.481170
O O5 0.712330 0.437116 0.814652
O O6 0.774304 0.308547 0.684850
O O7 0.711572 0.279829 0.934389
O O8 0.918558 0.500000 0.500000
O O9 0.957946 0.341259 0.505690
O O10 0.843396 0.372699 0.467886
O O11 0.491386 0.500000 0.500000
O O12 0.500000 0.421534 0.750000
O O13 0.398891 0.413570 0.619317
O O14 0.493663 0.321427 0.504278
O O15 0.635393 0.449830 0.298371
O O16 0.634378 0.613817 0.409263
O O17 0.271324 0.627181 0.920849
O O18 0.500000 0.780578 0.250000
#
# Coordination Sequence:
#
# PCOD8158712 Si02
#       8
#     8   8   8   8   8   8   8   8
#     4  10  22  41  68  98 131 175 230 280 352 419
#     4   9  19  37  62  95 127 171 218 274 341 412
#     4  11  25  41  69  96 128 170 228 287 346 411
#     4  11  26  40  63  96 136 181 227 280 342 416
#     4  10  20  36  63  95 140 173 228 282 338 413
#     4   9  19  34  66  97 130 179 221 272 341 422
#     4  11  25  45  67  92 129 177 230 287 353 407
#     4   9  19  36  62  92 129 166 216 271 339 412
#
# _framework density 22.108713999999999
#
# number of rings (size 3 to 8) (size 9 to 14) (size 15 to 20)
#    0.000    2.000    0.000    2.625   10.500    3.000 
#    2.250    0.000    0.000    0.000    0.000    0.000 
#    0.000    0.000    0.000    0.000    0.000    0.000 
#
# Total GULP energy -396582.890642 kJ/mol
# GULP energy per Si atom -12393.215333 kJ/mol
# Density = 2.205839 g / cm^3
# Si number density = 22.108714 Si / 1000 Ang^3
#
#
#
# Elastic Constant Matrix: (Units=GPa)
#
#
# Indices 1 2 3 4 5 6 
#
# 1 79.7917 20.7352 30.7636 0.0000 0.0000 0.0000
# 2 20.7352 82.7819 33.3595 0.0000 0.0000 0.0000
# 3 30.7636 33.3595 39.5376 0.0000 0.0000 0.0000
# 4 0.0000 0.0000 0.0000 -65.6526 0.0000 0.0000
# 5 0.0000 0.0000 0.0000 0.0000 30.0298 0.0000
# 6 0.0000 0.0000 0.0000 0.0000 0.0000 92.2743
#
#
#
# Elastic Compliance Matrix: (Units=1/GPa)
#
#
# Indices 1 2 3 4 5 6 
#
# 1 0.018065 0.001726 -0.015513 0.000000 0.000000 0.000000
# 2 0.001726 0.018468 -0.016926 0.000000 0.000000 0.000000
# 3 -0.015513 -0.016926 0.051644 0.000000 0.000000 0.000000
# 4 0.000000 0.000000 0.000000 -0.015232 0.000000 0.000000
# 5 0.000000 0.000000 0.000000 0.000000 0.033300 0.000000
# 6 0.000000 0.000000 0.000000 0.000000 0.000000 0.010837
#
#
# Mechanical properties :
#
#
# Convention : Reuss Voigt Hill
#
# Bulk Modulus (GPa) = 37.37941 41.31419 39.34680
# Shear Modulus (GPa) = 26.67749 19.14714 22.91231
#
# Velocity S-wave (km/s) = 3.47746 2.94606 3.22273
# Velocity P-wave (km/s) = 5.75043 5.50452 5.62882
#
# Compressibility (1/GPa) = 0.02675270
#
# Stress axis : x y z
#
# Youngs Moduli (GPa) = 55.35596 54.14706 19.36352
#
# Poissons Ratio (x) = -0.09348 0.30038
# Poissons Ratio (y) = -0.09557 0.32774
# Poissons Ratio (z) = 0.85872 0.91648
#
# Static dielectric constant tensor:
#      x y z
#    x 6.832510 0.000000 0.000000 
#    y 0.000000 5.224090 0.000000 
#    z 0.000000 0.000000 2.860500 
# 
# 
# High freq. dielectric constant tensor:
#      x y z
#    x 1.888550 0.000000 0.000000 
#    y 0.000000 1.855220 0.000000 
#    z 0.000000 0.000000 1.849490 
# 
# From -- ./inp_files/10797.got.cif
#   From: 2010.03.12/outbox.cif.g09.slc.cpg/sg20_6_cif.got.tgz:10797.got - 2010.04.14 01:38:04.
