data_PCOD8158210
_publ_section_title
;
Structure prediction by ZEFSAII (Michael W. Deem and Ramdas Pophale) SiO2 
 PCOD8158210
Probable space group: C 2 2 21
;
_chemical_formula_sum "Si O2"
_cell_formula_units_Z 44
_cell_length_a 25.228854
_cell_length_b 8.362135
_cell_length_c 9.646370
_cell_angle_alpha 90.000000
_cell_angle_beta 90.000000
_cell_angle_gamma 90.000000
_cell_volume 2035.066541
_symmetry_space_group_name_H-M "C 2 2 21"
_symmetry_group_IT_number 20
_symmetry_cell_setting 'orthorhombic'
loop_
_space_group_symop_operation_xyz
x,y,z
-x,-y,1/2+z
x,-y,-z
-x,y,1/2-z
1/2+x,1/2+y,z
1/2-x,1/2-y,1/2+z
1/2+x,1/2-y,-z
1/2-x,1/2+y,1/2-z
loop_
_atom_site_type_symbol
_atom_site_label
_atom_site_fract_x
_atom_site_fract_y
_atom_site_fract_z
Si Si1 0.144170 0.096557 0.358471
Si Si2 0.000000 0.396332 0.250000
Si Si3 0.229331 0.312308 0.473587
Si Si4 0.812834 0.791888 0.249611
Si Si5 0.908116 0.402275 0.860231
Si Si6 0.536258 0.667939 0.456077
O O1 0.180500 0.254699 0.374933
O O2 0.082895 0.148088 0.339108
O O3 0.146684 0.000000 0.500000
O O4 0.163756 0.973127 0.240241
O O5 0.053420 0.499788 0.258988
O O6 0.993346 0.286329 0.387675
O O7 0.224510 0.500000 0.500000
O O8 0.228537 0.219831 0.620793
O O9 0.283382 0.263213 0.394929
O O10 0.856710 0.653525 0.225533
O O11 0.892557 0.500000 0.000000
O O12 0.939177 0.242543 0.904824
O O13 0.509698 0.500000 0.500000
#
# Coordination Sequence:
#
# PCOD8158210 Si02
#       6
#     8   4   8   8   8   8
#     4   9  18  35  59  91 117 168 221 252 318 410
#     4  10  24  34  66 102 114 162 232 274 326 394
#     4  11  22  36  65  98 128 176 221 274 324 398
#     4  11  21  39  65  98 134 176 221 269 338 413
#     4  10  20  39  67  93 129 167 222 275 339 409
#     4  10  18  39  66  87 122 170 225 265 333 409
#
# _framework density 21.620913000000002
#
# number of rings (size 3 to 8) (size 9 to 14) (size 15 to 20)
#    0.000    1.818    5.455    1.636    2.545    0.727 
#    0.000    0.000   24.000    0.000    0.000    0.000 
#    0.000    0.000    0.000    0.000    0.000    0.000 
#
# Total GULP energy -272636.160492 kJ/mol
# GULP energy per Si atom -12392.552750 kJ/mol
# Density = 2.157170 g / cm^3
# Si number density = 21.620913 Si / 1000 Ang^3
#
#
#
# Elastic Constant Matrix: (Units=GPa)
#
#
# Indices 1 2 3 4 5 6 
#
# 1 105.7260 56.1259 60.5324 0.0000 0.0000 0.0000
# 2 56.1259 136.2799 35.5921 0.0000 0.0000 0.0000
# 3 60.5324 35.5921 64.2651 0.0000 0.0000 0.0000
# 4 0.0000 0.0000 0.0000 27.3284 0.0000 0.0000
# 5 0.0000 0.0000 0.0000 0.0000 39.7438 0.0000
# 6 0.0000 0.0000 0.0000 0.0000 0.0000 35.9764
#
#
#
# Elastic Compliance Matrix: (Units=1/GPa)
#
#
# Indices 1 2 3 4 5 6 
#
# 1 0.022559 -0.004374 -0.018827 0.000000 0.000000 0.000000
# 2 -0.004374 0.009427 -0.001101 0.000000 0.000000 0.000000
# 3 -0.018827 -0.001101 0.033903 0.000000 0.000000 0.000000
# 4 0.000000 0.000000 0.000000 0.036592 0.000000 0.000000
# 5 0.000000 0.000000 0.000000 0.000000 0.025161 0.000000
# 6 0.000000 0.000000 0.000000 0.000000 0.000000 0.027796
#
#
# Mechanical properties :
#
#
# Convention : Reuss Voigt Hill
#
# Bulk Modulus (GPa) = 57.84865 67.86353 62.85609
# Shear Modulus (GPa) = 23.83179 30.87775 27.35477
#
# Velocity S-wave (km/s) = 3.32363 3.78318 3.56082
# Velocity P-wave (km/s) = 6.44536 7.10910 6.78535
#
# Compressibility (1/GPa) = 0.01728649
#
# Stress axis : x y z
#
# Youngs Moduli (GPa) = 44.32743 106.08090 29.49563
#
# Poissons Ratio (x) = 0.46400 0.55530
# Poissons Ratio (y) = 0.19389 0.03247
# Poissons Ratio (z) = 0.83453 0.11678
#
# Static dielectric constant tensor:
#      x y z
#    x 4.061040 0.000000 0.000000 
#    y 0.000000 4.614350 0.000000 
#    z 0.000000 0.000000 3.525580 
# 
# 
# High freq. dielectric constant tensor:
#      x y z
#    x 1.829340 0.000000 0.000000 
#    y 0.000000 1.875650 0.000000 
#    z 0.000000 0.000000 1.795870 
# 
# From -- ./inp_files/16601.got.cif
#   From: 2010.03.12/outbox.cif.g09.slc.cpg/sg20_9_cif.got.tgz:16601.got - 2010.04.14 01:38:04.
