data_PCOD8158049
_publ_section_title
;
Structure prediction by ZEFSAII (Michael W. Deem and Ramdas Pophale) SiO2 
 PCOD8158049
Probable space group: C 2 2 21
;
_chemical_formula_sum "Si O2"
_cell_formula_units_Z 48
_cell_length_a 9.275088
_cell_length_b 21.737468
_cell_length_c 13.264357
_cell_angle_alpha 90.000000
_cell_angle_beta 90.000000
_cell_angle_gamma 90.000000
_cell_volume 2674.318918
_symmetry_space_group_name_H-M "C 2 2 21"
_symmetry_group_IT_number 20
_symmetry_cell_setting 'orthorhombic'
loop_
_space_group_symop_operation_xyz
x,y,z
-x,-y,1/2+z
x,-y,-z
-x,y,1/2-z
1/2+x,1/2+y,z
1/2-x,1/2-y,1/2+z
1/2+x,1/2-y,-z
1/2-x,1/2+y,1/2-z
loop_
_atom_site_type_symbol
_atom_site_label
_atom_site_fract_x
_atom_site_fract_y
_atom_site_fract_z
Si Si1 0.667074 0.618857 0.725689
Si Si2 0.662635 0.758730 0.719863
Si Si3 0.819879 0.432329 0.460170
Si Si4 0.927242 0.724583 0.010037
Si Si5 0.419533 0.879162 0.148706
Si Si6 0.771176 0.685325 0.421003
O O1 0.500000 0.610987 0.750000
O O2 0.725034 0.689335 0.713497
O O3 0.698780 0.582832 0.622611
O O4 0.765895 0.591111 0.817074
O O5 0.500000 0.748026 0.750000
O O6 0.664387 0.792101 0.611015
O O7 0.741935 0.802816 0.800742
O O8 0.793687 0.500000 0.500000
O O9 0.801621 0.386009 0.555040
O O10 0.980243 0.427326 0.412144
O O11 0.097589 0.726016 0.032563
O O12 0.884308 0.678195 0.922294
O O13 0.877056 0.792427 0.973382
O O14 0.500000 0.856747 0.250000
#
# Coordination Sequence:
#
# PCOD8158049 Si02
#       6
#     8   8   8   8   8   8
#     4  10  18  33  59  82 104 140 191 235 275 337
#     4   9  17  29  48  81 110 135 175 229 289 320
#     4  10  21  37  54  79 115 156 187 219 277 345
#     4  10  18  30  49  78 111 135 180 231 283 321
#     4   9  19  34  54  81 106 144 188 229 276 333
#     4  10  19  31  53  79 111 140 180 230 278 323
#
# _framework density 17.948495999999999
#
# number of rings (size 3 to 8) (size 9 to 14) (size 15 to 20)
#    0.000    2.333    3.333    0.000    0.000    0.000 
#    0.000   13.333    0.000    3.000    0.000    0.000 
#    0.000    0.000    0.000    0.000    0.000    0.000 
#
# Total GULP energy -297403.615513 kJ/mol
# GULP energy per Si atom -12391.817313 kJ/mol
# Density = 1.790764 g / cm^3
# Si number density = 17.948496 Si / 1000 Ang^3
#
#
#
# Elastic Constant Matrix: (Units=GPa)
#
#
# Indices 1 2 3 4 5 6 
#
# 1 82.7831 34.9492 29.2513 0.0000 0.0000 0.0000
# 2 34.9492 107.5489 60.9327 0.0000 0.0000 0.0000
# 3 29.2513 60.9327 121.2841 0.0000 0.0000 0.0000
# 4 0.0000 0.0000 0.0000 25.5155 0.0000 0.0000
# 5 0.0000 0.0000 0.0000 0.0000 19.4168 0.0000
# 6 0.0000 0.0000 0.0000 0.0000 0.0000 15.5094
#
#
#
# Elastic Compliance Matrix: (Units=1/GPa)
#
#
# Indices 1 2 3 4 5 6 
#
# 1 0.014205 -0.003740 -0.001547 0.000000 0.000000 0.000000
# 2 -0.003740 0.013982 -0.006123 0.000000 0.000000 0.000000
# 3 -0.001547 -0.006123 0.011694 0.000000 0.000000 0.000000
# 4 0.000000 0.000000 0.000000 0.039192 0.000000 0.000000
# 5 0.000000 0.000000 0.000000 0.000000 0.051502 0.000000
# 6 0.000000 0.000000 0.000000 0.000000 0.000000 0.064477
#
#
# Mechanical properties :
#
#
# Convention : Reuss Voigt Hill
#
# Bulk Modulus (GPa) = 58.60744 62.43141 60.51942
# Shear Modulus (GPa) = 22.36546 24.52052 23.44299
#
# Velocity S-wave (km/s) = 3.53383 3.70017 3.61796
# Velocity P-wave (km/s) = 7.02671 7.28795 7.15852
#
# Compressibility (1/GPa) = 0.01706268
#
# Stress axis : x y z
#
# Youngs Moduli (GPa) = 70.39652 71.51973 85.51167
#
# Poissons Ratio (x) = 0.26745 0.13231
# Poissons Ratio (y) = 0.26325 0.52356
# Poissons Ratio (z) = 0.10893 0.43789
#
# Static dielectric constant tensor:
#      x y z
#    x 3.364580 0.000000 0.000000 
#    y 0.000000 2.857640 0.000000 
#    z 0.000000 0.000000 3.760360 
# 
# 
# High freq. dielectric constant tensor:
#      x y z
#    x 1.692140 0.000000 0.000000 
#    y 0.000000 1.639930 0.000000 
#    z 0.000000 0.000000 1.711820 
# 
# From -- ./inp_files/18908.got.cif
#   From: 2010.03.12/outbox.cif.g09.slc.cpg/sg20_10_cif.got.tgz:18908.got - 2010.04.14 01:38:04.
