data_PCOD8158935
_publ_section_title
;
Structure prediction by ZEFSAII (Michael W. Deem and Ramdas Pophale) SiO2 
 PCOD8158935
Probable space group: C 2 2 21
;
_chemical_formula_sum "Si O2"
_cell_formula_units_Z 48
_cell_length_a 14.181460
_cell_length_b 9.130627
_cell_length_c 18.041540
_cell_angle_alpha 90.000000
_cell_angle_beta 90.000000
_cell_angle_gamma 90.000000
_cell_volume 2336.120021
_symmetry_space_group_name_H-M "C 2 2 21"
_symmetry_group_IT_number 20
_symmetry_cell_setting 'orthorhombic'
loop_
_space_group_symop_operation_xyz
x,y,z
-x,-y,1/2+z
x,-y,-z
-x,y,1/2-z
1/2+x,1/2+y,z
1/2-x,1/2-y,1/2+z
1/2+x,1/2-y,-z
1/2-x,1/2+y,1/2-z
loop_
_atom_site_type_symbol
_atom_site_label
_atom_site_fract_x
_atom_site_fract_y
_atom_site_fract_z
Si Si1 0.201849 0.646880 0.909425
Si Si2 0.551492 0.749230 0.989923
Si Si3 0.101426 0.798000 0.775674
Si Si4 0.970617 0.000397 0.611048
Si Si5 0.328631 0.388990 0.875427
Si Si6 0.844898 0.665800 0.006972
O O1 0.134513 0.643353 0.982712
O O2 0.148556 0.689339 0.834114
O O3 0.236332 0.481891 0.895328
O O4 0.287917 0.757935 0.926189
O O5 0.547226 0.628578 0.053489
O O6 0.571313 0.657416 0.914330
O O7 0.456152 0.839207 0.975839
O O8 0.080388 0.957059 0.812534
O O9 0.172390 0.821452 0.707158
O O10 0.000000 0.730688 0.750000
O O11 0.084122 0.002795 0.617805
O O12 0.331080 0.252440 0.930671
O O13 0.806938 0.500000 0.000000
#
# Coordination Sequence:
#
# PCOD8158935 Si02
#       6
#     8   8   8   8   8   8
#     4  11  22  37  66  93 124 172 212 260 318 382
#     4   9  18  35  60  89 127 156 207 263 315 365
#     4   9  20  37  62  92 124 169 209 253 324 386
#     4   8  15  34  63  89 116 163 204 252 313 379
#     4  10  20  40  62  89 125 164 208 259 317 377
#     4  11  24  38  61  94 128 163 212 267 313 374
#
# _framework density 20.546890999999999
#
# number of rings (size 3 to 8) (size 9 to 14) (size 15 to 20)
#    0.000    2.333    1.667    1.500    4.667    2.667 
#    0.000    0.000    0.000    0.000    0.000    0.000 
#    0.000    0.000    0.000    0.000    0.000    0.000 
#
# Total GULP energy -297427.790610 kJ/mol
# GULP energy per Si atom -12392.824609 kJ/mol
# Density = 2.050012 g / cm^3
# Si number density = 20.546891 Si / 1000 Ang^3
#
#
#
# Elastic Constant Matrix: (Units=GPa)
#
#
# Indices 1 2 3 4 5 6 
#
# 1 95.5093 35.6196 29.1790 0.0000 0.0000 0.0000
# 2 35.6196 93.3348 39.5507 0.0000 0.0000 0.0000
# 3 29.1790 39.5507 90.6176 0.0000 0.0000 0.0000
# 4 0.0000 0.0000 0.0000 13.2469 0.0000 0.0000
# 5 0.0000 0.0000 0.0000 0.0000 44.4470 0.0000
# 6 0.0000 0.0000 0.0000 0.0000 0.0000 27.8503
#
#
#
# Elastic Compliance Matrix: (Units=1/GPa)
#
#
# Indices 1 2 3 4 5 6 
#
# 1 0.012622 -0.003797 -0.002407 0.000000 0.000000 0.000000
# 2 -0.003797 0.014288 -0.005013 0.000000 0.000000 0.000000
# 3 -0.002407 -0.005013 0.013999 0.000000 0.000000 0.000000
# 4 0.000000 0.000000 0.000000 0.075489 0.000000 0.000000
# 5 0.000000 0.000000 0.000000 0.000000 0.022499 0.000000
# 6 0.000000 0.000000 0.000000 0.000000 0.000000 0.035906
#
#
# Mechanical properties :
#
#
# Convention : Reuss Voigt Hill
#
# Bulk Modulus (GPa) = 54.13211 54.24004 54.18608
# Shear Modulus (GPa) = 24.58284 28.78301 26.68292
#
# Velocity S-wave (km/s) = 3.46269 3.74685 3.60757
# Velocity P-wave (km/s) = 6.51075 6.72116 6.61679
#
# Compressibility (1/GPa) = 0.01847332
#
# Stress axis : x y z
#
# Youngs Moduli (GPa) = 79.22964 69.99123 71.43603
#
# Poissons Ratio (x) = 0.26574 0.17195
# Poissons Ratio (y) = 0.30082 0.35813
# Poissons Ratio (z) = 0.19071 0.35089
#
# Static dielectric constant tensor:
#      x y z
#    x 3.953820 0.000000 0.000000 
#    y 0.000000 3.461680 0.000000 
#    z 0.000000 0.000000 3.909060 
# 
# 
# High freq. dielectric constant tensor:
#      x y z
#    x 1.804680 0.000000 0.000000 
#    y 0.000000 1.780880 0.000000 
#    z 0.000000 0.000000 1.797220 
# 
# From -- ./inp_files/24824.got.cif
#   From: 2010.03.12/outbox.cif.g09.slc.cpg/sg20_13_cif.got.tgz:24824.got - 2010.04.14 01:38:04.
