data_PCOD8158387
_publ_section_title
;
Structure prediction by ZEFSAII (Michael W. Deem and Ramdas Pophale) SiO2 
 PCOD8158387
Probable space group: C 2 2 21
;
_chemical_formula_sum "Si O2"
_cell_formula_units_Z 40
_cell_length_a 6.984160
_cell_length_b 21.114502
_cell_length_c 11.946037
_cell_angle_alpha 90.000000
_cell_angle_beta 90.000000
_cell_angle_gamma 90.000000
_cell_volume 1761.646958
_symmetry_space_group_name_H-M "C 2 2 21"
_symmetry_group_IT_number 20
_symmetry_cell_setting 'orthorhombic'
loop_
_space_group_symop_operation_xyz
x,y,z
-x,-y,1/2+z
x,-y,-z
-x,y,1/2-z
1/2+x,1/2+y,z
1/2-x,1/2-y,1/2+z
1/2+x,1/2-y,-z
1/2-x,1/2+y,1/2-z
loop_
_atom_site_type_symbol
_atom_site_label
_atom_site_fract_x
_atom_site_fract_y
_atom_site_fract_z
Si Si1 0.317070 0.103113 0.544375
Si Si2 0.241455 0.477891 0.840032
Si Si3 0.570493 0.788022 0.376385
Si Si4 0.567266 0.331000 0.011420
Si Si5 0.176316 0.955561 0.901512
O O1 0.346278 0.076921 0.418360
O O2 0.478465 0.155026 0.555528
O O3 0.111068 0.134733 0.570048
O O4 0.345818 0.046573 0.632942
O O5 0.465912 0.480237 0.870380
O O6 0.194857 0.462524 0.710425
O O7 0.500000 0.791163 0.250000
O O8 0.509496 0.721078 0.425610
O O9 0.799005 0.798720 0.393146
O O10 0.682291 0.382630 0.938477
O O11 0.261929 0.000000 0.000000
#
# Coordination Sequence:
#
# PCOD8158387 Si02
#       5
#     8   8   8   8   8
#     4  10  21  46  66  98 136 174 227 273 342 398
#     4   9  19  38  67  96 134 177 215 287 333 400
#     4  12  28  43  69 100 133 180 228 280 331 414
#     4  11  24  46  64  98 136 176 226 274 338 401
#     4  10  19  35  67  98 129 175 225 270 340 396
#
# _framework density 22.706025
#
# number of rings (size 3 to 8) (size 9 to 14) (size 15 to 20)
#    0.000    1.600    6.000    0.000    8.400    0.800 
#    3.600    3.000    0.000    0.000    0.000    0.000 
#    0.000    0.000    0.000    0.000    0.000    0.000 
#
# Total GULP energy -248025.428137 kJ/mol
# GULP energy per Si atom -12401.271407 kJ/mol
# Density = 2.265435 g / cm^3
# Si number density = 22.706025 Si / 1000 Ang^3
#
#
#
# Elastic Constant Matrix: (Units=GPa)
#
#
# Indices 1 2 3 4 5 6 
#
# 1 44.2546 35.4092 36.2500 0.0000 0.0000 0.0000
# 2 35.4092 138.6029 25.2774 0.0000 0.0000 0.0000
# 3 36.2500 25.2774 117.1745 0.0000 0.0000 0.0000
# 4 0.0000 0.0000 0.0000 19.1734 0.0000 0.0000
# 5 0.0000 0.0000 0.0000 0.0000 26.8904 0.0000
# 6 0.0000 0.0000 0.0000 0.0000 0.0000 21.5994
#
#
#
# Elastic Compliance Matrix: (Units=1/GPa)
#
#
# Indices 1 2 3 4 5 6 
#
# 1 0.036599 -0.007583 -0.009686 0.000000 0.000000 0.000000
# 2 -0.007583 0.009082 0.000387 0.000000 0.000000 0.000000
# 3 -0.009686 0.000387 0.011447 0.000000 0.000000 0.000000
# 4 0.000000 0.000000 0.000000 0.052156 0.000000 0.000000
# 5 0.000000 0.000000 0.000000 0.000000 0.037188 0.000000
# 6 0.000000 0.000000 0.000000 0.000000 0.000000 0.046298
#
#
# Mechanical properties :
#
#
# Convention : Reuss Voigt Hill
#
# Bulk Modulus (GPa) = 42.80486 54.87835 48.84161
# Shear Modulus (GPa) = 21.33815 27.07233 24.20524
#
# Velocity S-wave (km/s) = 3.06887 3.45671 3.26855
# Velocity P-wave (km/s) = 5.60803 6.33667 5.98345
#
# Compressibility (1/GPa) = 0.02336183
#
# Stress axis : x y z
#
# Youngs Moduli (GPa) = 27.32346 110.11231 87.35537
#
# Poissons Ratio (x) = 0.83502 0.84617
# Poissons Ratio (y) = 0.20720 -0.03380
# Poissons Ratio (z) = 0.26467 -0.04260
#
# Static dielectric constant tensor:
#      x y z
#    x 4.029860 0.000000 0.000000 
#    y 0.000000 4.212350 0.000000 
#    z 0.000000 0.000000 4.196090 
# 
# 
# High freq. dielectric constant tensor:
#      x y z
#    x 1.897810 0.000000 0.000000 
#    y 0.000000 1.907020 0.000000 
#    z 0.000000 0.000000 1.885810 
# 
# From -- ./inp_files/12727.got.cif
#   From: 2010.03.12/outbox.cif.g09.slc.cpg/sg20_7_cif.got.tgz:12727.got - 2010.04.14 01:38:04.
