data_PCOD8158281
_publ_section_title
;
Structure prediction by ZEFSAII (Michael W. Deem and Ramdas Pophale) SiO2 
 PCOD8158281
Probable space group: C 2 2 21
;
_chemical_formula_sum "Si O2"
_cell_formula_units_Z 64
_cell_length_a 18.666410
_cell_length_b 8.726850
_cell_length_c 21.019374
_cell_angle_alpha 90.000000
_cell_angle_beta 90.000000
_cell_angle_gamma 90.000000
_cell_volume 3424.034167
_symmetry_space_group_name_H-M "C 2 2 21"
_symmetry_group_IT_number 20
_symmetry_cell_setting 'orthorhombic'
loop_
_space_group_symop_operation_xyz
x,y,z
-x,-y,1/2+z
x,-y,-z
-x,y,1/2-z
1/2+x,1/2+y,z
1/2-x,1/2-y,1/2+z
1/2+x,1/2-y,-z
1/2-x,1/2+y,1/2-z
loop_
_atom_site_type_symbol
_atom_site_label
_atom_site_fract_x
_atom_site_fract_y
_atom_site_fract_z
Si Si1 0.334984 0.181485 0.882704
Si Si2 0.581081 0.316970 1.000000
Si Si3 0.827779 0.820095 0.755551
Si Si4 0.418661 0.681653 0.000000
Si Si5 0.672220 0.679905 0.744449
Si Si6 0.665016 0.181485 0.382704
Si Si7 0.671936 0.679584 0.883331
Si Si8 0.828063 0.820416 0.616669
O O1 0.367562 0.237327 0.814511
O O2 0.381189 0.255492 0.937600
O O3 0.253210 0.243175 0.889006
O O4 0.339904 0.000000 0.887169
O O5 0.621378 0.249027 0.062223
O O6 0.582253 0.500000 0.000000
O O7 0.500035 0.257363 0.999999
O O8 0.621378 0.249026 0.937776
O O9 0.749999 0.750002 0.750000
O O10 0.863554 0.786901 0.686260
O O11 0.823819 0.000001 0.769272
O O12 0.414928 0.500000 0.000000
O O13 0.381190 0.744509 0.937600
O O14 0.632437 0.762673 0.685489
O O15 0.636445 0.713098 0.813740
O O16 0.746789 0.243175 0.389006
O O17 0.677755 0.500000 0.894505
#
# Coordination Sequence:
#
# PCOD8158281 Si02
#       8
#     8   8   8   8   8   8   8   8
#     4  10  19  33  54  75  99 132 167 205 249 300
#     4   9  17  31  49  71  98 127 166 208 244 289
#     4   9  16  28  49  78 106 129 162 207 252 296
#     4  11  22  33  49  73 100 129 162 208 256 297
#     4   9  16  28  49  78 106 129 162 207 252 296
#     4  10  19  33  54  75  99 132 167 205 249 300
#     4   8  15  29  52  77  97 126 166 204 241 287
#     4   8  15  29  52  77  97 126 166 204 241 287
#
# _framework density 18.691402
#
# number of rings (size 3 to 8) (size 9 to 14) (size 15 to 20)
#    0.000    2.750    0.000    4.125    0.000    2.000 
#    0.000    1.250    0.000   28.500    0.000    0.000 
#    0.000    0.000    0.000    0.000    0.000    0.000 
#
# Total GULP energy -396511.968133 kJ/mol
# GULP energy per Si atom -12390.999004 kJ/mol
# Density = 1.864886 g / cm^3
# Si number density = 18.691402 Si / 1000 Ang^3
#
#
#
# Elastic Constant Matrix: (Units=GPa)
#
#
# Indices 1 2 3 4 5 6 
#
# 1 93.5358 26.2074 80.5212 0.0000 0.0000 0.0000
# 2 26.2074 59.1793 43.3676 0.0000 0.0000 0.0000
# 3 80.5212 43.3676 207.9163 0.0000 0.0000 0.0000
# 4 0.0000 0.0000 0.0000 30.4306 0.0000 0.0000
# 5 0.0000 0.0000 0.0000 0.0000 -2.7001 0.0000
# 6 0.0000 0.0000 0.0000 0.0000 0.0000 16.1868
#
#
#
# Elastic Compliance Matrix: (Units=1/GPa)
#
#
# Indices 1 2 3 4 5 6 
#
# 1 0.016506 -0.003099 -0.005746 0.000000 0.000000 0.000000
# 2 -0.003099 0.020528 -0.003082 0.000000 0.000000 0.000000
# 3 -0.005746 -0.003082 0.007678 0.000000 0.000000 0.000000
# 4 0.000000 0.000000 0.000000 0.032862 0.000000 0.000000
# 5 0.000000 0.000000 0.000000 0.000000 -0.370356 0.000000
# 6 0.000000 0.000000 0.000000 0.000000 0.000000 0.061779
#
#
# Mechanical properties :
#
#
# Convention : Reuss Voigt Hill
#
# Bulk Modulus (GPa) = 47.94117 73.42488 60.68303
# Shear Modulus (GPa) = -24.97534 22.81913 -1.07810
#
# Velocity S-wave (km/s) = -3.65936 3.49784 -0.76029
# Velocity P-wave (km/s) = 2.80176 7.46198 5.63609
#
# Compressibility (1/GPa) = 0.02085890
#
# Stress axis : x y z
#
# Youngs Moduli (GPa) = 60.58469 48.71277 130.24716
#
# Poissons Ratio (x) = 0.15095 0.74840
# Poissons Ratio (y) = 0.18774 0.40139
# Poissons Ratio (z) = 0.34812 0.15012
#
# Static dielectric constant tensor:
#      x y z
#    x 3.287000 0.000000 0.000000 
#    y 0.000000 3.280260 0.000000 
#    z 0.000000 0.000000 4.347210 
# 
# 
# High freq. dielectric constant tensor:
#      x y z
#    x 1.683250 0.000000 0.000000 
#    y 0.000000 1.702190 0.000000 
#    z 0.000000 0.000000 1.756290 
# 
# From -- ./inp_files/27949.got.cif
#   From: 2010.03.12/outbox.cif.g09.slc.cpg/sg20_14_cif.got.tgz:27949.got - 2010.04.14 01:38:04.
