data_PCOD8158681
_publ_section_title
;
Structure prediction by ZEFSAII (Michael W. Deem and Ramdas Pophale) SiO2 
 PCOD8158681
Probable space group: C 2 2 21
;
_chemical_formula_sum "Si O2"
_cell_formula_units_Z 48
_cell_length_a 8.689206
_cell_length_b 18.295474
_cell_length_c 15.227499
_cell_angle_alpha 90.000000
_cell_angle_beta 90.000000
_cell_angle_gamma 90.000000
_cell_volume 2420.763368
_symmetry_space_group_name_H-M "C 2 2 21"
_symmetry_group_IT_number 20
_symmetry_cell_setting 'orthorhombic'
loop_
_space_group_symop_operation_xyz
x,y,z
-x,-y,1/2+z
x,-y,-z
-x,y,1/2-z
1/2+x,1/2+y,z
1/2-x,1/2-y,1/2+z
1/2+x,1/2-y,-z
1/2-x,1/2+y,1/2-z
loop_
_atom_site_type_symbol
_atom_site_label
_atom_site_fract_x
_atom_site_fract_y
_atom_site_fract_z
Si Si1 0.418962 0.675889 0.001766
Si Si2 0.918744 0.568386 0.157914
Si Si3 0.561301 0.595259 0.157918
Si Si4 0.638349 0.464541 0.407971
Si Si5 0.457142 0.083598 0.654629
Si Si6 0.562181 0.827418 0.983787
O O1 0.441404 0.613537 0.927587
O O2 0.242598 0.682962 0.030084
O O3 0.519438 0.655643 0.086196
O O4 0.477028 0.751968 0.962445
O O5 0.743002 0.590774 0.161447
O O6 0.000000 0.585819 0.250000
O O7 0.926149 0.482608 0.134638
O O8 0.006396 0.611783 0.082832
O O9 0.500000 0.625039 0.250000
O O10 0.484851 0.516418 0.138583
O O11 0.696093 0.500000 0.500000
O O12 0.785224 0.451622 0.345409
O O13 0.500000 0.117113 0.750000
O O14 0.475229 0.147198 0.583144
#
# Coordination Sequence:
#
# PCOD8158681 Si02
#       6
#     8   8   8   8   8   8
#     4  10  22  38  58  82 115 154 193 232 288 344
#     4  11  22  37  59  87 115 148 193 239 286 340
#     4  11  21  36  60  85 113 148 190 239 287 342
#     4   9  19  38  58  81 114 150 187 234 288 341
#     4  10  20  36  59  85 114 148 189 236 286 341
#     4  11  22  39  58  82 119 156 191 238 287 342
#
# _framework density 19.828455999999999
#
# number of rings (size 3 to 8) (size 9 to 14) (size 15 to 20)
#    0.000    1.667    0.000    7.500    0.000    6.000 
#    0.000    4.167    0.000    0.000    0.000    0.000 
#    0.000    0.000    0.000    0.000    0.000    0.000 
#
# Total GULP energy -297673.287076 kJ/mol
# GULP energy per Si atom -12403.053628 kJ/mol
# Density = 1.978333 g / cm^3
# Si number density = 19.828456 Si / 1000 Ang^3
#
#
#
# Elastic Constant Matrix: (Units=GPa)
#
#
# Indices 1 2 3 4 5 6 
#
# 1 112.1185 2.8829 32.1209 0.0000 0.0000 0.0000
# 2 2.8829 69.8525 19.0125 0.0000 0.0000 0.0000
# 3 32.1209 19.0125 89.4909 0.0000 0.0000 0.0000
# 4 0.0000 0.0000 0.0000 16.0209 0.0000 0.0000
# 5 0.0000 0.0000 0.0000 0.0000 34.6983 0.0000
# 6 0.0000 0.0000 0.0000 0.0000 0.0000 27.8644
#
#
#
# Elastic Compliance Matrix: (Units=1/GPa)
#
#
# Indices 1 2 3 4 5 6 
#
# 1 0.009965 0.000597 -0.003703 0.000000 0.000000 0.000000
# 2 0.000597 0.015230 -0.003450 0.000000 0.000000 0.000000
# 3 -0.003703 -0.003450 0.013237 0.000000 0.000000 0.000000
# 4 0.000000 0.000000 0.000000 0.062418 0.000000 0.000000
# 5 0.000000 0.000000 0.000000 0.000000 0.028820 0.000000
# 6 0.000000 0.000000 0.000000 0.000000 0.000000 0.035888
#
#
# Mechanical properties :
#
#
# Convention : Reuss Voigt Hill
#
# Bulk Modulus (GPa) = 39.49693 42.16606 40.83150
# Shear Modulus (GPa) = 26.72216 30.21310 28.46763
#
# Velocity S-wave (km/s) = 3.67504 3.90773 3.79317
# Velocity P-wave (km/s) = 6.16202 6.45539 6.31041
#
# Compressibility (1/GPa) = 0.02531842
#
# Stress axis : x y z
#
# Youngs Moduli (GPa) = 100.35337 65.65878 75.54848
#
# Poissons Ratio (x) = -0.03918 0.27979
# Poissons Ratio (y) = -0.05989 0.26063
# Poissons Ratio (z) = 0.37165 0.22652
#
# Static dielectric constant tensor:
#      x y z
#    x 3.650390 0.000000 0.000000 
#    y 0.000000 3.625440 0.000000 
#    z 0.000000 0.000000 3.616780 
# 
# 
# High freq. dielectric constant tensor:
#      x y z
#    x 1.780810 0.000000 0.000000 
#    y 0.000000 1.769000 0.000000 
#    z 0.000000 0.000000 1.771820 
# 
# From -- ./inp_files/18867.got.cif
#   From: 2010.03.12/outbox.cif.g09.slc.cpg/sg20_10_cif.got.tgz:18867.got - 2010.04.14 01:38:04.
