data_PCOD8158043
_publ_section_title
;
Structure prediction by ZEFSAII (Michael W. Deem and Ramdas Pophale) SiO2 
 PCOD8158043
Probable space group: C 2 2 21
;
_chemical_formula_sum "Si O2"
_cell_formula_units_Z 64
_cell_length_a 18.753444
_cell_length_b 9.098696
_cell_length_c 20.814782
_cell_angle_alpha 90.000000
_cell_angle_beta 90.000000
_cell_angle_gamma 90.000000
_cell_volume 3551.665507
_symmetry_space_group_name_H-M "C 2 2 21"
_symmetry_group_IT_number 20
_symmetry_cell_setting 'orthorhombic'
loop_
_space_group_symop_operation_xyz
x,y,z
-x,-y,1/2+z
x,-y,-z
-x,y,1/2-z
1/2+x,1/2+y,z
1/2-x,1/2-y,1/2+z
1/2+x,1/2-y,-z
1/2-x,1/2+y,1/2-z
loop_
_atom_site_type_symbol
_atom_site_label
_atom_site_fract_x
_atom_site_fract_y
_atom_site_fract_z
Si Si1 0.578620 0.826109 0.616711
Si Si2 0.578620 0.173891 0.616711
Si Si3 0.928093 0.826178 0.380969
Si Si4 0.915545 0.337919 0.743171
Si Si5 0.175008 0.325479 0.500000
Si Si6 0.665715 0.674252 0.000000
Si Si7 0.071907 0.826178 0.880969
Si Si8 0.415545 0.162081 0.743171
O O1 0.504411 0.744459 0.605238
O O2 0.612925 0.787059 0.686606
O O3 0.633911 0.769878 0.563321
O O4 0.563681 0.000000 0.611957
O O5 0.633911 0.230122 0.563321
O O6 0.504411 0.255541 0.605238
O O7 0.612925 0.212941 0.686606
O O8 0.894069 0.774772 0.312986
O O9 0.875264 0.771214 0.436658
O O10 0.936895 1.000000 0.379719
O O11 0.885885 0.500000 0.725588
O O12 0.000000 0.344752 0.750000
O O13 0.178434 0.500000 0.500000
O O14 0.254583 0.258546 0.500000
O O15 0.624736 0.728786 0.063343
O O16 0.669655 0.500000 0.000000
O O17 0.105931 0.774772 0.812986
O O18 0.500000 0.155248 0.750000
#
# Coordination Sequence:
#
# PCOD8158043 Si02
#       8
#     8   8   8   8   8   8   8   8
#     4   9  17  30  51  73  90 116 155 195 227 261
#     4   9  17  30  51  73  90 116 155 195 227 261
#     4  10  18  29  48  71  95 122 149 184 231 277
#     4   8  15  28  45  69  96 117 147 190 228 265
#     4   9  17  32  51  67  88 123 162 190 220 269
#     4   9  19  32  45  67  96 123 154 190 226 269
#     4  10  18  29  48  71  95 122 149 184 231 277
#     4   8  15  28  45  69  96 117 147 190 228 265
#
# _framework density 18.019715999999999
#
# number of rings (size 3 to 8) (size 9 to 14) (size 15 to 20)
#    0.000    3.000    0.000    3.000    0.000    4.500 
#    0.000    3.125    0.000    6.000    0.000    0.000 
#    0.000    0.000    0.000    0.000    0.000    0.000 
#
# Total GULP energy -396625.565010 kJ/mol
# GULP energy per Si atom -12394.548907 kJ/mol
# Density = 1.797870 g / cm^3
# Si number density = 18.019716 Si / 1000 Ang^3
#
#
#
# Elastic Constant Matrix: (Units=GPa)
#
#
# Indices 1 2 3 4 5 6 
#
# 1 97.6413 35.2018 82.0504 0.0000 0.0000 0.0000
# 2 35.2018 51.1892 47.8807 0.0000 0.0000 0.0000
# 3 82.0504 47.8807 193.0463 0.0000 0.0000 0.0000
# 4 0.0000 0.0000 0.0000 22.2929 0.0000 0.0000
# 5 0.0000 0.0000 0.0000 0.0000 5.6566 0.0000
# 6 0.0000 0.0000 0.0000 0.0000 0.0000 13.5314
#
#
#
# Elastic Compliance Matrix: (Units=1/GPa)
#
#
# Indices 1 2 3 4 5 6 
#
# 1 0.017496 -0.006609 -0.005797 0.000000 0.000000 0.000000
# 2 -0.006609 0.027933 -0.004119 0.000000 0.000000 0.000000
# 3 -0.005797 -0.004119 0.008666 0.000000 0.000000 0.000000
# 4 0.000000 0.000000 0.000000 0.044857 0.000000 0.000000
# 5 0.000000 0.000000 0.000000 0.000000 0.176785 0.000000
# 6 0.000000 0.000000 0.000000 0.000000 0.000000 0.073902
#
#
# Mechanical properties :
#
#
# Convention : Reuss Voigt Hill
#
# Bulk Modulus (GPa) = 47.51916 74.68250 61.10083
# Shear Modulus (GPa) = 12.83025 20.07910 16.45467
#
# Velocity S-wave (km/s) = 2.67125 3.34171 3.02511
# Velocity P-wave (km/s) = 5.99516 7.51161 6.79582
#
# Compressibility (1/GPa) = 0.02104414
#
# Stress axis : x y z
#
# Youngs Moduli (GPa) = 57.15733 35.79962 115.39860
#
# Poissons Ratio (x) = 0.23660 0.66895
# Poissons Ratio (y) = 0.37776 0.47534
# Poissons Ratio (z) = 0.33134 0.14746
#
# Static dielectric constant tensor:
#      x y z
#    x 3.149900 0.000000 0.000000 
#    y 0.000000 3.087300 0.000000 
#    z 0.000000 0.000000 4.007910 
# 
# 
# High freq. dielectric constant tensor:
#      x y z
#    x 1.660040 0.000000 0.000000 
#    y 0.000000 1.670970 0.000000 
#    z 0.000000 0.000000 1.722310 
# 
# From -- ./inp_files/27956.got.cif
#   From: 2010.03.12/outbox.cif.g09.slc.cpg/sg20_14_cif.got.tgz:27956.got - 2010.04.14 01:38:04.
