data_PCOD8158068
_publ_section_title
;
Structure prediction by ZEFSAII (Michael W. Deem and Ramdas Pophale) SiO2 
 PCOD8158068
Probable space group: C 2 2 21
;
_chemical_formula_sum "Si O2"
_cell_formula_units_Z 48
_cell_length_a 28.807971
_cell_length_b 8.590366
_cell_length_c 10.131265
_cell_angle_alpha 90.000000
_cell_angle_beta 90.000000
_cell_angle_gamma 90.000000
_cell_volume 2507.194429
_symmetry_space_group_name_H-M "C 2 2 21"
_symmetry_group_IT_number 20
_symmetry_cell_setting 'orthorhombic'
loop_
_space_group_symop_operation_xyz
x,y,z
-x,-y,1/2+z
x,-y,-z
-x,y,1/2-z
1/2+x,1/2+y,z
1/2-x,1/2-y,1/2+z
1/2+x,1/2-y,-z
1/2-x,1/2+y,1/2-z
loop_
_atom_site_type_symbol
_atom_site_label
_atom_site_fract_x
_atom_site_fract_y
_atom_site_fract_z
Si Si1 0.050156 0.143043 0.599031
Si Si2 0.791594 0.851779 0.249999
Si Si3 0.645590 0.315144 0.013919
Si Si4 0.645590 0.315145 0.486082
Si Si5 0.050156 0.143043 0.900969
Si Si6 0.191178 0.217694 0.250000
O O1 0.094549 0.249351 0.557527
O O2 0.058097 0.084277 0.750000
O O3 0.000000 0.232192 0.589945
O O4 0.047725 0.000000 0.500000
O O5 0.815523 0.774734 0.377690
O O6 0.815522 0.774735 0.122308
O O7 0.737465 0.817964 0.250001
O O8 0.796790 0.036577 0.250000
O O9 0.660866 0.235787 0.877463
O O10 0.641232 0.500000 0.000000
O O11 0.594549 0.250650 0.057527
O O12 0.641231 0.500000 0.500000
O O13 0.660865 0.235788 0.622539
O O14 0.047725 0.000000 0.000000
#
# Coordination Sequence:
#
# PCOD8158068 Si02
#       6
#     8   8   8   8   8   8
#     4   9  16  25  39  60  87 117 147 178 218 270
#     4  10  18  32  45  65  87 119 150 186 215 264
#     4   9  17  28  42  62  87 118 145 180 221 263
#     4   9  17  28  42  62  87 118 145 180 221 263
#     4   9  16  25  39  60  87 117 147 178 218 270
#     4  10  20  30  47  63  91 117 154 180 223 256
#
# _framework density 19.144905000000001
#
# number of rings (size 3 to 8) (size 9 to 14) (size 15 to 20)
#    0.000    2.667    1.667    1.000    7.000    0.000 
#    0.000    0.000    0.000    0.000    0.000    0.000 
#    0.000    8.000    0.000    0.000    0.000    0.000 
#
# Total GULP energy -297325.621265 kJ/mol
# GULP energy per Si atom -12388.567553 kJ/mol
# Density = 1.910133 g / cm^3
# Si number density = 19.144905 Si / 1000 Ang^3
#
#
#
# Elastic Constant Matrix: (Units=GPa)
#
#
# Indices 1 2 3 4 5 6 
#
# 1 197.3453 7.6029 87.5156 0.0000 0.0000 0.0000
# 2 7.6029 4.3615 8.2499 0.0000 0.0000 0.0000
# 3 87.5156 8.2499 176.0357 0.0000 0.0000 0.0000
# 4 0.0000 0.0000 0.0000 7.4590 0.0000 0.0000
# 5 0.0000 0.0000 0.0000 0.0000 37.4584 0.0000
# 6 0.0000 0.0000 0.0000 0.0000 0.0000 13.9033
#
#
#
# Elastic Compliance Matrix: (Units=1/GPa)
#
#
# Indices 1 2 3 4 5 6 
#
# 1 0.006633 -0.005843 -0.003024 0.000000 0.000000 0.000000
# 2 -0.005843 0.256725 -0.009126 0.000000 0.000000 0.000000
# 3 -0.003024 -0.009126 0.007612 0.000000 0.000000 0.000000
# 4 0.000000 0.000000 0.000000 0.134066 0.000000 0.000000
# 5 0.000000 0.000000 0.000000 0.000000 0.026696 0.000000
# 6 0.000000 0.000000 0.000000 0.000000 0.000000 0.071925
#
#
# Mechanical properties :
#
#
# Convention : Reuss Voigt Hill
#
# Bulk Modulus (GPa) = 4.25563 64.94214 34.59888
# Shear Modulus (GPa) = 8.09097 30.05575 19.07336
#
# Velocity S-wave (km/s) = 2.05800 3.96651 3.15979
# Velocity P-wave (km/s) = 2.80621 7.41435 5.60568
#
# Compressibility (1/GPa) = 0.23498285
#
# Stress axis : x y z
#
# Youngs Moduli (GPa) = 150.75269 3.89522 131.37670
#
# Poissons Ratio (x) = 0.02276 0.39727
# Poissons Ratio (y) = 0.88091 1.19899
# Poissons Ratio (z) = 0.45586 0.03555
#
# Static dielectric constant tensor:
#      x y z
#    x 4.376480 0.000000 0.000000 
#    y 0.000000 2.572380 0.000000 
#    z 0.000000 0.000000 3.916090 
# 
# 
# High freq. dielectric constant tensor:
#      x y z
#    x 1.778940 0.000000 0.000000 
#    y 0.000000 1.635760 0.000000 
#    z 0.000000 0.000000 1.771550 
# 
# From -- ./inp_files/11041.got.cif
#   From: 2010.03.12/outbox.cif.g09.slc.cpg/sg20_6_cif.got.tgz:11041.got - 2010.04.14 01:38:04.
