data_PCOD8158649
_publ_section_title
;
Structure prediction by ZEFSAII (Michael W. Deem and Ramdas Pophale) SiO2 
 PCOD8158649
Probable space group: C 2 2 21
;
_chemical_formula_sum "Si O2"
_cell_formula_units_Z 56
_cell_length_a 19.250949
_cell_length_b 9.903356
_cell_length_c 14.618316
_cell_angle_alpha 90.000000
_cell_angle_beta 90.000000
_cell_angle_gamma 90.000000
_cell_volume 2786.967346
_symmetry_space_group_name_H-M "C 2 2 21"
_symmetry_group_IT_number 20
_symmetry_cell_setting 'orthorhombic'
loop_
_space_group_symop_operation_xyz
x,y,z
-x,-y,1/2+z
x,-y,-z
-x,y,1/2-z
1/2+x,1/2+y,z
1/2-x,1/2-y,1/2+z
1/2+x,1/2-y,-z
1/2-x,1/2+y,1/2-z
loop_
_atom_site_type_symbol
_atom_site_label
_atom_site_fract_x
_atom_site_fract_y
_atom_site_fract_z
Si Si1 0.630868 0.677463 0.765618
Si Si2 0.681613 0.980279 0.399413
Si Si3 0.274326 0.270423 0.820788
Si Si4 0.334650 0.844630 0.361179
Si Si5 0.807460 0.954070 0.098242
Si Si6 0.922486 0.452090 0.737244
Si Si7 0.662162 0.552173 0.100103
O O1 0.692495 0.767488 0.808073
O O2 0.642684 0.645117 0.656824
O O3 0.570243 0.788818 0.777677
O O4 0.621174 0.541462 0.825923
O O5 0.623512 0.025087 0.327960
O O6 0.754831 0.058147 0.377694
O O7 0.651017 0.000000 0.500000
O O8 0.701087 0.820950 0.405609
O O9 0.308812 0.189567 0.739009
O O10 0.299803 0.421723 0.831670
O O11 0.268725 0.891612 0.422432
O O12 0.367485 0.705528 0.399748
O O13 0.390699 0.965585 0.349971
O O14 0.839550 0.000000 0.000000
O O15 0.000000 0.509264 0.750000
O O16 0.646152 0.500000 0.000000
#
# Coordination Sequence:
#
# PCOD8158649 Si02
#       7
#     8   8   8   8   8   8   8
#     4  10  20  37  54  82 121 146 192 238 283 352
#     4   9  19  33  57  84 115 145 188 234 288 360
#     4   9  17  32  52  83 117 145 174 235 304 340
#     4  10  20  36  54  84 118 146 189 237 283 353
#     4  11  21  29  57  94 123 144 177 242 311 355
#     4  11  23  40  59  77 111 166 201 232 280 333
#     4  10  20  35  63  91 115 150 178 238 315 357
#
# _framework density 20.093527000000002
#
# number of rings (size 3 to 8) (size 9 to 14) (size 15 to 20)
#    0.000    2.000    2.857    2.571    8.000    0.000 
#    0.000    2.857    0.000    0.857    0.000    0.000 
#    0.000    0.000    0.000    0.000    0.000    0.000 
#
# Total GULP energy -346893.369067 kJ/mol
# GULP energy per Si atom -12389.048895 kJ/mol
# Density = 2.004779 g / cm^3
# Si number density = 20.093527 Si / 1000 Ang^3
#
#
#
# Elastic Constant Matrix: (Units=GPa)
#
#
# Indices 1 2 3 4 5 6 
#
# 1 39.4717 21.4120 19.1513 0.0000 0.0000 0.0000
# 2 21.4120 125.7384 23.9379 0.0000 0.0000 0.0000
# 3 19.1513 23.9379 75.3372 0.0000 0.0000 0.0000
# 4 0.0000 0.0000 0.0000 28.9647 0.0000 0.0000
# 5 0.0000 0.0000 0.0000 0.0000 9.6529 0.0000
# 6 0.0000 0.0000 0.0000 0.0000 0.0000 15.2955
#
#
#
# Elastic Compliance Matrix: (Units=1/GPa)
#
#
# Indices 1 2 3 4 5 6 
#
# 1 0.030661 -0.003978 -0.006530 0.000000 0.000000 0.000000
# 2 -0.003978 0.008981 -0.001842 0.000000 0.000000 0.000000
# 3 -0.006530 -0.001842 0.015519 0.000000 0.000000 0.000000
# 4 0.000000 0.000000 0.000000 0.034525 0.000000 0.000000
# 5 0.000000 0.000000 0.000000 0.000000 0.103596 0.000000
# 6 0.000000 0.000000 0.000000 0.000000 0.000000 0.065379
#
#
# Mechanical properties :
#
#
# Convention : Reuss Voigt Hill
#
# Bulk Modulus (GPa) = 32.83016 41.06106 36.94561
# Shear Modulus (GPa) = 17.03486 22.51901 19.77693
#
# Velocity S-wave (km/s) = 2.91482 3.35133 3.14067
# Velocity P-wave (km/s) = 5.26331 5.95437 5.61947
#
# Compressibility (1/GPa) = 0.03045980
#
# Stress axis : x y z
#
# Youngs Moduli (GPa) = 32.61471 111.34357 64.43659
#
# Poissons Ratio (x) = 0.44293 0.42079
# Poissons Ratio (y) = 0.12974 0.11872
# Poissons Ratio (z) = 0.21298 0.20515
#
# Static dielectric constant tensor:
#      x y z
#    x 3.039820 0.000000 0.000000 
#    y 0.000000 4.136040 0.000000 
#    z 0.000000 0.000000 3.596740 
# 
# 
# High freq. dielectric constant tensor:
#      x y z
#    x 1.707030 0.000000 0.000000 
#    y 0.000000 1.810800 0.000000 
#    z 0.000000 0.000000 1.782170 
# 
# From -- ./inp_files/19189.got.cif
#   From: 2010.03.12/outbox.cif.g09.slc.cpg/sg20_10_cif.got.tgz:19189.got - 2010.04.14 01:38:04.
