data_PCOD8158828
_publ_section_title
;
Structure prediction by ZEFSAII (Michael W. Deem and Ramdas Pophale) SiO2 
 PCOD8158828
Probable space group: C 2 2 21
;
_chemical_formula_sum "Si O2"
_cell_formula_units_Z 64
_cell_length_a 8.787251
_cell_length_b 11.773264
_cell_length_c 27.231557
_cell_angle_alpha 90.000000
_cell_angle_beta 90.000000
_cell_angle_gamma 90.000000
_cell_volume 2817.230541
_symmetry_space_group_name_H-M "C 2 2 21"
_symmetry_group_IT_number 20
_symmetry_cell_setting 'orthorhombic'
loop_
_space_group_symop_operation_xyz
x,y,z
-x,-y,1/2+z
x,-y,-z
-x,y,1/2-z
1/2+x,1/2+y,z
1/2-x,1/2-y,1/2+z
1/2+x,1/2-y,-z
1/2-x,1/2+y,1/2-z
loop_
_atom_site_type_symbol
_atom_site_label
_atom_site_fract_x
_atom_site_fract_y
_atom_site_fract_z
Si Si1 0.733843 0.333795 0.349152
Si Si2 0.539538 0.862827 0.693521
Si Si3 0.214066 0.713436 0.120779
Si Si4 0.316560 0.326782 0.570717
Si Si5 0.103251 0.141154 0.963875
Si Si6 0.570741 0.519520 0.403335
Si Si7 0.549758 0.095111 0.650864
Si Si8 0.089264 0.502049 0.550929
O O1 0.659994 0.236339 0.316475
O O2 0.792497 0.292090 0.402593
O O3 0.614882 0.437484 0.357385
O O4 0.891506 0.370478 0.322206
O O5 0.500000 0.861049 0.750000
O O6 0.385369 0.843113 0.663163
O O7 0.615059 0.984725 0.679321
O O8 0.103792 0.766840 0.079819
O O9 0.300116 0.614725 0.090654
O O10 0.326512 0.804370 0.147207
O O11 0.408357 0.307478 0.519015
O O12 0.413451 0.411570 0.606427
O O13 0.145838 0.375628 0.564793
O O14 0.259591 0.073297 0.961401
O O15 0.961024 0.056334 0.952512
O O16 0.498722 0.057072 0.595646
O O17 0.991150 0.500000 0.500000
#
# Coordination Sequence:
#
# PCOD8158828 Si02
#       8
#     8   8   8   8   8   8   8   8
#     4  12  24  42  71  98 138 181 230 285 347 408
#     4  12  28  49  73  99 131 177 234 297 361 416
#     4  11  23  45  71  97 141 179 224 288 347 406
#     4  10  20  38  62  98 142 190 223 270 332 397
#     4   9  20  36  62  97 143 189 222 265 330 398
#     4  11  21  39  66  96 140 183 228 273 335 406
#     4  11  23  44  72  99 134 175 224 290 340 412
#     4   8  16  35  61  91 135 182 218 258 329 395
#
# _framework density 22.717345999999999
#
# number of rings (size 3 to 8) (size 9 to 14) (size 15 to 20)
#    0.000    1.500    5.000    1.125    0.000    3.000 
#    4.500    1.250    0.000    0.000    0.000    0.000 
#    0.000    0.000    0.000    0.000    0.000    0.000 
#
# Total GULP energy -396482.918017 kJ/mol
# GULP energy per Si atom -12390.091188 kJ/mol
# Density = 2.266564 g / cm^3
# Si number density = 22.717346 Si / 1000 Ang^3
#
#
#
# Elastic Constant Matrix: (Units=GPa)
#
#
# Indices 1 2 3 4 5 6 
#
# 1 73.9085 34.5255 23.3418 0.0000 0.0000 0.0000
# 2 34.5255 112.4437 38.1915 0.0000 0.0000 0.0000
# 3 23.3418 38.1915 91.8029 0.0000 0.0000 0.0000
# 4 0.0000 0.0000 0.0000 15.2371 0.0000 0.0000
# 5 0.0000 0.0000 0.0000 0.0000 21.3557 0.0000
# 6 0.0000 0.0000 0.0000 0.0000 0.0000 34.7796
#
#
#
# Elastic Compliance Matrix: (Units=1/GPa)
#
#
# Indices 1 2 3 4 5 6 
#
# 1 0.016235 -0.004172 -0.002392 0.000000 0.000000 0.000000
# 2 -0.004172 0.011429 -0.003694 0.000000 0.000000 0.000000
# 3 -0.002392 -0.003694 0.013038 0.000000 0.000000 0.000000
# 4 0.000000 0.000000 0.000000 0.065629 0.000000 0.000000
# 5 0.000000 0.000000 0.000000 0.000000 0.046826 0.000000
# 6 0.000000 0.000000 0.000000 0.000000 0.000000 0.028752
#
#
# Mechanical properties :
#
#
# Convention : Reuss Voigt Hill
#
# Bulk Modulus (GPa) = 49.54147 52.25253 50.89700
# Shear Modulus (GPa) = 23.90583 26.41425 25.16004
#
# Velocity S-wave (km/s) = 3.24746 3.41359 3.33156
# Velocity P-wave (km/s) = 5.99303 6.21191 6.10346
#
# Compressibility (1/GPa) = 0.02018511
#
# Stress axis : x y z
#
# Youngs Moduli (GPa) = 61.59617 87.49630 76.70007
#
# Poissons Ratio (x) = 0.36507 0.18347
# Poissons Ratio (y) = 0.25700 0.28332
# Poissons Ratio (z) = 0.14734 0.32319
#
# Static dielectric constant tensor:
#      x y z
#    x 4.011910 0.000000 0.000000 
#    y 0.000000 4.451090 0.000000 
#    z 0.000000 0.000000 4.026280 
# 
# 
# High freq. dielectric constant tensor:
#      x y z
#    x 1.886080 0.000000 0.000000 
#    y 0.000000 1.917130 0.000000 
#    z 0.000000 0.000000 1.849260 
# 
# From -- ./inp_files/31079.got.cif
#   From: 2010.03.12/outbox.cif.g09.slc.cpg/sg20_16_cif.got.tgz:31079.got - 2010.04.14 01:38:04.
