data_PCOD8158306
_publ_section_title
;
Structure prediction by ZEFSAII (Michael W. Deem and Ramdas Pophale) SiO2 
 PCOD8158306
Probable space group: C 2 2 21
;
_chemical_formula_sum "Si O2"
_cell_formula_units_Z 56
_cell_length_a 21.317069
_cell_length_b 9.334587
_cell_length_c 17.196170
_cell_angle_alpha 90.000000
_cell_angle_beta 90.000000
_cell_angle_gamma 90.000000
_cell_volume 3421.797688
_symmetry_space_group_name_H-M "C 2 2 21"
_symmetry_group_IT_number 20
_symmetry_cell_setting 'orthorhombic'
loop_
_space_group_symop_operation_xyz
x,y,z
-x,-y,1/2+z
x,-y,-z
-x,y,1/2-z
1/2+x,1/2+y,z
1/2-x,1/2-y,1/2+z
1/2+x,1/2-y,-z
1/2-x,1/2+y,1/2-z
loop_
_atom_site_type_symbol
_atom_site_label
_atom_site_fract_x
_atom_site_fract_y
_atom_site_fract_z
Si Si1 0.314464 0.753611 0.292319
Si Si2 0.059085 0.647169 0.202895
Si Si3 0.998541 0.428889 0.416784
Si Si4 0.120129 0.564525 0.681579
Si Si5 0.627314 0.374879 0.102536
Si Si6 0.255807 0.545487 0.692139
Si Si7 0.395819 0.303489 0.569165
O O1 0.372437 0.790145 0.233585
O O2 0.288996 0.596083 0.276699
O O3 0.257546 0.862660 0.271140
O O4 0.340457 0.771061 0.380228
O O5 0.104594 0.569098 0.263067
O O6 0.089789 0.786319 0.166190
O O7 0.000000 0.705890 0.250000
O O8 0.040398 0.533966 0.137398
O O9 0.006033 0.500000 0.500000
O O10 0.068407 0.403705 0.383547
O O11 0.962143 0.277686 0.421609
O O12 0.189054 0.523042 0.646795
O O13 0.699383 0.378020 0.129779
O O14 0.596003 0.532299 0.097007
O O15 0.626147 0.295472 0.019870
#
# Coordination Sequence:
#
# PCOD8158306 Si02
#       7
#     8   8   8   8   8   8   8
#     4   9  18  34  54  78 104 137 175 225 262 315
#     4  10  19  34  54  80 105 138 185 221 265 321
#     4  11  19  35  56  77 108 142 179 224 269 312
#     4   9  20  33  56  80 105 138 184 220 260 330
#     4  10  20  35  54  79 113 140 175 227 269 320
#     4   9  18  34  54  77 107 137 172 221 268 316
#     4  10  20  34  54  82 104 143 182 220 271 321
#
# _framework density 16.365667999999999
#
# number of rings (size 3 to 8) (size 9 to 14) (size 15 to 20)
#    0.857    1.429    2.857    0.857    0.000    0.000 
#   10.286    0.000    0.000    0.000    0.000    0.000 
#    0.000    0.000    0.000    0.000    0.000    0.000 
#
# Total GULP energy -346918.173010 kJ/mol
# GULP energy per Si atom -12389.934750 kJ/mol
# Density = 1.632842 g / cm^3
# Si number density = 16.365668 Si / 1000 Ang^3
#
#
#
# Elastic Constant Matrix: (Units=GPa)
#
#
# Indices 1 2 3 4 5 6 
#
# 1 124.2167 61.2006 68.1788 0.0000 0.0000 0.0000
# 2 61.2006 76.4720 53.1539 0.0000 0.0000 0.0000
# 3 68.1788 53.1539 103.0073 0.0000 0.0000 0.0000
# 4 0.0000 0.0000 0.0000 23.4866 0.0000 0.0000
# 5 0.0000 0.0000 0.0000 0.0000 12.6892 0.0000
# 6 0.0000 0.0000 0.0000 0.0000 0.0000 28.8173
#
#
#
# Elastic Compliance Matrix: (Units=1/GPa)
#
#
# Indices 1 2 3 4 5 6 
#
# 1 0.015317 -0.008126 -0.005945 0.000000 0.000000 0.000000
# 2 -0.008126 0.024701 -0.007368 0.000000 0.000000 0.000000
# 3 -0.005945 -0.007368 0.017445 0.000000 0.000000 0.000000
# 4 0.000000 0.000000 0.000000 0.042577 0.000000 0.000000
# 5 0.000000 0.000000 0.000000 0.000000 0.078807 0.000000
# 6 0.000000 0.000000 0.000000 0.000000 0.000000 0.034701
#
#
# Mechanical properties :
#
#
# Convention : Reuss Voigt Hill
#
# Bulk Modulus (GPa) = 68.56118 74.30694 71.43406
# Shear Modulus (GPa) = 19.13593 21.07614 20.10603
#
# Velocity S-wave (km/s) = 3.42317 3.59252 3.50887
# Velocity P-wave (km/s) = 7.59002 7.91903 7.75627
#
# Compressibility (1/GPa) = 0.01458551
#
# Stress axis : x y z
#
# Youngs Moduli (GPa) = 65.28655 40.48384 57.32380
#
# Poissons Ratio (x) = 0.32898 0.34078
# Poissons Ratio (y) = 0.53053 0.42235
# Poissons Ratio (z) = 0.38812 0.29828
#
# Static dielectric constant tensor:
#      x y z
#    x 3.149430 0.000000 0.000000 
#    y 0.000000 3.028380 0.000000 
#    z 0.000000 0.000000 3.111180 
# 
# 
# High freq. dielectric constant tensor:
#      x y z
#    x 1.629360 0.000000 0.000000 
#    y 0.000000 1.625700 0.000000 
#    z 0.000000 0.000000 1.624130 
# 
# From -- ./inp_files/25454.got.cif
#   From: 2010.03.12/outbox.cif.g09.slc.cpg/sg20_13_cif.got.tgz:25454.got - 2010.04.14 01:38:04.
