data_PCOD8158912
_publ_section_title
;
Structure prediction by ZEFSAII (Michael W. Deem and Ramdas Pophale) SiO2 
 PCOD8158912
Probable space group: C 2 2 21
;
_chemical_formula_sum "Si O2"
_cell_formula_units_Z 60
_cell_length_a 11.323871
_cell_length_b 29.493673
_cell_length_c 8.370788
_cell_angle_alpha 90.000000
_cell_angle_beta 90.000000
_cell_angle_gamma 90.000000
_cell_volume 2795.697108
_symmetry_space_group_name_H-M "C 2 2 21"
_symmetry_group_IT_number 20
_symmetry_cell_setting 'orthorhombic'
loop_
_space_group_symop_operation_xyz
x,y,z
-x,-y,1/2+z
x,-y,-z
-x,y,1/2-z
1/2+x,1/2+y,z
1/2-x,1/2-y,1/2+z
1/2+x,1/2-y,-z
1/2-x,1/2+y,1/2-z
loop_
_atom_site_type_symbol
_atom_site_label
_atom_site_fract_x
_atom_site_fract_y
_atom_site_fract_z
Si Si1 0.850494 0.608231 0.041884
Si Si2 0.420197 0.864639 0.407355
Si Si3 0.769523 0.799126 0.604667
Si Si4 0.247392 0.794720 0.540427
Si Si5 0.000000 0.101397 0.750000
Si Si6 0.745509 0.934333 0.222261
Si Si7 0.128389 0.481988 0.679629
Si Si8 0.503022 0.657416 0.429313
O O1 0.768450 0.651752 0.045306
O O2 0.830961 0.571113 0.183101
O O3 0.816169 0.583570 0.880528
O O4 0.988023 0.623387 0.047991
O O5 0.500000 0.858766 0.250000
O O6 0.351930 0.817205 0.436633
O O7 0.322617 0.904962 0.412207
O O8 0.713282 0.793136 0.777612
O O9 0.721077 0.757100 0.505094
O O10 0.912109 0.800484 0.592630
O O11 0.129899 0.823941 0.522299
O O12 0.886253 0.070805 0.788285
O O13 0.967404 0.127989 0.585583
O O14 0.718467 0.988231 0.211747
O O15 0.127375 0.500000 0.500000
O O16 0.000000 0.488806 0.750000
O O17 0.500000 0.632896 0.250000
#
# Coordination Sequence:
#
# PCOD8158912 Si02
#       8
#     8   8   8   8   4   8   8   8
#     4  10  22  40  65  93 135 170 219 279 344 397
#     4  10  22  39  67  98 135 170 224 281 336 415
#     4  11  26  42  64  99 131 181 230 283 344 408
#     4  11  26  42  66  94 139 173 231 287 342 409
#     4  12  20  40  80  90 134 184 228 270 354 406
#     4  10  20  39  67 101 123 177 223 268 337 418
#     4  10  21  40  67  96 134 170 212 278 339 410
#     4  10  24  45  64  97 137 185 229 286 339 406
#
# _framework density 21.461552999999999
#
# number of rings (size 3 to 8) (size 9 to 14) (size 15 to 20)
#    0.000    1.600    2.667    2.000    9.333    0.533 
#    0.000    0.000    4.400    7.200    0.000    0.000 
#    0.000    0.000    0.000    0.000    0.000    0.000 
#
# Total GULP energy -371684.217443 kJ/mol
# GULP energy per Si atom -12389.473915 kJ/mol
# Density = 2.141271 g / cm^3
# Si number density = 21.461553 Si / 1000 Ang^3
#
#
#
# Elastic Constant Matrix: (Units=GPa)
#
#
# Indices 1 2 3 4 5 6 
#
# 1 121.9057 40.0040 15.4529 0.0000 0.0000 0.0000
# 2 40.0040 136.0289 22.5693 0.0000 0.0000 0.0000
# 3 15.4529 22.5693 59.3535 0.0000 0.0000 0.0000
# 4 0.0000 0.0000 0.0000 27.3676 0.0000 0.0000
# 5 0.0000 0.0000 0.0000 0.0000 280.4012 0.0000
# 6 0.0000 0.0000 0.0000 0.0000 0.0000 25.5674
#
#
#
# Elastic Compliance Matrix: (Units=1/GPa)
#
#
# Indices 1 2 3 4 5 6 
#
# 1 0.009196 -0.002463 -0.001458 0.000000 0.000000 0.000000
# 2 -0.002463 0.008506 -0.002593 0.000000 0.000000 0.000000
# 3 -0.001458 -0.002593 0.018214 0.000000 0.000000 0.000000
# 4 0.000000 0.000000 0.000000 0.036540 0.000000 0.000000
# 5 0.000000 0.000000 0.000000 0.000000 0.003566 0.000000
# 6 0.000000 0.000000 0.000000 0.000000 0.000000 0.039112
#
#
# Mechanical properties :
#
#
# Convention : Reuss Voigt Hill
#
# Bulk Modulus (GPa) = 43.69011 52.59339 48.14175
# Shear Modulus (GPa) = 36.82146 82.61804 59.71975
#
# Velocity S-wave (km/s) = 4.14659 6.21123 5.28080
# Velocity P-wave (km/s) = 6.58234 8.71770 7.72416
#
# Compressibility (1/GPa) = 0.02288847
#
# Stress axis : x y z
#
# Youngs Moduli (GPa) = 108.74355 117.56650 54.90328
#
# Poissons Ratio (x) = 0.28951 0.08004
# Poissons Ratio (y) = 0.26778 0.14238
# Poissons Ratio (z) = 0.15853 0.30488
#
# Static dielectric constant tensor:
#      x y z
#    x 3.786580 0.000000 0.000000 
#    y 0.000000 -13.654210 0.000000 
#    z 0.000000 0.000000 3.988610 
# 
# 
# High freq. dielectric constant tensor:
#      x y z
#    x 1.846440 0.000000 0.000000 
#    y 0.000000 1.831570 0.000000 
#    z 0.000000 0.000000 1.837850 
# 
# From -- ./inp_files/7634.got.cif
#   From: 2010.03.12/outbox.cif.g09.slc.cpg/sg20_4_cif.got.tgz:7634.got - 2010.04.14 01:38:04.
