data_PCOD8158641
_publ_section_title
;
Structure prediction by ZEFSAII (Michael W. Deem and Ramdas Pophale) SiO2 
 PCOD8158641
Probable space group: C 2 2 21
;
_chemical_formula_sum "Si O2"
_cell_formula_units_Z 56
_cell_length_a 13.373906
_cell_length_b 21.262937
_cell_length_c 9.575308
_cell_angle_alpha 90.000000
_cell_angle_beta 90.000000
_cell_angle_gamma 90.000000
_cell_volume 2722.916171
_symmetry_space_group_name_H-M "C 2 2 21"
_symmetry_group_IT_number 20
_symmetry_cell_setting 'orthorhombic'
loop_
_space_group_symop_operation_xyz
x,y,z
-x,-y,1/2+z
x,-y,-z
-x,y,1/2-z
1/2+x,1/2+y,z
1/2-x,1/2-y,1/2+z
1/2+x,1/2-y,-z
1/2-x,1/2+y,1/2-z
loop_
_atom_site_type_symbol
_atom_site_label
_atom_site_fract_x
_atom_site_fract_y
_atom_site_fract_z
Si Si1 0.372183 0.253926 0.409354
Si Si2 0.385980 0.142160 0.214196
Si Si3 0.331090 0.187792 0.921546
Si Si4 0.057256 0.054110 0.396424
Si Si5 0.080490 0.191113 0.531350
Si Si6 0.790061 0.667288 0.627645
Si Si7 0.781779 0.555999 0.415325
O O1 0.343717 0.206104 0.282934
O O2 0.289004 0.307320 0.425732
O O3 0.482291 0.283291 0.389778
O O4 0.365358 0.216012 0.554697
O O5 0.500000 0.136080 0.250000
O O6 0.336069 0.079160 0.275381
O O7 0.370290 0.144651 0.047666
O O8 0.383182 0.256941 0.917307
O O9 0.346153 0.152566 0.773492
O O10 0.053311 0.124353 0.461622
O O11 0.171613 0.035061 0.366284
O O12 0.000000 0.053219 0.250000
O O13 0.011948 0.000000 0.500000
O O14 0.172576 0.189914 0.644113
O O15 0.776929 0.608487 0.530940
O O16 0.836955 0.500000 0.500000
#
# Coordination Sequence:
#
# PCOD8158641 Si02
#       7
#     8   8   8   8   8   8   8
#     4  10  20  35  59  87 129 167 198 249 321 383
#     4  11  22  41  61  93 130 163 205 270 321 373
#     4  11  22  35  59  96 129 160 210 258 314 384
#     4  10  23  43  62  91 124 167 219 261 308 376
#     4  10  21  37  61  90 126 172 201 256 324 373
#     4   9  21  37  57  91 124 158 210 257 306 380
#     4   9  21  46  66  79 122 175 205 257 324 375
#
# _framework density 20.566186999999999
#
# number of rings (size 3 to 8) (size 9 to 14) (size 15 to 20)
#    0.000    2.000    1.429    2.571    4.000    0.000 
#   10.286    2.143    0.000    0.000    0.000    0.000 
#    0.000    0.000    0.000    0.000    0.000    0.000 
#
# Total GULP energy -346893.636980 kJ/mol
# GULP energy per Si atom -12389.058464 kJ/mol
# Density = 2.051938 g / cm^3
# Si number density = 20.566187 Si / 1000 Ang^3
#
#
#
# Elastic Constant Matrix: (Units=GPa)
#
#
# Indices 1 2 3 4 5 6 
#
# 1 67.7041 20.1894 25.3011 0.0000 0.0000 0.0000
# 2 20.1894 77.8785 33.1404 0.0000 0.0000 0.0000
# 3 25.3011 33.1404 145.5872 0.0000 0.0000 0.0000
# 4 0.0000 0.0000 0.0000 22.4615 0.0000 0.0000
# 5 0.0000 0.0000 0.0000 0.0000 21.5959 0.0000
# 6 0.0000 0.0000 0.0000 0.0000 0.0000 32.6785
#
#
#
# Elastic Compliance Matrix: (Units=1/GPa)
#
#
# Indices 1 2 3 4 5 6 
#
# 1 0.016571 -0.003400 -0.002106 0.000000 0.000000 0.000000
# 2 -0.003400 0.014915 -0.002804 0.000000 0.000000 0.000000
# 3 -0.002106 -0.002804 0.007873 0.000000 0.000000 0.000000
# 4 0.000000 0.000000 0.000000 0.044521 0.000000 0.000000
# 5 0.000000 0.000000 0.000000 0.000000 0.046305 0.000000
# 6 0.000000 0.000000 0.000000 0.000000 0.000000 0.030601
#
#
# Mechanical properties :
#
#
# Convention : Reuss Voigt Hill
#
# Bulk Modulus (GPa) = 43.97688 49.82573 46.90130
# Shear Modulus (GPa) = 27.02908 29.51644 28.27276
#
# Velocity S-wave (km/s) = 3.62919 3.79250 3.71174
# Velocity P-wave (km/s) = 6.24427 6.59220 6.42059
#
# Compressibility (1/GPa) = 0.02273922
#
# Stress axis : x y z
#
# Youngs Moduli (GPa) = 60.34654 67.04549 127.01514
#
# Poissons Ratio (x) = 0.22794 0.26748
# Poissons Ratio (y) = 0.20516 0.35620
# Poissons Ratio (z) = 0.12708 0.18802
#
# Static dielectric constant tensor:
#      x y z
#    x 3.855080 0.000000 0.000000 
#    y 0.000000 4.017490 0.000000 
#    z 0.000000 0.000000 0.245230 
# 
# 
# High freq. dielectric constant tensor:
#      x y z
#    x 1.801930 0.000000 0.000000 
#    y 0.000000 1.781490 0.000000 
#    z 0.000000 0.000000 1.806190 
# 
# From -- ./inp_files/8757.got.cif
#   From: 2010.03.12/outbox.cif.g09.slc.cpg/sg20_5_cif.got.tgz:8757.got - 2010.04.14 01:38:04.
