data_PCOD8158065
_publ_section_title
;
Structure prediction by ZEFSAII (Michael W. Deem and Ramdas Pophale) SiO2 
 PCOD8158065
Probable space group: C 2 2 21
;
_chemical_formula_sum "Si O2"
_cell_formula_units_Z 56
_cell_length_a 15.284236
_cell_length_b 32.068291
_cell_length_c 5.126513
_cell_angle_alpha 90.000000
_cell_angle_beta 90.000000
_cell_angle_gamma 90.000000
_cell_volume 2512.705636
_symmetry_space_group_name_H-M "C 2 2 21"
_symmetry_group_IT_number 20
_symmetry_cell_setting 'orthorhombic'
loop_
_space_group_symop_operation_xyz
x,y,z
-x,-y,1/2+z
x,-y,-z
-x,y,1/2-z
1/2+x,1/2+y,z
1/2-x,1/2-y,1/2+z
1/2+x,1/2-y,-z
1/2-x,1/2+y,1/2-z
loop_
_atom_site_type_symbol
_atom_site_label
_atom_site_fract_x
_atom_site_fract_y
_atom_site_fract_z
Si Si1 0.757014 0.724674 0.021513
Si Si2 0.671643 0.519662 0.748660
Si Si3 0.406200 0.162903 0.835982
Si Si4 0.632858 0.017442 0.246611
Si Si5 0.332384 0.351619 0.750690
Si Si6 0.098933 0.108473 0.757147
Si Si7 0.143630 0.384744 0.814182
O O1 0.712918 0.745621 0.763847
O O2 0.840141 0.700318 0.902286
O O3 0.685026 0.696269 0.170097
O O4 0.622579 0.500000 0.500000
O O5 0.771932 0.504758 0.748695
O O6 0.665542 0.569656 0.736176
O O7 0.623673 0.500000 0.000000
O O8 0.500000 0.181685 0.750000
O O9 0.370626 0.133225 0.604314
O O10 0.420262 0.136053 0.099098
O O11 0.631654 0.066497 0.213810
O O12 0.582893 0.000000 0.500000
O O13 0.579913 0.000000 0.000000
O O14 0.396539 0.370386 0.537359
O O15 0.242033 0.376048 0.729358
O O16 0.376190 0.357416 0.035263
O O17 0.000000 0.091968 0.750000
#
# Coordination Sequence:
#
# PCOD8158065 Si02
#       7
#     8   8   8   8   8   8   8
#     4  11  23  43  71 101 129 161 207 258 313 390
#     4  10  20  33  52  80 118 161 215 269 315 359
#     4  11  24  43  69 101 131 163 206 260 323 380
#     4  10  18  31  54  86 117 156 215 267 309 359
#     4  11  22  41  64  89 122 167 218 260 311 383
#     4  12  24  39  59  88 131 175 220 273 321 372
#     4  11  21  38  67  93 123 169 218 265 308 379
#
# _framework density 22.286731
#
# number of rings (size 3 to 8) (size 9 to 14) (size 15 to 20)
#    0.000    1.143    0.000   10.286    0.000    0.571 
#    0.000    2.857    0.000    8.571    0.000    0.000 
#    0.000    0.000    0.000    0.000    0.000    0.000 
#
# Total GULP energy -346952.778924 kJ/mol
# GULP energy per Si atom -12391.170676 kJ/mol
# Density = 2.223601 g / cm^3
# Si number density = 22.286731 Si / 1000 Ang^3
#
#
#
# Elastic Constant Matrix: (Units=GPa)
#
#
# Indices 1 2 3 4 5 6 
#
# 1 63.7054 35.7200 22.5809 0.0000 0.0000 0.0000
# 2 35.7200 123.6619 47.2952 0.0000 0.0000 0.0000
# 3 22.5809 47.2952 189.5691 0.0000 0.0000 0.0000
# 4 0.0000 0.0000 0.0000 51.0988 0.0000 0.0000
# 5 0.0000 0.0000 0.0000 0.0000 25.7285 0.0000
# 6 0.0000 0.0000 0.0000 0.0000 0.0000 11.3091
#
#
#
# Elastic Compliance Matrix: (Units=1/GPa)
#
#
# Indices 1 2 3 4 5 6 
#
# 1 0.018895 -0.005082 -0.000983 0.000000 0.000000 0.000000
# 2 -0.005082 0.010306 -0.001966 0.000000 0.000000 0.000000
# 3 -0.000983 -0.001966 0.005883 0.000000 0.000000 0.000000
# 4 0.000000 0.000000 0.000000 0.019570 0.000000 0.000000
# 5 0.000000 0.000000 0.000000 0.000000 0.038867 0.000000
# 6 0.000000 0.000000 0.000000 0.000000 0.000000 0.088425
#
#
# Mechanical properties :
#
#
# Convention : Reuss Voigt Hill
#
# Bulk Modulus (GPa) = 52.56903 65.34762 58.95832
# Shear Modulus (GPa) = 24.46798 35.71662 30.09230
#
# Velocity S-wave (km/s) = 3.31701 4.00759 3.67854
# Velocity P-wave (km/s) = 6.18942 7.12736 6.67488
#
# Compressibility (1/GPa) = 0.01902261
#
# Stress axis : x y z
#
# Youngs Moduli (GPa) = 52.92361 97.02691 169.99059
#
# Poissons Ratio (x) = 0.49309 0.16707
# Poissons Ratio (y) = 0.26896 0.33420
# Poissons Ratio (z) = 0.05201 0.19075
#
# Static dielectric constant tensor:
#      x y z
#    x 3.730880 0.000000 0.000000 
#    y 0.000000 3.993110 0.000000 
#    z 0.000000 0.000000 3.972180 
# 
# 
# High freq. dielectric constant tensor:
#      x y z
#    x 1.848700 0.000000 0.000000 
#    y 0.000000 1.871870 0.000000 
#    z 0.000000 0.000000 1.918680 
# 
# From -- ./inp_files/2242.got.cif
#   From: 2010.03.12/outbox.cif.g09.slc.cpg/sg20_2_cif.got.tgz:2242.got - 2010.04.14 01:38:04.
