data_PCOD8158239
_publ_section_title
;
Structure prediction by ZEFSAII (Michael W. Deem and Ramdas Pophale) SiO2 
 PCOD8158239
Probable space group: C 2 2 21
;
_chemical_formula_sum "Si O2"
_cell_formula_units_Z 52
_cell_length_a 22.522881
_cell_length_b 14.989372
_cell_length_c 7.751670
_cell_angle_alpha 90.000000
_cell_angle_beta 90.000000
_cell_angle_gamma 90.000000
_cell_volume 2616.993573
_symmetry_space_group_name_H-M "C 2 2 21"
_symmetry_group_IT_number 20
_symmetry_cell_setting 'orthorhombic'
loop_
_space_group_symop_operation_xyz
x,y,z
-x,-y,1/2+z
x,-y,-z
-x,y,1/2-z
1/2+x,1/2+y,z
1/2-x,1/2-y,1/2+z
1/2+x,1/2-y,-z
1/2-x,1/2+y,1/2-z
loop_
_atom_site_type_symbol
_atom_site_label
_atom_site_fract_x
_atom_site_fract_y
_atom_site_fract_z
Si Si1 0.930889 0.265277 0.777962
Si Si2 0.773793 0.320959 0.001684
Si Si3 0.697140 0.086023 0.847399
Si Si4 0.353040 0.740409 0.457488
Si Si5 0.137915 0.561495 0.333262
Si Si6 0.361223 0.320848 0.920374
Si Si7 0.692043 0.500000 0.500000
O O1 0.900092 0.223100 0.608048
O O2 0.916459 0.370648 0.802360
O O3 0.000000 0.254720 0.750000
O O4 0.912881 0.208142 0.946740
O O5 0.800953 0.361650 0.171473
O O6 0.799332 0.220064 0.003895
O O7 0.703418 0.323956 0.985958
O O8 0.802040 0.378886 0.848407
O O9 0.668872 0.156701 0.980946
O O10 0.652215 0.001431 0.831736
O O11 0.764103 0.052065 0.871915
O O12 0.379607 0.716282 0.269225
O O13 0.123922 0.500000 0.500000
O O14 0.351560 0.427589 0.910247
#
# Coordination Sequence:
#
# PCOD8158239 Si02
#       7
#     8   8   8   8   8   8   4
#     4  11  25  45  63  81 121 174 213 252 299 368
#     4   9  18  34  56  89 130 158 183 243 311 381
#     4  10  19  29  56  93 130 158 188 243 308 373
#     4  11  21  37  62  93 124 168 198 242 310 374
#     4   9  19  37  57  90 128 156 200 255 306 354
#     4  10  23  37  61  92 122 158 208 251 306 369
#     4  12  18  32  58  96 128 152 196 258 312 374
#
# _framework density 19.87013
#
# number of rings (size 3 to 8) (size 9 to 14) (size 15 to 20)
#    0.000    1.846    1.538    3.692    6.462    0.615 
#    2.769    2.308    3.385    0.000    0.000    0.000 
#    0.000    0.000    0.000    0.000    0.000    0.000 
#
# Total GULP energy -322209.327941 kJ/mol
# GULP energy per Si atom -12392.666459 kJ/mol
# Density = 1.982490 g / cm^3
# Si number density = 19.870130 Si / 1000 Ang^3
#
#
#
# Elastic Constant Matrix: (Units=GPa)
#
#
# Indices 1 2 3 4 5 6 
#
# 1 122.8733 25.2999 46.8702 0.0000 0.0000 0.0000
# 2 25.2999 98.1848 22.3111 0.0000 0.0000 0.0000
# 3 46.8702 22.3111 87.5008 0.0000 0.0000 0.0000
# 4 0.0000 0.0000 0.0000 18.7291 0.0000 0.0000
# 5 0.0000 0.0000 0.0000 0.0000 23.9600 0.0000
# 6 0.0000 0.0000 0.0000 0.0000 0.0000 1.4189
#
#
#
# Elastic Compliance Matrix: (Units=1/GPa)
#
#
# Indices 1 2 3 4 5 6 
#
# 1 0.010434 -0.001506 -0.005205 0.000000 0.000000 0.000000
# 2 -0.001506 0.011029 -0.002005 0.000000 0.000000 0.000000
# 3 -0.005205 -0.002005 0.014728 0.000000 0.000000 0.000000
# 4 0.000000 0.000000 0.000000 0.053393 0.000000 0.000000
# 5 0.000000 0.000000 0.000000 0.000000 0.041736 0.000000
# 6 0.000000 0.000000 0.000000 0.000000 0.000000 0.704765
#
#
# Mechanical properties :
#
#
# Convention : Reuss Voigt Hill
#
# Bulk Modulus (GPa) = 53.31115 55.28015 54.29565
# Shear Modulus (GPa) = 5.81551 23.09345 14.45448
#
# Velocity S-wave (km/s) = 1.71263 3.41283 2.70005
# Velocity P-wave (km/s) = 5.54967 6.58870 6.09138
#
# Compressibility (1/GPa) = 0.01875780
#
# Stress axis : x y z
#
# Youngs Moduli (GPa) = 95.84054 90.67332 67.89812
#
# Poissons Ratio (x) = 0.13654 0.35341
# Poissons Ratio (y) = 0.14432 0.13617
# Poissons Ratio (z) = 0.49886 0.18184
#
# Static dielectric constant tensor:
#      x y z
#    x 3.073520 0.000000 0.000000 
#    y 0.000000 4.047650 0.000000 
#    z 0.000000 0.000000 3.767140 
# 
# 
# High freq. dielectric constant tensor:
#      x y z
#    x 1.720480 0.000000 0.000000 
#    y 0.000000 1.785130 0.000000 
#    z 0.000000 0.000000 1.788050 
# 
# From -- ./inp_files/10129.got.cif
#   From: 2010.03.12/outbox.cif.g09.slc.cpg/sg20_6_cif.got.tgz:10129.got - 2010.04.14 01:38:04.
