data_PCOD8158174
_publ_section_title
;
Structure prediction by ZEFSAII (Michael W. Deem and Ramdas Pophale) SiO2 
 PCOD8158174
Probable space group: C 2 2 21
;
_chemical_formula_sum "Si O2"
_cell_formula_units_Z 48
_cell_length_a 28.683052
_cell_length_b 8.692960
_cell_length_c 9.787604
_cell_angle_alpha 90.000000
_cell_angle_beta 90.000000
_cell_angle_gamma 90.000000
_cell_volume 2440.447286
_symmetry_space_group_name_H-M "C 2 2 21"
_symmetry_group_IT_number 20
_symmetry_cell_setting 'orthorhombic'
loop_
_space_group_symop_operation_xyz
x,y,z
-x,-y,1/2+z
x,-y,-z
-x,y,1/2-z
1/2+x,1/2+y,z
1/2-x,1/2-y,1/2+z
1/2+x,1/2-y,-z
1/2-x,1/2+y,1/2-z
loop_
_atom_site_type_symbol
_atom_site_label
_atom_site_fract_x
_atom_site_fract_y
_atom_site_fract_z
Si Si1 0.500000 0.363808 0.250000
Si Si2 0.290892 0.764634 0.126788
Si Si3 0.543183 0.500000 0.000000
Si Si4 0.139915 0.500000 0.500000
Si Si5 0.285594 0.167482 0.564035
Si Si6 0.630445 0.333216 0.029477
Si Si7 0.900403 0.756426 0.178245
Si Si8 0.151758 0.000000 0.500000
O O1 0.510712 0.481065 0.129055
O O2 0.455529 0.260759 0.210517
O O3 0.271790 0.803812 0.278366
O O4 0.328701 0.891340 0.091794
O O5 0.246541 0.780769 0.026247
O O6 0.315134 0.596835 0.104318
O O7 0.576600 0.349221 0.977707
O O8 0.108056 0.406807 0.606593
O O9 0.340396 0.207975 0.553876
O O10 0.277165 0.000000 0.500000
O O11 0.630527 0.277882 0.186161
O O12 0.654469 0.500000 0.000000
O O13 0.883483 0.892341 0.081241
#
# Coordination Sequence:
#
# PCOD8158174 Si02
#       8
#     4   8   4   4   8   8   8   4
#     4  10  18  36  66  92 124 146 208 260 310 378
#     4  11  26  39  64  89 127 167 217 259 307 370
#     4   8  19  35  62  98 112 162 198 255 319 366
#     4  10  24  41  60  88 126 170 204 255 324 366
#     4  12  26  40  61  92 127 166 218 258 308 366
#     4   9  20  37  61  87 122 162 206 247 317 363
#     4  10  20  38  65  87 124 160 203 258 319 378
#     4  10  21  40  60  96 122 160 208 258 317 372
#
# _framework density 19.668524999999999
#
# number of rings (size 3 to 8) (size 9 to 14) (size 15 to 20)
#    0.500    1.333    0.833    2.500    8.167    0.000 
#    0.000    0.000   14.667    2.000    0.000    0.000 
#    0.000    0.000    0.000    0.000    0.000    0.000 
#
# Total GULP energy -297392.183955 kJ/mol
# GULP energy per Si atom -12391.340998 kJ/mol
# Density = 1.962376 g / cm^3
# Si number density = 19.668525 Si / 1000 Ang^3
#
#
#
# Elastic Constant Matrix: (Units=GPa)
#
#
# Indices 1 2 3 4 5 6 
#
# 1 105.1902 38.6213 59.9639 0.0000 0.0000 0.0000
# 2 38.6213 100.0920 59.1482 0.0000 0.0000 0.0000
# 3 59.9639 59.1482 157.2500 0.0000 0.0000 0.0000
# 4 0.0000 0.0000 0.0000 37.8488 0.0000 0.0000
# 5 0.0000 0.0000 0.0000 0.0000 36.0784 0.0000
# 6 0.0000 0.0000 0.0000 0.0000 0.0000 18.4420
#
#
#
# Elastic Compliance Matrix: (Units=1/GPa)
#
#
# Indices 1 2 3 4 5 6 
#
# 1 0.012657 -0.002612 -0.003844 0.000000 0.000000 0.000000
# 2 -0.002612 0.013385 -0.004039 0.000000 0.000000 0.000000
# 3 -0.003844 -0.004039 0.009344 0.000000 0.000000 0.000000
# 4 0.000000 0.000000 0.000000 0.026421 0.000000 0.000000
# 5 0.000000 0.000000 0.000000 0.000000 0.027717 0.000000
# 6 0.000000 0.000000 0.000000 0.000000 0.000000 0.054224
#
#
# Mechanical properties :
#
#
# Convention : Reuss Voigt Hill
#
# Bulk Modulus (GPa) = 69.45952 75.33320 72.39636
# Shear Modulus (GPa) = 29.49202 32.12709 30.80956
#
# Velocity S-wave (km/s) = 3.87648 4.04595 3.96212
# Velocity P-wave (km/s) = 7.44499 7.75957 7.60390
#
# Compressibility (1/GPa) = 0.01439687
#
# Stress axis : x y z
#
# Youngs Moduli (GPa) = 79.00826 74.70845 107.01865
#
# Poissons Ratio (x) = 0.19516 0.41136
# Poissons Ratio (y) = 0.20639 0.43221
# Poissons Ratio (z) = 0.30370 0.30172
#
# Static dielectric constant tensor:
#      x y z
#    x 3.566090 0.000000 0.000000 
#    y 0.000000 3.537550 0.000000 
#    z 0.000000 0.000000 3.659360 
# 
# 
# High freq. dielectric constant tensor:
#      x y z
#    x 1.769870 0.000000 0.000000 
#    y 0.000000 1.749640 0.000000 
#    z 0.000000 0.000000 1.774080 
# 
# From -- ./inp_files/11534.got.cif
#   From: 2010.03.12/outbox.cif.g09.slc.cpg/sg20_6_cif.got.tgz:11534.got - 2010.04.14 01:38:04.
