data_PCOD8158318
_publ_section_title
;
Structure prediction by ZEFSAII (Michael W. Deem and Ramdas Pophale) SiO2 
 PCOD8158318
Probable space group: C 2 2 21
;
_chemical_formula_sum "Si O2"
_cell_formula_units_Z 64
_cell_length_a 17.312068
_cell_length_b 21.279678
_cell_length_c 8.881460
_cell_angle_alpha 90.000000
_cell_angle_beta 90.000000
_cell_angle_gamma 90.000000
_cell_volume 3271.887522
_symmetry_space_group_name_H-M "C 2 2 21"
_symmetry_group_IT_number 20
_symmetry_cell_setting 'orthorhombic'
loop_
_space_group_symop_operation_xyz
x,y,z
-x,-y,1/2+z
x,-y,-z
-x,y,1/2-z
1/2+x,1/2+y,z
1/2-x,1/2-y,1/2+z
1/2+x,1/2-y,-z
1/2-x,1/2+y,1/2-z
loop_
_atom_site_type_symbol
_atom_site_label
_atom_site_fract_x
_atom_site_fract_y
_atom_site_fract_z
Si Si1 0.328109 0.561960 0.081657
Si Si2 0.042992 0.347270 0.400632
Si Si3 0.917988 0.729489 0.171467
Si Si4 0.690754 0.878742 0.760680
Si Si5 0.171461 0.437771 0.446861
Si Si6 0.084544 0.125110 0.683304
Si Si7 0.167853 0.023761 0.843659
Si Si8 0.548650 0.058835 0.104212
O O1 0.267504 0.616443 0.134565
O O2 0.363136 0.530212 0.231209
O O3 0.290237 0.500000 0.000000
O O4 0.395781 0.593883 0.980273
O O5 0.075172 0.287849 0.493950
O O6 0.114332 0.392762 0.353258
O O7 0.000000 0.324263 0.250000
O O8 0.987111 0.382817 0.514927
O O9 0.849191 0.690363 0.253204
O O10 0.894995 0.801846 0.179978
O O11 0.000000 0.715373 0.250000
O O12 0.708041 0.900724 0.589613
O O13 0.633542 0.926174 0.840554
O O14 0.122892 0.500000 0.500000
O O15 0.239229 0.467249 0.344534
O O16 0.139108 0.093247 0.805883
O O17 0.000000 0.112495 0.750000
O O18 0.133899 0.000000 0.000000
O O19 0.500000 0.041765 0.250000
O O20 0.555538 0.000000 0.000000
#
# Coordination Sequence:
#
# PCOD8158318 Si02
#       8
#     8   8   8   8   8   8   8   8
#     4  10  21  38  63  97 128 153 206 265 323 389
#     4  11  22  34  57  85 126 175 226 262 293 358
#     4  10  20  45  61  81 130 175 220 255 308 367
#     4  11  19  36  60  86 128 176 205 256 309 370
#     4  10  19  34  56  85 131 169 192 260 325 363
#     4  10  24  44  69  90 118 167 206 267 332 381
#     4  10  20  40  66  97 129 152 199 261 339 394
#     4  12  22  32  52  90 127 177 227 258 298 359
#
# _framework density 19.560573999999999
#
# number of rings (size 3 to 8) (size 9 to 14) (size 15 to 20)
#    0.000    1.500    6.250    1.125    1.750    3.500 
#    4.500    2.500    0.000    0.750    0.000    0.000 
#    0.000    0.000    0.000    0.000    0.000    0.000 
#
# Total GULP energy -396445.456783 kJ/mol
# GULP energy per Si atom -12388.920524 kJ/mol
# Density = 1.951605 g / cm^3
# Si number density = 19.560574 Si / 1000 Ang^3
#
#
#
# Elastic Constant Matrix: (Units=GPa)
#
#
# Indices 1 2 3 4 5 6 
#
# 1 76.0920 49.0002 40.8365 0.0000 0.0000 0.0000
# 2 49.0002 134.5759 59.0722 0.0000 0.0000 0.0000
# 3 40.8365 59.0722 127.4186 0.0000 0.0000 0.0000
# 4 0.0000 0.0000 0.0000 27.9908 0.0000 0.0000
# 5 0.0000 0.0000 0.0000 0.0000 38.7082 0.0000
# 6 0.0000 0.0000 0.0000 0.0000 0.0000 27.9512
#
#
#
# Elastic Compliance Matrix: (Units=1/GPa)
#
#
# Indices 1 2 3 4 5 6 
#
# 1 0.018325 -0.005140 -0.003490 0.000000 0.000000 0.000000
# 2 -0.005140 0.010771 -0.003346 0.000000 0.000000 0.000000
# 3 -0.003490 -0.003346 0.010518 0.000000 0.000000 0.000000
# 4 0.000000 0.000000 0.000000 0.035726 0.000000 0.000000
# 5 0.000000 0.000000 0.000000 0.000000 0.025834 0.000000
# 6 0.000000 0.000000 0.000000 0.000000 0.000000 0.035777
#
#
# Mechanical properties :
#
#
# Convention : Reuss Voigt Hill
#
# Bulk Modulus (GPa) = 63.85158 70.65604 67.25381
# Shear Modulus (GPa) = 30.09787 31.54188 30.81988
#
# Velocity S-wave (km/s) = 3.92688 4.01998 3.97370
# Velocity P-wave (km/s) = 7.29893 7.59915 7.45055
#
# Compressibility (1/GPa) = 0.01566132
#
# Stress axis : x y z
#
# Youngs Moduli (GPa) = 54.56978 92.83995 95.07569
#
# Poissons Ratio (x) = 0.47724 0.33181
# Poissons Ratio (y) = 0.28051 0.31814
# Poissons Ratio (z) = 0.19044 0.31066
#
# Static dielectric constant tensor:
#      x y z
#    x 3.445600 0.000000 0.000000 
#    y 0.000000 2.981840 0.000000 
#    z 0.000000 0.000000 3.774950 
# 
# 
# High freq. dielectric constant tensor:
#      x y z
#    x 1.739980 0.000000 0.000000 
#    y 0.000000 1.752800 0.000000 
#    z 0.000000 0.000000 1.767300 
# 
# From -- ./inp_files/9632.got.cif
#   From: 2010.03.12/outbox.cif.g09.slc.cpg/sg20_5_cif.got.tgz:9632.got - 2010.04.14 01:38:04.
