data_PCOD8158446
_publ_section_title
;
Structure prediction by ZEFSAII (Michael W. Deem and Ramdas Pophale) SiO2 
 PCOD8158446
Probable space group: C 2 2 21
;
_chemical_formula_sum "Si O2"
_cell_formula_units_Z 60
_cell_length_a 12.516020
_cell_length_b 19.679079
_cell_length_c 12.637226
_cell_angle_alpha 90.000000
_cell_angle_beta 90.000000
_cell_angle_gamma 90.000000
_cell_volume 3112.596107
_symmetry_space_group_name_H-M "C 2 2 21"
_symmetry_group_IT_number 20
_symmetry_cell_setting 'orthorhombic'
loop_
_space_group_symop_operation_xyz
x,y,z
-x,-y,1/2+z
x,-y,-z
-x,y,1/2-z
1/2+x,1/2+y,z
1/2-x,1/2-y,1/2+z
1/2+x,1/2-y,-z
1/2-x,1/2+y,1/2-z
loop_
_atom_site_type_symbol
_atom_site_label
_atom_site_fract_x
_atom_site_fract_y
_atom_site_fract_z
Si Si1 0.257709 0.681079 0.319482
Si Si2 0.115608 0.693619 0.911434
Si Si3 0.107922 0.305877 0.500801
Si Si4 0.347207 0.465989 0.668149
Si Si5 0.288512 0.675649 0.080629
Si Si6 0.844749 0.549147 0.911302
Si Si7 0.500000 0.904794 0.250000
Si Si8 0.086686 0.042866 0.400565
O O1 0.346379 0.737188 0.353592
O O2 0.145705 0.698305 0.377270
O O3 0.297752 0.607417 0.357121
O O4 0.231995 0.678095 0.195172
O O5 0.076237 0.641560 0.822502
O O6 0.207341 0.660221 0.984447
O O7 0.018565 0.705563 0.993450
O O8 0.161571 0.248964 0.430086
O O9 0.154583 0.374003 0.449976
O O10 0.274709 0.525311 0.618466
O O11 0.355247 0.481121 0.793241
O O12 0.460869 0.467463 0.611186
O O13 0.384115 0.621175 0.078552
O O14 0.924042 0.543624 0.812443
O O15 0.893700 0.500000 0.000000
O O16 0.129668 0.000000 0.500000
#
# Coordination Sequence:
#
# PCOD8158446 Si02
#       8
#     8   8   8   8   8   8   4   8
#     4  10  19  37  62  87 119 156 199 254 294 360
#     4  10  21  39  63  88 120 161 202 249 306 359
#     4  10  21  38  61  86 119 161 207 246 298 366
#     4  10  21  38  61  87 120 162 199 243 310 360
#     4  10  22  39  61  92 121 160 204 252 304 358
#     4  11  21  40  59  88 118 162 207 246 304 367
#     4  10  24  40  60  88 120 164 206 252 302 368
#     4  10  22  38  60  91 123 156 200 250 304 367
#
# _framework density 19.276513999999999
#
# number of rings (size 3 to 8) (size 9 to 14) (size 15 to 20)
#    0.000    1.867    1.333    2.800    1.867    2.667 
#    9.600    0.000    0.000    0.000    0.000    0.000 
#    0.000    0.000    0.000    0.000    0.000    0.000 
#
# Total GULP energy -371916.897451 kJ/mol
# GULP energy per Si atom -12397.229915 kJ/mol
# Density = 1.923264 g / cm^3
# Si number density = 19.276514 Si / 1000 Ang^3
#
#
#
# Elastic Constant Matrix: (Units=GPa)
#
#
# Indices 1 2 3 4 5 6 
#
# 1 106.4832 42.0449 49.4330 0.0000 0.0000 0.0000
# 2 42.0449 100.7732 48.9274 0.0000 0.0000 0.0000
# 3 49.4330 48.9274 113.6265 0.0000 0.0000 0.0000
# 4 0.0000 0.0000 0.0000 29.6211 0.0000 0.0000
# 5 0.0000 0.0000 0.0000 0.0000 28.8317 0.0000
# 6 0.0000 0.0000 0.0000 0.0000 0.0000 32.6884
#
#
#
# Elastic Compliance Matrix: (Units=1/GPa)
#
#
# Indices 1 2 3 4 5 6 
#
# 1 0.012567 -0.003273 -0.004058 0.000000 0.000000 0.000000
# 2 -0.003273 0.013399 -0.004345 0.000000 0.000000 0.000000
# 3 -0.004058 -0.004345 0.012437 0.000000 0.000000 0.000000
# 4 0.000000 0.000000 0.000000 0.033760 0.000000 0.000000
# 5 0.000000 0.000000 0.000000 0.000000 0.034684 0.000000
# 6 0.000000 0.000000 0.000000 0.000000 0.000000 0.030592
#
#
# Mechanical properties :
#
#
# Convention : Reuss Voigt Hill
#
# Bulk Modulus (GPa) = 66.44444 66.85485 66.64964
# Shear Modulus (GPa) = 30.15514 30.26008 30.20761
#
# Velocity S-wave (km/s) = 3.95947 3.96636 3.96292
# Velocity P-wave (km/s) = 7.44629 7.46547 7.45589
#
# Compressibility (1/GPa) = 0.01505017
#
# Stress axis : x y z
#
# Youngs Moduli (GPa) = 79.57079 74.63387 80.40294
#
# Poissons Ratio (x) = 0.24429 0.32628
# Poissons Ratio (y) = 0.26045 0.34939
# Poissons Ratio (z) = 0.32290 0.32432
#
# Static dielectric constant tensor:
#      x y z
#    x 3.628080 0.000000 0.000000 
#    y 0.000000 3.493050 0.000000 
#    z 0.000000 0.000000 3.794300 
# 
# 
# High freq. dielectric constant tensor:
#      x y z
#    x 1.742720 0.000000 0.000000 
#    y 0.000000 1.748820 0.000000 
#    z 0.000000 0.000000 1.766020 
# 
# From -- ./inp_files/14369.got.cif
#   From: 2010.03.12/outbox.cif.g09.slc.cpg/sg20_8_cif.got.tgz:14369.got - 2010.04.14 01:38:04.
