data_PCOD8158169
_publ_section_title
;
Structure prediction by ZEFSAII (Michael W. Deem and Ramdas Pophale) SiO2 
 PCOD8158169
Probable space group: C 2 2 21
;
_chemical_formula_sum "Si O2"
_cell_formula_units_Z 64
_cell_length_a 19.499904
_cell_length_b 9.898294
_cell_length_c 18.243179
_cell_angle_alpha 90.000000
_cell_angle_beta 90.000000
_cell_angle_gamma 90.000000
_cell_volume 3521.221475
_symmetry_space_group_name_H-M "C 2 2 21"
_symmetry_group_IT_number 20
_symmetry_cell_setting 'orthorhombic'
loop_
_space_group_symop_operation_xyz
x,y,z
-x,-y,1/2+z
x,-y,-z
-x,y,1/2-z
1/2+x,1/2+y,z
1/2-x,1/2-y,1/2+z
1/2+x,1/2-y,-z
1/2-x,1/2+y,1/2-z
loop_
_atom_site_type_symbol
_atom_site_label
_atom_site_fract_x
_atom_site_fract_y
_atom_site_fract_z
Si Si1 0.518369 0.973914 0.329977
Si Si2 0.674273 0.979510 0.315314
Si Si3 0.293123 0.711793 0.649575
Si Si4 0.673202 0.284183 0.315779
Si Si5 0.917893 0.615453 0.555091
Si Si6 0.086080 0.132885 0.952610
Si Si7 0.483301 0.714246 0.831724
Si Si8 0.292872 0.974527 0.350916
O O1 0.500000 0.920244 0.250000
O O2 0.598594 0.958363 0.347074
O O3 0.476494 0.878015 0.383727
O O4 0.493665 0.129313 0.337844
O O5 0.722571 0.871335 0.354851
O O6 0.672260 0.955522 0.228111
O O7 0.699979 0.132075 0.331983
O O8 0.328624 0.692662 0.728416
O O9 0.342352 0.648651 0.589139
O O10 0.277835 0.868516 0.632443
O O11 0.597221 0.304518 0.347426
O O12 0.722011 0.391827 0.355494
O O13 0.939936 0.500000 0.500000
O O14 0.920441 0.753821 0.513148
O O15 0.843215 0.586240 0.588574
O O16 0.024537 0.132190 0.893388
O O17 0.084401 0.000000 0.000000
O O18 0.500000 0.660089 0.750000
#
# Coordination Sequence:
#
# PCOD8158169 Si02
#       8
#     8   8   8   8   8   8   8   8
#     4  10  18  36  64  92 116 155 209 256 290 354
#     4   9  19  34  60  90 119 147 198 254 295 338
#     4  10  19  38  58  87 119 154 194 247 299 353
#     4   9  19  34  64  89 113 150 203 249 288 348
#     4  12  22  39  63  87 119 160 203 245 306 364
#     4  12  26  41  59  89 126 164 198 251 314 369
#     4  10  18  38  65  88 116 161 206 245 299 364
#     4  10  19  36  59  88 116 155 199 244 294 360
#
# _framework density 18.175509999999999
#
# number of rings (size 3 to 8) (size 9 to 14) (size 15 to 20)
#    0.000    1.750    5.000    0.000    1.750    0.000 
#    2.250    3.125    0.000    0.000    0.000    0.000 
#    0.000    0.000    0.000    0.000    0.000    0.000 
#
# Total GULP energy -396863.410752 kJ/mol
# GULP energy per Si atom -12401.981586 kJ/mol
# Density = 1.813414 g / cm^3
# Si number density = 18.175510 Si / 1000 Ang^3
#
#
#
# Elastic Constant Matrix: (Units=GPa)
#
#
# Indices 1 2 3 4 5 6 
#
# 1 107.0853 60.2736 59.7679 0.0000 0.0000 0.0000
# 2 60.2736 120.0837 64.1452 0.0000 0.0000 0.0000
# 3 59.7679 64.1452 106.2358 0.0000 0.0000 0.0000
# 4 0.0000 0.0000 0.0000 30.7219 0.0000 0.0000
# 5 0.0000 0.0000 0.0000 0.0000 36.9810 0.0000
# 6 0.0000 0.0000 0.0000 0.0000 0.0000 29.6885
#
#
#
# Elastic Compliance Matrix: (Units=1/GPa)
#
#
# Indices 1 2 3 4 5 6 
#
# 1 0.015090 -0.004486 -0.005781 0.000000 0.000000 0.000000
# 2 -0.004486 0.013626 -0.005703 0.000000 0.000000 0.000000
# 3 -0.005781 -0.005703 0.016109 0.000000 0.000000 0.000000
# 4 0.000000 0.000000 0.000000 0.032550 0.000000 0.000000
# 5 0.000000 0.000000 0.000000 0.000000 0.027041 0.000000
# 6 0.000000 0.000000 0.000000 0.000000 0.000000 0.033683
#
#
# Mechanical properties :
#
#
# Convention : Reuss Voigt Hill
#
# Bulk Modulus (GPa) = 77.61528 77.97535 77.79531
# Shear Modulus (GPa) = 28.68058 29.42615 29.05336
#
# Velocity S-wave (km/s) = 3.97669 4.02805 4.00245
# Velocity P-wave (km/s) = 7.99258 8.03915 8.01590
#
# Compressibility (1/GPa) = 0.01288406
#
# Stress axis : x y z
#
# Youngs Moduli (GPa) = 66.26977 73.38991 62.07715
#
# Poissons Ratio (x) = 0.32924 0.35885
# Poissons Ratio (y) = 0.29729 0.35405
# Poissons Ratio (z) = 0.38309 0.41857
#
# Static dielectric constant tensor:
#      x y z
#    x 3.340850 0.000000 0.000000 
#    y 0.000000 3.228030 0.000000 
#    z 0.000000 0.000000 3.337390 
# 
# 
# High freq. dielectric constant tensor:
#      x y z
#    x 1.709430 0.000000 0.000000 
#    y 0.000000 1.691930 0.000000 
#    z 0.000000 0.000000 1.697060 
# 
# From -- ./inp_files/25503.got.cif
#   From: 2010.03.12/outbox.cif.g09.slc.cpg/sg20_13_cif.got.tgz:25503.got - 2010.04.14 01:38:04.
