data_PCOD8158466
_publ_section_title
;
Structure prediction by ZEFSAII (Michael W. Deem and Ramdas Pophale) SiO2 
 PCOD8158466
Probable space group: C 2 2 21
;
_chemical_formula_sum "Si O2"
_cell_formula_units_Z 48
_cell_length_a 15.988896
_cell_length_b 8.350269
_cell_length_c 17.878642
_cell_angle_alpha 90.000000
_cell_angle_beta 90.000000
_cell_angle_gamma 90.000000
_cell_volume 2387.005788
_symmetry_space_group_name_H-M "C 2 2 21"
_symmetry_group_IT_number 20
_symmetry_cell_setting 'orthorhombic'
loop_
_space_group_symop_operation_xyz
x,y,z
-x,-y,1/2+z
x,-y,-z
-x,y,1/2-z
1/2+x,1/2+y,z
1/2-x,1/2-y,1/2+z
1/2+x,1/2-y,-z
1/2-x,1/2+y,1/2-z
loop_
_atom_site_type_symbol
_atom_site_label
_atom_site_fract_x
_atom_site_fract_y
_atom_site_fract_z
Si Si1 0.517628 0.668162 0.332309
Si Si2 0.816310 0.037044 0.830290
Si Si3 0.867120 0.013583 0.417313
Si Si4 0.698422 0.203518 0.447595
Si Si5 0.723001 0.719009 0.815586
Si Si6 0.632945 0.106773 0.599577
O O1 0.500000 0.735105 0.250000
O O2 0.592515 0.540754 0.328840
O O3 0.433499 0.591641 0.362678
O O4 0.541807 0.817799 0.385852
O O5 0.808792 0.123278 0.910704
O O6 0.811415 0.172005 0.766021
O O7 0.740388 0.909798 0.820804
O O8 0.786631 0.126730 0.425271
O O9 0.907312 0.000000 0.500000
O O10 0.840978 0.843386 0.380197
O O11 0.684325 0.211219 0.536747
O O12 0.625053 0.080656 0.419965
O O13 0.812254 0.630116 0.825431
#
# Coordination Sequence:
#
# PCOD8158466 Si02
#       6
#     8   8   8   8   8   8
#     4  11  24  39  61  93 131 169 209 259 335 381
#     4  11  23  37  67  90 124 166 225 257 321 384
#     4  11  21  41  63  87 129 166 208 270 323 371
#     4  10  20  41  65  92 117 169 219 266 306 387
#     4  10  19  38  59  89 118 168 214 263 304 383
#     4   9  20  39  63  87 126 166 211 258 320 376
#
# _framework density 20.108875000000001
#
# number of rings (size 3 to 8) (size 9 to 14) (size 15 to 20)
#    0.000    1.667    5.000    2.000    4.667    2.000 
#    0.000    2.500    0.000    0.000    0.000    0.000 
#    0.000    0.000    0.000    0.000    0.000    0.000 
#
# Total GULP energy -297454.077403 kJ/mol
# GULP energy per Si atom -12393.919892 kJ/mol
# Density = 2.006311 g / cm^3
# Si number density = 20.108875 Si / 1000 Ang^3
#
#
#
# Elastic Constant Matrix: (Units=GPa)
#
#
# Indices 1 2 3 4 5 6 
#
# 1 86.9417 41.5479 40.5665 0.0000 0.0000 0.0000
# 2 41.5479 87.7231 29.3575 0.0000 0.0000 0.0000
# 3 40.5665 29.3575 94.9280 0.0000 0.0000 0.0000
# 4 0.0000 0.0000 0.0000 35.8311 0.0000 0.0000
# 5 0.0000 0.0000 0.0000 0.0000 31.1799 0.0000
# 6 0.0000 0.0000 0.0000 0.0000 0.0000 21.7865
#
#
#
# Elastic Compliance Matrix: (Units=1/GPa)
#
#
# Indices 1 2 3 4 5 6 
#
# 1 0.016975 -0.006260 -0.005318 0.000000 0.000000 0.000000
# 2 -0.006260 0.015024 -0.001971 0.000000 0.000000 0.000000
# 3 -0.005318 -0.001971 0.013417 0.000000 0.000000 0.000000
# 4 0.000000 0.000000 0.000000 0.027909 0.000000 0.000000
# 5 0.000000 0.000000 0.000000 0.000000 0.032072 0.000000
# 6 0.000000 0.000000 0.000000 0.000000 0.000000 0.045900
#
#
# Mechanical properties :
#
#
# Convention : Reuss Voigt Hill
#
# Bulk Modulus (GPa) = 54.59422 54.72628 54.66025
# Shear Modulus (GPa) = 27.10022 28.30089 27.70056
#
# Velocity S-wave (km/s) = 3.67505 3.75558 3.71553
# Velocity P-wave (km/s) = 6.72430 6.78822 6.75634
#
# Compressibility (1/GPa) = 0.01831696
#
# Stress axis : x y z
#
# Youngs Moduli (GPa) = 58.91069 66.55988 74.53486
#
# Poissons Ratio (x) = 0.41666 0.39638
# Poissons Ratio (y) = 0.36878 0.14693
# Poissons Ratio (z) = 0.31329 0.13120
#
# Static dielectric constant tensor:
#      x y z
#    x 3.502920 0.000000 0.000000 
#    y 0.000000 3.589370 0.000000 
#    z 0.000000 0.000000 3.932750 
# 
# 
# High freq. dielectric constant tensor:
#      x y z
#    x 1.761210 0.000000 0.000000 
#    y 0.000000 1.768990 0.000000 
#    z 0.000000 0.000000 1.802560 
# 
# From -- ./inp_files/24800.got.cif
#   From: 2010.03.12/outbox.cif.g09.slc.cpg/sg20_13_cif.got.tgz:24800.got - 2010.04.14 01:38:04.
