data_PCOD8158126
_publ_section_title
;
Structure prediction by ZEFSAII (Michael W. Deem and Ramdas Pophale) SiO2 
 PCOD8158126
Probable space group: C 2 2 21
;
_chemical_formula_sum "Si O2"
_cell_formula_units_Z 52
_cell_length_a 10.124479
_cell_length_b 14.422579
_cell_length_c 17.105910
_cell_angle_alpha 90.000000
_cell_angle_beta 90.000000
_cell_angle_gamma 90.000000
_cell_volume 2497.823764
_symmetry_space_group_name_H-M "C 2 2 21"
_symmetry_group_IT_number 20
_symmetry_cell_setting 'orthorhombic'
loop_
_space_group_symop_operation_xyz
x,y,z
-x,-y,1/2+z
x,-y,-z
-x,y,1/2-z
1/2+x,1/2+y,z
1/2-x,1/2-y,1/2+z
1/2+x,1/2-y,-z
1/2-x,1/2+y,1/2-z
loop_
_atom_site_type_symbol
_atom_site_label
_atom_site_fract_x
_atom_site_fract_y
_atom_site_fract_z
Si Si1 0.512015 0.679404 0.579088
Si Si2 0.096326 0.095760 0.143751
Si Si3 0.993986 0.283945 0.424353
Si Si4 0.749267 0.724123 0.833206
Si Si5 0.570609 0.500000 0.000000
Si Si6 0.273136 0.865890 0.335173
Si Si7 0.693718 0.430451 0.693871
O O1 0.498808 0.764560 0.517425
O O2 0.389767 0.680909 0.639625
O O3 0.520561 0.584933 0.528899
O O4 0.645002 0.684687 0.628784
O O5 0.073195 0.201906 0.125230
O O6 0.159467 0.038967 0.070881
O O7 0.198012 0.084025 0.213176
O O8 0.953926 0.051707 0.163171
O O9 0.892876 0.363552 0.397993
O O10 0.140601 0.308021 0.395384
O O11 0.793117 0.685150 0.748480
O O12 0.740406 0.836500 0.839365
O O13 0.270465 0.976426 0.325152
#
# Coordination Sequence:
#
# PCOD8158126 Si02
#       7
#     8   8   8   8   4   8   8
#     4  11  23  39  65  96 125 160 216 271 309 372
#     4   9  17  34  58  89 117 158 205 266 294 370
#     4  10  22  41  61  89 132 169 197 253 338 377
#     4  11  23  42  64  95 129 167 209 267 318 380
#     4  10  18  34  60  92 118 152 212 260 312 352
#     4  12  22  39  68  95 121 172 220 260 314 380
#     4  10  20  36  62  89 123 162 218 254 309 373
#
# _framework density 20.818123
#
# number of rings (size 3 to 8) (size 9 to 14) (size 15 to 20)
#    0.000    1.538    3.077    2.769    2.154    0.000 
#    0.000    3.077    3.385    0.000    0.000    0.000 
#    0.000    0.000    0.000    0.000    0.000    0.000 
#
# Total GULP energy -322219.762594 kJ/mol
# GULP energy per Si atom -12393.067792 kJ/mol
# Density = 2.077074 g / cm^3
# Si number density = 20.818123 Si / 1000 Ang^3
#
#
#
# Elastic Constant Matrix: (Units=GPa)
#
#
# Indices 1 2 3 4 5 6 
#
# 1 77.6302 15.7805 15.1811 0.0000 0.0000 0.0000
# 2 15.7805 84.9913 3.5149 0.0000 0.0000 0.0000
# 3 15.1811 3.5149 81.6247 0.0000 0.0000 0.0000
# 4 0.0000 0.0000 0.0000 30.5895 0.0000 0.0000
# 5 0.0000 0.0000 0.0000 0.0000 34.8246 0.0000
# 6 0.0000 0.0000 0.0000 0.0000 0.0000 23.5793
#
#
#
# Elastic Compliance Matrix: (Units=1/GPa)
#
#
# Indices 1 2 3 4 5 6 
#
# 1 0.013868 -0.002473 -0.002473 0.000000 0.000000 0.000000
# 2 -0.002473 0.012228 -0.000067 0.000000 0.000000 0.000000
# 3 -0.002473 -0.000067 0.012714 0.000000 0.000000 0.000000
# 4 0.000000 0.000000 0.000000 0.032691 0.000000 0.000000
# 5 0.000000 0.000000 0.000000 0.000000 0.028715 0.000000
# 6 0.000000 0.000000 0.000000 0.000000 0.000000 0.042410
#
#
# Mechanical properties :
#
#
# Convention : Reuss Voigt Hill
#
# Bulk Modulus (GPa) = 34.73980 34.79994 34.76987
# Shear Modulus (GPa) = 30.81758 31.78332 31.30045
#
# Velocity S-wave (km/s) = 3.85167 3.91156 3.88173
# Velocity P-wave (km/s) = 6.04186 6.09531 6.06864
#
# Compressibility (1/GPa) = 0.02878543
#
# Stress axis : x y z
#
# Youngs Moduli (GPa) = 72.10965 81.78116 78.65369
#
# Poissons Ratio (x) = 0.20221 0.19449
# Poissons Ratio (y) = 0.17830 0.00524
# Poissons Ratio (z) = 0.17831 0.00545
#
# Static dielectric constant tensor:
#      x y z
#    x 3.447110 0.000000 0.000000 
#    y 0.000000 3.761480 0.000000 
#    z 0.000000 0.000000 4.048850 
# 
# 
# High freq. dielectric constant tensor:
#      x y z
#    x 1.777050 0.000000 0.000000 
#    y 0.000000 1.813480 0.000000 
#    z 0.000000 0.000000 1.834040 
# 
# From -- ./inp_files/24358.got.cif
#   From: 2010.03.12/outbox.cif.g09.slc.cpg/sg20_13_cif.got.tgz:24358.got - 2010.04.14 01:38:04.
