data_PCOD8158726
_publ_section_title
;
Structure prediction by ZEFSAII (Michael W. Deem and Ramdas Pophale) SiO2 
 PCOD8158726
Probable space group: C 2 2 21
;
_chemical_formula_sum "Si O2"
_cell_formula_units_Z 40
_cell_length_a 8.206218
_cell_length_b 22.074338
_cell_length_c 8.953074
_cell_angle_alpha 90.000000
_cell_angle_beta 90.000000
_cell_angle_gamma 90.000000
_cell_volume 1621.820972
_symmetry_space_group_name_H-M "C 2 2 21"
_symmetry_group_IT_number 20
_symmetry_cell_setting 'orthorhombic'
loop_
_space_group_symop_operation_xyz
x,y,z
-x,-y,1/2+z
x,-y,-z
-x,y,1/2-z
1/2+x,1/2+y,z
1/2-x,1/2-y,1/2+z
1/2+x,1/2-y,-z
1/2-x,1/2+y,1/2-z
loop_
_atom_site_type_symbol
_atom_site_label
_atom_site_fract_x
_atom_site_fract_y
_atom_site_fract_z
Si Si1 0.138356 0.743491 0.367357
Si Si2 0.330651 0.934369 0.561018
Si Si3 0.676889 0.377964 0.824156
Si Si4 0.562050 0.823881 0.090813
Si Si5 0.494160 0.564845 0.572811
O O1 0.240044 0.686979 0.302562
O O2 0.253125 0.800437 0.397662
O O3 0.000000 0.763319 0.250000
O O4 0.053056 0.728520 0.524903
O O5 0.289815 0.929533 0.739360
O O6 0.460422 0.882397 0.517708
O O7 0.171509 0.912263 0.472674
O O8 0.388690 0.000000 0.500000
O O9 0.500000 0.377694 0.750000
O O10 0.649186 0.393153 0.000714
O O11 0.500000 0.844740 0.250000
O O12 0.463547 0.500000 0.500000
O O13 0.500000 0.562707 0.750000
#
# Coordination Sequence:
#
# PCOD8158726 Si02
#       5
#     8   8   8   8   8
#     4  12  26  49  73 105 145 191 241 308 382 445
#     4  10  22  45  69 101 151 194 245 304 364 452
#     4  10  22  43  72 101 143 197 241 299 373 438
#     4  12  28  46  73 111 142 192 252 310 375 445
#     4  10  20  36  67 104 141 190 246 299 360 445
#
# _framework density 24.663633000000001
#
# number of rings (size 3 to 8) (size 9 to 14) (size 15 to 20)
#    0.000    1.200    2.000    4.800    8.400    0.800 
#    3.600    0.000    0.000    0.000    0.000    0.000 
#    0.000    0.000    0.000    0.000    0.000    0.000 
#
# Total GULP energy -247933.817344 kJ/mol
# GULP energy per Si atom -12396.690867 kJ/mol
# Density = 2.460750 g / cm^3
# Si number density = 24.663633 Si / 1000 Ang^3
#
#
#
# Elastic Constant Matrix: (Units=GPa)
#
#
# Indices 1 2 3 4 5 6 
#
# 1 51.1048 29.5092 16.4595 0.0000 0.0000 0.0000
# 2 29.5092 118.8307 32.0346 0.0000 0.0000 0.0000
# 3 16.4595 32.0346 173.9730 0.0000 0.0000 0.0000
# 4 0.0000 0.0000 0.0000 24.9453 0.0000 0.0000
# 5 0.0000 0.0000 0.0000 0.0000 33.3976 0.0000
# 6 0.0000 0.0000 0.0000 0.0000 0.0000 28.1312
#
#
#
# Elastic Compliance Matrix: (Units=1/GPa)
#
#
# Indices 1 2 3 4 5 6 
#
# 1 0.023074 -0.005410 -0.001187 0.000000 0.000000 0.000000
# 2 -0.005410 0.010123 -0.001352 0.000000 0.000000 0.000000
# 3 -0.001187 -0.001352 0.006109 0.000000 0.000000 0.000000
# 4 0.000000 0.000000 0.000000 0.040088 0.000000 0.000000
# 5 0.000000 0.000000 0.000000 0.000000 0.029942 0.000000
# 6 0.000000 0.000000 0.000000 0.000000 0.000000 0.035548
#
#
# Mechanical properties :
#
#
# Convention : Reuss Voigt Hill
#
# Bulk Modulus (GPa) = 42.71982 55.54612 49.13297
# Shear Modulus (GPa) = 29.65863 35.02182 32.34023
#
# Velocity S-wave (km/s) = 3.47151 3.77235 3.62505
# Velocity P-wave (km/s) = 5.78161 6.44550 6.12256
#
# Compressibility (1/GPa) = 0.02340834
#
# Stress axis : x y z
#
# Youngs Moduli (GPa) = 43.33929 98.78171 163.68496
#
# Poissons Ratio (x) = 0.53441 0.19427
# Poissons Ratio (y) = 0.23446 0.22134
# Poissons Ratio (z) = 0.05144 0.13358
#
# Static dielectric constant tensor:
#      x y z
#    x 4.519780 0.000000 0.000000 
#    y 0.000000 4.224360 0.000000 
#    z 0.000000 0.000000 4.579210 
# 
# 
# High freq. dielectric constant tensor:
#      x y z
#    x 1.978780 0.000000 0.000000 
#    y 0.000000 1.974590 0.000000 
#    z 0.000000 0.000000 1.988020 
# 
# From -- ./inp_files/6075.got.cif
#   From: 2010.03.12/outbox.cif.g09.slc.cpg/sg20_4_cif.got.tgz:6075.got - 2010.04.14 01:38:04.
