data_PCOD8158357
_publ_section_title
;
Structure prediction by ZEFSAII (Michael W. Deem and Ramdas Pophale) SiO2 
 PCOD8158357
Probable space group: C 2 2 21
;
_chemical_formula_sum "Si O2"
_cell_formula_units_Z 56
_cell_length_a 7.435006
_cell_length_b 21.314711
_cell_length_c 18.666435
_cell_angle_alpha 90.000000
_cell_angle_beta 90.000000
_cell_angle_gamma 90.000000
_cell_volume 2958.163365
_symmetry_space_group_name_H-M "C 2 2 21"
_symmetry_group_IT_number 20
_symmetry_cell_setting 'orthorhombic'
loop_
_space_group_symop_operation_xyz
x,y,z
-x,-y,1/2+z
x,-y,-z
-x,y,1/2-z
1/2+x,1/2+y,z
1/2-x,1/2-y,1/2+z
1/2+x,1/2-y,-z
1/2-x,1/2+y,1/2-z
loop_
_atom_site_type_symbol
_atom_site_label
_atom_site_fract_x
_atom_site_fract_y
_atom_site_fract_z
Si Si1 0.343535 0.481485 0.199809
Si Si2 0.500000 0.254640 0.250000
Si Si3 0.206382 0.591552 0.127451
Si Si4 0.877213 0.669450 0.506247
Si Si5 0.149412 0.790629 0.690644
Si Si6 0.739839 0.794849 0.432000
Si Si7 0.588849 0.650950 0.628884
Si Si8 0.500000 0.036444 0.250000
O O1 0.500000 0.507520 0.250000
O O2 0.316277 0.525724 0.129333
O O3 0.389187 0.412687 0.172664
O O4 0.169525 0.488373 0.252396
O O5 0.651202 0.208828 0.221884
O O6 0.407256 0.294479 0.187257
O O7 0.144601 0.611471 0.048505
O O8 0.357056 0.642099 0.152644
O O9 0.031997 0.582011 0.180369
O O10 0.829124 0.736872 0.473652
O O11 0.755391 0.657564 0.575342
O O12 0.089768 0.668865 0.522758
O O13 0.132741 0.731896 0.636833
O O14 0.000000 0.782911 0.750000
O O15 0.897087 0.844541 0.412445
#
# Coordination Sequence:
#
# PCOD8158357 Si02
#       8
#     8   4   8   8   8   8   8   4
#     4  10  21  42  64  88 122 161 215 261 315 363
#     4  10  21  36  58  94 122 153 210 264 314 376
#     4   9  21  40  61  86 127 165 207 262 313 372
#     4  11  21  41  61  91 129 167 203 257 322 389
#     4  10  19  35  58  93 119 157 207 253 318 384
#     4  10  22  38  59  91 128 163 201 256 328 373
#     4  11  22  39  64  89 125 166 208 265 314 381
#     4   8  21  42  58  90 114 161 208 266 304 350
#
# _framework density 18.930665000000001
#
# number of rings (size 3 to 8) (size 9 to 14) (size 15 to 20)
#    0.857    1.143    2.143    1.714    0.000    1.714 
#    6.429    0.000    0.000    0.000    0.000    0.000 
#    0.000    0.000    0.000    0.000    0.000    0.000 
#
# Total GULP energy -346878.126933 kJ/mol
# GULP energy per Si atom -12388.504533 kJ/mol
# Density = 1.888758 g / cm^3
# Si number density = 18.930665 Si / 1000 Ang^3
#
#
#
# Elastic Constant Matrix: (Units=GPa)
#
#
# Indices 1 2 3 4 5 6 
#
# 1 87.0017 34.3153 29.6316 0.0000 0.0000 0.0000
# 2 34.3153 49.3491 3.5722 0.0000 0.0000 0.0000
# 3 29.6316 3.5722 70.7270 0.0000 0.0000 0.0000
# 4 0.0000 0.0000 0.0000 113.2336 0.0000 0.0000
# 5 0.0000 0.0000 0.0000 0.0000 43.7277 0.0000
# 6 0.0000 0.0000 0.0000 0.0000 0.0000 43.7011
#
#
#
# Elastic Compliance Matrix: (Units=1/GPa)
#
#
# Indices 1 2 3 4 5 6 
#
# 1 0.018982 -0.012670 -0.007313 0.000000 0.000000 0.000000
# 2 -0.012670 0.028795 0.003854 0.000000 0.000000 0.000000
# 3 -0.007313 0.003854 0.017008 0.000000 0.000000 0.000000
# 4 0.000000 0.000000 0.000000 0.008831 0.000000 0.000000
# 5 0.000000 0.000000 0.000000 0.000000 0.022869 0.000000
# 6 0.000000 0.000000 0.000000 0.000000 0.000000 0.022883
#
#
# Mechanical properties :
#
#
# Convention : Reuss Voigt Hill
#
# Bulk Modulus (GPa) = 30.74345 38.01289 34.37817
# Shear Modulus (GPa) = 30.77537 49.43640 40.10589
#
# Velocity S-wave (km/s) = 4.03636 5.11577 4.60778
# Velocity P-wave (km/s) = 6.16427 7.41745 6.81970
#
# Compressibility (1/GPa) = 0.03252725
#
# Stress axis : x y z
#
# Youngs Moduli (GPa) = 52.68176 34.72830 58.79609
#
# Poissons Ratio (x) = 0.44000 0.42996
# Poissons Ratio (y) = 0.66747 -0.22659
# Poissons Ratio (z) = 0.38525 -0.13384
#
# Static dielectric constant tensor:
#      x y z
#    x 3.232570 0.000000 0.000000 
#    y 0.000000 3.271720 0.000000 
#    z 0.000000 0.000000 3.549040 
# 
# 
# High freq. dielectric constant tensor:
#      x y z
#    x 1.735620 0.000000 0.000000 
#    y 0.000000 1.726370 0.000000 
#    z 0.000000 0.000000 1.732730 
# 
# From -- ./inp_files/26199.got.cif
#   From: 2010.03.12/outbox.cif.g09.slc.cpg/sg20_14_cif.got.tgz:26199.got - 2010.04.14 01:38:04.
