data_PCOD8158644
_publ_section_title
;
Structure prediction by ZEFSAII (Michael W. Deem and Ramdas Pophale) SiO2 
 PCOD8158644
Probable space group: C 2 2 21
;
_chemical_formula_sum "Si O2"
_cell_formula_units_Z 48
_cell_length_a 8.094661
_cell_length_b 18.614438
_cell_length_c 16.038845
_cell_angle_alpha 90.000000
_cell_angle_beta 90.000000
_cell_angle_gamma 90.000000
_cell_volume 2416.694115
_symmetry_space_group_name_H-M "C 2 2 21"
_symmetry_group_IT_number 20
_symmetry_cell_setting 'orthorhombic'
loop_
_space_group_symop_operation_xyz
x,y,z
-x,-y,1/2+z
x,-y,-z
-x,y,1/2-z
1/2+x,1/2+y,z
1/2-x,1/2-y,1/2+z
1/2+x,1/2-y,-z
1/2-x,1/2+y,1/2-z
loop_
_atom_site_type_symbol
_atom_site_label
_atom_site_fract_x
_atom_site_fract_y
_atom_site_fract_z
Si Si1 0.728485 0.458896 0.578493
Si Si2 0.595272 0.169621 0.167226
Si Si3 0.188506 0.279665 0.232335
Si Si4 0.501260 0.354069 0.489506
Si Si5 0.609419 0.413437 0.320778
Si Si6 0.799985 0.726375 0.061703
O O1 0.814367 0.500000 0.500000
O O2 0.835284 0.400191 0.623909
O O3 0.556909 0.421441 0.547196
O O4 0.712761 0.520593 0.646139
O O5 0.500000 0.145125 0.250000
O O6 0.730693 0.228775 0.196291
O O7 0.475117 0.198925 0.095669
O O8 0.283158 0.354522 0.227796
O O9 0.188233 0.245585 0.140617
O O10 0.000000 0.295322 0.250000
O O11 0.499209 0.377020 0.392920
O O12 0.314080 0.329593 0.510671
O O13 0.645981 0.292825 0.498357
O O14 0.500000 0.449521 0.250000
#
# Coordination Sequence:
#
# PCOD8158644 Si02
#       6
#     8   8   8   8   8   8
#     4  10  22  40  57  80 120 161 193 235 297 357
#     4  10  21  38  60  88 119 152 197 248 290 343
#     4  10  20  36  61  89 116 152 198 244 293 347
#     4  10  20  36  58  85 114 152 193 237 295 346
#     4  10  22  39  57  82 119 156 194 243 295 350
#     4  10  20  35  60  90 117 149 196 249 290 339
#
# _framework density 19.861844999999999
#
# number of rings (size 3 to 8) (size 9 to 14) (size 15 to 20)
#    0.000    2.000    0.000    4.500    0.000    5.333 
#    0.000    4.167    0.000    0.000    0.000    0.000 
#    0.000    0.000    0.000    0.000    0.000    0.000 
#
# Total GULP energy -297374.904320 kJ/mol
# GULP energy per Si atom -12390.621013 kJ/mol
# Density = 1.981664 g / cm^3
# Si number density = 19.861845 Si / 1000 Ang^3
#
#
#
# Elastic Constant Matrix: (Units=GPa)
#
#
# Indices 1 2 3 4 5 6 
#
# 1 47.1298 9.9549 31.3018 0.0000 0.0000 0.0000
# 2 9.9549 108.1612 44.3854 0.0000 0.0000 0.0000
# 3 31.3018 44.3854 66.4247 0.0000 0.0000 0.0000
# 4 0.0000 0.0000 0.0000 44.8818 0.0000 0.0000
# 5 0.0000 0.0000 0.0000 0.0000 25.2971 0.0000
# 6 0.0000 0.0000 0.0000 0.0000 0.0000 29.4071
#
#
#
# Elastic Compliance Matrix: (Units=1/GPa)
#
#
# Indices 1 2 3 4 5 6 
#
# 1 0.032416 0.004526 -0.018300 0.000000 0.000000 0.000000
# 2 0.004526 0.013370 -0.011067 0.000000 0.000000 0.000000
# 3 -0.018300 -0.011067 0.031073 0.000000 0.000000 0.000000
# 4 0.000000 0.000000 0.000000 0.022281 0.000000 0.000000
# 5 0.000000 0.000000 0.000000 0.000000 0.039530 0.000000
# 6 0.000000 0.000000 0.000000 0.000000 0.000000 0.034005
#
#
# Mechanical properties :
#
#
# Convention : Reuss Voigt Hill
#
# Bulk Modulus (GPa) = 36.79450 43.66666 40.23058
# Shear Modulus (GPa) = 21.60592 28.98876 25.29734
#
# Velocity S-wave (km/s) = 3.30178 3.82451 3.57272
# Velocity P-wave (km/s) = 5.75335 6.44480 6.10887
#
# Compressibility (1/GPa) = 0.02717797
#
# Stress axis : x y z
#
# Youngs Moduli (GPa) = 30.84874 74.79198 32.18179
#
# Poissons Ratio (x) = -0.33852 0.58893
# Poissons Ratio (y) = -0.13963 0.35616
# Poissons Ratio (z) = 0.56454 0.82773
#
# Static dielectric constant tensor:
#      x y z
#    x 3.361790 0.000000 0.000000 
#    y 0.000000 3.820280 0.000000 
#    z 0.000000 0.000000 3.695250 
# 
# 
# High freq. dielectric constant tensor:
#      x y z
#    x 1.753950 0.000000 0.000000 
#    y 0.000000 1.776180 0.000000 
#    z 0.000000 0.000000 1.792900 
# 
# From -- ./inp_files/18902.got.cif
#   From: 2010.03.12/outbox.cif.g09.slc.cpg/sg20_10_cif.got.tgz:18902.got - 2010.04.14 01:38:04.
