data_PCOD8158954
_publ_section_title
;
Structure prediction by ZEFSAII (Michael W. Deem and Ramdas Pophale) SiO2 
 PCOD8158954
Probable space group: C 2 2 21
;
_chemical_formula_sum "Si O2"
_cell_formula_units_Z 48
_cell_length_a 31.148112
_cell_length_b 9.095384
_cell_length_c 8.141797
_cell_angle_alpha 90.000000
_cell_angle_beta 90.000000
_cell_angle_gamma 90.000000
_cell_volume 2306.603979
_symmetry_space_group_name_H-M "C 2 2 21"
_symmetry_group_IT_number 20
_symmetry_cell_setting 'orthorhombic'
loop_
_space_group_symop_operation_xyz
x,y,z
-x,-y,1/2+z
x,-y,-z
-x,y,1/2-z
1/2+x,1/2+y,z
1/2-x,1/2-y,1/2+z
1/2+x,1/2-y,-z
1/2-x,1/2+y,1/2-z
loop_
_atom_site_type_symbol
_atom_site_label
_atom_site_fract_x
_atom_site_fract_y
_atom_site_fract_z
Si Si1 0.113150 0.163920 0.480307
Si Si2 0.450296 0.750213 0.283655
Si Si3 0.358896 0.751214 0.663108
Si Si4 0.775814 0.167031 0.471239
Si Si5 0.205051 0.851071 0.600526
Si Si6 0.590710 0.000000 0.000000
Si Si7 0.086146 0.000000 0.000000
O O1 0.076420 0.258585 0.388397
O O2 0.134821 0.236824 0.641380
O O3 0.154371 0.156052 0.363265
O O4 0.093908 0.000000 0.500000
O O5 0.500000 0.764938 0.250000
O O6 0.438456 0.889145 0.395584
O O7 0.442747 0.593192 0.372818
O O8 0.310683 0.752412 0.587183
O O9 0.379396 0.907331 0.620648
O O10 0.384119 0.612960 0.593659
O O11 0.777506 0.179751 0.278520
O O12 0.727283 0.219574 0.501909
O O13 0.783285 0.000000 0.500000
O O14 0.217037 0.000000 0.500000
#
# Coordination Sequence:
#
# PCOD8158954 Si02
#       7
#     8   8   8   8   8   4   4
#     4  11  22  43  69 102 131 176 230 290 348 403
#     4  11  25  44  71 101 137 175 228 287 347 423
#     4  11  22  41  69  94 136 181 221 283 339 406
#     4  12  23  42  65  98 135 181 232 286 329 394
#     4  11  24  41  64  95 136 181 228 281 341 405
#     4  10  26  44  62  98 136 186 216 270 354 416
#     4  10  20  40  66  98 128 170 222 276 346 402
#
# _framework density 20.809813999999999
#
# number of rings (size 3 to 8) (size 9 to 14) (size 15 to 20)
#    0.000    1.000    2.500    6.000    2.333    2.000 
#    9.000    3.333    0.000    0.000    0.000    0.000 
#    0.000    0.000    0.000    0.000    0.000    0.000 
#
# Total GULP energy -297324.316892 kJ/mol
# GULP energy per Si atom -12388.513204 kJ/mol
# Density = 2.076245 g / cm^3
# Si number density = 20.809814 Si / 1000 Ang^3
#
#
#
# Elastic Constant Matrix: (Units=GPa)
#
#
# Indices 1 2 3 4 5 6 
#
# 1 103.5895 32.6959 26.2969 0.0000 0.0000 0.0000
# 2 32.6959 83.1480 23.0733 0.0000 0.0000 0.0000
# 3 26.2969 23.0733 112.6300 0.0000 0.0000 0.0000
# 4 0.0000 0.0000 0.0000 28.4078 0.0000 0.0000
# 5 0.0000 0.0000 0.0000 0.0000 29.2860 0.0000
# 6 0.0000 0.0000 0.0000 0.0000 0.0000 19.7597
#
#
#
# Elastic Compliance Matrix: (Units=1/GPa)
#
#
# Indices 1 2 3 4 5 6 
#
# 1 0.011371 -0.003960 -0.001844 0.000000 0.000000 0.000000
# 2 -0.003960 0.014131 -0.001970 0.000000 0.000000 0.000000
# 3 -0.001844 -0.001970 0.009713 0.000000 0.000000 0.000000
# 4 0.000000 0.000000 0.000000 0.035202 0.000000 0.000000
# 5 0.000000 0.000000 0.000000 0.000000 0.034146 0.000000
# 6 0.000000 0.000000 0.000000 0.000000 0.000000 0.050608
#
#
# Mechanical properties :
#
#
# Convention : Reuss Voigt Hill
#
# Bulk Modulus (GPa) = 50.84670 51.49996 51.17333
# Shear Modulus (GPa) = 28.20495 29.97747 29.09121
#
# Velocity S-wave (km/s) = 3.68553 3.79957 3.74298
# Velocity P-wave (km/s) = 6.52670 6.63706 6.58211
#
# Compressibility (1/GPa) = 0.01966696
#
# Stress axis : x y z
#
# Youngs Moduli (GPa) = 87.93993 70.76845 102.95759
#
# Poissons Ratio (x) = 0.28023 0.18983
# Poissons Ratio (y) = 0.34823 0.20285
# Poissons Ratio (z) = 0.16214 0.13943
#
# Static dielectric constant tensor:
#      x y z
#    x 3.673290 0.000000 0.000000 
#    y 0.000000 3.893330 0.000000 
#    z 0.000000 0.000000 11.789180 
# 
# 
# High freq. dielectric constant tensor:
#      x y z
#    x 1.810060 0.000000 0.000000 
#    y 0.000000 1.812170 0.000000 
#    z 0.000000 0.000000 1.834560 
# 
# From -- ./inp_files/11513.got.cif
#   From: 2010.03.12/outbox.cif.g09.slc.cpg/sg20_6_cif.got.tgz:11513.got - 2010.04.14 01:38:04.
