data_PCOD8158444
_publ_section_title
;
Structure prediction by ZEFSAII (Michael W. Deem and Ramdas Pophale) SiO2 
 PCOD8158444
Probable space group: C 2 2 21
;
_chemical_formula_sum "Si O2"
_cell_formula_units_Z 60
_cell_length_a 9.115973
_cell_length_b 17.561297
_cell_length_c 18.805724
_cell_angle_alpha 90.000000
_cell_angle_beta 90.000000
_cell_angle_gamma 90.000000
_cell_volume 3010.576560
_symmetry_space_group_name_H-M "C 2 2 21"
_symmetry_group_IT_number 20
_symmetry_cell_setting 'orthorhombic'
loop_
_space_group_symop_operation_xyz
x,y,z
-x,-y,1/2+z
x,-y,-z
-x,y,1/2-z
1/2+x,1/2+y,z
1/2-x,1/2-y,1/2+z
1/2+x,1/2-y,-z
1/2-x,1/2+y,1/2-z
loop_
_atom_site_type_symbol
_atom_site_label
_atom_site_fract_x
_atom_site_fract_y
_atom_site_fract_z
Si Si1 0.819192 0.880954 0.091847
Si Si2 0.508120 0.500000 0.000000
Si Si3 0.938616 0.543272 0.672022
Si Si4 0.426727 0.719429 0.608400
Si Si5 0.605644 0.758718 0.049872
Si Si6 0.236436 0.108329 0.070111
Si Si7 0.496930 0.878710 0.668851
Si Si8 0.144916 0.639268 0.584601
O O1 0.713010 0.915139 0.152321
O O2 0.723569 0.826975 0.039659
O O3 0.931994 0.827288 0.135800
O O4 0.904299 0.943144 0.044310
O O5 0.612450 0.543369 0.057576
O O6 0.000000 0.563819 0.750000
O O7 0.897714 0.454342 0.663560
O O8 0.071177 0.565352 0.619072
O O9 0.437873 0.720388 0.523820
O O10 0.421565 0.807013 0.631426
O O11 0.285543 0.668618 0.628968
O O12 0.667702 0.688599 0.095574
O O13 0.463645 0.789249 0.089801
O O14 0.348400 0.093116 0.134875
O O15 0.326021 0.118052 0.996984
O O16 0.500000 0.852910 0.750000
#
# Coordination Sequence:
#
# PCOD8158444 Si02
#       8
#     8   4   8   8   8   8   8   8
#     4  11  23  38  63 100 126 168 210 266 328 388
#     4  12  24  34  66 108 134 156 220 278 342 378
#     4  10  25  44  60  85 129 166 217 266 320 389
#     4  11  20  38  61  95 124 159 214 266 320 386
#     4  10  19  37  61  93 130 159 200 263 328 370
#     4  11  21  38  64  92 134 158 211 275 318 382
#     4  11  24  41  63  87 128 178 218 259 324 395
#     4  10  20  37  66  89 120 169 203 264 331 373
#
# _framework density 19.929738
#
# number of rings (size 3 to 8) (size 9 to 14) (size 15 to 20)
#    0.000    1.333    5.333    1.600    1.867    1.067 
#    0.000    0.000    0.000    1.600    0.000    0.000 
#    0.000    0.000    0.000    0.000    0.000    0.000 
#
# Total GULP energy -371748.326899 kJ/mol
# GULP energy per Si atom -12391.610897 kJ/mol
# Density = 1.988438 g / cm^3
# Si number density = 19.929738 Si / 1000 Ang^3
#
#
#
# Elastic Constant Matrix: (Units=GPa)
#
#
# Indices 1 2 3 4 5 6 
#
# 1 116.8064 38.9817 36.7136 0.0000 0.0000 0.0000
# 2 38.9817 97.3093 19.9707 0.0000 0.0000 0.0000
# 3 36.7136 19.9707 62.4324 0.0000 0.0000 0.0000
# 4 0.0000 0.0000 0.0000 19.2348 0.0000 0.0000
# 5 0.0000 0.0000 0.0000 0.0000 22.5634 0.0000
# 6 0.0000 0.0000 0.0000 0.0000 0.0000 36.4917
#
#
#
# Elastic Compliance Matrix: (Units=1/GPa)
#
#
# Indices 1 2 3 4 5 6 
#
# 1 0.011487 -0.003441 -0.005654 0.000000 0.000000 0.000000
# 2 -0.003441 0.012029 -0.001824 0.000000 0.000000 0.000000
# 3 -0.005654 -0.001824 0.019926 0.000000 0.000000 0.000000
# 4 0.000000 0.000000 0.000000 0.051989 0.000000 0.000000
# 5 0.000000 0.000000 0.000000 0.000000 0.044320 0.000000
# 6 0.000000 0.000000 0.000000 0.000000 0.000000 0.027404
#
#
# Mechanical properties :
#
#
# Convention : Reuss Voigt Hill
#
# Bulk Modulus (GPa) = 46.29027 51.98664 49.13845
# Shear Modulus (GPa) = 25.48494 27.71677 26.60086
#
# Velocity S-wave (km/s) = 3.57983 3.73329 3.65736
# Velocity P-wave (km/s) = 6.35327 6.68766 6.52261
#
# Compressibility (1/GPa) = 0.02160281
#
# Stress axis : x y z
#
# Youngs Moduli (GPa) = 87.05700 83.12945 50.18619
#
# Poissons Ratio (x) = 0.28606 0.28376
# Poissons Ratio (y) = 0.29958 0.09156
# Poissons Ratio (z) = 0.49223 0.15166
#
# Static dielectric constant tensor:
#      x y z
#    x 3.899170 0.000000 0.000000 
#    y 0.000000 3.921740 0.000000 
#    z 0.000000 0.000000 3.309270 
# 
# 
# High freq. dielectric constant tensor:
#      x y z
#    x 1.784930 0.000000 0.000000 
#    y 0.000000 1.803180 0.000000 
#    z 0.000000 0.000000 1.734500 
# 
# From -- ./inp_files/23769.got.cif
#   From: 2010.03.12/outbox.cif.g09.slc.cpg/sg20_12_cif.got.tgz:23769.got - 2010.04.14 01:38:04.
