data_PCOD8158639
_publ_section_title
;
Structure prediction by ZEFSAII (Michael W. Deem and Ramdas Pophale) SiO2 
 PCOD8158639
Probable space group: C 2 2 21
;
_chemical_formula_sum "Si O2"
_cell_formula_units_Z 60
_cell_length_a 5.174959
_cell_length_b 17.461962
_cell_length_c 31.124950
_cell_angle_alpha 90.000000
_cell_angle_beta 90.000000
_cell_angle_gamma 90.000000
_cell_volume 2812.604159
_symmetry_space_group_name_H-M "C 2 2 21"
_symmetry_group_IT_number 20
_symmetry_cell_setting 'orthorhombic'
loop_
_space_group_symop_operation_xyz
x,y,z
-x,-y,1/2+z
x,-y,-z
-x,y,1/2-z
1/2+x,1/2+y,z
1/2-x,1/2-y,1/2+z
1/2+x,1/2-y,-z
1/2-x,1/2+y,1/2-z
loop_
_atom_site_type_symbol
_atom_site_label
_atom_site_fract_x
_atom_site_fract_y
_atom_site_fract_z
Si Si1 0.512288 0.914676 0.563922
Si Si2 0.815142 0.000000 0.500000
Si Si3 0.750203 0.291741 0.276542
Si Si4 0.396904 0.573203 0.363771
Si Si5 0.860951 0.045573 0.918146
Si Si6 0.725742 0.702385 0.625813
Si Si7 0.778119 0.200958 0.109623
Si Si8 0.247844 0.610456 0.274913
O O1 0.640670 0.928843 0.517410
O O2 0.724761 0.888706 0.598670
O O3 0.298500 0.845591 0.565020
O O4 0.401923 0.997555 0.577867
O O5 0.987067 0.962750 0.462861
O O6 0.500000 0.320645 0.250000
O O7 0.769431 0.325722 0.324980
O O8 0.744072 0.200839 0.282216
O O9 0.000000 0.318896 0.250000
O O10 0.478162 0.488639 0.378223
O O11 0.640608 0.632100 0.357378
O O12 0.238734 0.566801 0.320151
O O13 0.811138 0.133176 0.907265
O O14 0.468213 0.753951 0.627485
O O15 0.976533 0.743606 0.605451
O O16 0.500000 0.583045 0.250000
O O17 0.000000 0.580341 0.250000
#
# Coordination Sequence:
#
# PCOD8158639 Si02
#       8
#     8   4   8   8   8   8   8   8
#     4  10  21  43  74  94 130 177 221 275 329 411
#     4  10  22  46  72 100 126 176 234 266 338 422
#     4  10  20  35  58  93 132 175 220 274 325 387
#     4  10  21  41  66  97 131 182 224 277 328 400
#     4  10  25  41  74  96 137 176 224 272 348 411
#     4  12  24  41  69 103 135 178 226 277 338 409
#     4  11  22  39  70  99 134 170 225 277 329 391
#     4  10  21  32  58  94 127 169 228 278 315 372
#
# _framework density 21.332542
#
# number of rings (size 3 to 8) (size 9 to 14) (size 15 to 20)
#    0.000    1.600    2.667    1.200   11.200    0.000 
#    0.000    0.667   11.733    0.000    0.000    0.000 
#    0.000    0.000    0.000    0.000    0.000    0.000 
#
# Total GULP energy -371803.403257 kJ/mol
# GULP energy per Si atom -12393.446775 kJ/mol
# Density = 2.128399 g / cm^3
# Si number density = 21.332542 Si / 1000 Ang^3
#
#
#
# Elastic Constant Matrix: (Units=GPa)
#
#
# Indices 1 2 3 4 5 6 
#
# 1 142.4109 44.5541 52.6501 0.0000 0.0000 0.0000
# 2 44.5541 82.2072 51.2669 0.0000 0.0000 0.0000
# 3 52.6501 51.2669 134.7484 0.0000 0.0000 0.0000
# 4 0.0000 0.0000 0.0000 30.5259 0.0000 0.0000
# 5 0.0000 0.0000 0.0000 0.0000 28.3358 0.0000
# 6 0.0000 0.0000 0.0000 0.0000 0.0000 28.7889
#
#
#
# Elastic Compliance Matrix: (Units=1/GPa)
#
#
# Indices 1 2 3 4 5 6 
#
# 1 0.008909 -0.003484 -0.002155 0.000000 0.000000 0.000000
# 2 -0.003484 0.017311 -0.005225 0.000000 0.000000 0.000000
# 3 -0.002155 -0.005225 0.010251 0.000000 0.000000 0.000000
# 4 0.000000 0.000000 0.000000 0.032759 0.000000 0.000000
# 5 0.000000 0.000000 0.000000 0.000000 0.035291 0.000000
# 6 0.000000 0.000000 0.000000 0.000000 0.000000 0.034736
#
#
# Mechanical properties :
#
#
# Convention : Reuss Voigt Hill
#
# Bulk Modulus (GPa) = 67.83161 72.92319 70.37740
# Shear Modulus (GPa) = 30.13867 31.58982 30.86424
#
# Velocity S-wave (km/s) = 3.76280 3.85233 3.80783
# Velocity P-wave (km/s) = 7.12352 7.35156 7.23844
#
# Compressibility (1/GPa) = 0.01474239
#
# Stress axis : x y z
#
# Youngs Moduli (GPa) = 112.24822 57.76629 97.54907
#
# Poissons Ratio (x) = 0.20127 0.21025
# Poissons Ratio (y) = 0.39110 0.50968
# Poissons Ratio (z) = 0.24193 0.30182
#
# Static dielectric constant tensor:
#      x y z
#    x 4.170670 0.000000 0.000000 
#    y 0.000000 3.501310 0.000000 
#    z 0.000000 0.000000 3.773110 
# 
# 
# High freq. dielectric constant tensor:
#      x y z
#    x 1.861200 0.000000 0.000000 
#    y 0.000000 1.801580 0.000000 
#    z 0.000000 0.000000 1.823660 
# 
# From -- ./inp_files/30831.got.cif
#   From: 2010.03.12/outbox.cif.g09.slc.cpg/sg20_16_cif.got.tgz:30831.got - 2010.04.14 01:38:04.
