data_PCOD8158356
_publ_section_title
;
Structure prediction by ZEFSAII (Michael W. Deem and Ramdas Pophale) SiO2 
 PCOD8158356
Probable space group: C 2 2 21
;
_chemical_formula_sum "Si O2"
_cell_formula_units_Z 60
_cell_length_a 10.726215
_cell_length_b 33.378276
_cell_length_c 8.214138
_cell_angle_alpha 90.000000
_cell_angle_beta 90.000000
_cell_angle_gamma 90.000000
_cell_volume 2940.846754
_symmetry_space_group_name_H-M "C 2 2 21"
_symmetry_group_IT_number 20
_symmetry_cell_setting 'orthorhombic'
loop_
_space_group_symop_operation_xyz
x,y,z
-x,-y,1/2+z
x,-y,-z
-x,y,1/2-z
1/2+x,1/2+y,z
1/2-x,1/2-y,1/2+z
1/2+x,1/2-y,-z
1/2-x,1/2+y,1/2-z
loop_
_atom_site_type_symbol
_atom_site_label
_atom_site_fract_x
_atom_site_fract_y
_atom_site_fract_z
Si Si1 0.353588 0.073253 0.749915
Si Si2 0.079867 0.143824 0.511392
Si Si3 0.318795 0.637358 0.637102
Si Si4 0.808800 0.703017 0.074883
Si Si5 0.714761 0.094144 0.111149
Si Si6 0.000000 0.650454 0.250000
Si Si7 0.115625 0.774239 0.651569
Si Si8 0.632158 0.012903 0.186582
O O1 0.500000 0.082119 0.750000
O O2 0.281198 0.100988 0.880786
O O3 0.302023 0.083306 0.575058
O O4 0.324742 0.026250 0.789640
O O5 0.161132 0.148922 0.674991
O O6 0.152726 0.116862 0.376923
O O7 0.057623 0.187131 0.435973
O O8 0.947479 0.123327 0.552442
O O9 0.270994 0.676650 0.548381
O O10 0.935034 0.679128 0.117624
O O11 0.732555 0.713570 0.237338
O O12 0.841156 0.744095 0.986765
O O13 0.604568 0.122936 0.168357
O O14 0.721232 0.051807 0.209349
O O15 0.000000 0.754670 0.750000
O O16 0.500000 0.028391 0.250000
O O17 0.618046 0.000000 0.000000
#
# Coordination Sequence:
#
# PCOD8158356 Si02
#       8
#     8   8   8   8   8   4   8   8
#     4   9  18  33  58  93 127 157 205 258 315 372
#     4  10  21  41  64  90 118 170 210 254 304 381
#     4  10  21  40  65  90 120 165 212 252 313 373
#     4  12  27  41  64  90 123 158 204 268 312 382
#     4  10  19  35  58  91 123 161 205 252 313 374
#     4  12  24  36  60  92 122 156 206 256 316 372
#     4  12  26  44  64  89 123 160 209 253 322 374
#     4   9  17  31  55  90 126 163 195 255 319 368
#
# _framework density 20.402287000000001
#
# number of rings (size 3 to 8) (size 9 to 14) (size 15 to 20)
#    0.000    1.600    3.333    1.600    1.867    3.733 
#    0.000    0.000    0.000    0.000   52.000    0.000 
#    0.000    0.000    0.000    0.000    0.000    0.000 
#
# Total GULP energy -371908.336524 kJ/mol
# GULP energy per Si atom -12396.944551 kJ/mol
# Density = 2.035585 g / cm^3
# Si number density = 20.402287 Si / 1000 Ang^3
#
#
#
# Elastic Constant Matrix: (Units=GPa)
#
#
# Indices 1 2 3 4 5 6 
#
# 1 110.2421 60.2653 23.4706 0.0000 0.0000 0.0000
# 2 60.2653 141.2538 32.2837 0.0000 0.0000 0.0000
# 3 23.4706 32.2837 40.4310 0.0000 0.0000 0.0000
# 4 0.0000 0.0000 0.0000 39.7274 0.0000 0.0000
# 5 0.0000 0.0000 0.0000 0.0000 34.8378 0.0000
# 6 0.0000 0.0000 0.0000 0.0000 0.0000 27.0656
#
#
#
# Elastic Compliance Matrix: (Units=1/GPa)
#
#
# Indices 1 2 3 4 5 6 
#
# 1 0.012242 -0.004402 -0.003592 0.000000 0.000000 0.000000
# 2 -0.004402 0.010243 -0.005623 0.000000 0.000000 0.000000
# 3 -0.003592 -0.005623 0.031309 0.000000 0.000000 0.000000
# 4 0.000000 0.000000 0.000000 0.025172 0.000000 0.000000
# 5 0.000000 0.000000 0.000000 0.000000 0.028704 0.000000
# 6 0.000000 0.000000 0.000000 0.000000 0.000000 0.036947
#
#
# Mechanical properties :
#
#
# Convention : Reuss Voigt Hill
#
# Bulk Modulus (GPa) = 37.65142 58.21844 47.93493
# Shear Modulus (GPa) = 27.66957 32.05330 29.86143
#
# Velocity S-wave (km/s) = 3.68666 3.96797 3.82989
# Velocity P-wave (km/s) = 6.05116 7.04203 6.56531
#
# Compressibility (1/GPa) = 0.02655942
#
# Stress axis : x y z
#
# Youngs Moduli (GPa) = 81.68529 97.62934 31.94019
#
# Poissons Ratio (x) = 0.42978 0.11472
# Poissons Ratio (y) = 0.35959 0.17961
# Poissons Ratio (z) = 0.29338 0.54899
#
# Static dielectric constant tensor:
#      x y z
#    x 3.865510 0.000000 0.000000 
#    y 0.000000 4.137970 0.000000 
#    z 0.000000 0.000000 3.687310 
# 
# 
# High freq. dielectric constant tensor:
#      x y z
#    x 1.789610 0.000000 0.000000 
#    y 0.000000 1.806090 0.000000 
#    z 0.000000 0.000000 1.794910 
# 
# From -- ./inp_files/7628.got.cif
#   From: 2010.03.12/outbox.cif.g09.slc.cpg/sg20_4_cif.got.tgz:7628.got - 2010.04.14 01:38:04.
