data_PCOD8158365
_publ_section_title
;
Structure prediction by ZEFSAII (Michael W. Deem and Ramdas Pophale) SiO2 
 PCOD8158365
Probable space group: C 2 2 21
;
_chemical_formula_sum "Si O2"
_cell_formula_units_Z 48
_cell_length_a 7.970243
_cell_length_b 19.336469
_cell_length_c 15.297984
_cell_angle_alpha 90.000000
_cell_angle_beta 90.000000
_cell_angle_gamma 90.000000
_cell_volume 2357.669559
_symmetry_space_group_name_H-M "C 2 2 21"
_symmetry_group_IT_number 20
_symmetry_cell_setting 'orthorhombic'
loop_
_space_group_symop_operation_xyz
x,y,z
-x,-y,1/2+z
x,-y,-z
-x,y,1/2-z
1/2+x,1/2+y,z
1/2-x,1/2-y,1/2+z
1/2+x,1/2-y,-z
1/2-x,1/2+y,1/2-z
loop_
_atom_site_type_symbol
_atom_site_label
_atom_site_fract_x
_atom_site_fract_y
_atom_site_fract_z
Si Si1 0.599755 0.423332 0.660155
Si Si2 0.615876 0.187575 0.173697
Si Si3 0.189103 0.294053 0.219176
Si Si4 0.466726 0.353870 0.498827
Si Si5 0.615046 0.423460 0.332003
Si Si6 0.832435 0.729604 0.050834
O O1 0.500000 0.414756 0.750000
O O2 0.747214 0.369028 0.654617
O O3 0.474039 0.406023 0.580508
O O4 0.679680 0.499479 0.644679
O O5 0.500000 0.156868 0.250000
O O6 0.690904 0.261932 0.205584
O O7 0.507296 0.197936 0.085970
O O8 0.233514 0.373110 0.195418
O O9 0.211270 0.249414 0.131459
O O10 0.000000 0.289272 0.250000
O O11 0.501226 0.393814 0.409403
O O12 0.276786 0.323368 0.492874
O O13 0.610769 0.294452 0.508745
O O14 0.500000 0.434286 0.250000
#
# Coordination Sequence:
#
# PCOD8158365 Si02
#       6
#     8   8   8   8   8   8
#     4  11  22  38  61  87 118 160 199 239 295 356
#     4  10  19  35  59  89 121 151 196 249 293 346
#     4  10  19  35  60  91 121 154 197 246 296 352
#     4  11  21  38  59  87 118 150 196 245 297 350
#     4  10  23  40  59  83 120 163 198 240 297 353
#     4  10  21  34  60  91 116 152 194 249 303 345
#
# _framework density 20.359086999999999
#
# number of rings (size 3 to 8) (size 9 to 14) (size 15 to 20)
#    0.000    1.667    0.000    7.500    0.000    2.000 
#    0.000    0.000    0.000   10.000    0.000    0.000 
#    0.000    0.000    0.000    0.000    0.000    0.000 
#
# Total GULP energy -297574.401479 kJ/mol
# GULP energy per Si atom -12398.933395 kJ/mol
# Density = 2.031275 g / cm^3
# Si number density = 20.359087 Si / 1000 Ang^3
#
#
#
# Elastic Constant Matrix: (Units=GPa)
#
#
# Indices 1 2 3 4 5 6 
#
# 1 107.4815 50.0352 37.6618 0.0000 0.0000 0.0000
# 2 50.0352 139.9308 47.7222 0.0000 0.0000 0.0000
# 3 37.6618 47.7222 85.3303 0.0000 0.0000 0.0000
# 4 0.0000 0.0000 0.0000 26.5162 0.0000 0.0000
# 5 0.0000 0.0000 0.0000 0.0000 31.9399 0.0000
# 6 0.0000 0.0000 0.0000 0.0000 0.0000 22.1882
#
#
#
# Elastic Compliance Matrix: (Units=1/GPa)
#
#
# Indices 1 2 3 4 5 6 
#
# 1 0.011984 -0.003066 -0.003574 0.000000 0.000000 0.000000
# 2 -0.003066 0.009615 -0.004024 0.000000 0.000000 0.000000
# 3 -0.003574 -0.004024 0.015547 0.000000 0.000000 0.000000
# 4 0.000000 0.000000 0.000000 0.037713 0.000000 0.000000
# 5 0.000000 0.000000 0.000000 0.000000 0.031309 0.000000
# 6 0.000000 0.000000 0.000000 0.000000 0.000000 0.045069
#
#
# Mechanical properties :
#
#
# Convention : Reuss Voigt Hill
#
# Bulk Modulus (GPa) = 63.22338 67.06455 65.14397
# Shear Modulus (GPa) = 28.11541 29.28376 28.69959
#
# Velocity S-wave (km/s) = 3.72018 3.79669 3.75863
# Velocity P-wave (km/s) = 7.04092 7.22718 7.13466
#
# Compressibility (1/GPa) = 0.01581693
#
# Stress axis : x y z
#
# Youngs Moduli (GPa) = 83.44648 104.00301 64.31941
#
# Poissons Ratio (x) = 0.31887 0.22991
# Poissons Ratio (y) = 0.25585 0.25883
# Poissons Ratio (z) = 0.29828 0.41853
#
# Static dielectric constant tensor:
#      x y z
#    x 3.511960 0.000000 0.000000 
#    y 0.000000 4.002990 0.000000 
#    z 0.000000 0.000000 3.846260 
# 
# 
# High freq. dielectric constant tensor:
#      x y z
#    x 1.784380 0.000000 0.000000 
#    y 0.000000 1.788310 0.000000 
#    z 0.000000 0.000000 1.809860 
# 
# From -- ./inp_files/18903.got.cif
#   From: 2010.03.12/outbox.cif.g09.slc.cpg/sg20_10_cif.got.tgz:18903.got - 2010.04.14 01:38:04.
