data_PCOD8158540
_publ_section_title
;
Structure prediction by ZEFSAII (Michael W. Deem and Ramdas Pophale) SiO2 
 PCOD8158540
Probable space group: C 2 2 21
;
_chemical_formula_sum "Si O2"
_cell_formula_units_Z 44
_cell_length_a 18.570127
_cell_length_b 9.046973
_cell_length_c 13.042481
_cell_angle_alpha 90.000000
_cell_angle_beta 90.000000
_cell_angle_gamma 90.000000
_cell_volume 2191.181643
_symmetry_space_group_name_H-M "C 2 2 21"
_symmetry_group_IT_number 20
_symmetry_cell_setting 'orthorhombic'
loop_
_space_group_symop_operation_xyz
x,y,z
-x,-y,1/2+z
x,-y,-z
-x,y,1/2-z
1/2+x,1/2+y,z
1/2-x,1/2-y,1/2+z
1/2+x,1/2-y,-z
1/2-x,1/2+y,1/2-z
loop_
_atom_site_type_symbol
_atom_site_label
_atom_site_fract_x
_atom_site_fract_y
_atom_site_fract_z
Si Si1 0.883036 0.000000 0.000000
Si Si2 0.127140 0.327541 0.993575
Si Si3 0.057783 0.442311 0.337431
Si Si4 0.316886 0.172946 0.705422
Si Si5 0.239073 0.890080 0.637892
Si Si6 0.527729 0.228250 0.456424
O O1 0.834783 0.101014 0.074556
O O2 0.933445 0.885121 0.062120
O O3 0.138271 0.263925 0.108566
O O4 0.106045 0.500000 0.000000
O O5 0.198745 0.304466 0.925560
O O6 0.058504 0.247471 0.941947
O O7 0.135845 0.409005 0.290998
O O8 0.057602 0.612492 0.373286
O O9 0.041485 0.330803 0.429269
O O10 0.000000 0.413870 0.250000
O O11 0.273362 0.306571 0.755792
O O12 0.260551 0.057806 0.658905
#
# Coordination Sequence:
#
# PCOD8158540 Si02
#       6
#     4   8   8   8   8   8
#     4  12  24  44  60  96 138 166 202 284 336 360
#     4  10  19  43  67  85 125 173 210 258 323 391
#     4  11  20  38  67  93 117 165 221 259 314 405
#     4  11  22  39  66  91 124 167 220 257 324 391
#     4  11  24  42  64  92 129 172 214 269 322 392
#     4  11  23  40  65  93 128 165 212 270 329 387
#
# _framework density 20.080490000000001
#
# number of rings (size 3 to 8) (size 9 to 14) (size 15 to 20)
#    0.000    1.091    8.182    1.091    2.545    0.000 
#    3.273    0.909    0.000    0.000    0.000    0.000 
#    0.000    0.000    0.000    0.000    0.000    0.000 
#
# Total GULP energy -272852.275239 kJ/mol
# GULP energy per Si atom -12402.376147 kJ/mol
# Density = 2.003479 g / cm^3
# Si number density = 20.080490 Si / 1000 Ang^3
#
#
#
# Elastic Constant Matrix: (Units=GPa)
#
#
# Indices 1 2 3 4 5 6 
#
# 1 105.7389 25.3623 7.3426 0.0000 0.0000 0.0000
# 2 25.3623 40.9135 -1.6646 0.0000 0.0000 0.0000
# 3 7.3426 -1.6646 62.1085 0.0000 0.0000 0.0000
# 4 0.0000 0.0000 0.0000 34.5987 0.0000 0.0000
# 5 0.0000 0.0000 0.0000 0.0000 22.0444 0.0000
# 6 0.0000 0.0000 0.0000 0.0000 0.0000 24.8192
#
#
#
# Elastic Compliance Matrix: (Units=1/GPa)
#
#
# Indices 1 2 3 4 5 6 
#
# 1 0.011250 -0.007036 -0.001519 0.000000 0.000000 0.000000
# 2 -0.007036 0.028869 0.001606 0.000000 0.000000 0.000000
# 3 -0.001519 0.001606 0.016323 0.000000 0.000000 0.000000
# 4 0.000000 0.000000 0.000000 0.028903 0.000000 0.000000
# 5 0.000000 0.000000 0.000000 0.000000 0.045363 0.000000
# 6 0.000000 0.000000 0.000000 0.000000 0.000000 0.040291
#
#
# Mechanical properties :
#
#
# Convention : Reuss Voigt Hill
#
# Bulk Modulus (GPa) = 23.50479 30.09349 26.79914
# Shear Modulus (GPa) = 25.11565 28.14050 26.62808
#
# Velocity S-wave (km/s) = 3.54043 3.74757 3.64547
# Velocity P-wave (km/s) = 5.33325 5.80902 5.57621
#
# Compressibility (1/GPa) = 0.04254452
#
# Stress axis : x y z
#
# Youngs Moduli (GPa) = 88.88644 34.63963 61.26168
#
# Poissons Ratio (x) = 0.24372 0.09303
# Poissons Ratio (y) = 0.62539 -0.09836
# Poissons Ratio (z) = 0.13498 -0.05561
#
# Static dielectric constant tensor:
#      x y z
#    x 3.813630 0.000000 0.000000 
#    y 0.000000 3.297130 0.000000 
#    z 0.000000 0.000000 3.827300 
# 
# 
# High freq. dielectric constant tensor:
#      x y z
#    x 1.797730 0.000000 0.000000 
#    y 0.000000 1.749130 0.000000 
#    z 0.000000 0.000000 1.787210 
# 
# From -- ./inp_files/18791.got.cif
#   From: 2010.03.12/outbox.cif.g09.slc.cpg/sg20_10_cif.got.tgz:18791.got - 2010.04.14 01:38:04.
