data_PCOD8158889
_publ_section_title
;
Structure prediction by ZEFSAII (Michael W. Deem and Ramdas Pophale) SiO2 
 PCOD8158889
Probable space group: C 2 2 21
;
_chemical_formula_sum "Si O2"
_cell_formula_units_Z 40
_cell_length_a 22.662767
_cell_length_b 9.645639
_cell_length_c 8.125950
_cell_angle_alpha 90.000000
_cell_angle_beta 90.000000
_cell_angle_gamma 90.000000
_cell_volume 1776.307229
_symmetry_space_group_name_H-M "C 2 2 21"
_symmetry_group_IT_number 20
_symmetry_cell_setting 'orthorhombic'
loop_
_space_group_symop_operation_xyz
x,y,z
-x,-y,1/2+z
x,-y,-z
-x,y,1/2-z
1/2+x,1/2+y,z
1/2-x,1/2-y,1/2+z
1/2+x,1/2-y,-z
1/2-x,1/2+y,1/2-z
loop_
_atom_site_type_symbol
_atom_site_label
_atom_site_fract_x
_atom_site_fract_y
_atom_site_fract_z
Si Si1 0.158565 0.554740 0.162905
Si Si2 0.838105 0.258196 0.239327
Si Si3 0.031368 0.641378 0.079520
Si Si4 0.551399 0.608035 0.137673
Si Si5 0.265380 0.842593 0.941618
O O1 0.138394 0.416543 0.261902
O O2 0.101453 0.639098 0.106234
O O3 0.197787 0.656066 0.272164
O O4 0.193215 0.500000 0.000000
O O5 0.893177 0.153000 0.247554
O O6 0.797069 0.228071 0.399237
O O7 0.800023 0.244885 0.071328
O O8 0.000000 0.674716 0.250000
O O9 0.006527 0.500000 0.000000
O O10 0.019568 0.762138 0.949516
O O11 0.500000 0.539940 0.250000
O O12 0.573478 0.500000 0.000000
O O13 0.254554 0.000000 0.000000
#
# Coordination Sequence:
#
# PCOD8158889 Si02
#       5
#     8   8   8   8   8
#     4  10  20  39  64 100 133 169 224 285 329 412
#     4  11  22  42  66  98 139 181 230 288 352 408
#     4  11  23  40  72  99 135 173 225 277 343 402
#     4  12  27  48  68  99 142 186 237 292 351 423
#     4  10  23  39  68  99 137 180 232 283 352 420
#
# _framework density 22.518626000000001
#
# number of rings (size 3 to 8) (size 9 to 14) (size 15 to 20)
#    0.000    1.200    4.000    3.000    2.800    0.800 
#    0.000    1.000    0.000    0.000    0.000    0.000 
#    0.000    0.000    0.000    0.000    0.000    0.000 
#
# Total GULP energy -247984.361547 kJ/mol
# GULP energy per Si atom -12399.218077 kJ/mol
# Density = 2.246737 g / cm^3
# Si number density = 22.518626 Si / 1000 Ang^3
#
#
#
# Elastic Constant Matrix: (Units=GPa)
#
#
# Indices 1 2 3 4 5 6 
#
# 1 95.6812 17.3169 40.4432 0.0000 0.0000 0.0000
# 2 17.3169 69.9090 12.2823 0.0000 0.0000 0.0000
# 3 40.4432 12.2823 112.8525 0.0000 0.0000 0.0000
# 4 0.0000 0.0000 0.0000 41.2011 0.0000 0.0000
# 5 0.0000 0.0000 0.0000 0.0000 45.4503 0.0000
# 6 0.0000 0.0000 0.0000 0.0000 0.0000 24.7812
#
#
#
# Elastic Compliance Matrix: (Units=1/GPa)
#
#
# Indices 1 2 3 4 5 6 
#
# 1 0.012698 -0.002392 -0.004290 0.000000 0.000000 0.000000
# 2 -0.002392 0.015034 -0.000779 0.000000 0.000000 0.000000
# 3 -0.004290 -0.000779 0.010483 0.000000 0.000000 0.000000
# 4 0.000000 0.000000 0.000000 0.024271 0.000000 0.000000
# 5 0.000000 0.000000 0.000000 0.000000 0.022002 0.000000
# 6 0.000000 0.000000 0.000000 0.000000 0.000000 0.040353
#
#
# Mechanical properties :
#
#
# Convention : Reuss Voigt Hill
#
# Bulk Modulus (GPa) = 42.93152 46.50306 44.71729
# Shear Modulus (GPa) = 33.89211 36.17989 35.03600
#
# Velocity S-wave (km/s) = 3.88373 4.01267 3.94873
# Velocity P-wave (km/s) = 6.26238 6.49342 6.37895
#
# Compressibility (1/GPa) = 0.02329291
#
# Stress axis : x y z
#
# Youngs Moduli (GPa) = 78.75501 66.51773 95.38894
#
# Poissons Ratio (x) = 0.15908 0.40924
# Poissons Ratio (y) = 0.18835 0.07432
# Poissons Ratio (z) = 0.33787 0.05183
#
# Static dielectric constant tensor:
#      x y z
#    x 3.800870 0.000000 0.000000 
#    y 0.000000 3.893090 0.000000 
#    z 0.000000 0.000000 4.297060 
# 
# 
# High freq. dielectric constant tensor:
#      x y z
#    x 1.873790 0.000000 0.000000 
#    y 0.000000 1.877390 0.000000 
#    z 0.000000 0.000000 1.898980 
# 
# From -- ./inp_files/10510.got.cif
#   From: 2010.03.12/outbox.cif.g09.slc.cpg/sg20_6_cif.got.tgz:10510.got - 2010.04.14 01:38:04.
