data_PCOD8158562
_publ_section_title
;
Structure prediction by ZEFSAII (Michael W. Deem and Ramdas Pophale) SiO2 
 PCOD8158562
Probable space group: C 2 2 21
;
_chemical_formula_sum "Si O2"
_cell_formula_units_Z 64
_cell_length_a 11.265786
_cell_length_b 16.327836
_cell_length_c 17.604322
_cell_angle_alpha 90.000000
_cell_angle_beta 90.000000
_cell_angle_gamma 90.000000
_cell_volume 3238.242964
_symmetry_space_group_name_H-M "C 2 2 21"
_symmetry_group_IT_number 20
_symmetry_cell_setting 'orthorhombic'
loop_
_space_group_symop_operation_xyz
x,y,z
-x,-y,1/2+z
x,-y,-z
-x,y,1/2-z
1/2+x,1/2+y,z
1/2-x,1/2-y,1/2+z
1/2+x,1/2-y,-z
1/2-x,1/2+y,1/2-z
loop_
_atom_site_type_symbol
_atom_site_label
_atom_site_fract_x
_atom_site_fract_y
_atom_site_fract_z
Si Si1 0.535973 0.479304 0.086194
Si Si2 0.935186 0.731678 0.953798
Si Si3 0.887921 0.151580 0.387894
Si Si4 0.084642 0.307129 0.859003
Si Si5 0.328218 0.787356 0.805175
Si Si6 0.688470 0.662703 0.941116
Si Si7 0.659052 0.646934 0.582827
Si Si8 0.888423 0.593688 0.493795
O O1 0.551086 0.564261 0.130693
O O2 0.657086 0.425791 0.094452
O O3 0.423859 0.426407 0.113660
O O4 0.507653 0.500000 0.000000
O O5 0.816503 0.695346 0.915314
O O6 0.011331 0.777813 0.888481
O O7 0.903095 0.797427 0.018804
O O8 0.002778 0.652728 0.985549
O O9 0.789422 0.161150 0.323173
O O10 0.818218 0.156247 0.467822
O O11 0.162119 0.284807 0.785466
O O12 0.088635 0.227225 0.913593
O O13 0.141387 0.383825 0.905416
O O14 0.948126 0.327590 0.838957
O O15 0.309675 0.697743 0.841557
O O16 0.777912 0.608429 0.548583
O O17 0.929762 0.500000 0.500000
#
# Coordination Sequence:
#
# PCOD8158562 Si02
#       8
#     8   8   8   8   8   8   8   8
#     4  10  20  32  57  92 117 144 196 256 303 334
#     4  12  19  35  61  85 119 154 207 248 303 361
#     4  11  20  36  60  88 117 155 201 255 295 368
#     4  11  21  39  61  94 117 166 202 258 306 377
#     4  11  21  37  67  82 121 167 209 239 311 383
#     4  11  19  34  59  83 120 148 201 246 297 356
#     4  12  19  39  62  92 116 161 206 256 306 367
#     4  12  24  37  63  94 123 154 213 269 308 357
#
# _framework density 19.763804
#
# number of rings (size 3 to 8) (size 9 to 14) (size 15 to 20)
#    0.000    0.750   10.000    0.375    0.000    2.500 
#    0.000    1.875    0.000    0.000    0.000    0.000 
#    0.000    0.000    0.000    0.000    0.000    0.000 
#
# Total GULP energy -396671.564102 kJ/mol
# GULP energy per Si atom -12395.986378 kJ/mol
# Density = 1.971882 g / cm^3
# Si number density = 19.763804 Si / 1000 Ang^3
#
#
#
# Elastic Constant Matrix: (Units=GPa)
#
#
# Indices 1 2 3 4 5 6 
#
# 1 86.9690 31.9183 5.2988 0.0000 0.0000 0.0000
# 2 31.9183 133.6749 25.8666 0.0000 0.0000 0.0000
# 3 5.2988 25.8666 53.6455 0.0000 0.0000 0.0000
# 4 0.0000 0.0000 0.0000 10.1870 0.0000 0.0000
# 5 0.0000 0.0000 0.0000 0.0000 24.8101 0.0000
# 6 0.0000 0.0000 0.0000 0.0000 0.0000 31.0206
#
#
#
# Elastic Compliance Matrix: (Units=1/GPa)
#
#
# Indices 1 2 3 4 5 6 
#
# 1 0.012605 -0.003054 0.000227 0.000000 0.000000 0.000000
# 2 -0.003054 0.008990 -0.004033 0.000000 0.000000 0.000000
# 3 0.000227 -0.004033 0.020563 0.000000 0.000000 0.000000
# 4 0.000000 0.000000 0.000000 0.098165 0.000000 0.000000
# 5 0.000000 0.000000 0.000000 0.000000 0.040306 0.000000
# 6 0.000000 0.000000 0.000000 0.000000 0.000000 0.032237
#
#
# Mechanical properties :
#
#
# Convention : Reuss Voigt Hill
#
# Bulk Modulus (GPa) = 35.16246 44.49520 39.82883
# Shear Modulus (GPa) = 21.18052 27.28390 24.23221
#
# Velocity S-wave (km/s) = 3.27721 3.71954 3.50536
# Velocity P-wave (km/s) = 5.67010 6.40382 6.04810
#
# Compressibility (1/GPa) = 0.02843942
#
# Stress axis : x y z
#
# Youngs Moduli (GPa) = 79.33180 111.22856 48.63050
#
# Poissons Ratio (x) = 0.33967 -0.01106
# Poissons Ratio (y) = 0.24227 0.19614
# Poissons Ratio (z) = -0.01804 0.44863
#
# Static dielectric constant tensor:
#      x y z
#    x 3.689760 0.000000 0.000000 
#    y 0.000000 3.912040 0.000000 
#    z 0.000000 0.000000 3.335350 
# 
# 
# High freq. dielectric constant tensor:
#      x y z
#    x 1.780530 0.000000 0.000000 
#    y 0.000000 1.767640 0.000000 
#    z 0.000000 0.000000 1.728010 
# 
# From -- ./inp_files/24435.got.cif
#   From: 2010.03.12/outbox.cif.g09.slc.cpg/sg20_13_cif.got.tgz:24435.got - 2010.04.14 01:38:04.
