data_PCOD8158333
_publ_section_title
;
Structure prediction by ZEFSAII (Michael W. Deem and Ramdas Pophale) SiO2 
 PCOD8158333
Probable space group: C 2 2 21
;
_chemical_formula_sum "Si O2"
_cell_formula_units_Z 64
_cell_length_a 10.693462
_cell_length_b 33.131468
_cell_length_c 9.498749
_cell_angle_alpha 90.000000
_cell_angle_beta 90.000000
_cell_angle_gamma 90.000000
_cell_volume 3365.312677
_symmetry_space_group_name_H-M "C 2 2 21"
_symmetry_group_IT_number 20
_symmetry_cell_setting 'orthorhombic'
loop_
_space_group_symop_operation_xyz
x,y,z
-x,-y,1/2+z
x,-y,-z
-x,y,1/2-z
1/2+x,1/2+y,z
1/2-x,1/2-y,1/2+z
1/2+x,1/2-y,-z
1/2-x,1/2+y,1/2-z
loop_
_atom_site_type_symbol
_atom_site_label
_atom_site_fract_x
_atom_site_fract_y
_atom_site_fract_z
Si Si1 0.657771 0.461919 0.409595
Si Si2 0.231178 0.624965 0.874085
Si Si3 0.524167 0.325542 0.403578
Si Si4 0.372083 0.536979 0.585299
Si Si5 0.711333 0.621766 0.939414
Si Si6 0.916874 0.237407 0.385662
Si Si7 0.315841 0.818716 0.845137
Si Si8 0.082543 0.682599 0.040313
O O1 0.713223 0.500000 0.500000
O O2 0.740205 0.420927 0.425939
O O3 0.651013 0.473835 0.247022
O O4 0.515673 0.453790 0.457252
O O5 0.339476 0.655654 0.925044
O O6 0.213039 0.629028 0.705932
O O7 0.104481 0.642356 0.945448
O O8 0.500000 0.305746 0.250000
O O9 0.429080 0.362678 0.417704
O O10 0.502559 0.290671 0.516559
O O11 0.316856 0.500000 0.500000
O O12 0.290780 0.574428 0.533843
O O13 0.769805 0.640837 0.078474
O O14 0.787462 0.215831 0.348995
O O15 0.867930 0.277846 0.460587
O O16 0.000000 0.248110 0.250000
O O17 0.344821 0.827218 0.683672
O O18 0.438557 0.806400 0.931652
#
# Coordination Sequence:
#
# PCOD8158333 Si02
#       8
#     8   8   8   8   8   8   8   8
#     4   9  17  30  51  84 124 154 193 241 294 355
#     4  10  19  34  59  83 117 157 199 237 292 353
#     4   9  18  34  56  83 112 154 191 238 295 345
#     4   9  16  29  51  84 119 153 190 239 301 354
#     4   9  18  35  57  81 114 155 196 241 287 358
#     4  11  25  39  62  84 111 147 198 241 290 362
#     4  10  25  43  56  81 116 149 191 244 297 347
#     4  11  26  40  58  81 114 151 188 247 295 346
#
# _framework density 19.01755
#
# number of rings (size 3 to 8) (size 9 to 14) (size 15 to 20)
#    0.000    2.250    1.250    0.750    7.000    2.000 
#    0.000    0.000    0.000    0.750    0.000    0.000 
#    0.000    0.000    0.000    0.000    0.000    0.000 
#
# Total GULP energy -396659.509153 kJ/mol
# GULP energy per Si atom -12395.609661 kJ/mol
# Density = 1.897427 g / cm^3
# Si number density = 19.017550 Si / 1000 Ang^3
#
#
#
# Elastic Constant Matrix: (Units=GPa)
#
#
# Indices 1 2 3 4 5 6 
#
# 1 64.5299 30.6144 38.2338 0.0000 0.0000 0.0000
# 2 30.6144 119.5824 59.9418 0.0000 0.0000 0.0000
# 3 38.2338 59.9418 96.8269 0.0000 0.0000 0.0000
# 4 0.0000 0.0000 0.0000 33.3378 0.0000 0.0000
# 5 0.0000 0.0000 0.0000 0.0000 23.9528 0.0000
# 6 0.0000 0.0000 0.0000 0.0000 0.0000 12.7373
#
#
#
# Elastic Compliance Matrix: (Units=1/GPa)
#
#
# Indices 1 2 3 4 5 6 
#
# 1 0.020472 -0.001724 -0.007016 0.000000 0.000000 0.000000
# 2 -0.001724 0.012270 -0.006915 0.000000 0.000000 0.000000
# 3 -0.007016 -0.006915 0.017379 0.000000 0.000000 0.000000
# 4 0.000000 0.000000 0.000000 0.029996 0.000000 0.000000
# 5 0.000000 0.000000 0.000000 0.000000 0.041749 0.000000
# 6 0.000000 0.000000 0.000000 0.000000 0.000000 0.078509
#
#
# Mechanical properties :
#
#
# Convention : Reuss Voigt Hill
#
# Bulk Modulus (GPa) = 53.16341 59.83547 56.49944
# Shear Modulus (GPa) = 21.01224 24.14885 22.58055
#
# Velocity S-wave (km/s) = 3.32759 3.56732 3.44954
# Velocity P-wave (km/s) = 6.54060 6.96414 6.75569
#
# Compressibility (1/GPa) = 0.01880993
#
# Stress axis : x y z
#
# Youngs Moduli (GPa) = 48.84769 81.49887 57.54000
#
# Poissons Ratio (x) = 0.14050 0.40372
# Poissons Ratio (y) = 0.08421 0.39790
# Poissons Ratio (z) = 0.34274 0.56358
#
# Static dielectric constant tensor:
#      x y z
#    x 3.298300 0.000000 0.000000 
#    y 0.000000 3.475450 0.000000 
#    z 0.000000 0.000000 3.564960 
# 
# 
# High freq. dielectric constant tensor:
#      x y z
#    x 1.715110 0.000000 0.000000 
#    y 0.000000 1.737040 0.000000 
#    z 0.000000 0.000000 1.745500 
# 
# From -- ./inp_files/7699.got.cif
#   From: 2010.03.12/outbox.cif.g09.slc.cpg/sg20_4_cif.got.tgz:7699.got - 2010.04.14 01:38:04.
