data_PCOD8158556
_publ_section_title
;
Structure prediction by ZEFSAII (Michael W. Deem and Ramdas Pophale) SiO2 
 PCOD8158556
Probable space group: C 2 2 21
;
_chemical_formula_sum "Si O2"
_cell_formula_units_Z 52
_cell_length_a 12.063339
_cell_length_b 13.855724
_cell_length_c 18.001887
_cell_angle_alpha 90.000000
_cell_angle_beta 90.000000
_cell_angle_gamma 90.000000
_cell_volume 3008.948728
_symmetry_space_group_name_H-M "C 2 2 21"
_symmetry_group_IT_number 20
_symmetry_cell_setting 'orthorhombic'
loop_
_space_group_symop_operation_xyz
x,y,z
-x,-y,1/2+z
x,-y,-z
-x,y,1/2-z
1/2+x,1/2+y,z
1/2-x,1/2-y,1/2+z
1/2+x,1/2-y,-z
1/2-x,1/2+y,1/2-z
loop_
_atom_site_type_symbol
_atom_site_label
_atom_site_fract_x
_atom_site_fract_y
_atom_site_fract_z
Si Si1 0.337320 0.445077 0.353691
Si Si2 0.066229 0.617277 0.399528
Si Si3 0.789773 0.500000 0.000000
Si Si4 0.245778 0.116430 0.223198
Si Si5 0.907607 0.503710 0.312343
Si Si6 0.033702 0.190835 0.667137
Si Si7 0.731928 0.165701 0.775925
O O1 0.287163 0.458085 0.435289
O O2 0.349949 0.547650 0.310931
O O3 0.458669 0.398697 0.358560
O O4 0.253449 0.378580 0.305815
O O5 0.131291 0.588777 0.474313
O O6 0.153388 0.616813 0.333435
O O7 0.016793 0.726061 0.395644
O O8 0.966581 0.539675 0.388002
O O9 0.298825 0.070774 0.297887
O O10 0.196462 0.222929 0.235761
O O11 0.867038 0.392277 0.316874
O O12 0.000000 0.514041 0.250000
O O13 0.160325 0.155700 0.671421
O O14 0.000000 0.229167 0.750000
#
# Coordination Sequence:
#
# PCOD8158556 Si02
#       7
#     8   8   4   8   8   8   8
#     4   9  17  30  50  72  96 127 162 193 237 298
#     4   9  16  29  47  66  91 125 161 188 227 284
#     4  10  20  32  46  66  98 134 164 192 226 292
#     4   8  15  28  48  72  94 119 153 198 244 283
#     4   9  15  26  45  68  94 120 149 192 237 275
#     4   9  16  30  54  75  90 119 161 203 244 288
#     4   9  16  28  49  74  93 114 157 210 249 277
#
# _framework density 17.281783000000001
#
# number of rings (size 3 to 8) (size 9 to 14) (size 15 to 20)
#    0.000    3.077    0.000    4.154    0.000    0.000 
#    0.000    8.462    0.000   10.154    0.000    0.000 
#    0.000    0.000    0.000    0.000    0.000    0.000 
#
# Total GULP energy -322129.704991 kJ/mol
# GULP energy per Si atom -12389.604038 kJ/mol
# Density = 1.724245 g / cm^3
# Si number density = 17.281783 Si / 1000 Ang^3
#
#
#
# Elastic Constant Matrix: (Units=GPa)
#
#
# Indices 1 2 3 4 5 6 
#
# 1 55.4951 41.9663 23.3439 0.0000 0.0000 0.0000
# 2 41.9663 143.4319 35.1513 0.0000 0.0000 0.0000
# 3 23.3439 35.1513 66.1525 0.0000 0.0000 0.0000
# 4 0.0000 0.0000 0.0000 21.5922 0.0000 0.0000
# 5 0.0000 0.0000 0.0000 0.0000 13.1227 0.0000
# 6 0.0000 0.0000 0.0000 0.0000 0.0000 35.5684
#
#
#
# Elastic Compliance Matrix: (Units=1/GPa)
#
#
# Indices 1 2 3 4 5 6 
#
# 1 0.024843 -0.005887 -0.005639 0.000000 0.000000 0.000000
# 2 -0.005887 0.009411 -0.002923 0.000000 0.000000 0.000000
# 3 -0.005639 -0.002923 0.018660 0.000000 0.000000 0.000000
# 4 0.000000 0.000000 0.000000 0.046313 0.000000 0.000000
# 5 0.000000 0.000000 0.000000 0.000000 0.076204 0.000000
# 6 0.000000 0.000000 0.000000 0.000000 0.000000 0.028115
#
#
# Mechanical properties :
#
#
# Convention : Reuss Voigt Hill
#
# Bulk Modulus (GPa) = 41.63846 51.77804 46.70825
# Shear Modulus (GPa) = 20.79451 25.03120 22.91285
#
# Velocity S-wave (km/s) = 3.47257 3.80993 3.64516
# Velocity P-wave (km/s) = 6.34228 7.02711 6.69346
#
# Compressibility (1/GPa) = 0.02401626
#
# Stress axis : x y z
#
# Youngs Moduli (GPa) = 40.25235 106.26102 53.59162
#
# Poissons Ratio (x) = 0.62555 0.30218
# Poissons Ratio (y) = 0.23696 0.15666
# Poissons Ratio (z) = 0.22697 0.31062
#
# Static dielectric constant tensor:
#      x y z
#    x 3.226810 0.000000 0.000000 
#    y 0.000000 3.776880 0.000000 
#    z 0.000000 0.000000 2.931030 
# 
# 
# High freq. dielectric constant tensor:
#      x y z
#    x 1.653840 0.000000 0.000000 
#    y 0.000000 1.674980 0.000000 
#    z 0.000000 0.000000 1.618110 
# 
# From -- ./inp_files/24364.got.cif
#   From: 2010.03.12/outbox.cif.g09.slc.cpg/sg20_13_cif.got.tgz:24364.got - 2010.04.14 01:38:04.
