data_PCOD8159843
_publ_section_title
;
Structure prediction by ZEFSAII (Michael W. Deem and Ramdas Pophale) SiO2 
 PCOD8159843
Probable space group: C 2 2 21
;
_chemical_formula_sum "Si O2"
_cell_formula_units_Z 56
_cell_length_a 9.486811
_cell_length_b 14.158391
_cell_length_c 19.116480
_cell_angle_alpha 90.000000
_cell_angle_beta 90.000000
_cell_angle_gamma 90.000000
_cell_volume 2567.686968
_symmetry_space_group_name_H-M "C 2 2 21"
_symmetry_group_IT_number 20
_symmetry_cell_setting 'orthorhombic'
loop_
_space_group_symop_operation_xyz
x,y,z
-x,-y,1/2+z
x,-y,-z
-x,y,1/2-z
1/2+x,1/2+y,z
1/2-x,1/2-y,1/2+z
1/2+x,1/2-y,-z
1/2-x,1/2+y,1/2-z
loop_
_atom_site_type_symbol
_atom_site_label
_atom_site_fract_x
_atom_site_fract_y
_atom_site_fract_z
Si Si1 0.408729 0.396966 0.515008
Si Si2 0.750217 0.247201 0.692631
Si Si3 0.009458 0.822607 0.375053
Si Si4 0.898293 0.634258 0.064913
Si Si5 0.208275 0.365520 0.172850
Si Si6 0.909255 0.568011 0.316180
Si Si7 0.480810 0.217905 0.920560
O O1 0.475532 0.500000 0.500000
O O2 0.406233 0.349624 0.438705
O O3 0.257686 0.408633 0.553458
O O4 0.507341 0.329966 0.562167
O O5 0.693742 0.215837 0.768032
O O6 0.776282 0.359488 0.681113
O O7 0.643684 0.207412 0.634776
O O8 0.902136 0.196815 0.687426
O O9 0.105432 0.731243 0.392268
O O10 0.131297 0.894102 0.350017
O O11 0.999605 0.565833 0.111151
O O12 0.957732 0.652709 0.987950
O O13 0.143186 0.462996 0.199683
O O14 0.127150 0.322428 0.107276
O O15 0.000000 0.601521 0.250000
#
# Coordination Sequence:
#
# PCOD8159843 Si02
#       7
#     8   8   8   8   8   8   8
#     4  11  24  39  67  99 137 174 229 285 342 408
#     4  11  23  46  70  96 143 183 230 288 352 419
#     4  10  22  44  67  95 135 181 222 281 353 406
#     4  10  22  45  67  98 135 181 226 285 342 422
#     4  12  25  45  69 102 140 182 235 290 345 422
#     4  11  26  43  71 102 137 186 237 285 356 427
#     4  11  24  43  68 100 136 183 226 284 352 409
#
# _framework density 21.809512999999999
#
# number of rings (size 3 to 8) (size 9 to 14) (size 15 to 20)
#    0.000    1.143    2.857    3.429    4.000    1.143 
#    0.000    1.429    0.000    0.000    0.000    0.000 
#    0.000    0.000    0.000    0.000    0.000    0.000 
#
# Total GULP energy -347012.661006 kJ/mol
# GULP energy per Si atom -12393.309322 kJ/mol
# Density = 2.175987 g / cm^3
# Si number density = 21.809513 Si / 1000 Ang^3
#
#
#
# Elastic Constant Matrix: (Units=GPa)
#
#
# Indices 1 2 3 4 5 6 
#
# 1 87.3535 16.7223 36.8012 0.0000 0.0000 0.0000
# 2 16.7223 55.4737 0.2636 0.0000 0.0000 0.0000
# 3 36.8012 0.2636 101.8700 0.0000 0.0000 0.0000
# 4 0.0000 0.0000 0.0000 26.3469 0.0000 0.0000
# 5 0.0000 0.0000 0.0000 0.0000 34.3564 0.0000
# 6 0.0000 0.0000 0.0000 0.0000 0.0000 26.5176
#
#
#
# Elastic Compliance Matrix: (Units=1/GPa)
#
#
# Indices 1 2 3 4 5 6 
#
# 1 0.014477 -0.004339 -0.005219 0.000000 0.000000 0.000000
# 2 -0.004339 0.019327 0.001518 0.000000 0.000000 0.000000
# 3 -0.005219 0.001518 0.011698 0.000000 0.000000 0.000000
# 4 0.000000 0.000000 0.000000 0.037955 0.000000 0.000000
# 5 0.000000 0.000000 0.000000 0.000000 0.029107 0.000000
# 6 0.000000 0.000000 0.000000 0.000000 0.000000 0.037711
#
#
# Mechanical properties :
#
#
# Convention : Reuss Voigt Hill
#
# Bulk Modulus (GPa) = 33.98878 39.14128 36.56503
# Shear Modulus (GPa) = 28.38287 30.17153 29.27720
#
# Velocity S-wave (km/s) = 3.61140 3.72346 3.66786
# Velocity P-wave (km/s) = 5.74525 6.03915 5.89403
#
# Compressibility (1/GPa) = 0.02942147
#
# Stress axis : x y z
#
# Youngs Moduli (GPa) = 69.07517 51.74008 85.48625
#
# Poissons Ratio (x) = 0.22451 0.44613
# Poissons Ratio (y) = 0.29973 -0.12973
# Poissons Ratio (z) = 0.36048 -0.07852
#
# Static dielectric constant tensor:
#      x y z
#    x 3.918890 0.000000 0.000000 
#    y 0.000000 3.802090 0.000000 
#    z 0.000000 0.000000 3.992520 
# 
# 
# High freq. dielectric constant tensor:
#      x y z
#    x 1.856950 0.000000 0.000000 
#    y 0.000000 1.842970 0.000000 
#    z 0.000000 0.000000 1.868220 
# 
# From -- ./inp_files/26719.got.cif
#   From: 2010.03.12/outbox.cif.g09.slc.cpg/sg20_14_cif.got.tgz:26719.got - 2010.04.14 01:38:04.
