data_PCOD8159207
_publ_section_title
;
Structure prediction by ZEFSAII (Michael W. Deem and Ramdas Pophale) SiO2 
 PCOD8159207
Probable space group: C 2 2 21
;
_chemical_formula_sum "Si O2"
_cell_formula_units_Z 52
_cell_length_a 12.095933
_cell_length_b 13.678289
_cell_length_c 16.552890
_cell_angle_alpha 90.000000
_cell_angle_beta 90.000000
_cell_angle_gamma 90.000000
_cell_volume 2738.703249
_symmetry_space_group_name_H-M "C 2 2 21"
_symmetry_group_IT_number 20
_symmetry_cell_setting 'orthorhombic'
loop_
_space_group_symop_operation_xyz
x,y,z
-x,-y,1/2+z
x,-y,-z
-x,y,1/2-z
1/2+x,1/2+y,z
1/2-x,1/2-y,1/2+z
1/2+x,1/2-y,-z
1/2-x,1/2+y,1/2-z
loop_
_atom_site_type_symbol
_atom_site_label
_atom_site_fract_x
_atom_site_fract_y
_atom_site_fract_z
Si Si1 0.471961 0.000000 0.000000
Si Si2 0.364642 0.064532 0.635298
Si Si3 0.629035 0.709498 0.118971
Si Si4 0.875575 0.661251 0.103548
Si Si5 0.039236 0.152862 0.509840
Si Si6 0.000000 0.090634 0.250000
Si Si7 0.622657 0.488245 0.611836
Si Si8 0.000000 0.566028 0.250000
O O1 0.546902 0.949482 0.066005
O O2 0.391216 0.079482 0.036671
O O3 0.360854 0.179770 0.649670
O O4 0.245563 0.029406 0.605223
O O5 0.403635 0.003986 0.714208
O O6 0.747724 0.660124 0.125384
O O7 0.552660 0.656768 0.182386
O O8 0.576301 0.692383 0.028996
O O9 0.906290 0.763615 0.063511
O O10 0.949075 0.637776 0.182482
O O11 0.118979 0.115499 0.436567
O O12 0.030661 0.060615 0.571382
O O13 0.091484 0.023543 0.294121
#
# Coordination Sequence:
#
# PCOD8159207 Si02
#       8
#     4   8   8   8   8   4   8   4
#     4  10  22  36  62  86 120 144 198 248 298 338
#     4  11  20  39  61  85 116 160 198 242 296 352
#     4  11  22  39  65  88 119 155 200 245 293 347
#     4  11  22  40  60  90 120 155 194 249 296 346
#     4  10  21  38  61  91 113 151 204 242 289 353
#     4  10  23  39  58  88 126 154 200 242 292 354
#     4  10  21  38  64  84 121 160 200 240 300 356
#     4  10  25  37  58  86 126 152 202 240 296 354
#
# _framework density 18.987086999999999
#
# number of rings (size 3 to 8) (size 9 to 14) (size 15 to 20)
#    0.000    1.538    3.077    2.308    0.000    3.077 
#    0.000    0.000    0.000    0.000    0.000    0.000 
#    0.000    0.000    0.000    0.000    0.000    0.000 
#
# Total GULP energy -322289.147393 kJ/mol
# GULP energy per Si atom -12395.736438 kJ/mol
# Density = 1.894387 g / cm^3
# Si number density = 18.987087 Si / 1000 Ang^3
#
#
#
# Elastic Constant Matrix: (Units=GPa)
#
#
# Indices 1 2 3 4 5 6 
#
# 1 91.2615 44.7762 26.3110 0.0000 0.0000 0.0000
# 2 44.7762 101.4362 44.4665 0.0000 0.0000 0.0000
# 3 26.3110 44.4665 94.6783 0.0000 0.0000 0.0000
# 4 0.0000 0.0000 0.0000 30.9694 0.0000 0.0000
# 5 0.0000 0.0000 0.0000 0.0000 -59.6412 0.0000
# 6 0.0000 0.0000 0.0000 0.0000 0.0000 33.9686
#
#
#
# Elastic Compliance Matrix: (Units=1/GPa)
#
#
# Indices 1 2 3 4 5 6 
#
# 1 0.014104 -0.005676 -0.001254 0.000000 0.000000 0.000000
# 2 -0.005676 0.014699 -0.005326 0.000000 0.000000 0.000000
# 3 -0.001254 -0.005326 0.013412 0.000000 0.000000 0.000000
# 4 0.000000 0.000000 0.000000 0.032290 0.000000 0.000000
# 5 0.000000 0.000000 0.000000 0.000000 -0.016767 0.000000
# 6 0.000000 0.000000 0.000000 0.000000 0.000000 0.029439
#
#
# Mechanical properties :
#
#
# Convention : Reuss Voigt Hill
#
# Bulk Modulus (GPa) = 56.48782 57.60926 57.04854
# Shear Modulus (GPa) = 42.52098 12.51419 27.51758
#
# Velocity S-wave (km/s) = 4.73744 2.57006 3.81107
# Velocity P-wave (km/s) = 7.72914 6.26212 7.03398
#
# Compressibility (1/GPa) = 0.01770293
#
# Stress axis : x y z
#
# Youngs Moduli (GPa) = 70.90244 68.03283 74.56101
#
# Poissons Ratio (x) = 0.38617 0.09347
# Poissons Ratio (y) = 0.40246 0.39711
# Poissons Ratio (z) = 0.08888 0.36234
#
# Static dielectric constant tensor:
#      x y z
#    x 3.470980 0.000000 0.000000 
#    y 0.000000 3.990460 0.000000 
#    z 0.000000 0.000000 3.778570 
# 
# 
# High freq. dielectric constant tensor:
#      x y z
#    x 1.731490 0.000000 0.000000 
#    y 0.000000 1.748000 0.000000 
#    z 0.000000 0.000000 1.745900 
# 
# From -- ./inp_files/24390.got.cif
#   From: 2010.03.12/outbox.cif.g09.slc.cpg/sg20_13_cif.got.tgz:24390.got - 2010.04.14 01:38:04.
