data_PCOD8159772
_publ_section_title
;
Structure prediction by ZEFSAII (Michael W. Deem and Ramdas Pophale) SiO2 
 PCOD8159772
Probable space group: C 2 2 21
;
_chemical_formula_sum "Si O2"
_cell_formula_units_Z 64
_cell_length_a 14.475742
_cell_length_b 16.889632
_cell_length_c 12.792487
_cell_angle_alpha 90.000000
_cell_angle_beta 90.000000
_cell_angle_gamma 90.000000
_cell_volume 3127.634575
_symmetry_space_group_name_H-M "C 2 2 21"
_symmetry_group_IT_number 20
_symmetry_cell_setting 'orthorhombic'
loop_
_space_group_symop_operation_xyz
x,y,z
-x,-y,1/2+z
x,-y,-z
-x,y,1/2-z
1/2+x,1/2+y,z
1/2-x,1/2-y,1/2+z
1/2+x,1/2-y,-z
1/2-x,1/2+y,1/2-z
loop_
_atom_site_type_symbol
_atom_site_label
_atom_site_fract_x
_atom_site_fract_y
_atom_site_fract_z
Si Si1 0.653784 0.448646 0.093469
Si Si2 0.294135 0.971699 0.779152
Si Si3 0.501561 0.088214 0.997740
Si Si4 0.186891 0.368173 0.532178
Si Si5 0.831403 0.351045 0.607730
Si Si6 0.903324 0.379645 0.294819
Si Si7 0.603220 0.303234 0.222835
Si Si8 0.747181 0.298079 0.394680
O O1 0.689222 0.506419 0.185906
O O2 0.592805 0.378762 0.144021
O O3 0.603306 0.500000 0.000000
O O4 0.747541 0.412885 0.046851
O O5 0.343379 0.920052 0.868065
O O6 0.281969 0.918820 0.675794
O O7 0.357013 0.049831 0.769985
O O8 0.413421 0.147162 0.978017
O O9 0.562401 0.120327 0.094132
O O10 0.576112 0.085074 0.906971
O O11 0.460850 0.000000 0.000000
O O12 0.239238 0.292214 0.573653
O O13 0.838118 0.266248 0.666608
O O14 0.768846 0.345218 0.502301
O O15 0.831515 0.307503 0.311689
O O16 0.000000 0.347079 0.250000
O O17 0.500000 0.275099 0.250000
O O18 0.655653 0.327063 0.331464
#
# Coordination Sequence:
#
# PCOD8159772 Si02
#       8
#     8   8   8   8   8   8   8   8
#     4  10  22  42  67  90 121 170 227 268 314 385
#     4  11  21  37  64  92 128 172 209 264 331 405
#     4  11  21  34  56  95 131 159 201 264 329 395
#     4  11  21  38  61  89 125 173 214 253 320 393
#     4  11  24  38  61  96 136 165 209 272 337 407
#     4  11  22  36  60  94 130 163 205 262 334 397
#     4  12  24  44  68  96 129 179 226 276 330 393
#     4  11  24  41  62  93 134 173 213 268 322 394
#
# _framework density 20.462748000000001
#
# number of rings (size 3 to 8) (size 9 to 14) (size 15 to 20)
#    0.000    1.000    5.000    3.375    0.000    0.000 
#    0.000    1.250    0.000    3.000    0.000    0.000 
#    0.000    0.000    0.000    0.000    0.000    0.000 
#
# Total GULP energy -396495.370133 kJ/mol
# GULP energy per Si atom -12390.480317 kJ/mol
# Density = 2.041617 g / cm^3
# Si number density = 20.462748 Si / 1000 Ang^3
#
#
#
# Elastic Constant Matrix: (Units=GPa)
#
#
# Indices 1 2 3 4 5 6 
#
# 1 76.0626 27.2090 33.9420 0.0000 0.0000 0.0000
# 2 27.2090 91.7037 31.7173 0.0000 0.0000 0.0000
# 3 33.9420 31.7173 89.8583 0.0000 0.0000 0.0000
# 4 0.0000 0.0000 0.0000 37.3388 0.0000 0.0000
# 5 0.0000 0.0000 0.0000 0.0000 28.4654 0.0000
# 6 0.0000 0.0000 0.0000 0.0000 0.0000 27.3721
#
#
#
# Elastic Compliance Matrix: (Units=1/GPa)
#
#
# Indices 1 2 3 4 5 6 
#
# 1 0.016567 -0.003134 -0.005152 0.000000 0.000000 0.000000
# 2 -0.003134 0.013014 -0.003410 0.000000 0.000000 0.000000
# 3 -0.005152 -0.003410 0.014278 0.000000 0.000000 0.000000
# 4 0.000000 0.000000 0.000000 0.026782 0.000000 0.000000
# 5 0.000000 0.000000 0.000000 0.000000 0.035130 0.000000
# 6 0.000000 0.000000 0.000000 0.000000 0.000000 0.036534
#
#
# Mechanical properties :
#
#
# Convention : Reuss Voigt Hill
#
# Bulk Modulus (GPa) = 48.85560 49.26235 49.05898
# Shear Modulus (GPa) = 28.98250 29.61900 29.30075
#
# Velocity S-wave (km/s) = 3.76753 3.80868 3.78816
# Velocity P-wave (km/s) = 6.54622 6.59301 6.56965
#
# Compressibility (1/GPa) = 0.02046848
#
# Stress axis : x y z
#
# Youngs Moduli (GPa) = 60.36122 76.84148 70.03718
#
# Poissons Ratio (x) = 0.24080 0.36081
# Poissons Ratio (y) = 0.18915 0.23881
# Poissons Ratio (z) = 0.31096 0.26201
#
# Static dielectric constant tensor:
#      x y z
#    x 3.510150 0.000000 0.000000 
#    y 0.000000 3.793860 0.000000 
#    z 0.000000 0.000000 4.105220 
# 
# 
# High freq. dielectric constant tensor:
#      x y z
#    x 1.773530 0.000000 0.000000 
#    y 0.000000 1.788230 0.000000 
#    z 0.000000 0.000000 1.817380 
# 
# From -- ./inp_files/15347.got.cif
#   From: 2010.03.12/outbox.cif.g09.slc.cpg/sg20_8_cif.got.tgz:15347.got - 2010.04.14 01:38:04.
