data_PCOD8159680
_publ_section_title
;
Structure prediction by ZEFSAII (Michael W. Deem and Ramdas Pophale) SiO2 
 PCOD8159680
Probable space group: C 2 2 21
;
_chemical_formula_sum "Si O2"
_cell_formula_units_Z 40
_cell_length_a 17.111579
_cell_length_b 5.625196
_cell_length_c 18.055776
_cell_angle_alpha 90.000000
_cell_angle_beta 90.000000
_cell_angle_gamma 90.000000
_cell_volume 1737.976517
_symmetry_space_group_name_H-M "C 2 2 21"
_symmetry_group_IT_number 20
_symmetry_cell_setting 'orthorhombic'
loop_
_space_group_symop_operation_xyz
x,y,z
-x,-y,1/2+z
x,-y,-z
-x,y,1/2-z
1/2+x,1/2+y,z
1/2-x,1/2-y,1/2+z
1/2+x,1/2-y,-z
1/2-x,1/2+y,1/2-z
loop_
_atom_site_type_symbol
_atom_site_label
_atom_site_fract_x
_atom_site_fract_y
_atom_site_fract_z
Si Si1 0.472724 0.396028 0.074855
Si Si2 0.856089 0.160228 0.804250
Si Si3 0.633875 0.245734 0.038388
Si Si4 0.440128 0.689087 0.305604
Si Si5 0.692935 0.953934 0.823083
O O1 0.407378 0.263785 0.124362
O O2 0.540763 0.215570 0.049957
O O3 0.513087 0.606133 0.122061
O O4 0.433150 0.500000 0.000000
O O5 0.820528 0.388470 0.763016
O O6 0.909887 0.027613 0.744684
O O7 0.783619 0.009093 0.834384
O O8 0.674722 0.258199 0.119215
O O9 0.654614 0.500000 0.000000
O O10 0.664415 0.000000 0.000000
O O11 0.500000 0.833462 0.250000
O O12 0.367550 0.833521 0.338984
#
# Coordination Sequence:
#
# PCOD8159680 Si02
#       5
#     8   8   8   8   8
#     4  10  22  45  67  95 134 177 234 285 347 414
#     4  11  24  41  64 100 134 179 231 286 349 414
#     4  11  25  44  73 103 138 186 237 287 347 415
#     4  10  22  40  68  96 132 179 230 287 341 409
#     4  12  23  41  68  96 142 178 234 284 353 412
#
# _framework density 23.015269
#
# number of rings (size 3 to 8) (size 9 to 14) (size 15 to 20)
#    0.000    1.200    4.000    2.400    2.800    0.800 
#    0.000    0.000    0.000    1.200    0.000    0.000 
#    0.000    0.000    0.000    0.000    0.000    0.000 
#
# Total GULP energy -247859.381234 kJ/mol
# GULP energy per Si atom -12392.969062 kJ/mol
# Density = 2.296288 g / cm^3
# Si number density = 23.015269 Si / 1000 Ang^3
#
#
#
# Elastic Constant Matrix: (Units=GPa)
#
#
# Indices 1 2 3 4 5 6 
#
# 1 76.4340 4.8747 31.4549 0.0000 0.0000 0.0000
# 2 4.8747 70.7886 27.9033 0.0000 0.0000 0.0000
# 3 31.4549 27.9033 127.2731 0.0000 0.0000 0.0000
# 4 0.0000 0.0000 0.0000 35.6925 0.0000 0.0000
# 5 0.0000 0.0000 0.0000 0.0000 29.1867 0.0000
# 6 0.0000 0.0000 0.0000 0.0000 0.0000 24.9203
#
#
#
# Elastic Compliance Matrix: (Units=1/GPa)
#
#
# Indices 1 2 3 4 5 6 
#
# 1 0.014578 0.000456 -0.003703 0.000000 0.000000 0.000000
# 2 0.000456 0.015477 -0.003506 0.000000 0.000000 0.000000
# 3 -0.003703 -0.003506 0.009541 0.000000 0.000000 0.000000
# 4 0.000000 0.000000 0.000000 0.028017 0.000000 0.000000
# 5 0.000000 0.000000 0.000000 0.000000 0.034262 0.000000
# 6 0.000000 0.000000 0.000000 0.000000 0.000000 0.040128
#
#
# Mechanical properties :
#
#
# Convention : Reuss Voigt Hill
#
# Bulk Modulus (GPa) = 38.32878 44.77352 41.55115
# Shear Modulus (GPa) = 30.44963 31.97741 31.21352
#
# Velocity S-wave (km/s) = 3.64128 3.73151 3.68667
# Velocity P-wave (km/s) = 5.86245 6.16941 6.01789
#
# Compressibility (1/GPa) = 0.02609006
#
# Stress axis : x y z
#
# Youngs Moduli (GPa) = 68.59693 64.61152 104.81240
#
# Poissons Ratio (x) = -0.02944 0.38810
# Poissons Ratio (y) = -0.03126 0.36745
# Poissons Ratio (z) = 0.25400 0.22652
#
# Static dielectric constant tensor:
#      x y z
#    x 4.223880 0.000000 0.000000 
#    y 0.000000 3.697210 0.000000 
#    z 0.000000 0.000000 4.588350 
# 
# 
# High freq. dielectric constant tensor:
#      x y z
#    x 1.902700 0.000000 0.000000 
#    y 0.000000 1.874140 0.000000 
#    z 0.000000 0.000000 1.931110 
# 
# From -- ./inp_files/22592.got.cif
#   From: 2010.03.12/outbox.cif.g09.slc.cpg/sg20_12_cif.got.tgz:22592.got - 2010.04.14 01:38:04.
