data_PCOD8159909
_publ_section_title
;
Structure prediction by ZEFSAII (Michael W. Deem and Ramdas Pophale) SiO2 
 PCOD8159909
Probable space group: C 2 2 21
;
_chemical_formula_sum "Si O2"
_cell_formula_units_Z 64
_cell_length_a 11.315947
_cell_length_b 18.085808
_cell_length_c 14.590279
_cell_angle_alpha 90.000000
_cell_angle_beta 90.000000
_cell_angle_gamma 90.000000
_cell_volume 2986.017973
_symmetry_space_group_name_H-M "C 2 2 21"
_symmetry_group_IT_number 20
_symmetry_cell_setting 'orthorhombic'
loop_
_space_group_symop_operation_xyz
x,y,z
-x,-y,1/2+z
x,-y,-z
-x,y,1/2-z
1/2+x,1/2+y,z
1/2-x,1/2-y,1/2+z
1/2+x,1/2-y,-z
1/2-x,1/2+y,1/2-z
loop_
_atom_site_type_symbol
_atom_site_label
_atom_site_fract_x
_atom_site_fract_y
_atom_site_fract_z
Si Si1 0.798710 0.918898 0.539884
Si Si2 0.862931 0.267155 0.218318
Si Si3 0.128358 0.417305 0.021753
Si Si4 0.136768 0.016347 0.232107
Si Si5 0.204512 0.123994 0.374028
Si Si6 0.091060 0.676023 0.526410
Si Si7 0.702652 0.377362 0.321829
Si Si8 0.472931 0.337761 0.028908
O O1 0.833194 0.934838 0.644115
O O2 0.682121 0.867255 0.539731
O O3 0.896910 0.873027 0.482243
O O4 0.774037 0.000000 0.500000
O O5 0.811190 0.185413 0.204851
O O6 0.843513 0.305780 0.120785
O O7 0.779253 0.306336 0.292484
O O8 0.000000 0.265307 0.250000
O O9 0.174106 0.372495 0.931707
O O10 0.091721 0.500000 0.000000
O O11 0.224809 0.420211 0.100938
O O12 0.012774 0.377420 0.057293
O O13 0.204170 0.047173 0.320805
O O14 0.000000 0.023647 0.250000
O O15 0.177671 0.929997 0.233276
O O16 0.098820 0.125129 0.446813
O O17 0.034559 0.748898 0.480110
O O18 0.578009 0.355720 0.369819
#
# Coordination Sequence:
#
# PCOD8159909 Si02
#       8
#     8   8   8   8   8   8   8   8
#     4  12  26  45  70 101 144 181 233 293 353 414
#     4  11  23  42  69 100 132 181 237 282 342 423
#     4  11  22  44  69  96 137 180 226 275 349 428
#     4  12  23  42  69 102 132 178 236 286 344 406
#     4  10  23  39  67  99 129 173 232 276 333 414
#     4  11  26  44  69 103 136 189 228 284 352 425
#     4  11  24  42  70  99 135 177 232 290 344 409
#     4  10  25  41  70  99 137 181 228 287 351 414
#
# _framework density 21.433226000000001
#
# number of rings (size 3 to 8) (size 9 to 14) (size 15 to 20)
#    0.000    1.000    3.750    2.250    8.750    0.000 
#    0.000    0.625    0.000    0.000    0.000    0.000 
#    0.000    0.000    0.000    0.000    0.000    0.000 
#
# Total GULP energy -396642.400620 kJ/mol
# GULP energy per Si atom -12395.075019 kJ/mol
# Density = 2.138444 g / cm^3
# Si number density = 21.433226 Si / 1000 Ang^3
#
#
#
# Elastic Constant Matrix: (Units=GPa)
#
#
# Indices 1 2 3 4 5 6 
#
# 1 75.3534 38.8778 23.9571 0.0000 0.0000 0.0000
# 2 38.8778 116.6634 37.5152 0.0000 0.0000 0.0000
# 3 23.9571 37.5152 66.5945 0.0000 0.0000 0.0000
# 4 0.0000 0.0000 0.0000 -9.2786 0.0000 0.0000
# 5 0.0000 0.0000 0.0000 0.0000 23.0098 0.0000
# 6 0.0000 0.0000 0.0000 0.0000 0.0000 32.7290
#
#
#
# Elastic Compliance Matrix: (Units=1/GPa)
#
#
# Indices 1 2 3 4 5 6 
#
# 1 0.016669 -0.004429 -0.003502 0.000000 0.000000 0.000000
# 2 -0.004429 0.011645 -0.004967 0.000000 0.000000 0.000000
# 3 -0.003502 -0.004967 0.019074 0.000000 0.000000 0.000000
# 4 0.000000 0.000000 0.000000 -0.107774 0.000000 0.000000
# 5 0.000000 0.000000 0.000000 0.000000 0.043460 0.000000
# 6 0.000000 0.000000 0.000000 0.000000 0.000000 0.030554
#
#
# Mechanical properties :
#
#
# Convention : Reuss Voigt Hill
#
# Bulk Modulus (GPa) = 46.31074 51.03462 48.67268
# Shear Modulus (GPa) = 107.25234 19.84279 63.54757
#
# Velocity S-wave (km/s) = 7.08159 3.04599 5.45101
# Velocity P-wave (km/s) = 9.40846 6.01942 7.89786
#
# Compressibility (1/GPa) = 0.02159326
#
# Stress axis : x y z
#
# Youngs Moduli (GPa) = 59.99105 85.87595 52.42781
#
# Poissons Ratio (x) = 0.38034 0.18359
# Poissons Ratio (y) = 0.26570 0.26039
# Poissons Ratio (z) = 0.21007 0.42651
#
# Static dielectric constant tensor:
#      x y z
#    x 3.712510 0.000000 0.000000 
#    y 0.000000 3.973950 0.000000 
#    z 0.000000 0.000000 3.853060 
# 
# 
# High freq. dielectric constant tensor:
#      x y z
#    x 1.830870 0.000000 0.000000 
#    y 0.000000 1.855000 0.000000 
#    z 0.000000 0.000000 1.840940 
# 
# From -- ./inp_files/20273.got.cif
#   From: 2010.03.12/outbox.cif.g09.slc.cpg/sg20_11_cif.got.tgz:20273.got - 2010.04.14 01:38:04.
