data_PCOD8159897
_publ_section_title
;
Structure prediction by ZEFSAII (Michael W. Deem and Ramdas Pophale) SiO2 
 PCOD8159897
Probable space group: C 2 2 21
;
_chemical_formula_sum "Si O2"
_cell_formula_units_Z 48
_cell_length_a 4.914662
_cell_length_b 13.505682
_cell_length_c 27.171504
_cell_angle_alpha 90.000000
_cell_angle_beta 90.000000
_cell_angle_gamma 90.000000
_cell_volume 1803.532003
_symmetry_space_group_name_H-M "C 2 2 21"
_symmetry_group_IT_number 20
_symmetry_cell_setting 'orthorhombic'
loop_
_space_group_symop_operation_xyz
x,y,z
-x,-y,1/2+z
x,-y,-z
-x,y,1/2-z
1/2+x,1/2+y,z
1/2-x,1/2-y,1/2+z
1/2+x,1/2-y,-z
1/2-x,1/2+y,1/2-z
loop_
_atom_site_type_symbol
_atom_site_label
_atom_site_fract_x
_atom_site_fract_y
_atom_site_fract_z
Si Si1 0.128978 0.024443 0.397042
Si Si2 0.840015 0.691700 0.984100
Si Si3 0.500000 0.860104 0.250000
Si Si4 0.134273 0.263780 0.682234
Si Si5 0.149600 0.500000 0.000000
Si Si6 0.139961 0.248952 0.380656
Si Si7 0.384117 0.010144 0.168242
O O1 0.160851 0.980085 0.452165
O O2 0.207365 0.139828 0.400021
O O3 0.335718 0.977732 0.357616
O O4 0.833914 0.001789 0.375555
O O5 0.804865 0.675672 0.925443
O O6 0.550877 0.716839 0.008536
O O7 0.953171 0.593379 0.009916
O O8 0.745214 0.790503 0.230057
O O9 0.345885 0.929397 0.210680
O O10 0.329451 0.242674 0.635908
O O11 0.120780 0.381413 0.693195
O O12 0.836066 0.224488 0.665759
#
# Coordination Sequence:
#
# PCOD8159897 Si02
#       7
#     8   8   4   8   4   8   8
#     4  10  24  48  74 112 157 204 247 319 387 455
#     4  12  27  47  76 114 155 204 256 315 369 454
#     4  12  28  52  82 116 142 210 262 320 402 476
#     4  10  25  47  78 107 147 197 252 316 385 465
#     4  12  28  48  82 116 160 206 268 312 386 466
#     4  10  22  49  72 105 155 199 248 315 380 449
#     4  10  26  49  76 110 159 195 253 328 390 455
#
# _framework density 26.614440999999999
#
# number of rings (size 3 to 8) (size 9 to 14) (size 15 to 20)
#    0.000    1.333    1.667    1.000    7.000   10.667 
#    0.000    0.000    0.000    0.000    0.000    0.000 
#    0.000    0.000    0.000    0.000    0.000    0.000 
#
# Total GULP energy -297739.704888 kJ/mol
# GULP energy per Si atom -12405.821037 kJ/mol
# Density = 2.655387 g / cm^3
# Si number density = 26.614441 Si / 1000 Ang^3
#
#
#
# Elastic Constant Matrix: (Units=GPa)
#
#
# Indices 1 2 3 4 5 6 
#
# 1 76.1657 4.7570 -12.3556 0.0000 0.0000 0.0000
# 2 4.7570 99.3672 42.8337 0.0000 0.0000 0.0000
# 3 -12.3556 42.8337 107.4389 0.0000 0.0000 0.0000
# 4 0.0000 0.0000 0.0000 46.6833 0.0000 0.0000
# 5 0.0000 0.0000 0.0000 0.0000 37.4361 0.0000
# 6 0.0000 0.0000 0.0000 0.0000 0.0000 3.3251
#
#
#
# Elastic Compliance Matrix: (Units=1/GPa)
#
#
# Indices 1 2 3 4 5 6 
#
# 1 0.013586 -0.001599 0.002200 0.000000 0.000000 0.000000
# 2 -0.001599 0.012340 -0.005104 0.000000 0.000000 0.000000
# 3 0.002200 -0.005104 0.011595 0.000000 0.000000 0.000000
# 4 0.000000 0.000000 0.000000 0.021421 0.000000 0.000000
# 5 0.000000 0.000000 0.000000 0.000000 0.026712 0.000000
# 6 0.000000 0.000000 0.000000 0.000000 0.000000 0.300739
#
#
# Mechanical properties :
#
#
# Convention : Reuss Voigt Hill
#
# Bulk Modulus (GPa) = 35.06749 39.27131 37.16940
# Shear Modulus (GPa) = 12.34860 34.00470 23.17665
#
# Velocity S-wave (km/s) = 2.15636 3.57834 2.95418
# Velocity P-wave (km/s) = 4.40506 5.64450 5.06285
#
# Compressibility (1/GPa) = 0.02851644
#
# Stress axis : x y z
#
# Youngs Moduli (GPa) = 73.60537 81.03587 86.24183
#
# Poissons Ratio (x) = 0.12955 -0.18971
# Poissons Ratio (y) = 0.11767 0.44015
# Poissons Ratio (z) = -0.16191 0.41358
#
# Static dielectric constant tensor:
#      x y z
#    x 4.667740 0.000000 0.000000 
#    y 0.000000 4.905240 0.000000 
#    z 0.000000 0.000000 4.649700 
# 
# 
# High freq. dielectric constant tensor:
#      x y z
#    x 2.069680 0.000000 0.000000 
#    y 0.000000 2.079070 0.000000 
#    z 0.000000 0.000000 2.072340 
# 
# From -- ./inp_files/29840.got.cif
#   From: 2010.03.12/outbox.cif.g09.slc.cpg/sg20_15_cif.got.tgz:29840.got - 2010.04.14 01:38:04.
