data_PCOD8159842
_publ_section_title
;
Structure prediction by ZEFSAII (Michael W. Deem and Ramdas Pophale) SiO2 
 PCOD8159842
Probable space group: C 2 2 21
;
_chemical_formula_sum "Si O2"
_cell_formula_units_Z 52
_cell_length_a 9.437357
_cell_length_b 17.413835
_cell_length_c 15.111447
_cell_angle_alpha 90.000000
_cell_angle_beta 90.000000
_cell_angle_gamma 90.000000
_cell_volume 2483.423929
_symmetry_space_group_name_H-M "C 2 2 21"
_symmetry_group_IT_number 20
_symmetry_cell_setting 'orthorhombic'
loop_
_space_group_symop_operation_xyz
x,y,z
-x,-y,1/2+z
x,-y,-z
-x,y,1/2-z
1/2+x,1/2+y,z
1/2-x,1/2-y,1/2+z
1/2+x,1/2-y,-z
1/2-x,1/2+y,1/2-z
loop_
_atom_site_type_symbol
_atom_site_label
_atom_site_fract_x
_atom_site_fract_y
_atom_site_fract_z
Si Si1 0.929266 0.892725 0.571201
Si Si2 0.252921 0.201325 0.805268
Si Si3 0.548687 0.855481 0.446776
Si Si4 0.305625 0.000000 0.000000
Si Si5 0.500000 0.312587 0.750000
Si Si6 0.255708 0.872890 0.371550
Si Si7 0.837137 0.000000 0.000000
Si Si8 0.507466 0.273894 0.073084
O O1 0.793712 0.949734 0.565573
O O2 0.952165 0.865782 0.670041
O O3 0.910664 0.821886 0.503387
O O4 0.071634 0.937410 0.549453
O O5 0.315544 0.177672 0.898644
O O6 0.355957 0.265695 0.766422
O O7 0.236075 0.129624 0.735863
O O8 0.097304 0.231431 0.835500
O O9 0.582215 0.945130 0.452608
O O10 0.411737 0.839800 0.387033
O O11 0.524849 0.812780 0.540651
O O12 0.141941 0.814078 0.409836
O O13 0.249674 0.955825 0.421468
#
# Coordination Sequence:
#
# PCOD8159842 Si02
#       8
#     8   8   8   4   4   8   4   8
#     4  10  22  44  66  98 136 182 234 284 360 428
#     4  12  23  41  70 103 133 185 241 301 351 415
#     4  12  23  41  69  97 139 180 229 293 361 421
#     4  11  25  42  70 102 138 190 228 290 372 432
#     4  12  24  42  72 104 134 182 240 306 348 422
#     4  11  23  42  66 101 138 181 240 289 355 429
#     4   9  23  42  66  94 136 188 224 284 360 432
#     4  11  23  42  71  95 137 188 240 286 350 444
#
# _framework density 20.938834
#
# number of rings (size 3 to 8) (size 9 to 14) (size 15 to 20)
#    0.000    0.923    4.615    1.846    4.308    1.231 
#    0.000    0.000    0.000    0.000    0.000    0.000 
#    0.000    0.000    0.000    0.000    0.000    0.000 
#
# Total GULP energy -322137.783526 kJ/mol
# GULP energy per Si atom -12389.914751 kJ/mol
# Density = 2.089118 g / cm^3
# Si number density = 20.938834 Si / 1000 Ang^3
#
#
#
# Elastic Constant Matrix: (Units=GPa)
#
#
# Indices 1 2 3 4 5 6 
#
# 1 87.3838 36.3861 47.3627 0.0000 0.0000 0.0000
# 2 36.3861 93.1511 42.5814 0.0000 0.0000 0.0000
# 3 47.3627 42.5814 124.4130 0.0000 0.0000 0.0000
# 4 0.0000 0.0000 0.0000 40.4730 0.0000 0.0000
# 5 0.0000 0.0000 0.0000 0.0000 40.2364 0.0000
# 6 0.0000 0.0000 0.0000 0.0000 0.0000 23.5002
#
#
#
# Elastic Compliance Matrix: (Units=1/GPa)
#
#
# Indices 1 2 3 4 5 6 
#
# 1 0.015583 -0.004001 -0.004563 0.000000 0.000000 0.000000
# 2 -0.004001 0.013754 -0.003184 0.000000 0.000000 0.000000
# 3 -0.004563 -0.003184 0.010865 0.000000 0.000000 0.000000
# 4 0.000000 0.000000 0.000000 0.024708 0.000000 0.000000
# 5 0.000000 0.000000 0.000000 0.000000 0.024853 0.000000
# 6 0.000000 0.000000 0.000000 0.000000 0.000000 0.042553
#
#
# Mechanical properties :
#
#
# Convention : Reuss Voigt Hill
#
# Bulk Modulus (GPa) = 59.86242 61.95650 60.90946
# Shear Modulus (GPa) = 30.98288 32.74976 31.86632
#
# Velocity S-wave (km/s) = 3.85084 3.95912 3.90536
# Velocity P-wave (km/s) = 6.95868 7.11007 7.03478
#
# Compressibility (1/GPa) = 0.01670497
#
# Stress axis : x y z
#
# Youngs Moduli (GPa) = 64.17292 72.70787 92.04233
#
# Poissons Ratio (x) = 0.29091 0.41997
# Poissons Ratio (y) = 0.25676 0.29307
# Poissons Ratio (z) = 0.29281 0.23151
#
# Static dielectric constant tensor:
#      x y z
#    x 3.951700 0.000000 0.000000 
#    y 0.000000 3.571800 0.000000 
#    z 0.000000 0.000000 3.616750 
# 
# 
# High freq. dielectric constant tensor:
#      x y z
#    x 1.838950 0.000000 0.000000 
#    y 0.000000 1.807540 0.000000 
#    z 0.000000 0.000000 1.814600 
# 
# From -- ./inp_files/19151.got.cif
#   From: 2010.03.12/outbox.cif.g09.slc.cpg/sg20_10_cif.got.tgz:19151.got - 2010.04.14 01:38:04.
