data_PCOD8159940
_publ_section_title
;
Structure prediction by ZEFSAII (Michael W. Deem and Ramdas Pophale) SiO2 
 PCOD8159940
Probable space group: C 2 2 21
;
_chemical_formula_sum "Si O2"
_cell_formula_units_Z 32
_cell_length_a 8.341479
_cell_length_b 20.139054
_cell_length_c 8.738805
_cell_angle_alpha 90.000000
_cell_angle_beta 90.000000
_cell_angle_gamma 90.000000
_cell_volume 1468.027448
_symmetry_space_group_name_H-M "C 2 2 21"
_symmetry_group_IT_number 20
_symmetry_cell_setting 'orthorhombic'
loop_
_space_group_symop_operation_xyz
x,y,z
-x,-y,1/2+z
x,-y,-z
-x,y,1/2-z
1/2+x,1/2+y,z
1/2-x,1/2-y,1/2+z
1/2+x,1/2-y,-z
1/2-x,1/2+y,1/2-z
loop_
_atom_site_type_symbol
_atom_site_label
_atom_site_fract_x
_atom_site_fract_y
_atom_site_fract_z
Si Si1 0.318949 0.846044 0.977643
Si Si2 0.105749 0.728196 0.894696
Si Si3 0.813898 0.888423 0.218305
Si Si4 0.500000 0.920869 0.750000
Si Si5 0.317667 0.000000 0.500000
O O1 0.172567 0.794463 0.972863
O O2 0.342686 0.882205 0.814971
O O3 0.491028 0.810443 0.990443
O O4 0.283875 0.896048 0.120457
O O5 0.254525 0.680503 0.854997
O O6 0.000000 0.749705 0.750000
O O7 0.000000 0.882954 0.250000
O O8 0.788551 0.950396 0.103787
O O9 0.437159 0.961642 0.608360
#
# Coordination Sequence:
#
# PCOD8159940 Si02
#       5
#     8   8   8   4   4
#     4  11  24  42  70 104 138 180 224 286 347 410
#     4  10  23  41  68 106 139 177 224 278 351 409
#     4  11  25  45  69  98 140 180 230 285 343 406
#     4  12  26  42  72  96 136 182 230 282 342 406
#     4  12  26  46  68  96 136 182 240 278 336 412
#
# _framework density 21.797958000000001
#
# number of rings (size 3 to 8) (size 9 to 14) (size 15 to 20)
#    0.000    1.000    2.500    3.000   10.500    4.000 
#    0.000    0.000    0.000    0.000    0.000    0.000 
#    0.000    0.000    0.000    0.000    0.000    0.000 
#
# Total GULP energy -198361.082493 kJ/mol
# GULP energy per Si atom -12397.567656 kJ/mol
# Density = 2.174834 g / cm^3
# Si number density = 21.797958 Si / 1000 Ang^3
#
#
#
# Elastic Constant Matrix: (Units=GPa)
#
#
# Indices 1 2 3 4 5 6 
#
# 1 141.0562 57.5344 49.6390 0.0000 0.0000 0.0000
# 2 57.5344 94.7822 68.6989 0.0000 0.0000 0.0000
# 3 49.6390 68.6989 132.6338 0.0000 0.0000 0.0000
# 4 0.0000 0.0000 0.0000 38.2784 0.0000 0.0000
# 5 0.0000 0.0000 0.0000 0.0000 34.0895 0.0000
# 6 0.0000 0.0000 0.0000 0.0000 0.0000 19.6290
#
#
#
# Elastic Compliance Matrix: (Units=1/GPa)
#
#
# Indices 1 2 3 4 5 6 
#
# 1 0.009490 -0.005102 -0.000909 0.000000 0.000000 0.000000
# 2 -0.005102 0.019635 -0.008261 0.000000 0.000000 0.000000
# 3 -0.000909 -0.008261 0.012159 0.000000 0.000000 0.000000
# 4 0.000000 0.000000 0.000000 0.026124 0.000000 0.000000
# 5 0.000000 0.000000 0.000000 0.000000 0.029335 0.000000
# 6 0.000000 0.000000 0.000000 0.000000 0.000000 0.050945
#
#
# Mechanical properties :
#
#
# Convention : Reuss Voigt Hill
#
# Bulk Modulus (GPa) = 78.49152 80.02409 79.25780
# Shear Modulus (GPa) = 27.70428 31.23938 29.47183
#
# Velocity S-wave (km/s) = 3.56892 3.78978 3.68101
# Velocity P-wave (km/s) = 7.28490 7.47940 7.38279
#
# Compressibility (1/GPa) = 0.01274023
#
# Stress axis : x y z
#
# Youngs Moduli (GPa) = 105.37123 50.93026 82.24659
#
# Poissons Ratio (x) = 0.25983 0.07479
# Poissons Ratio (y) = 0.53757 0.67941
# Poissons Ratio (z) = 0.09582 0.42072
#
# Static dielectric constant tensor:
#      x y z
#    x 3.791630 0.000000 0.000000 
#    y 0.000000 3.983020 0.000000 
#    z 0.000000 0.000000 4.625910 
# 
# 
# High freq. dielectric constant tensor:
#      x y z
#    x 1.858300 0.000000 0.000000 
#    y 0.000000 1.847950 0.000000 
#    z 0.000000 0.000000 1.874340 
# 
# From -- ./inp_files/5840.got.cif
#   From: 2010.03.12/outbox.cif.g09.slc.cpg/sg20_3_cif.got.tgz:5840.got - 2010.04.14 01:38:04.
