data_PCOD8159402
_publ_section_title
;
Structure prediction by ZEFSAII (Michael W. Deem and Ramdas Pophale) SiO2 
 PCOD8159402
Probable space group: C 2 2 21
;
_chemical_formula_sum "Si O2"
_cell_formula_units_Z 40
_cell_length_a 8.090048
_cell_length_b 17.002660
_cell_length_c 13.711215
_cell_angle_alpha 90.000000
_cell_angle_beta 90.000000
_cell_angle_gamma 90.000000
_cell_volume 1886.009646
_symmetry_space_group_name_H-M "C 2 2 21"
_symmetry_group_IT_number 20
_symmetry_cell_setting 'orthorhombic'
loop_
_space_group_symop_operation_xyz
x,y,z
-x,-y,1/2+z
x,-y,-z
-x,y,1/2-z
1/2+x,1/2+y,z
1/2-x,1/2-y,1/2+z
1/2+x,1/2-y,-z
1/2-x,1/2+y,1/2-z
loop_
_atom_site_type_symbol
_atom_site_label
_atom_site_fract_x
_atom_site_fract_y
_atom_site_fract_z
Si Si1 0.160565 0.582338 0.182276
Si Si2 0.432212 0.342071 0.541237
Si Si3 0.789967 0.316668 0.500517
Si Si4 0.249404 0.500000 0.500000
Si Si5 0.977651 0.428401 0.363531
Si Si6 0.500000 0.630984 0.250000
O O1 0.153729 0.499393 0.125635
O O2 0.332116 0.579802 0.241345
O O3 0.000000 0.591100 0.250000
O O4 0.152026 0.653418 0.105993
O O5 0.600594 0.339453 0.478059
O O6 0.304153 0.278162 0.499733
O O7 0.362329 0.430160 0.541960
O O8 0.478855 0.317169 0.652430
O O9 0.909390 0.352248 0.418279
O O10 0.145561 0.461397 0.412030
O O11 0.000000 0.406209 0.250000
#
# Coordination Sequence:
#
# PCOD8159402 Si02
#       6
#     8   8   8   4   8   4
#     4  10  21  41  70  98 132 184 221 277 340 404
#     4  11  26  43  69  97 135 178 225 281 338 407
#     4  11  24  43  65  99 136 173 223 284 339 391
#     4  12  24  46  72  98 136 176 228 274 342 406
#     4  11  23  42  71  97 134 175 224 273 343 401
#     4  10  24  40  70  96 136 176 234 266 342 406
#
# _framework density 21.2088
#
# number of rings (size 3 to 8) (size 9 to 14) (size 15 to 20)
#    0.000    1.200    2.000    3.600    9.800    0.000 
#    0.000    0.000    0.000    0.000    0.000    0.000 
#    0.000    0.000    0.000    0.000    0.000    0.000 
#
# Total GULP energy -247936.613268 kJ/mol
# GULP energy per Si atom -12396.830663 kJ/mol
# Density = 2.116053 g / cm^3
# Si number density = 21.208800 Si / 1000 Ang^3
#
#
#
# Elastic Constant Matrix: (Units=GPa)
#
#
# Indices 1 2 3 4 5 6 
#
# 1 149.2821 45.1839 45.8191 0.0000 0.0000 0.0000
# 2 45.1839 120.4379 36.1649 0.0000 0.0000 0.0000
# 3 45.8191 36.1649 100.8194 0.0000 0.0000 0.0000
# 4 0.0000 0.0000 0.0000 15.8169 0.0000 0.0000
# 5 0.0000 0.0000 0.0000 0.0000 33.9724 0.0000
# 6 0.0000 0.0000 0.0000 0.0000 0.0000 32.3850
#
#
#
# Elastic Compliance Matrix: (Units=1/GPa)
#
#
# Indices 1 2 3 4 5 6 
#
# 1 0.008280 -0.002215 -0.002969 0.000000 0.000000 0.000000
# 2 -0.002215 0.009898 -0.002544 0.000000 0.000000 0.000000
# 3 -0.002969 -0.002544 0.012180 0.000000 0.000000 0.000000
# 4 0.000000 0.000000 0.000000 0.063224 0.000000 0.000000
# 5 0.000000 0.000000 0.000000 0.000000 0.029436 0.000000
# 6 0.000000 0.000000 0.000000 0.000000 0.000000 0.030878
#
#
# Mechanical properties :
#
#
# Convention : Reuss Voigt Hill
#
# Bulk Modulus (GPa) = 67.09754 69.43058 68.26406
# Shear Modulus (GPa) = 28.68303 32.65962 30.67133
#
# Velocity S-wave (km/s) = 3.68150 3.92842 3.80697
# Velocity P-wave (km/s) = 7.05526 7.30647 7.18196
#
# Compressibility (1/GPa) = 0.01490368
#
# Stress axis : x y z
#
# Youngs Moduli (GPa) = 120.76834 101.03158 82.09960
#
# Poissons Ratio (x) = 0.22379 0.24372
# Poissons Ratio (y) = 0.26751 0.20884
# Poissons Ratio (z) = 0.35851 0.25700
#
# Static dielectric constant tensor:
#      x y z
#    x 3.957350 0.000000 0.000000 
#    y 0.000000 3.732110 0.000000 
#    z 0.000000 0.000000 3.908610 
# 
# 
# High freq. dielectric constant tensor:
#      x y z
#    x 1.841590 0.000000 0.000000 
#    y 0.000000 1.820400 0.000000 
#    z 0.000000 0.000000 1.836050 
# 
# From -- ./inp_files/15591.got.cif
#   From: 2010.03.12/outbox.cif.g09.slc.cpg/sg20_8_cif.got.tgz:15591.got - 2010.04.14 01:38:04.
