data_PCOD8159503
_publ_section_title
;
Structure prediction by ZEFSAII (Michael W. Deem and Ramdas Pophale) SiO2 
 PCOD8159503
Probable space group: C 2 2 21
;
_chemical_formula_sum "Si O2"
_cell_formula_units_Z 40
_cell_length_a 10.216355
_cell_length_b 21.103807
_cell_length_c 8.418501
_cell_angle_alpha 90.000000
_cell_angle_beta 90.000000
_cell_angle_gamma 90.000000
_cell_volume 1815.062356
_symmetry_space_group_name_H-M "C 2 2 21"
_symmetry_group_IT_number 20
_symmetry_cell_setting 'orthorhombic'
loop_
_space_group_symop_operation_xyz
x,y,z
-x,-y,1/2+z
x,-y,-z
-x,y,1/2-z
1/2+x,1/2+y,z
1/2-x,1/2-y,1/2+z
1/2+x,1/2-y,-z
1/2-x,1/2+y,1/2-z
loop_
_atom_site_type_symbol
_atom_site_label
_atom_site_fract_x
_atom_site_fract_y
_atom_site_fract_z
Si Si1 0.153790 0.290235 0.775406
Si Si2 0.740485 0.165903 0.875605
Si Si3 0.112831 0.500000 0.500000
Si Si4 0.000000 0.590758 0.750000
Si Si5 0.934477 0.925492 0.978381
Si Si6 0.199809 0.097137 0.146515
O O1 0.203671 0.220620 0.735753
O O2 0.220850 0.337378 0.648290
O O3 0.000000 0.295518 0.750000
O O4 0.191295 0.307711 0.955516
O O5 0.623580 0.135224 0.777095
O O6 0.853372 0.112693 0.889852
O O7 0.019696 0.452692 0.404169
O O8 0.201921 0.461059 0.622101
O O9 0.871132 0.910900 0.811594
O O10 0.085820 0.901904 0.987395
O O11 0.927890 0.000000 0.000000
#
# Coordination Sequence:
#
# PCOD8159503 Si02
#       6
#     8   8   4   4   8   8
#     4  11  27  47  73 102 146 193 246 300 371 438
#     4  11  28  46  75 104 147 191 247 305 366 439
#     4  12  26  44  72 104 144 194 240 304 368 434
#     4  12  30  46  74 106 152 190 252 300 374 440
#     4  10  21  44  70 105 139 182 236 295 363 431
#     4  10  23  42  71 100 142 185 233 299 359 433
#
# _framework density 22.037811000000001
#
# number of rings (size 3 to 8) (size 9 to 14) (size 15 to 20)
#    0.000    1.200    1.000    2.400   16.800    1.600 
#    3.600    0.000    0.000    0.000    0.000    0.000 
#    0.000    0.000    0.000    0.000    0.000    0.000 
#
# Total GULP energy -248065.173088 kJ/mol
# GULP energy per Si atom -12403.258654 kJ/mol
# Density = 2.198765 g / cm^3
# Si number density = 22.037811 Si / 1000 Ang^3
#
#
#
# Elastic Constant Matrix: (Units=GPa)
#
#
# Indices 1 2 3 4 5 6 
#
# 1 156.7685 88.5452 25.1871 0.0000 0.0000 0.0000
# 2 88.5452 176.2714 41.7948 0.0000 0.0000 0.0000
# 3 25.1871 41.7948 53.1790 0.0000 0.0000 0.0000
# 4 0.0000 0.0000 0.0000 37.8025 0.0000 0.0000
# 5 0.0000 0.0000 0.0000 0.0000 -73.0599 0.0000
# 6 0.0000 0.0000 0.0000 0.0000 0.0000 50.9259
#
#
#
# Elastic Compliance Matrix: (Units=1/GPa)
#
#
# Indices 1 2 3 4 5 6 
#
# 1 0.008938 -0.004284 -0.000866 0.000000 0.000000 0.000000
# 2 -0.004284 0.009026 -0.005065 0.000000 0.000000 0.000000
# 3 -0.000866 -0.005065 0.023195 0.000000 0.000000 0.000000
# 4 0.000000 0.000000 0.000000 0.026453 0.000000 0.000000
# 5 0.000000 0.000000 0.000000 0.000000 -0.013687 0.000000
# 6 0.000000 0.000000 0.000000 0.000000 0.000000 0.019636
#
#
# Mechanical properties :
#
#
# Convention : Reuss Voigt Hill
#
# Bulk Modulus (GPa) = 48.24186 77.47479 62.85832
# Shear Modulus (GPa) = 49.55366 18.51315 34.03341
#
# Velocity S-wave (km/s) = 4.74706 2.90153 3.93405
# Velocity P-wave (km/s) = 7.21000 6.81593 7.01573
#
# Compressibility (1/GPa) = 0.02072889
#
# Stress axis : x y z
#
# Youngs Moduli (GPa) = 111.88396 110.79067 43.11273
#
# Poissons Ratio (x) = 0.47466 0.03734
# Poissons Ratio (y) = 0.47935 0.21835
# Poissons Ratio (z) = 0.09690 0.56111
#
# Static dielectric constant tensor:
#      x y z
#    x 4.532170 0.000000 0.000000 
#    y 0.000000 5.165550 0.000000 
#    z 0.000000 0.000000 3.913640 
# 
# 
# High freq. dielectric constant tensor:
#      x y z
#    x 1.886540 0.000000 0.000000 
#    y 0.000000 1.880800 0.000000 
#    z 0.000000 0.000000 1.864250 
# 
# From -- ./inp_files/6154.got.cif
#   From: 2010.03.12/outbox.cif.g09.slc.cpg/sg20_4_cif.got.tgz:6154.got - 2010.04.14 01:38:04.
