data_PCOD8159179
_publ_section_title
;
Structure prediction by ZEFSAII (Michael W. Deem and Ramdas Pophale) SiO2 
 PCOD8159179
Probable space group: C 2 2 21
;
_chemical_formula_sum "Si O2"
_cell_formula_units_Z 56
_cell_length_a 15.457941
_cell_length_b 15.581722
_cell_length_c 10.542385
_cell_angle_alpha 90.000000
_cell_angle_beta 90.000000
_cell_angle_gamma 90.000000
_cell_volume 2539.252971
_symmetry_space_group_name_H-M "C 2 2 21"
_symmetry_group_IT_number 20
_symmetry_cell_setting 'orthorhombic'
loop_
_space_group_symop_operation_xyz
x,y,z
-x,-y,1/2+z
x,-y,-z
-x,y,1/2-z
1/2+x,1/2+y,z
1/2-x,1/2-y,1/2+z
1/2+x,1/2-y,-z
1/2-x,1/2+y,1/2-z
loop_
_atom_site_type_symbol
_atom_site_label
_atom_site_fract_x
_atom_site_fract_y
_atom_site_fract_z
Si Si1 0.376023 0.417663 0.880166
Si Si2 0.374331 0.920170 0.917813
Si Si3 0.000000 0.518489 0.750000
Si Si4 0.000000 0.202608 0.250000
Si Si5 0.078227 0.898475 0.348131
Si Si6 0.292685 0.245213 0.180646
Si Si7 0.789880 0.679442 0.445991
Si Si8 0.033511 0.346112 0.054304
O O1 0.414230 0.354018 0.774942
O O2 0.369803 0.512970 0.819324
O O3 0.278793 0.397269 0.928614
O O4 0.442329 0.408023 0.001001
O O5 0.305225 0.854466 0.860083
O O6 0.424864 0.959722 0.801677
O O7 0.439008 0.860928 0.997460
O O8 0.334136 0.000000 0.000000
O O9 0.051525 0.575107 0.852059
O O10 0.027715 0.257116 0.128272
O O11 0.126425 0.808579 0.330062
O O12 0.000000 0.895213 0.250000
O O13 0.268589 0.245385 0.330323
O O14 0.218988 0.278712 0.085876
O O15 0.891119 0.651837 0.446231
#
# Coordination Sequence:
#
# PCOD8159179 Si02
#       8
#     8   8   4   4   8   8   8   8
#     4  10  22  42  62  95 133 167 217 274 329 388
#     4  10  21  41  63  93 123 167 223 269 316 391
#     4   9  20  38  59 100 120 164 223 268 320 393
#     4  11  20  38  69  94 132 172 225 270 320 403
#     4  10  22  42  66  94 121 168 221 278 315 389
#     4  11  25  43  65  95 135 170 223 267 336 393
#     4  11  24  43  65  97 135 175 211 272 344 398
#     4  10  21  37  66  96 128 170 217 272 335 394
#
# _framework density 22.053730999999999
#
# number of rings (size 3 to 8) (size 9 to 14) (size 15 to 20)
#    0.000    1.714    0.714    3.429    5.000    2.286 
#   28.286    0.000    0.000    0.000    0.000    0.000 
#    0.000    0.000    0.000    0.000    0.000    0.000 
#
# Total GULP energy -346875.018332 kJ/mol
# GULP energy per Si atom -12388.393512 kJ/mol
# Density = 2.200354 g / cm^3
# Si number density = 22.053731 Si / 1000 Ang^3
#
#
#
# Elastic Constant Matrix: (Units=GPa)
#
#
# Indices 1 2 3 4 5 6 
#
# 1 43.7055 14.9266 0.9697 0.0000 0.0000 0.0000
# 2 14.9266 114.9473 13.0686 0.0000 0.0000 0.0000
# 3 0.9697 13.0686 87.0947 0.0000 0.0000 0.0000
# 4 0.0000 0.0000 0.0000 40.0055 0.0000 0.0000
# 5 0.0000 0.0000 0.0000 0.0000 33.5416 0.0000
# 6 0.0000 0.0000 0.0000 0.0000 0.0000 13.6932
#
#
#
# Elastic Compliance Matrix: (Units=1/GPa)
#
#
# Indices 1 2 3 4 5 6 
#
# 1 0.023946 -0.003133 0.000203 0.000000 0.000000 0.000000
# 2 -0.003133 0.009260 -0.001355 0.000000 0.000000 0.000000
# 3 0.000203 -0.001355 0.011683 0.000000 0.000000 0.000000
# 4 0.000000 0.000000 0.000000 0.024997 0.000000 0.000000
# 5 0.000000 0.000000 0.000000 0.000000 0.029814 0.000000
# 6 0.000000 0.000000 0.000000 0.000000 0.000000 0.073029
#
#
# Mechanical properties :
#
#
# Convention : Reuss Voigt Hill
#
# Bulk Modulus (GPa) = 27.53207 33.74192 30.63699
# Shear Modulus (GPa) = 25.85274 31.90023 28.87649
#
# Velocity S-wave (km/s) = 3.42754 3.80739 3.62245
# Velocity P-wave (km/s) = 5.30804 5.88739 5.60520
#
# Compressibility (1/GPa) = 0.03632129
#
# Stress axis : x y z
#
# Youngs Moduli (GPa) = 41.76105 107.98618 85.59627
#
# Poissons Ratio (x) = 0.33828 -0.01741
# Poissons Ratio (y) = 0.13082 0.11595
# Poissons Ratio (z) = -0.00850 0.14628
#
# Static dielectric constant tensor:
#      x y z
#    x 3.625190 0.000000 0.000000 
#    y 0.000000 4.203750 0.000000 
#    z 0.000000 0.000000 4.093280 
# 
# 
# High freq. dielectric constant tensor:
#      x y z
#    x 1.832510 0.000000 0.000000 
#    y 0.000000 1.882460 0.000000 
#    z 0.000000 0.000000 1.879890 
# 
# From -- ./inp_files/15166.got.cif
#   From: 2010.03.12/outbox.cif.g09.slc.cpg/sg20_8_cif.got.tgz:15166.got - 2010.04.14 01:38:04.
