data_PCOD8159184
_publ_section_title
;
Structure prediction by ZEFSAII (Michael W. Deem and Ramdas Pophale) SiO2 
 PCOD8159184
Probable space group: C 2 2 21
;
_chemical_formula_sum "Si O2"
_cell_formula_units_Z 56
_cell_length_a 24.290171
_cell_length_b 5.005435
_cell_length_c 21.567527
_cell_angle_alpha 90.000000
_cell_angle_beta 90.000000
_cell_angle_gamma 90.000000
_cell_volume 2622.241876
_symmetry_space_group_name_H-M "C 2 2 21"
_symmetry_group_IT_number 20
_symmetry_cell_setting 'orthorhombic'
loop_
_space_group_symop_operation_xyz
x,y,z
-x,-y,1/2+z
x,-y,-z
-x,y,1/2-z
1/2+x,1/2+y,z
1/2-x,1/2-y,1/2+z
1/2+x,1/2-y,-z
1/2-x,1/2+y,1/2-z
loop_
_atom_site_type_symbol
_atom_site_label
_atom_site_fract_x
_atom_site_fract_y
_atom_site_fract_z
Si Si1 0.179476 0.907214 0.232368
Si Si2 0.669271 0.854760 0.565688
Si Si3 0.215507 0.260388 0.040955
Si Si4 0.699313 0.097324 0.690552
Si Si5 0.059093 0.416478 0.928343
Si Si6 0.882968 0.910612 0.620322
Si Si7 0.446538 0.253294 0.041903
O O1 0.234520 0.931576 0.190626
O O2 0.181921 0.106603 0.290238
O O3 0.126781 0.985687 0.190300
O O4 0.172676 0.611749 0.260504
O O5 0.723491 0.662980 0.567346
O O6 0.675770 0.063665 0.621701
O O7 0.612137 0.688036 0.575933
O O8 0.667510 0.000000 0.500000
O O9 0.173887 0.216108 0.096818
O O10 0.191520 0.500000 0.000000
O O11 0.221104 0.000000 0.000000
O O12 0.072380 0.670763 0.884305
O O13 0.997032 0.315668 0.911589
O O14 0.100131 0.167950 0.919795
O O15 0.062389 0.500000 0.000000
O O16 0.465541 0.500000 0.000000
O O17 0.434940 0.000000 0.000000
#
# Coordination Sequence:
#
# PCOD8159184 Si02
#       7
#     8   8   8   8   8   8   8
#     4  10  22  38  60  84 116 164 199 237 282 368
#     4  10  22  40  62  91 120 152 193 255 305 356
#     4  11  22  33  51  85 121 147 177 236 304 347
#     4  10  21  40  60  83 119 156 200 236 298 358
#     4  11  22  36  59  85 121 160 198 243 300 357
#     4  12  21  37  58  86 119 156 201 243 289 356
#     4  10  21  38  58  84 118 158 201 236 293 361
#
# _framework density 21.355772999999999
#
# number of rings (size 3 to 8) (size 9 to 14) (size 15 to 20)
#    0.000    1.429    1.429    5.571    0.000    4.571 
#    0.000    0.000    0.000    5.143    0.000    0.000 
#    0.000    0.000    0.000    0.000    0.000    0.000 
#
# Total GULP energy -347116.740445 kJ/mol
# GULP energy per Si atom -12397.026444 kJ/mol
# Density = 2.130717 g / cm^3
# Si number density = 21.355773 Si / 1000 Ang^3
#
#
#
# Elastic Constant Matrix: (Units=GPa)
#
#
# Indices 1 2 3 4 5 6 
#
# 1 108.2700 17.2150 30.2889 0.0000 0.0000 0.0000
# 2 17.2150 91.1747 -1.4043 0.0000 0.0000 0.0000
# 3 30.2889 -1.4043 66.6012 0.0000 0.0000 0.0000
# 4 0.0000 0.0000 0.0000 20.3833 0.0000 0.0000
# 5 0.0000 0.0000 0.0000 0.0000 13.3042 0.0000
# 6 0.0000 0.0000 0.0000 0.0000 0.0000 18.4458
#
#
#
# Elastic Compliance Matrix: (Units=1/GPa)
#
#
# Indices 1 2 3 4 5 6 
#
# 1 0.010989 -0.002153 -0.005043 0.000000 0.000000 0.000000
# 2 -0.002153 0.011393 0.001219 0.000000 0.000000 0.000000
# 3 -0.005043 0.001219 0.017334 0.000000 0.000000 0.000000
# 4 0.000000 0.000000 0.000000 0.049060 0.000000 0.000000
# 5 0.000000 0.000000 0.000000 0.000000 0.075164 0.000000
# 6 0.000000 0.000000 0.000000 0.000000 0.000000 0.054213
#
#
# Mechanical properties :
#
#
# Convention : Reuss Voigt Hill
#
# Bulk Modulus (GPa) = 36.01866 39.80501 37.91184
# Shear Modulus (GPa) = 20.88901 25.08977 22.98939
#
# Velocity S-wave (km/s) = 3.13092 3.43132 3.28456
# Velocity P-wave (km/s) = 5.47475 5.86328 5.67234
#
# Compressibility (1/GPa) = 0.02776339
#
# Stress axis : x y z
#
# Youngs Moduli (GPa) = 90.99799 87.77189 57.69030
#
# Poissons Ratio (x) = 0.18894 0.29094
# Poissons Ratio (y) = 0.19588 -0.07034
# Poissons Ratio (z) = 0.45891 -0.10701
#
# Static dielectric constant tensor:
#      x y z
#    x 4.528510 0.000000 0.000000 
#    y 0.000000 3.861240 0.000000 
#    z 0.000000 0.000000 3.500690 
# 
# 
# High freq. dielectric constant tensor:
#      x y z
#    x 1.835210 0.000000 0.000000 
#    y 0.000000 1.845360 0.000000 
#    z 0.000000 0.000000 1.804170 
# 
# From -- ./inp_files/28003.got.cif
#   From: 2010.03.12/outbox.cif.g09.slc.cpg/sg20_15_cif.got.tgz:28003.got - 2010.04.14 01:38:04.
