data_PCOD8159456
_publ_section_title
;
Structure prediction by ZEFSAII (Michael W. Deem and Ramdas Pophale) SiO2 
 PCOD8159456
Probable space group: C 2 2 21
;
_chemical_formula_sum "Si O2"
_cell_formula_units_Z 40
_cell_length_a 19.087152
_cell_length_b 10.645075
_cell_length_c 8.235108
_cell_angle_alpha 90.000000
_cell_angle_beta 90.000000
_cell_angle_gamma 90.000000
_cell_volume 1673.243539
_symmetry_space_group_name_H-M "C 2 2 21"
_symmetry_group_IT_number 20
_symmetry_cell_setting 'orthorhombic'
loop_
_space_group_symop_operation_xyz
x,y,z
-x,-y,1/2+z
x,-y,-z
-x,y,1/2-z
1/2+x,1/2+y,z
1/2-x,1/2-y,1/2+z
1/2+x,1/2-y,-z
1/2-x,1/2+y,1/2-z
loop_
_atom_site_type_symbol
_atom_site_label
_atom_site_fract_x
_atom_site_fract_y
_atom_site_fract_z
Si Si1 0.546290 0.864016 0.057982
Si Si2 0.814475 0.798047 0.055033
Si Si3 0.030877 0.869894 0.426719
Si Si4 0.867990 0.419633 0.150940
Si Si5 0.813054 0.364552 0.637638
O O1 0.563845 0.868879 0.251440
O O2 0.489915 0.753919 0.028262
O O3 0.616416 0.827997 0.957979
O O4 0.518044 0.000000 0.000000
O O5 0.821186 0.691638 0.917454
O O6 0.749885 0.880784 0.991029
O O7 0.884998 0.879169 0.073295
O O8 0.796004 0.741175 0.229928
O O9 0.000000 0.852170 0.250000
O O10 0.000631 0.000000 0.500000
O O11 0.821492 0.501333 0.274859
O O12 0.897089 0.500000 0.000000
#
# Coordination Sequence:
#
# PCOD8159456 Si02
#       5
#     8   8   8   8   8
#     4  10  22  46  78 102 145 192 251 319 375 445
#     4  11  23  43  73 101 148 193 244 313 381 455
#     4  12  29  51  72 108 158 204 253 309 391 473
#     4   9  21  40  70 111 140 183 253 314 377 451
#     4  10  21  42  70 106 143 186 255 315 373 437
#
# _framework density 23.905664000000002
#
# number of rings (size 3 to 8) (size 9 to 14) (size 15 to 20)
#    0.000    1.600    2.000    1.200    2.800    6.400 
#    0.000    1.000    0.000    0.000    0.000    0.000 
#    0.000    0.000    0.000    0.000    0.000    0.000 
#
# Total GULP energy -248026.601722 kJ/mol
# GULP energy per Si atom -12401.330086 kJ/mol
# Density = 2.385125 g / cm^3
# Si number density = 23.905664 Si / 1000 Ang^3
#
#
#
# Elastic Constant Matrix: (Units=GPa)
#
#
# Indices 1 2 3 4 5 6 
#
# 1 138.1289 29.7905 27.5273 0.0000 0.0000 0.0000
# 2 29.7905 122.6920 46.8042 0.0000 0.0000 0.0000
# 3 27.5273 46.8042 107.9759 0.0000 0.0000 0.0000
# 4 0.0000 0.0000 0.0000 47.5458 0.0000 0.0000
# 5 0.0000 0.0000 0.0000 0.0000 28.3758 0.0000
# 6 0.0000 0.0000 0.0000 0.0000 0.0000 12.7814
#
#
#
# Elastic Compliance Matrix: (Units=1/GPa)
#
#
# Indices 1 2 3 4 5 6 
#
# 1 0.007813 -0.001362 -0.001401 0.000000 0.000000 0.000000
# 2 -0.001362 0.010003 -0.003989 0.000000 0.000000 0.000000
# 3 -0.001401 -0.003989 0.011347 0.000000 0.000000 0.000000
# 4 0.000000 0.000000 0.000000 0.021032 0.000000 0.000000
# 5 0.000000 0.000000 0.000000 0.000000 0.035241 0.000000
# 6 0.000000 0.000000 0.000000 0.000000 0.000000 0.078239
#
#
# Mechanical properties :
#
#
# Convention : Reuss Voigt Hill
#
# Bulk Modulus (GPa) = 63.86276 64.11564 63.98920
# Shear Modulus (GPa) = 27.41236 35.38558 31.39897
#
# Velocity S-wave (km/s) = 3.38995 3.85153 3.62809
# Velocity P-wave (km/s) = 6.48805 6.83063 6.66155
#
# Compressibility (1/GPa) = 0.01565858
#
# Stress axis : x y z
#
# Youngs Moduli (GPa) = 127.99681 99.97144 88.12540
#
# Poissons Ratio (x) = 0.13621 0.12348
# Poissons Ratio (y) = 0.17439 0.35150
# Poissons Ratio (z) = 0.17935 0.39874
#
# Static dielectric constant tensor:
#      x y z
#    x 4.121700 0.000000 0.000000 
#    y 0.000000 4.195480 0.000000 
#    z 0.000000 0.000000 4.653090 
# 
# 
# High freq. dielectric constant tensor:
#      x y z
#    x 1.955560 0.000000 0.000000 
#    y 0.000000 1.940590 0.000000 
#    z 0.000000 0.000000 1.974610 
# 
# From -- ./inp_files/9123.got.cif
#   From: 2010.03.12/outbox.cif.g09.slc.cpg/sg20_5_cif.got.tgz:9123.got - 2010.04.14 01:38:04.
