data_PCOD8159683
_publ_section_title
;
Structure prediction by ZEFSAII (Michael W. Deem and Ramdas Pophale) SiO2 
 PCOD8159683
Probable space group: C 2 2 21
;
_chemical_formula_sum "Si O2"
_cell_formula_units_Z 40
_cell_length_a 9.571133
_cell_length_b 22.702612
_cell_length_c 8.081763
_cell_angle_alpha 90.000000
_cell_angle_beta 90.000000
_cell_angle_gamma 90.000000
_cell_volume 1756.084010
_symmetry_space_group_name_H-M "C 2 2 21"
_symmetry_group_IT_number 20
_symmetry_cell_setting 'orthorhombic'
loop_
_space_group_symop_operation_xyz
x,y,z
-x,-y,1/2+z
x,-y,-z
-x,y,1/2-z
1/2+x,1/2+y,z
1/2-x,1/2-y,1/2+z
1/2+x,1/2-y,-z
1/2-x,1/2+y,1/2-z
loop_
_atom_site_type_symbol
_atom_site_label
_atom_site_fract_x
_atom_site_fract_y
_atom_site_fract_z
Si Si1 0.290538 0.500000 0.500000
Si Si2 0.711631 0.871001 0.552194
Si Si3 0.500000 0.531681 0.250000
Si Si4 0.559012 0.707892 0.931055
Si Si5 0.166866 0.870161 0.590572
Si Si6 0.932611 0.332057 0.430443
O O1 0.200391 0.440944 0.516369
O O2 0.385279 0.491237 0.336681
O O3 0.809441 0.837280 0.417639
O O4 0.777036 0.855499 0.728061
O O5 0.554616 0.848383 0.557811
O O6 0.426133 0.570519 0.104013
O O7 0.500000 0.721853 0.750000
O O8 0.433524 0.682506 0.039458
O O9 0.614560 0.765869 0.025810
O O10 0.297790 0.874471 0.461873
O O11 0.000000 0.340961 0.250000
#
# Coordination Sequence:
#
# PCOD8159683 Si02
#       6
#     4   8   4   8   8   8
#     4  10  22  40  70  92 134 168 222 274 324 396
#     4  11  23  43  65  98 133 174 220 271 338 393
#     4  10  22  42  70  98 126 180 222 280 320 398
#     4  12  23  40  67  98 132 177 224 273 330 404
#     4  11  21  44  65  94 133 174 222 273 325 396
#     4  12  26  41  64  98 138 177 219 278 340 399
#
# _framework density 22.777951999999999
#
# number of rings (size 3 to 8) (size 9 to 14) (size 15 to 20)
#    0.000    0.800    4.000    5.400    1.400    1.600 
#    0.000    5.000    0.000    0.000    0.000    0.000 
#    0.000    0.000    0.000    0.000    0.000    0.000 
#
# Total GULP energy -247977.016287 kJ/mol
# GULP energy per Si atom -12398.850814 kJ/mol
# Density = 2.272611 g / cm^3
# Si number density = 22.777952 Si / 1000 Ang^3
#
#
#
# Elastic Constant Matrix: (Units=GPa)
#
#
# Indices 1 2 3 4 5 6 
#
# 1 116.8853 35.5481 5.4205 0.0000 0.0000 0.0000
# 2 35.5481 89.0515 25.2848 0.0000 0.0000 0.0000
# 3 5.4205 25.2848 74.1139 0.0000 0.0000 0.0000
# 4 0.0000 0.0000 0.0000 23.0553 0.0000 0.0000
# 5 0.0000 0.0000 0.0000 0.0000 40.9596 0.0000
# 6 0.0000 0.0000 0.0000 0.0000 0.0000 7.3013
#
#
#
# Elastic Compliance Matrix: (Units=1/GPa)
#
#
# Indices 1 2 3 4 5 6 
#
# 1 0.009769 -0.004093 0.000682 0.000000 0.000000 0.000000
# 2 -0.004093 0.014149 -0.004528 0.000000 0.000000 0.000000
# 3 0.000682 -0.004528 0.014988 0.000000 0.000000 0.000000
# 4 0.000000 0.000000 0.000000 0.043374 0.000000 0.000000
# 5 0.000000 0.000000 0.000000 0.000000 0.024414 0.000000
# 6 0.000000 0.000000 0.000000 0.000000 0.000000 0.136963
#
#
# Mechanical properties :
#
#
# Convention : Reuss Voigt Hill
#
# Bulk Modulus (GPa) = 43.42662 45.83973 44.63317
# Shear Modulus (GPa) = 18.71190 28.51639 23.61414
#
# Velocity S-wave (km/s) = 2.86928 3.54210 3.22329
# Velocity P-wave (km/s) = 5.48485 6.07428 5.78708
#
# Compressibility (1/GPa) = 0.02302735
#
# Stress axis : x y z
#
# Youngs Moduli (GPa) = 102.36886 70.67660 66.72202
#
# Poissons Ratio (x) = 0.28929 -0.04550
# Poissons Ratio (y) = 0.41901 0.30210
# Poissons Ratio (z) = -0.06981 0.32000
#
# Static dielectric constant tensor:
#      x y z
#    x 4.473220 0.000000 0.000000 
#    y 0.000000 3.873050 0.000000 
#    z 0.000000 0.000000 4.160310 
# 
# 
# High freq. dielectric constant tensor:
#      x y z
#    x 1.907590 0.000000 0.000000 
#    y 0.000000 1.881450 0.000000 
#    z 0.000000 0.000000 1.901540 
# 
# From -- ./inp_files/6155.got.cif
#   From: 2010.03.12/outbox.cif.g09.slc.cpg/sg20_4_cif.got.tgz:6155.got - 2010.04.14 01:38:04.
