data_PCOD8159316
_publ_section_title
;
Structure prediction by ZEFSAII (Michael W. Deem and Ramdas Pophale) SiO2 
 PCOD8159316
Probable space group: C 2 2 21
;
_chemical_formula_sum "Si O2"
_cell_formula_units_Z 40
_cell_length_a 8.020921
_cell_length_b 26.813376
_cell_length_c 8.521498
_cell_angle_alpha 90.000000
_cell_angle_beta 90.000000
_cell_angle_gamma 90.000000
_cell_volume 1832.701282
_symmetry_space_group_name_H-M "C 2 2 21"
_symmetry_group_IT_number 20
_symmetry_cell_setting 'orthorhombic'
loop_
_space_group_symop_operation_xyz
x,y,z
-x,-y,1/2+z
x,-y,-z
-x,y,1/2-z
1/2+x,1/2+y,z
1/2-x,1/2-y,1/2+z
1/2+x,1/2-y,-z
1/2-x,1/2+y,1/2-z
loop_
_atom_site_type_symbol
_atom_site_label
_atom_site_fract_x
_atom_site_fract_y
_atom_site_fract_z
Si Si1 0.767173 0.000000 0.000000
Si Si2 0.500000 0.543352 0.250000
Si Si3 0.248512 0.804445 0.362913
Si Si4 0.898291 0.396882 0.512676
Si Si5 0.255391 0.117908 0.146110
Si Si6 0.622523 0.289656 0.024269
O O1 0.652442 0.047496 0.963961
O O2 0.879314 0.992054 0.847486
O O3 0.606398 0.577811 0.130170
O O4 0.332666 0.858717 0.380985
O O5 0.368368 0.765261 0.450376
O O6 0.236966 0.792425 0.179064
O O7 0.066594 0.803195 0.438925
O O8 0.816740 0.380153 0.675787
O O9 0.097876 0.397016 0.526597
O O10 0.189868 0.172525 0.105900
#
# Coordination Sequence:
#
# PCOD8159316 Si02
#       6
#     4   4   8   8   8   8
#     4  10  22  40  62  88 122 160 202 254 300 352
#     4  10  22  40  64  90 118 160 202 248 302 358
#     4  11  24  39  59  89 122 158 201 248 302 364
#     4  10  22  40  61  89 120 155 202 250 300 358
#     4  10  21  40  63  87 118 157 198 246 304 359
#     4  11  23  39  60  88 122 158 197 247 305 365
#
# _framework density 21.825707999999999
#
# number of rings (size 3 to 8) (size 9 to 14) (size 15 to 20)
#    0.000    1.600    0.000    4.800    0.000   12.000 
#    0.000    6.000    0.000    0.000    0.000    0.000 
#    0.000    0.000    0.000    0.000    0.000    0.000 
#
# Total GULP energy -248123.565679 kJ/mol
# GULP energy per Si atom -12406.178284 kJ/mol
# Density = 2.177603 g / cm^3
# Si number density = 21.825708 Si / 1000 Ang^3
#
#
#
# Elastic Constant Matrix: (Units=GPa)
#
#
# Indices 1 2 3 4 5 6 
#
# 1 98.6078 44.4428 17.0095 0.0000 0.0000 0.0000
# 2 44.4428 166.7264 38.1882 0.0000 0.0000 0.0000
# 3 17.0095 38.1882 55.0240 0.0000 0.0000 0.0000
# 4 0.0000 0.0000 0.0000 40.5748 0.0000 0.0000
# 5 0.0000 0.0000 0.0000 0.0000 23.8700 0.0000
# 6 0.0000 0.0000 0.0000 0.0000 0.0000 20.6960
#
#
#
# Elastic Compliance Matrix: (Units=1/GPa)
#
#
# Indices 1 2 3 4 5 6 
#
# 1 0.011661 -0.002714 -0.001721 0.000000 0.000000 0.000000
# 2 -0.002714 0.007763 -0.004549 0.000000 0.000000 0.000000
# 3 -0.001721 -0.004549 0.021863 0.000000 0.000000 0.000000
# 4 0.000000 0.000000 0.000000 0.024646 0.000000 0.000000
# 5 0.000000 0.000000 0.000000 0.000000 0.041894 0.000000
# 6 0.000000 0.000000 0.000000 0.000000 0.000000 0.048319
#
#
# Mechanical properties :
#
#
# Convention : Reuss Voigt Hill
#
# Bulk Modulus (GPa) = 42.88315 57.73770 50.31042
# Shear Modulus (GPa) = 27.48958 31.74266 29.61612
#
# Velocity S-wave (km/s) = 3.55280 3.81776 3.68766
# Velocity P-wave (km/s) = 6.04322 6.77828 6.42128
#
# Compressibility (1/GPa) = 0.02331918
#
# Stress axis : x y z
#
# Youngs Moduli (GPa) = 85.75297 128.81153 45.73940
#
# Poissons Ratio (x) = 0.34963 0.07872
# Poissons Ratio (y) = 0.23276 0.20806
# Poissons Ratio (z) = 0.14759 0.58595
#
# Static dielectric constant tensor:
#      x y z
#    x 4.178510 0.000000 0.000000 
#    y 0.000000 3.924980 0.000000 
#    z 0.000000 0.000000 3.823150 
# 
# 
# High freq. dielectric constant tensor:
#      x y z
#    x 1.874170 0.000000 0.000000 
#    y 0.000000 1.860220 0.000000 
#    z 0.000000 0.000000 1.849600 
# 
# From -- ./inp_files/6132.got.cif
#   From: 2010.03.12/outbox.cif.g09.slc.cpg/sg20_4_cif.got.tgz:6132.got - 2010.04.14 01:38:04.
