data_PCOD8159117
_publ_section_title
;
Structure prediction by ZEFSAII (Michael W. Deem and Ramdas Pophale) SiO2 
 PCOD8159117
Probable space group: C 2 2 21
;
_chemical_formula_sum "Si O2"
_cell_formula_units_Z 32
_cell_length_a 19.054125
_cell_length_b 16.458874
_cell_length_c 5.120785
_cell_angle_alpha 90.000000
_cell_angle_beta 90.000000
_cell_angle_gamma 90.000000
_cell_volume 1605.926529
_symmetry_space_group_name_H-M "C 2 2 21"
_symmetry_group_IT_number 20
_symmetry_cell_setting 'orthorhombic'
loop_
_space_group_symop_operation_xyz
x,y,z
-x,-y,1/2+z
x,-y,-z
-x,y,1/2-z
1/2+x,1/2+y,z
1/2-x,1/2-y,1/2+z
1/2+x,1/2-y,-z
1/2-x,1/2+y,1/2-z
loop_
_atom_site_type_symbol
_atom_site_label
_atom_site_fract_x
_atom_site_fract_y
_atom_site_fract_z
Si Si1 0.183863 0.174375 0.002654
Si Si2 0.342296 0.768682 0.999544
Si Si3 0.920068 0.580612 0.168456
Si Si4 0.683635 0.000000 0.000000
Si Si5 0.222291 0.000000 0.000000
O O1 0.266823 0.189441 0.016218
O O2 0.144523 0.221382 0.233051
O O3 0.149630 0.203781 0.733569
O O4 0.172941 0.077975 0.047919
O O5 0.401465 0.838145 0.988360
O O6 0.867761 0.575255 0.420199
O O7 0.000000 0.585151 0.250000
O O8 0.906159 0.500000 0.000000
O O9 0.731130 0.023530 0.752889
#
# Coordination Sequence:
#
# PCOD8159117 Si02
#       5
#     8   8   8   4   4
#     4  10  21  36  57  81 114 151 189 243 299 349
#     4  10  22  36  54  82 117 153 190 240 292 342
#     4  12  25  38  59  85 123 168 206 233 283 361
#     4  12  22  35  58  84 118 157 202 234 282 350
#     4  12  22  37  64  88 114 157 196 246 306 362
#
# _framework density 19.926190999999999
#
# number of rings (size 3 to 8) (size 9 to 14) (size 15 to 20)
#    0.000    1.000    5.000    1.500   10.500    0.000 
#    0.000    0.000    0.000    0.000    0.000    3.500 
#    0.000    0.000    0.000    0.000    0.000    0.000 
#
# Total GULP energy -198419.514491 kJ/mol
# GULP energy per Si atom -12401.219656 kJ/mol
# Density = 1.988084 g / cm^3
# Si number density = 19.926191 Si / 1000 Ang^3
#
#
#
# Elastic Constant Matrix: (Units=GPa)
#
#
# Indices 1 2 3 4 5 6 
#
# 1 35.7718 27.0906 12.1053 0.0000 0.0000 0.0000
# 2 27.0906 141.9707 23.5365 0.0000 0.0000 0.0000
# 3 12.1053 23.5365 96.2669 0.0000 0.0000 0.0000
# 4 0.0000 0.0000 0.0000 33.0904 0.0000 0.0000
# 5 0.0000 0.0000 0.0000 0.0000 12.2040 0.0000
# 6 0.0000 0.0000 0.0000 0.0000 0.0000 19.4786
#
#
#
# Elastic Compliance Matrix: (Units=1/GPa)
#
#
# Indices 1 2 3 4 5 6 
#
# 1 0.033361 -0.005910 -0.002750 0.000000 0.000000 0.000000
# 2 -0.005910 0.008388 -0.001308 0.000000 0.000000 0.000000
# 3 -0.002750 -0.001308 0.011053 0.000000 0.000000 0.000000
# 4 0.000000 0.000000 0.000000 0.030220 0.000000 0.000000
# 5 0.000000 0.000000 0.000000 0.000000 0.081940 0.000000
# 6 0.000000 0.000000 0.000000 0.000000 0.000000 0.051338
#
#
# Mechanical properties :
#
#
# Convention : Reuss Voigt Hill
#
# Bulk Modulus (GPa) = 30.42542 44.38602 37.40572
# Shear Modulus (GPa) = 20.22710 27.03976 23.63343
#
# Velocity S-wave (km/s) = 3.18952 3.68774 3.44764
# Velocity P-wave (km/s) = 5.37273 6.36051 5.88738
#
# Compressibility (1/GPa) = 0.03286725
#
# Stress axis : x y z
#
# Youngs Moduli (GPa) = 29.97475 119.21444 90.47050
#
# Poissons Ratio (x) = 0.70456 0.24881
# Poissons Ratio (y) = 0.17715 0.11831
# Poissons Ratio (z) = 0.08243 0.15590
#
# Static dielectric constant tensor:
#      x y z
#    x 3.104110 0.000000 0.000000 
#    y 0.000000 3.684380 0.000000 
#    z 0.000000 0.000000 3.955540 
# 
# 
# High freq. dielectric constant tensor:
#      x y z
#    x 1.715170 0.000000 0.000000 
#    y 0.000000 1.779590 0.000000 
#    z 0.000000 0.000000 1.798360 
# 
# From -- ./inp_files/1582.got.cif
#   From: 2010.03.12/outbox.cif.g09.slc.cpg/sg20_1_cif.got.tgz:1582.got - 2010.04.14 01:38:04.
