data_PCOD8159766
_publ_section_title
;
Structure prediction by ZEFSAII (Michael W. Deem and Ramdas Pophale) SiO2 
 PCOD8159766
Probable space group: C 2 2 21
;
_chemical_formula_sum "Si O2"
_cell_formula_units_Z 36
_cell_length_a 6.794544
_cell_length_b 12.934425
_cell_length_c 20.466166
_cell_angle_alpha 90.000000
_cell_angle_beta 90.000000
_cell_angle_gamma 90.000000
_cell_volume 1798.638704
_symmetry_space_group_name_H-M "C 2 2 21"
_symmetry_group_IT_number 20
_symmetry_cell_setting 'orthorhombic'
loop_
_space_group_symop_operation_xyz
x,y,z
-x,-y,1/2+z
x,-y,-z
-x,y,1/2-z
1/2+x,1/2+y,z
1/2-x,1/2-y,1/2+z
1/2+x,1/2-y,-z
1/2-x,1/2+y,1/2-z
loop_
_atom_site_type_symbol
_atom_site_label
_atom_site_fract_x
_atom_site_fract_y
_atom_site_fract_z
Si Si1 0.500000 0.523352 0.250000
Si Si2 0.921393 0.826965 0.316303
Si Si3 0.276000 0.756953 0.913769
Si Si4 0.617571 0.666889 0.357572
Si Si5 0.113138 0.613932 0.026588
O O1 0.375898 0.447726 0.299105
O O2 0.642130 0.593622 0.294329
O O3 0.723231 0.775543 0.342698
O O4 0.000000 0.770828 0.250000
O O5 0.091364 0.820049 0.370827
O O6 0.407658 0.848592 0.943259
O O7 0.111465 0.811471 0.869415
O O8 0.171429 0.692121 0.969757
O O9 0.715285 0.611067 0.419469
O O10 0.079121 0.500000 0.000000
#
# Coordination Sequence:
#
# PCOD8159766 Si02
#       5
#     4   8   8   8   8
#     4  10  22  42  66  96 122 174 210 262 328 382
#     4   9  22  41  63  94 128 160 217 264 313 387
#     4  11  22  42  64  95 131 168 216 268 318 380
#     4  11  22  41  69  93 130 172 213 268 323 378
#     4  11  24  41  63  95 129 173 216 265 321 385
#
# _framework density 20.015136999999999
#
# number of rings (size 3 to 8) (size 9 to 14) (size 15 to 20)
#    0.667    0.889    2.222    2.667    0.000    2.667 
#    0.000    6.667    0.000    0.000    0.000    0.000 
#    0.000    0.000    0.000    0.000    0.000    0.000 
#
# Total GULP energy -223179.601870 kJ/mol
# GULP energy per Si atom -12398.866771 kJ/mol
# Density = 1.996958 g / cm^3
# Si number density = 20.015137 Si / 1000 Ang^3
#
#
#
# Elastic Constant Matrix: (Units=GPa)
#
#
# Indices 1 2 3 4 5 6 
#
# 1 119.0323 48.5796 42.8656 0.0000 0.0000 0.0000
# 2 48.5796 91.1695 27.7815 0.0000 0.0000 0.0000
# 3 42.8656 27.7815 92.6911 0.0000 0.0000 0.0000
# 4 0.0000 0.0000 0.0000 47.8112 0.0000 0.0000
# 5 0.0000 0.0000 0.0000 0.0000 25.7586 0.0000
# 6 0.0000 0.0000 0.0000 0.0000 0.0000 14.8584
#
#
#
# Elastic Compliance Matrix: (Units=1/GPa)
#
#
# Indices 1 2 3 4 5 6 
#
# 1 0.011934 -0.005147 -0.003976 0.000000 0.000000 0.000000
# 2 -0.005147 0.014291 -0.001903 0.000000 0.000000 0.000000
# 3 -0.003976 -0.001903 0.013198 0.000000 0.000000 0.000000
# 4 0.000000 0.000000 0.000000 0.020916 0.000000 0.000000
# 5 0.000000 0.000000 0.000000 0.000000 0.038822 0.000000
# 6 0.000000 0.000000 0.000000 0.000000 0.000000 0.067302
#
#
# Mechanical properties :
#
#
# Convention : Reuss Voigt Hill
#
# Bulk Modulus (GPa) = 57.57090 60.14957 58.86024
# Shear Modulus (GPa) = 25.73278 29.93004 27.83141
#
# Velocity S-wave (km/s) = 3.58951 3.87120 3.73301
# Velocity P-wave (km/s) = 6.78274 7.07805 6.93197
#
# Compressibility (1/GPa) = 0.01736989
#
# Stress axis : x y z
#
# Youngs Moduli (GPa) = 83.79692 69.97333 75.77112
#
# Poissons Ratio (x) = 0.36017 0.30127
# Poissons Ratio (y) = 0.43132 0.14419
# Poissons Ratio (z) = 0.33318 0.13316
#
# Static dielectric constant tensor:
#      x y z
#    x 3.459230 0.000000 0.000000 
#    y 0.000000 3.467490 0.000000 
#    z 0.000000 0.000000 3.903560 
# 
# 
# High freq. dielectric constant tensor:
#      x y z
#    x 1.768580 0.000000 0.000000 
#    y 0.000000 1.774710 0.000000 
#    z 0.000000 0.000000 1.803350 
# 
# From -- ./inp_files/25920.got.cif
#   From: 2010.03.12/outbox.cif.g09.slc.cpg/sg20_13_cif.got.tgz:25920.got - 2010.04.14 01:38:04.
