data_PCOD8159497
_publ_section_title
;
Structure prediction by ZEFSAII (Michael W. Deem and Ramdas Pophale) SiO2 
 PCOD8159497
Probable space group: C 2 2 21
;
_chemical_formula_sum "Si O2"
_cell_formula_units_Z 64
_cell_length_a 11.073296
_cell_length_b 8.390633
_cell_length_c 30.405437
_cell_angle_alpha 90.000000
_cell_angle_beta 90.000000
_cell_angle_gamma 90.000000
_cell_volume 2825.028833
_symmetry_space_group_name_H-M "C 2 2 21"
_symmetry_group_IT_number 20
_symmetry_cell_setting 'orthorhombic'
loop_
_space_group_symop_operation_xyz
x,y,z
-x,-y,1/2+z
x,-y,-z
-x,y,1/2-z
1/2+x,1/2+y,z
1/2-x,1/2-y,1/2+z
1/2+x,1/2-y,-z
1/2-x,1/2+y,1/2-z
loop_
_atom_site_type_symbol
_atom_site_label
_atom_site_fract_x
_atom_site_fract_y
_atom_site_fract_z
Si Si1 0.690699 0.960086 0.287035
Si Si2 0.278796 0.058623 0.953702
Si Si3 0.065589 0.740698 0.650566
Si Si4 0.668405 0.422554 0.868797
Si Si5 0.381225 0.320532 0.223637
Si Si6 0.367409 0.667886 0.874514
Si Si7 0.225535 0.120398 0.416848
Si Si8 0.995266 0.551583 0.408053
O O1 0.591038 0.822617 0.299735
O O2 0.762911 0.897985 0.245162
O O3 0.776097 0.974361 0.329554
O O4 0.627987 0.128609 0.276927
O O5 0.181915 0.018934 0.914967
O O6 0.407270 0.969805 0.947115
O O7 0.302670 0.250940 0.955214
O O8 0.224292 0.000000 0.000000
O O9 0.194876 0.789977 0.629297
O O10 0.009716 0.589860 0.625907
O O11 0.970212 0.885690 0.644579
O O12 0.739825 0.258320 0.874466
O O13 0.500000 0.372010 0.250000
O O14 0.387373 0.398724 0.175027
O O15 0.360685 0.535161 0.913409
O O16 0.480257 0.781246 0.883953
O O17 0.359995 0.058537 0.425080
#
# Coordination Sequence:
#
# PCOD8159497 Si02
#       8
#     8   8   8   8   8   8   8   8
#     4  11  25  43  58  95 127 176 227 269 339 390
#     4  10  23  47  66 101 141 165 214 282 332 396
#     4  11  22  39  68  90 127 173 219 265 325 393
#     4  10  21  44  66  91 132 174 217 270 328 402
#     4  11  27  40  62  92 134 169 222 290 330 379
#     4  10  22  41  66  93 123 172 227 269 320 400
#     4  11  23  38  71  98 119 179 221 259 337 395
#     4  10  21  44  66  93 127 173 218 267 325 401
#
# _framework density 22.654637999999998
#
# number of rings (size 3 to 8) (size 9 to 14) (size 15 to 20)
#    0.000    1.500    6.250    0.000    7.000    2.000 
#    4.500    2.500    0.000    0.750    0.000    0.000 
#    0.000    0.000    0.000    0.000    0.000    0.000 
#
# Total GULP energy -396499.434975 kJ/mol
# GULP energy per Si atom -12390.607343 kJ/mol
# Density = 2.260308 g / cm^3
# Si number density = 22.654638 Si / 1000 Ang^3
#
#
#
# Elastic Constant Matrix: (Units=GPa)
#
#
# Indices 1 2 3 4 5 6 
#
# 1 97.8701 19.0011 13.7536 0.0000 0.0000 0.0000
# 2 19.0011 60.5473 18.4484 0.0000 0.0000 0.0000
# 3 13.7536 18.4484 78.7016 0.0000 0.0000 0.0000
# 4 0.0000 0.0000 0.0000 27.7539 0.0000 0.0000
# 5 0.0000 0.0000 0.0000 0.0000 12.1901 0.0000
# 6 0.0000 0.0000 0.0000 0.0000 0.0000 36.6192
#
#
#
# Elastic Compliance Matrix: (Units=1/GPa)
#
#
# Indices 1 2 3 4 5 6 
#
# 1 0.010984 -0.003082 -0.001197 0.000000 0.000000 0.000000
# 2 -0.003082 0.018651 -0.003833 0.000000 0.000000 0.000000
# 3 -0.001197 -0.003833 0.013814 0.000000 0.000000 0.000000
# 4 0.000000 0.000000 0.000000 0.036031 0.000000 0.000000
# 5 0.000000 0.000000 0.000000 0.000000 0.082034 0.000000
# 6 0.000000 0.000000 0.000000 0.000000 0.000000 0.027308
#
#
# Mechanical properties :
#
#
# Convention : Reuss Voigt Hill
#
# Bulk Modulus (GPa) = 36.73230 37.72503 37.22867
# Shear Modulus (GPa) = 23.35108 27.70703 25.52905
#
# Velocity S-wave (km/s) = 3.21400 3.50096 3.36054
# Velocity P-wave (km/s) = 5.47926 5.74723 5.61485
#
# Compressibility (1/GPa) = 0.02722400
#
# Stress axis : x y z
#
# Youngs Moduli (GPa) = 91.03917 53.61542 72.39037
#
# Poissons Ratio (x) = 0.16526 0.08665
# Poissons Ratio (y) = 0.28062 0.27750
# Poissons Ratio (z) = 0.10898 0.20553
#
# Static dielectric constant tensor:
#      x y z
#    x 4.003030 0.000000 0.000000 
#    y 0.000000 4.384490 0.000000 
#    z 0.000000 0.000000 3.751990 
# 
# 
# High freq. dielectric constant tensor:
#      x y z
#    x 1.885800 0.000000 0.000000 
#    y 0.000000 1.914180 0.000000 
#    z 0.000000 0.000000 1.855280 
# 
# From -- ./inp_files/31220.got.cif
#   From: 2010.03.12/outbox.cif.g09.slc.cpg/sg20_16_cif.got.tgz:31220.got - 2010.04.14 01:38:04.
