data_PCOD8159549
_publ_section_title
;
Structure prediction by ZEFSAII (Michael W. Deem and Ramdas Pophale) SiO2 
 PCOD8159549
Probable space group: C 2 2 21
;
_chemical_formula_sum "Si O2"
_cell_formula_units_Z 36
_cell_length_a 27.879390
_cell_length_b 6.101793
_cell_length_c 10.104670
_cell_angle_alpha 90.000000
_cell_angle_beta 90.000000
_cell_angle_gamma 90.000000
_cell_volume 1718.948528
_symmetry_space_group_name_H-M "C 2 2 21"
_symmetry_group_IT_number 20
_symmetry_cell_setting 'orthorhombic'
loop_
_space_group_symop_operation_xyz
x,y,z
-x,-y,1/2+z
x,-y,-z
-x,y,1/2-z
1/2+x,1/2+y,z
1/2-x,1/2-y,1/2+z
1/2+x,1/2-y,-z
1/2-x,1/2+y,1/2-z
loop_
_atom_site_type_symbol
_atom_site_label
_atom_site_fract_x
_atom_site_fract_y
_atom_site_fract_z
Si Si1 0.805499 0.000000 0.000000
Si Si2 0.983029 0.000000 0.500000
Si Si3 0.256294 0.868622 0.869043
Si Si4 0.500000 0.218747 0.250000
Si Si5 0.075131 0.386381 0.131803
Si Si6 0.328838 0.206552 0.782377
O O1 0.837994 0.182563 0.073542
O O2 0.770399 0.881116 0.103540
O O3 0.953106 0.831576 0.589656
O O4 0.011921 0.863432 0.384288
O O5 0.206046 0.875079 0.792776
O O6 0.301322 0.975633 0.791818
O O7 0.245041 0.000000 0.000000
O O8 0.544509 0.058820 0.218425
O O9 0.120014 0.314675 0.217032
O O10 0.094754 0.500000 0.000000
#
# Coordination Sequence:
#
# PCOD8159549 Si02
#       6
#     4   4   8   4   8   8
#     4  10  22  40  55  88 128 174 216 255 328 374
#     4  10  22  46  73 100 130 176 216 267 356 394
#     4  10  22  37  59  87 126 171 213 263 310 362
#     4  10  22  48  68 104 134 160 224 282 330 412
#     4  10  24  41  68 101 129 167 223 271 327 395
#     4  11  22  40  61  93 130 169 218 263 312 383
#
# _framework density 20.943035999999999
#
# number of rings (size 3 to 8) (size 9 to 14) (size 15 to 20)
#    0.000    1.778    2.222    0.667    3.111    3.556 
#    0.000   26.667    0.000    0.000    0.000    0.000 
#    0.000    0.000    0.000    0.000    0.000    0.000 
#
# Total GULP energy -222991.969038 kJ/mol
# GULP energy per Si atom -12388.442724 kJ/mol
# Density = 2.089537 g / cm^3
# Si number density = 20.943036 Si / 1000 Ang^3
#
#
#
# Elastic Constant Matrix: (Units=GPa)
#
#
# Indices 1 2 3 4 5 6 
#
# 1 103.4302 50.0357 71.3622 0.0000 0.0000 0.0000
# 2 50.0357 121.3857 56.7118 0.0000 0.0000 0.0000
# 3 71.3622 56.7118 117.8793 0.0000 0.0000 0.0000
# 4 0.0000 0.0000 0.0000 51.0422 0.0000 0.0000
# 5 0.0000 0.0000 0.0000 0.0000 44.3685 0.0000
# 6 0.0000 0.0000 0.0000 0.0000 0.0000 18.9903
#
#
#
# Elastic Compliance Matrix: (Units=1/GPa)
#
#
# Indices 1 2 3 4 5 6 
#
# 1 0.017359 -0.002897 -0.009115 0.000000 0.000000 0.000000
# 2 -0.002897 0.011110 -0.003591 0.000000 0.000000 0.000000
# 3 -0.009115 -0.003591 0.015729 0.000000 0.000000 0.000000
# 4 0.000000 0.000000 0.000000 0.019592 0.000000 0.000000
# 5 0.000000 0.000000 0.000000 0.000000 0.022539 0.000000
# 6 0.000000 0.000000 0.000000 0.000000 0.000000 0.052659
#
#
# Mechanical properties :
#
#
# Convention : Reuss Voigt Hill
#
# Bulk Modulus (GPa) = 76.97301 77.65716 77.31509
# Shear Modulus (GPa) = 28.64940 33.85256 31.25098
#
# Velocity S-wave (km/s) = 3.70262 4.02482 3.86708
# Velocity P-wave (km/s) = 7.42378 7.66548 7.54560
#
# Compressibility (1/GPa) = 0.01299157
#
# Stress axis : x y z
#
# Youngs Moduli (GPa) = 57.60818 90.00734 63.57599
#
# Poissons Ratio (x) = 0.26073 0.57950
# Poissons Ratio (y) = 0.16688 0.22833
# Poissons Ratio (z) = 0.52510 0.32326
#
# Static dielectric constant tensor:
#      x y z
#    x 3.300820 0.000000 0.000000 
#    y 0.000000 2.499810 0.000000 
#    z 0.000000 0.000000 4.152020 
# 
# 
# High freq. dielectric constant tensor:
#      x y z
#    x 1.778160 0.000000 0.000000 
#    y 0.000000 1.844290 0.000000 
#    z 0.000000 0.000000 1.841980 
# 
# From -- ./inp_files/16571.got.cif
#   From: 2010.03.12/outbox.cif.g09.slc.cpg/sg20_9_cif.got.tgz:16571.got - 2010.04.14 01:38:04.
