data_PCOD8159989
_publ_section_title
;
Structure prediction by ZEFSAII (Michael W. Deem and Ramdas Pophale) SiO2 
 PCOD8159989
Probable space group: C 2 2 21
;
_chemical_formula_sum "Si O2"
_cell_formula_units_Z 28
_cell_length_a 15.571535
_cell_length_b 7.795856
_cell_length_c 10.783939
_cell_angle_alpha 90.000000
_cell_angle_beta 90.000000
_cell_angle_gamma 90.000000
_cell_volume 1309.099501
_symmetry_space_group_name_H-M "C 2 2 21"
_symmetry_group_IT_number 20
_symmetry_cell_setting 'orthorhombic'
loop_
_space_group_symop_operation_xyz
x,y,z
-x,-y,1/2+z
x,-y,-z
-x,y,1/2-z
1/2+x,1/2+y,z
1/2-x,1/2-y,1/2+z
1/2+x,1/2-y,-z
1/2-x,1/2+y,1/2-z
loop_
_atom_site_type_symbol
_atom_site_label
_atom_site_fract_x
_atom_site_fract_y
_atom_site_fract_z
Si Si1 0.602602 0.500581 0.254578
Si Si2 0.697036 0.500000 0.500000
Si Si3 0.149085 0.696958 0.085421
Si Si4 0.914174 0.640263 0.672270
O O1 0.500000 0.487276 0.250000
O O2 0.635832 0.443875 0.388050
O O3 0.643879 0.379407 0.150499
O O4 0.635064 0.695244 0.229983
O O5 0.756495 0.333208 0.527182
O O6 0.135866 0.540495 0.184300
O O7 0.076794 0.683797 0.975689
O O8 0.000000 0.615947 0.750000
#
# Coordination Sequence:
#
# PCOD8159989 Si02
#       4
#     8   4   8   8
#     4  11  24  42  68  94 133 171 217 271 321 391
#     4  10  26  42  64 102 126 168 228 258 334 402
#     4  10  23  43  64  95 135 168 216 270 330 390
#     4   9  20  39  65  94 128 165 217 261 322 387
#
# _framework density 21.388746000000001
#
# number of rings (size 3 to 8) (size 9 to 14) (size 15 to 20)
#    0.000    2.286    0.000    1.714   16.000    0.000 
#    0.000    0.000    0.000    0.000    0.000    0.000 
#    0.000    0.000    0.000    0.000    0.000    0.000 
#
# Total GULP energy -173453.930569 kJ/mol
# GULP energy per Si atom -12389.566469 kJ/mol
# Density = 2.134006 g / cm^3
# Si number density = 21.388746 Si / 1000 Ang^3
#
#
#
# Elastic Constant Matrix: (Units=GPa)
#
#
# Indices 1 2 3 4 5 6 
#
# 1 104.3333 33.4478 65.0285 0.0000 0.0000 0.0000
# 2 33.4478 105.6452 24.9249 0.0000 0.0000 0.0000
# 3 65.0285 24.9249 121.1895 0.0000 0.0000 0.0000
# 4 0.0000 0.0000 0.0000 36.2531 0.0000 0.0000
# 5 0.0000 0.0000 0.0000 0.0000 53.0777 0.0000
# 6 0.0000 0.0000 0.0000 0.0000 0.0000 9.0441
#
#
#
# Elastic Compliance Matrix: (Units=1/GPa)
#
#
# Indices 1 2 3 4 5 6 
#
# 1 0.015283 -0.003052 -0.007573 0.000000 0.000000 0.000000
# 2 -0.003052 0.010558 -0.000534 0.000000 0.000000 0.000000
# 3 -0.007573 -0.000534 0.012425 0.000000 0.000000 0.000000
# 4 0.000000 0.000000 0.000000 0.027584 0.000000 0.000000
# 5 0.000000 0.000000 0.000000 0.000000 0.018840 0.000000
# 6 0.000000 0.000000 0.000000 0.000000 0.000000 0.110569
#
#
# Mechanical properties :
#
#
# Convention : Reuss Voigt Hill
#
# Bulk Modulus (GPa) = 62.70247 64.21891 63.46069
# Shear Modulus (GPa) = 22.43229 33.52612 27.97920
#
# Velocity S-wave (km/s) = 3.24201 3.96342 3.62073
# Velocity P-wave (km/s) = 6.58737 7.14386 6.87125
#
# Compressibility (1/GPa) = 0.01594834
#
# Stress axis : x y z
#
# Youngs Moduli (GPa) = 65.43131 94.71619 80.48360
#
# Poissons Ratio (x) = 0.28908 0.60950
# Poissons Ratio (y) = 0.19970 0.04296
# Poissons Ratio (z) = 0.49551 0.05055
#
# Static dielectric constant tensor:
#      x y z
#    x 3.620250 0.000000 0.000000 
#    y 0.000000 4.138760 0.000000 
#    z 0.000000 0.000000 3.970820 
# 
# 
# High freq. dielectric constant tensor:
#      x y z
#    x 1.814250 0.000000 0.000000 
#    y 0.000000 1.846780 0.000000 
#    z 0.000000 0.000000 1.841630 
# 
# From -- ./inp_files/9022.got.cif
#   From: 2010.03.12/outbox.cif.g09.slc.cpg/sg20_5_cif.got.tgz:9022.got - 2010.04.14 01:38:04.
