data_PCOD8159930
_publ_section_title
;
Structure prediction by ZEFSAII (Michael W. Deem and Ramdas Pophale) SiO2 
 PCOD8159930
Probable space group: C 2 2 21
;
_chemical_formula_sum "Si O2"
_cell_formula_units_Z 60
_cell_length_a 5.241222
_cell_length_b 17.760359
_cell_length_c 29.342143
_cell_angle_alpha 90.000000
_cell_angle_beta 90.000000
_cell_angle_gamma 90.000000
_cell_volume 2731.342263
_symmetry_space_group_name_H-M "C 2 2 21"
_symmetry_group_IT_number 20
_symmetry_cell_setting 'orthorhombic'
loop_
_space_group_symop_operation_xyz
x,y,z
-x,-y,1/2+z
x,-y,-z
-x,y,1/2-z
1/2+x,1/2+y,z
1/2-x,1/2-y,1/2+z
1/2+x,1/2-y,-z
1/2-x,1/2+y,1/2-z
loop_
_atom_site_type_symbol
_atom_site_label
_atom_site_fract_x
_atom_site_fract_y
_atom_site_fract_z
Si Si1 0.166050 0.525037 0.051248
Si Si2 0.324999 0.912200 0.369710
Si Si3 0.678494 0.402572 0.912570
Si Si4 0.303324 0.742707 0.360699
Si Si5 0.670072 0.241814 0.196406
Si Si6 0.188002 0.395794 0.290180
Si Si7 0.500000 0.648196 0.250000
Si Si8 0.443099 0.525893 0.321996
O O1 0.130973 0.449420 0.081122
O O2 0.410063 0.573480 0.065894
O O3 0.913940 0.576809 0.054773
O O4 0.205886 0.500000 0.000000
O O5 0.583230 0.900884 0.341767
O O6 0.219748 0.826767 0.377185
O O7 0.158921 0.968587 0.338900
O O8 0.723940 0.447325 0.865077
O O9 0.669385 0.312587 0.904172
O O10 0.068304 0.707867 0.330911
O O11 0.563329 0.740963 0.331922
O O12 0.602956 0.328942 0.208624
O O13 0.741374 0.199174 0.244401
O O14 0.000000 0.374347 0.250000
O O15 0.298080 0.479152 0.282221
O O16 0.528147 0.601263 0.296687
#
# Coordination Sequence:
#
# PCOD8159930 Si02
#       8
#     8   8   8   8   8   8   4   8
#     4  11  24  45  71  99 132 165 209 273 340 405
#     4  10  23  41  64  90 128 170 218 262 335 385
#     4  11  23  42  67  98 128 164 217 263 331 390
#     4  11  23  43  67  89 128 172 216 269 325 384
#     4  11  24  41  58  91 129 178 218 267 320 371
#     4  11  21  38  60  90 126 178 220 267 312 386
#     4  12  24  40  58  96 132 182 228 274 314 376
#     4  11  22  40  58  92 125 174 217 275 309 388
#
# _framework density 21.967222
#
# number of rings (size 3 to 8) (size 9 to 14) (size 15 to 20)
#    0.000    1.067    4.667    2.000    1.867    1.600 
#    2.400    1.333    0.000    0.000    0.000    0.000 
#    0.000    0.000    0.000    0.000    0.000    0.000 
#
# Total GULP energy -371725.418027 kJ/mol
# GULP energy per Si atom -12390.847268 kJ/mol
# Density = 2.191722 g / cm^3
# Si number density = 21.967222 Si / 1000 Ang^3
#
#
#
# Elastic Constant Matrix: (Units=GPa)
#
#
# Indices 1 2 3 4 5 6 
#
# 1 95.2100 14.1962 16.6015 0.0000 0.0000 0.0000
# 2 14.1962 127.3982 35.2531 0.0000 0.0000 0.0000
# 3 16.6015 35.2531 101.6273 0.0000 0.0000 0.0000
# 4 0.0000 0.0000 0.0000 20.1887 0.0000 0.0000
# 5 0.0000 0.0000 0.0000 0.0000 26.2970 0.0000
# 6 0.0000 0.0000 0.0000 0.0000 0.0000 14.6994
#
#
#
# Elastic Compliance Matrix: (Units=1/GPa)
#
#
# Indices 1 2 3 4 5 6 
#
# 1 0.010884 -0.000797 -0.001501 0.000000 0.000000 0.000000
# 2 -0.000797 0.008741 -0.002902 0.000000 0.000000 0.000000
# 3 -0.001501 -0.002902 0.011092 0.000000 0.000000 0.000000
# 4 0.000000 0.000000 0.000000 0.049533 0.000000 0.000000
# 5 0.000000 0.000000 0.000000 0.000000 0.038027 0.000000
# 6 0.000000 0.000000 0.000000 0.000000 0.000000 0.068030
#
#
# Mechanical properties :
#
#
# Convention : Reuss Voigt Hill
#
# Bulk Modulus (GPa) = 49.22353 50.70413 49.96383
# Shear Modulus (GPa) = 24.57243 29.44931 27.01087
#
# Velocity S-wave (km/s) = 3.34817 3.66540 3.51037
# Velocity P-wave (km/s) = 6.11583 6.40666 6.26293
#
# Compressibility (1/GPa) = 0.02031549
#
# Stress axis : x y z
#
# Youngs Moduli (GPa) = 91.87986 114.39978 90.15683
#
# Poissons Ratio (x) = 0.09122 0.13536
# Poissons Ratio (y) = 0.07326 0.26163
# Poissons Ratio (z) = 0.13794 0.33199
#
# Static dielectric constant tensor:
#      x y z
#    x 3.877120 0.000000 0.000000 
#    y 0.000000 4.587990 0.000000 
#    z 0.000000 0.000000 3.688510 
# 
# 
# High freq. dielectric constant tensor:
#      x y z
#    x 1.865070 0.000000 0.000000 
#    y 0.000000 1.889110 0.000000 
#    z 0.000000 0.000000 1.830380 
# 
# From -- ./inp_files/29943.got.cif
#   From: 2010.03.12/outbox.cif.g09.slc.cpg/sg20_15_cif.got.tgz:29943.got - 2010.04.14 01:38:04.
