data_PCOD8159319
_publ_section_title
;
Structure prediction by ZEFSAII (Michael W. Deem and Ramdas Pophale) SiO2 
 PCOD8159319
Probable space group: C 2 2 21
;
_chemical_formula_sum "Si O2"
_cell_formula_units_Z 32
_cell_length_a 11.524057
_cell_length_b 15.243907
_cell_length_c 8.257438
_cell_angle_alpha 90.000000
_cell_angle_beta 90.000000
_cell_angle_gamma 90.000000
_cell_volume 1450.597784
_symmetry_space_group_name_H-M "C 2 2 21"
_symmetry_group_IT_number 20
_symmetry_cell_setting 'orthorhombic'
loop_
_space_group_symop_operation_xyz
x,y,z
-x,-y,1/2+z
x,-y,-z
-x,y,1/2-z
1/2+x,1/2+y,z
1/2-x,1/2-y,1/2+z
1/2+x,1/2-y,-z
1/2-x,1/2+y,1/2-z
loop_
_atom_site_type_symbol
_atom_site_label
_atom_site_fract_x
_atom_site_fract_y
_atom_site_fract_z
Si Si1 0.000000 0.890025 0.750000
Si Si2 0.358683 0.500000 0.500000
Si Si3 0.297293 0.155490 0.962022
Si Si4 0.500000 0.907106 0.250000
Si Si5 0.741424 0.665058 0.328812
Si Si6 0.842944 0.500000 0.500000
O O1 0.898188 0.828475 0.816604
O O2 0.057551 0.953150 0.878106
O O3 0.277179 0.429367 0.407681
O O4 0.422606 0.151655 0.873625
O O5 0.224652 0.242473 0.911274
O O6 0.308460 0.154884 0.157788
O O7 0.419833 0.971648 0.350173
O O8 0.766925 0.583203 0.445347
#
# Coordination Sequence:
#
# PCOD8159319 Si02
#       6
#     4   4   8   4   8   4
#     4  10  21  40  63  90 122 162 203 254 315 376
#     4  10  22  42  62  90 124 160 204 258 312 374
#     4  11  24  42  64  93 130 167 213 266 318 381
#     4  12  23  42  65  92 128 172 215 264 319 378
#     4  11  24  42  65  95 129 167 212 265 320 381
#     4  12  24  42  66  94 128 170 214 266 320 378
#
# _framework density 22.05987
#
# number of rings (size 3 to 8) (size 9 to 14) (size 15 to 20)
#    0.000    1.000    0.000    8.250    0.000    4.000 
#    0.000    1.250    0.000    0.000    0.000    0.000 
#    0.000    0.000    0.000    0.000    0.000    0.000 
#
# Total GULP energy -198368.552081 kJ/mol
# GULP energy per Si atom -12398.034505 kJ/mol
# Density = 2.200966 g / cm^3
# Si number density = 22.059870 Si / 1000 Ang^3
#
#
#
# Elastic Constant Matrix: (Units=GPa)
#
#
# Indices 1 2 3 4 5 6 
#
# 1 111.2348 43.3435 50.4397 0.0000 0.0000 0.0000
# 2 43.3435 155.0917 46.3520 0.0000 0.0000 0.0000
# 3 50.4397 46.3520 99.5980 0.0000 0.0000 0.0000
# 4 0.0000 0.0000 0.0000 126.0265 0.0000 0.0000
# 5 0.0000 0.0000 0.0000 0.0000 49.7721 0.0000
# 6 0.0000 0.0000 0.0000 0.0000 0.0000 27.1627
#
#
#
# Elastic Compliance Matrix: (Units=1/GPa)
#
#
# Indices 1 2 3 4 5 6 
#
# 1 0.012087 -0.001799 -0.005284 0.000000 0.000000 0.000000
# 2 -0.001799 0.007757 -0.002699 0.000000 0.000000 0.000000
# 3 -0.005284 -0.002699 0.013973 0.000000 0.000000 0.000000
# 4 0.000000 0.000000 0.000000 0.007935 0.000000 0.000000
# 5 0.000000 0.000000 0.000000 0.000000 0.020092 0.000000
# 6 0.000000 0.000000 0.000000 0.000000 0.000000 0.036815
#
#
# Mechanical properties :
#
#
# Convention : Reuss Voigt Hill
#
# Bulk Modulus (GPa) = 70.16221 71.79944 70.98083
# Shear Modulus (GPa) = 40.65918 55.64487 48.15203
#
# Velocity S-wave (km/s) = 4.29783 5.02785 4.67710
# Velocity P-wave (km/s) = 7.51683 8.14395 7.83667
#
# Compressibility (1/GPa) = 0.01425269
#
# Stress axis : x y z
#
# Youngs Moduli (GPa) = 82.73369 128.91270 71.56852
#
# Poissons Ratio (x) = 0.23187 0.37818
# Poissons Ratio (y) = 0.14881 0.19318
# Poissons Ratio (z) = 0.43718 0.34796
#
# Static dielectric constant tensor:
#      x y z
#    x 3.525380 0.000000 0.000000 
#    y 0.000000 2.906410 0.000000 
#    z 0.000000 0.000000 3.790520 
# 
# 
# High freq. dielectric constant tensor:
#      x y z
#    x 1.862100 0.000000 0.000000 
#    y 0.000000 1.889440 0.000000 
#    z 0.000000 0.000000 1.871200 
# 
# From -- ./inp_files/6857.got.cif
#   From: 2010.03.12/outbox.cif.g09.slc.cpg/sg20_4_cif.got.tgz:6857.got - 2010.04.14 01:38:04.
