data_PCOD8159591
_publ_section_title
;
Structure prediction by ZEFSAII (Michael W. Deem and Ramdas Pophale) SiO2 
 PCOD8159591
Probable space group: C 2 2 21
;
_chemical_formula_sum "Si O2"
_cell_formula_units_Z 36
_cell_length_a 14.531929
_cell_length_b 5.705416
_cell_length_c 19.063038
_cell_angle_alpha 90.000000
_cell_angle_beta 90.000000
_cell_angle_gamma 90.000000
_cell_volume 1580.529829
_symmetry_space_group_name_H-M "C 2 2 21"
_symmetry_group_IT_number 20
_symmetry_cell_setting 'orthorhombic'
loop_
_space_group_symop_operation_xyz
x,y,z
-x,-y,1/2+z
x,-y,-z
-x,y,1/2-z
1/2+x,1/2+y,z
1/2-x,1/2-y,1/2+z
1/2+x,1/2-y,-z
1/2-x,1/2+y,1/2-z
loop_
_atom_site_type_symbol
_atom_site_label
_atom_site_fract_x
_atom_site_fract_y
_atom_site_fract_z
Si Si1 0.500000 0.742899 0.750000
Si Si2 0.572848 0.432315 0.861064
Si Si3 0.076720 0.251136 0.459408
Si Si4 0.835842 0.565235 0.727282
Si Si5 0.256201 0.286416 0.364962
O O1 0.501732 0.609249 0.824637
O O2 0.407567 0.885968 0.759886
O O3 0.516536 0.266546 0.913917
O O4 0.610650 0.297220 0.793433
O O5 0.658592 0.566914 0.899278
O O6 0.065979 0.500000 0.500000
O O7 0.169057 0.280260 0.414827
O O8 0.084384 0.000000 0.500000
O O9 0.762256 0.602077 0.788417
O O10 0.788654 0.476381 0.654486
#
# Coordination Sequence:
#
# PCOD8159591 Si02
#       5
#     4   8   8   8   8
#     4  10  22  38  74 108 142 182 230 322 390 460
#     4  11  25  45  73 108 146 195 252 316 383 465
#     4  12  32  53  74 104 155 216 263 310 368 463
#     4  11  22  42  75 111 147 178 243 328 403 451
#     4  11  25  44  77 113 146 191 250 322 397 454
#
# _framework density 22.777173999999999
#
# number of rings (size 3 to 8) (size 9 to 14) (size 15 to 20)
#    0.000    0.889    2.222    3.333   15.556    0.889 
#    0.000    0.000    0.000    0.000    0.000    0.000 
#    0.000    0.000    0.000    0.000    0.000    0.000 
#
# Total GULP energy -223020.621229 kJ/mol
# GULP energy per Si atom -12390.034513 kJ/mol
# Density = 2.272533 g / cm^3
# Si number density = 22.777174 Si / 1000 Ang^3
#
#
#
# Elastic Constant Matrix: (Units=GPa)
#
#
# Indices 1 2 3 4 5 6 
#
# 1 129.3251 37.3213 49.0734 0.0000 0.0000 0.0000
# 2 37.3213 112.8446 36.3839 0.0000 0.0000 0.0000
# 3 49.0734 36.3839 69.9837 0.0000 0.0000 0.0000
# 4 0.0000 0.0000 0.0000 17.0715 0.0000 0.0000
# 5 0.0000 0.0000 0.0000 0.0000 41.3200 0.0000
# 6 0.0000 0.0000 0.0000 0.0000 0.0000 -109.3587
#
#
#
# Elastic Compliance Matrix: (Units=1/GPa)
#
#
# Indices 1 2 3 4 5 6 
#
# 1 0.010703 -0.001346 -0.006806 0.000000 0.000000 0.000000
# 2 -0.001346 0.010816 -0.004679 0.000000 0.000000 0.000000
# 3 -0.006806 -0.004679 0.021494 0.000000 0.000000 0.000000
# 4 0.000000 0.000000 0.000000 0.058577 0.000000 0.000000
# 5 0.000000 0.000000 0.000000 0.000000 0.024201 0.000000
# 6 0.000000 0.000000 0.000000 0.000000 0.000000 -0.009144
#
#
# Mechanical properties :
#
#
# Convention : Reuss Voigt Hill
#
# Bulk Modulus (GPa) = 57.63176 61.96785 59.79981
# Shear Modulus (GPa) = 33.76277 2.43154 18.09715
#
# Velocity S-wave (km/s) = 3.85425 1.03434 2.82180
# Velocity P-wave (km/s) = 6.72044 5.35646 6.07684
#
# Compressibility (1/GPa) = 0.01735154
#
# Stress axis : x y z
#
# Youngs Moduli (GPa) = 93.42969 92.45982 46.52454
#
# Poissons Ratio (x) = 0.12441 0.31663
# Poissons Ratio (y) = 0.12572 0.21770
# Poissons Ratio (z) = 0.63585 0.43265
#
# Static dielectric constant tensor:
#      x y z
#    x 4.396160 0.000000 0.000000 
#    y 0.000000 4.695960 0.000000 
#    z 0.000000 0.000000 4.318000 
# 
# 
# High freq. dielectric constant tensor:
#      x y z
#    x 1.924500 0.000000 0.000000 
#    y 0.000000 1.918800 0.000000 
#    z 0.000000 0.000000 1.867280 
# 
# From -- ./inp_files/27383.got.cif
#   From: 2010.03.12/outbox.cif.g09.slc.cpg/sg20_14_cif.got.tgz:27383.got - 2010.04.14 01:38:04.
