data_PCOD8159104
_publ_section_title
;
Structure prediction by ZEFSAII (Michael W. Deem and Ramdas Pophale) SiO2 
 PCOD8159104
Probable space group: C 2 2 21
;
_chemical_formula_sum "Si O2"
_cell_formula_units_Z 60
_cell_length_a 24.058165
_cell_length_b 11.619046
_cell_length_c 10.627856
_cell_angle_alpha 90.000000
_cell_angle_beta 90.000000
_cell_angle_gamma 90.000000
_cell_volume 2970.835683
_symmetry_space_group_name_H-M "C 2 2 21"
_symmetry_group_IT_number 20
_symmetry_cell_setting 'orthorhombic'
loop_
_space_group_symop_operation_xyz
x,y,z
-x,-y,1/2+z
x,-y,-z
-x,y,1/2-z
1/2+x,1/2+y,z
1/2-x,1/2-y,1/2+z
1/2+x,1/2-y,-z
1/2-x,1/2+y,1/2-z
loop_
_atom_site_type_symbol
_atom_site_label
_atom_site_fract_x
_atom_site_fract_y
_atom_site_fract_z
Si Si1 0.989376 0.087858 0.108632
Si Si2 0.914506 0.735687 0.596207
Si Si3 0.628053 0.678847 0.347109
Si Si4 0.396421 0.000000 0.500000
Si Si5 0.797274 0.034423 0.767086
Si Si6 0.313022 0.907963 0.700183
Si Si7 0.693406 0.238230 0.423490
Si Si8 0.304856 0.307676 0.458204
O O1 0.028477 0.196708 0.088040
O O2 0.000000 0.036897 0.250000
O O3 0.925820 0.123960 0.086761
O O4 0.006456 0.000000 0.000000
O O5 0.891448 0.734118 0.738129
O O6 0.931781 0.608949 0.546660
O O7 0.866507 0.790972 0.510704
O O8 0.664050 0.575234 0.289769
O O9 0.662138 0.758286 0.443555
O O10 0.361209 0.034101 0.378474
O O11 0.811115 0.133747 0.867116
O O12 0.806537 0.075771 0.623746
O O13 0.732975 0.005273 0.783438
O O14 0.335730 0.856290 0.832721
O O15 0.286161 0.799640 0.627947
O O16 0.757099 0.191082 0.434951
#
# Coordination Sequence:
#
# PCOD8159104 Si02
#       8
#     8   8   8   4   8   8   8   8
#     4  10  23  43  69  98 126 164 212 274 331 376
#     4  10  23  41  66  88 124 167 215 264 312 385
#     4  11  23  39  64  93 128 162 204 269 329 378
#     4  10  22  44  64  82 122 170 214 250 306 382
#     4  11  21  35  59  86 127 173 204 256 321 369
#     4  10  21  35  57  85 121 167 201 249 306 375
#     4  11  22  36  55  91 129 160 207 256 319 382
#     4  10  22  34  55  91 125 162 216 249 305 383
#
# _framework density 20.196338000000001
#
# number of rings (size 3 to 8) (size 9 to 14) (size 15 to 20)
#    0.000    1.600    1.333    3.600    7.467    1.600 
#    2.400    0.000    8.800    0.000    0.000    0.000 
#    0.000    0.000    0.000    0.000    0.000    0.000 
#
# Total GULP energy -371996.992961 kJ/mol
# GULP energy per Si atom -12399.899765 kJ/mol
# Density = 2.015037 g / cm^3
# Si number density = 20.196338 Si / 1000 Ang^3
#
#
#
# Elastic Constant Matrix: (Units=GPa)
#
#
# Indices 1 2 3 4 5 6 
#
# 1 60.9511 26.6974 22.5401 0.0000 0.0000 0.0000
# 2 26.6974 85.7516 54.7034 0.0000 0.0000 0.0000
# 3 22.5401 54.7034 101.5812 0.0000 0.0000 0.0000
# 4 0.0000 0.0000 0.0000 35.4203 0.0000 0.0000
# 5 0.0000 0.0000 0.0000 0.0000 25.3065 0.0000
# 6 0.0000 0.0000 0.0000 0.0000 0.0000 13.9908
#
#
#
# Elastic Compliance Matrix: (Units=1/GPa)
#
#
# Indices 1 2 3 4 5 6 
#
# 1 0.019163 -0.004956 -0.001583 0.000000 0.000000 0.000000
# 2 -0.004956 0.019046 -0.009157 0.000000 0.000000 0.000000
# 3 -0.001583 -0.009157 0.015127 0.000000 0.000000 0.000000
# 4 0.000000 0.000000 0.000000 0.028232 0.000000 0.000000
# 5 0.000000 0.000000 0.000000 0.000000 0.039516 0.000000
# 6 0.000000 0.000000 0.000000 0.000000 0.000000 0.071476
#
#
# Mechanical properties :
#
#
# Convention : Reuss Voigt Hill
#
# Bulk Modulus (GPa) = 45.57185 50.68508 48.12847
# Shear Modulus (GPa) = 21.62009 24.56639 23.09324
#
# Velocity S-wave (km/s) = 3.27539 3.49145 3.38514
# Velocity P-wave (km/s) = 6.07599 6.43461 6.25787
#
# Compressibility (1/GPa) = 0.02194337
#
# Stress axis : x y z
#
# Youngs Moduli (GPa) = 52.18415 52.50419 66.10782
#
# Poissons Ratio (x) = 0.26022 0.10466
# Poissons Ratio (y) = 0.25863 0.60535
# Poissons Ratio (z) = 0.08261 0.48078
#
# Static dielectric constant tensor:
#      x y z
#    x 3.411360 0.000000 0.000000 
#    y 0.000000 3.717630 0.000000 
#    z 0.000000 0.000000 3.940300 
# 
# 
# High freq. dielectric constant tensor:
#      x y z
#    x 1.765650 0.000000 0.000000 
#    y 0.000000 1.788330 0.000000 
#    z 0.000000 0.000000 1.804890 
# 
# From -- ./inp_files/16363.got.cif
#   From: 2010.03.12/outbox.cif.g09.slc.cpg/sg20_9_cif.got.tgz:16363.got - 2010.04.14 01:38:04.
