data_PCOD8159278
_publ_section_title
;
Structure prediction by ZEFSAII (Michael W. Deem and Ramdas Pophale) SiO2 
 PCOD8159278
Probable space group: C 2 2 21
;
_chemical_formula_sum "Si O2"
_cell_formula_units_Z 52
_cell_length_a 8.406408
_cell_length_b 15.060734
_cell_length_c 18.973515
_cell_angle_alpha 90.000000
_cell_angle_beta 90.000000
_cell_angle_gamma 90.000000
_cell_volume 2402.173643
_symmetry_space_group_name_H-M "C 2 2 21"
_symmetry_group_IT_number 20
_symmetry_cell_setting 'orthorhombic'
loop_
_space_group_symop_operation_xyz
x,y,z
-x,-y,1/2+z
x,-y,-z
-x,y,1/2-z
1/2+x,1/2+y,z
1/2-x,1/2-y,1/2+z
1/2+x,1/2-y,-z
1/2-x,1/2+y,1/2-z
loop_
_atom_site_type_symbol
_atom_site_label
_atom_site_fract_x
_atom_site_fract_y
_atom_site_fract_z
Si Si1 0.468601 0.264142 0.464854
Si Si2 0.266475 0.157749 0.362965
Si Si3 0.779437 0.940504 0.433384
Si Si4 0.692154 0.683995 0.654088
Si Si5 0.955214 0.692191 0.883909
Si Si6 0.000000 0.309340 0.750000
Si Si7 0.537879 0.504746 0.330017
O O1 0.362682 0.182495 0.434370
O O2 0.373540 0.355778 0.462024
O O3 0.631097 0.279044 0.420916
O O4 0.518760 0.243661 0.543214
O O5 0.166833 0.245878 0.339789
O O6 0.399234 0.131699 0.304578
O O7 0.148165 0.075226 0.371476
O O8 0.618169 0.905712 0.396245
O O9 0.732422 0.000000 0.500000
O O10 0.876813 0.996706 0.375489
O O11 0.631225 0.748686 0.713742
O O12 0.629069 0.587195 0.672246
O O13 0.881951 0.681238 0.657850
O O14 0.500000 0.536420 0.250000
#
# Coordination Sequence:
#
# PCOD8159278 Si02
#       7
#     8   8   8   8   8   4   8
#     4   9  20  41  65  92 126 162 213 258 312 381
#     4  10  23  41  63  92 123 166 214 253 321 371
#     4  10  22  41  63  92 132 168 208 268 322 375
#     4  10  21  39  65  86 128 165 204 261 312 373
#     4  11  22  38  66  99 121 167 213 259 319 387
#     4  10  22  44  58  88 120 168 208 262 300 382
#     4  11  24  43  61  90 130 174 210 262 323 380
#
# _framework density 21.647061000000001
#
# number of rings (size 3 to 8) (size 9 to 14) (size 15 to 20)
#    0.000    1.846    0.769    3.692    2.154    2.462 
#    5.538    0.769    0.000    0.000    0.000    0.000 
#    0.000    0.000    0.000    0.000    0.000    0.000 
#
# Total GULP energy -322386.381659 kJ/mol
# GULP energy per Si atom -12399.476218 kJ/mol
# Density = 2.159779 g / cm^3
# Si number density = 21.647061 Si / 1000 Ang^3
#
#
#
# Elastic Constant Matrix: (Units=GPa)
#
#
# Indices 1 2 3 4 5 6 
#
# 1 127.7454 16.6626 22.2400 0.0000 0.0000 0.0000
# 2 16.6626 62.3422 10.0308 0.0000 0.0000 0.0000
# 3 22.2400 10.0308 64.9117 0.0000 0.0000 0.0000
# 4 0.0000 0.0000 0.0000 94.2574 0.0000 0.0000
# 5 0.0000 0.0000 0.0000 0.0000 28.1895 0.0000
# 6 0.0000 0.0000 0.0000 0.0000 0.0000 33.8301
#
#
#
# Elastic Compliance Matrix: (Units=1/GPa)
#
#
# Indices 1 2 3 4 5 6 
#
# 1 0.008529 -0.001856 -0.002635 0.000000 0.000000 0.000000
# 2 -0.001856 0.016853 -0.001969 0.000000 0.000000 0.000000
# 3 -0.002635 -0.001969 0.016613 0.000000 0.000000 0.000000
# 4 0.000000 0.000000 0.000000 0.010609 0.000000 0.000000
# 5 0.000000 0.000000 0.000000 0.000000 0.035474 0.000000
# 6 0.000000 0.000000 0.000000 0.000000 0.000000 0.029559
#
#
# Mechanical properties :
#
#
# Convention : Reuss Voigt Hill
#
# Bulk Modulus (GPa) = 34.39296 39.20732 36.80014
# Shear Modulus (GPa) = 35.65094 44.99312 40.32203
#
# Velocity S-wave (km/s) = 4.06263 4.56399 4.32059
# Velocity P-wave (km/s) = 6.15866 6.77678 6.47510
#
# Compressibility (1/GPa) = 0.02907572
#
# Stress axis : x y z
#
# Youngs Moduli (GPa) = 117.24812 59.33599 60.19489
#
# Poissons Ratio (x) = 0.11010 0.15864
# Poissons Ratio (y) = 0.21756 0.11850
# Poissons Ratio (z) = 0.30900 0.11681
#
# Static dielectric constant tensor:
#      x y z
#    x 3.566730 0.000000 0.000000 
#    y 0.000000 3.729340 0.000000 
#    z 0.000000 0.000000 3.769950 
# 
# 
# High freq. dielectric constant tensor:
#      x y z
#    x 1.864380 0.000000 0.000000 
#    y 0.000000 1.834210 0.000000 
#    z 0.000000 0.000000 1.846320 
# 
# From -- ./inp_files/26660.got.cif
#   From: 2010.03.12/outbox.cif.g09.slc.cpg/sg20_14_cif.got.tgz:26660.got - 2010.04.14 01:38:04.
