data_PCOD8159803
_publ_section_title
;
Structure prediction by ZEFSAII (Michael W. Deem and Ramdas Pophale) SiO2 
 PCOD8159803
Probable space group: C 2 2 21
;
_chemical_formula_sum "Si O2"
_cell_formula_units_Z 32
_cell_length_a 8.389041
_cell_length_b 18.893423
_cell_length_c 9.616053
_cell_angle_alpha 90.000000
_cell_angle_beta 90.000000
_cell_angle_gamma 90.000000
_cell_volume 1524.122285
_symmetry_space_group_name_H-M "C 2 2 21"
_symmetry_group_IT_number 20
_symmetry_cell_setting 'orthorhombic'
loop_
_space_group_symop_operation_xyz
x,y,z
-x,-y,1/2+z
x,-y,-z
-x,y,1/2-z
1/2+x,1/2+y,z
1/2-x,1/2-y,1/2+z
1/2+x,1/2-y,-z
1/2-x,1/2+y,1/2-z
loop_
_atom_site_type_symbol
_atom_site_label
_atom_site_fract_x
_atom_site_fract_y
_atom_site_fract_z
Si Si1 0.500000 0.917019 0.250000
Si Si2 0.918858 0.787153 0.941500
Si Si3 0.353797 0.000000 0.000000
Si Si4 0.956538 0.942965 0.600853
Si Si5 0.703782 0.211955 0.810569
O O1 0.531597 0.965099 0.385121
O O2 0.341390 0.868842 0.271779
O O3 0.786677 0.761627 0.826975
O O4 0.965225 0.867088 0.913379
O O5 0.068518 0.736839 0.918630
O O6 0.866347 0.782028 0.102396
O O7 0.235811 0.941473 0.927705
O O8 0.000000 0.973683 0.750000
O O9 0.040145 0.000000 0.500000
#
# Coordination Sequence:
#
# PCOD8159803 Si02
#       5
#     4   8   4   8   8
#     4  10  24  46  62  98 134 170 230 272 336 396
#     4  10  22  43  64  95 132 167 221 268 334 395
#     4  10  26  42  64  96 140 174 222 276 336 400
#     4  10  23  40  66  98 130 175 222 272 329 405
#     4  10  24  41  67  93 132 169 221 277 321 405
#
# _framework density 20.99569
#
# number of rings (size 3 to 8) (size 9 to 14) (size 15 to 20)
#    0.750    1.500    2.500    0.000   10.500    3.000 
#    0.000    0.000    0.000    0.000    0.000    0.000 
#    0.000    0.000    0.000    0.000    0.000    0.000 
#
# Total GULP energy -198237.201245 kJ/mol
# GULP energy per Si atom -12389.825078 kJ/mol
# Density = 2.094790 g / cm^3
# Si number density = 20.995690 Si / 1000 Ang^3
#
#
#
# Elastic Constant Matrix: (Units=GPa)
#
#
# Indices 1 2 3 4 5 6 
#
# 1 19.0205 19.3822 31.6286 0.0000 0.0000 0.0000
# 2 19.3822 130.1243 72.1880 0.0000 0.0000 0.0000
# 3 31.6286 72.1880 127.9929 0.0000 0.0000 0.0000
# 4 0.0000 0.0000 0.0000 35.4262 0.0000 0.0000
# 5 0.0000 0.0000 0.0000 0.0000 52.8011 0.0000
# 6 0.0000 0.0000 0.0000 0.0000 0.0000 -3.9694
#
#
#
# Elastic Compliance Matrix: (Units=1/GPa)
#
#
# Indices 1 2 3 4 5 6 
#
# 1 0.089461 -0.001545 -0.021236 0.000000 0.000000 0.000000
# 2 -0.001545 0.011211 -0.005941 0.000000 0.000000 0.000000
# 3 -0.021236 -0.005941 0.016411 0.000000 0.000000 0.000000
# 4 0.000000 0.000000 0.000000 0.028228 0.000000 0.000000
# 5 0.000000 0.000000 0.000000 0.000000 0.018939 0.000000
# 6 0.000000 0.000000 0.000000 0.000000 0.000000 -0.251928
#
#
# Mechanical properties :
#
#
# Convention : Reuss Voigt Hill
#
# Bulk Modulus (GPa) = 16.76722 58.17059 37.46890
# Shear Modulus (GPa) = -482.87090 27.11418 -227.87836
#
# Velocity S-wave (km/s) = -15.18173 3.59753 -10.42935
# Velocity P-wave (km/s) = 17.30058 6.70987 11.27581
#
# Compressibility (1/GPa) = 0.05964017
#
# Stress axis : x y z
#
# Youngs Moduli (GPa) = 11.17807 89.19758 60.93303
#
# Poissons Ratio (x) = 0.13777 1.29396
# Poissons Ratio (y) = 0.01727 0.36203
# Poissons Ratio (z) = 0.23737 0.52996
#
# Static dielectric constant tensor:
#      x y z
#    x 3.501800 0.000000 0.000000 
#    y 0.000000 3.742300 0.000000 
#    z 0.000000 0.000000 3.895630 
# 
# 
# High freq. dielectric constant tensor:
#      x y z
#    x 1.790400 0.000000 0.000000 
#    y 0.000000 1.821700 0.000000 
#    z 0.000000 0.000000 1.836720 
# 
# From -- ./inp_files/7005.got.cif
#   From: 2010.03.12/outbox.cif.g09.slc.cpg/sg20_4_cif.got.tgz:7005.got - 2010.04.14 01:38:04.
