data_PCOD8159091
_publ_section_title
;
Structure prediction by ZEFSAII (Michael W. Deem and Ramdas Pophale) SiO2 
 PCOD8159091
Probable space group: C 2 2 21
;
_chemical_formula_sum "Si O2"
_cell_formula_units_Z 60
_cell_length_a 12.511823
_cell_length_b 30.216744
_cell_length_c 9.010311
_cell_angle_alpha 90.000000
_cell_angle_beta 90.000000
_cell_angle_gamma 90.000000
_cell_volume 3406.497217
_symmetry_space_group_name_H-M "C 2 2 21"
_symmetry_group_IT_number 20
_symmetry_cell_setting 'orthorhombic'
loop_
_space_group_symop_operation_xyz
x,y,z
-x,-y,1/2+z
x,-y,-z
-x,y,1/2-z
1/2+x,1/2+y,z
1/2-x,1/2-y,1/2+z
1/2+x,1/2-y,-z
1/2-x,1/2+y,1/2-z
loop_
_atom_site_type_symbol
_atom_site_label
_atom_site_fract_x
_atom_site_fract_y
_atom_site_fract_z
Si Si1 0.664221 0.745938 0.287064
Si Si2 0.474472 0.741172 0.496494
Si Si3 0.384991 0.597804 0.821868
Si Si4 0.688434 0.325411 0.119937
Si Si5 0.390361 0.503170 0.829739
Si Si6 0.225535 0.340488 0.691740
Si Si7 0.613404 0.593725 0.330799
Si Si8 0.500000 0.812433 0.750000
O O1 0.591240 0.730517 0.427260
O O2 0.598081 0.756737 0.139857
O O3 0.729653 0.789120 0.324725
O O4 0.748539 0.708294 0.250133
O O5 0.425878 0.697436 0.577449
O O6 0.480965 0.781847 0.607694
O O7 0.500000 0.598035 0.750000
O O8 0.319223 0.637807 0.748715
O O9 0.326078 0.549270 0.795144
O O10 0.403130 0.603555 0.996508
O O11 0.740683 0.348499 0.977695
O O12 0.500000 0.509224 0.750000
O O13 0.340918 0.455440 0.786994
O O14 0.419919 0.500000 0.000000
O O15 0.290591 0.375343 0.785396
O O16 0.098790 0.345425 0.717103
O O17 0.500000 0.603978 0.250000
#
# Coordination Sequence:
#
# PCOD8159091 Si02
#       8
#     8   8   8   8   8   8   8   4
#     4  10  22  39  54  74 110 145 189 225 279 320
#     4  10  23  37  54  74 106 149 179 235 272 318
#     4  10  21  32  55  85 114 143 180 222 280 346
#     4  11  22  36  54  82 111 145 188 226 272 335
#     4   8  16  34  52  79 111 144 170 214 280 344
#     4  11  24  35  53  80 109 147 190 227 271 327
#     4  10  21  36  58  81 116 145 178 226 282 332
#     4  12  22  38  54  74 108 146 192 226 270 318
#
# _framework density 17.613399999999999
#
# number of rings (size 3 to 8) (size 9 to 14) (size 15 to 20)
#    0.000    1.867    2.667    0.800    8.400    1.067 
#    0.000    0.000    0.000    0.000    0.000    7.467 
#    0.000    0.000    0.000    0.000    0.000    0.000 
#
# Total GULP energy -371696.338506 kJ/mol
# GULP energy per Si atom -12389.877950 kJ/mol
# Density = 1.757331 g / cm^3
# Si number density = 17.613400 Si / 1000 Ang^3
#
#
#
# Elastic Constant Matrix: (Units=GPa)
#
#
# Indices 1 2 3 4 5 6 
#
# 1 90.4260 44.9947 35.3423 0.0000 0.0000 0.0000
# 2 44.9947 88.8483 49.3156 0.0000 0.0000 0.0000
# 3 35.3423 49.3156 88.0977 0.0000 0.0000 0.0000
# 4 0.0000 0.0000 0.0000 82.3253 0.0000 0.0000
# 5 0.0000 0.0000 0.0000 0.0000 14.9647 0.0000
# 6 0.0000 0.0000 0.0000 0.0000 0.0000 -58.0394
#
#
#
# Elastic Compliance Matrix: (Units=1/GPa)
#
#
# Indices 1 2 3 4 5 6 
#
# 1 0.015182 -0.006250 -0.002592 0.000000 0.000000 0.000000
# 2 -0.006250 0.018901 -0.008073 0.000000 0.000000 0.000000
# 3 -0.002592 -0.008073 0.016910 0.000000 0.000000 0.000000
# 4 0.000000 0.000000 0.000000 0.012147 0.000000 0.000000
# 5 0.000000 0.000000 0.000000 0.000000 0.066824 0.000000
# 6 0.000000 0.000000 0.000000 0.000000 0.000000 -0.017230
#
#
# Mechanical properties :
#
#
# Convention : Reuss Voigt Hill
#
# Bulk Modulus (GPa) = 58.26485 58.51969 58.39227
# Shear Modulus (GPa) = 32.83313 17.03142 24.93228
#
# Velocity S-wave (km/s) = 4.32221 3.11297 3.76643
# Velocity P-wave (km/s) = 7.61973 6.79834 7.22072
#
# Compressibility (1/GPa) = 0.01716301
#
# Stress axis : x y z
#
# Youngs Moduli (GPa) = 65.86959 52.90661 59.13577
#
# Poissons Ratio (x) = 0.33064 0.15328
# Poissons Ratio (y) = 0.41165 0.47743
# Poissons Ratio (z) = 0.17073 0.42714
#
# Static dielectric constant tensor:
#      x y z
#    x 3.154230 0.000000 0.000000 
#    y 0.000000 3.745590 0.000000 
#    z 0.000000 0.000000 3.833100 
# 
# 
# High freq. dielectric constant tensor:
#      x y z
#    x 1.648000 0.000000 0.000000 
#    y 0.000000 1.678420 0.000000 
#    z 0.000000 0.000000 1.703270 
# 
# From -- ./inp_files/7651.got.cif
#   From: 2010.03.12/outbox.cif.g09.slc.cpg/sg20_4_cif.got.tgz:7651.got - 2010.04.14 01:38:04.
