data_PCOD8159754
_publ_section_title
;
Structure prediction by ZEFSAII (Michael W. Deem and Ramdas Pophale) SiO2 
 PCOD8159754
Probable space group: C 2 2 21
;
_chemical_formula_sum "Si O2"
_cell_formula_units_Z 64
_cell_length_a 8.656797
_cell_length_b 12.096693
_cell_length_c 28.529746
_cell_angle_alpha 90.000000
_cell_angle_beta 90.000000
_cell_angle_gamma 90.000000
_cell_volume 2987.595507
_symmetry_space_group_name_H-M "C 2 2 21"
_symmetry_group_IT_number 20
_symmetry_cell_setting 'orthorhombic'
loop_
_space_group_symop_operation_xyz
x,y,z
-x,-y,1/2+z
x,-y,-z
-x,y,1/2-z
1/2+x,1/2+y,z
1/2-x,1/2-y,1/2+z
1/2+x,1/2-y,-z
1/2-x,1/2+y,1/2-z
loop_
_atom_site_type_symbol
_atom_site_label
_atom_site_fract_x
_atom_site_fract_y
_atom_site_fract_z
Si Si1 0.243345 0.750169 0.854341
Si Si2 0.021666 0.892027 0.029516
Si Si3 0.490911 0.834697 0.085462
Si Si4 0.353499 0.822787 0.991149
Si Si5 0.236618 0.288203 0.862627
Si Si6 0.456270 0.921868 0.896726
Si Si7 0.483368 0.596339 0.640385
Si Si8 0.496344 0.376959 0.804158
O O1 0.156524 0.719173 0.902858
O O2 0.344950 0.860474 0.860091
O O3 0.350948 0.644841 0.842730
O O4 0.114954 0.775108 0.814399
O O5 0.181539 0.840407 0.010824
O O6 0.032725 0.921094 0.084496
O O7 0.883578 0.803888 0.023998
O O8 0.977351 0.000000 0.000000
O O9 0.479649 0.855890 0.030381
O O10 0.362012 0.745608 0.098989
O O11 0.463770 0.948242 0.114368
O O12 0.387372 0.904912 0.948432
O O13 0.145096 0.183142 0.842673
O O14 0.321850 0.344633 0.818465
O O15 0.127311 0.372563 0.890702
O O16 0.449963 0.481417 0.665410
O O17 0.500000 0.407816 0.750000
#
# Coordination Sequence:
#
# PCOD8159754 Si02
#       8
#     8   8   8   8   8   8   8   8
#     4  10  23  41  65  91 129 165 214 265 329 389
#     4  12  27  41  63  98 139 184 225 264 310 379
#     4  11  21  35  60  90 127 178 209 266 302 366
#     4  12  23  39  61  96 137 178 231 257 304 380
#     4  10  22  42  65  92 131 164 217 265 331 389
#     4  11  21  40  60  92 130 175 216 257 314 375
#     4  11  23  45  67  97 132 179 215 269 334 388
#     4  11  26  45  72  99 122 164 219 283 350 403
#
# _framework density 21.421908999999999
#
# number of rings (size 3 to 8) (size 9 to 14) (size 15 to 20)
#    0.000    1.000    3.750    3.375    5.250    1.000 
#    2.250    2.500    0.000    0.000    0.000    0.000 
#    0.000    0.000    0.000    0.000    0.000    0.000 
#
# Total GULP energy -396834.296023 kJ/mol
# GULP energy per Si atom -12401.071751 kJ/mol
# Density = 2.137315 g / cm^3
# Si number density = 21.421909 Si / 1000 Ang^3
#
#
#
# Elastic Constant Matrix: (Units=GPa)
#
#
# Indices 1 2 3 4 5 6 
#
# 1 90.5724 17.1775 30.1269 0.0000 0.0000 0.0000
# 2 17.1775 84.2194 34.8670 0.0000 0.0000 0.0000
# 3 30.1269 34.8670 100.9929 0.0000 0.0000 0.0000
# 4 0.0000 0.0000 0.0000 22.8430 0.0000 0.0000
# 5 0.0000 0.0000 0.0000 0.0000 22.9139 0.0000
# 6 0.0000 0.0000 0.0000 0.0000 0.0000 25.8784
#
#
#
# Elastic Compliance Matrix: (Units=1/GPa)
#
#
# Indices 1 2 3 4 5 6 
#
# 1 0.012353 -0.001160 -0.003285 0.000000 0.000000 0.000000
# 2 -0.001160 0.013963 -0.004475 0.000000 0.000000 0.000000
# 3 -0.003285 -0.004475 0.012426 0.000000 0.000000 0.000000
# 4 0.000000 0.000000 0.000000 0.043777 0.000000 0.000000
# 5 0.000000 0.000000 0.000000 0.000000 0.043642 0.000000
# 6 0.000000 0.000000 0.000000 0.000000 0.000000 0.038642
#
#
# Mechanical properties :
#
#
# Convention : Reuss Voigt Hill
#
# Bulk Modulus (GPa) = 47.83667 48.90307 48.36987
# Shear Modulus (GPa) = 26.36994 27.23461 26.80227
#
# Velocity S-wave (km/s) = 3.51234 3.56946 3.54101
# Velocity P-wave (km/s) = 6.23120 6.31396 6.27272
#
# Compressibility (1/GPa) = 0.02090447
#
# Stress axis : x y z
#
# Youngs Moduli (GPa) = 80.94918 71.61902 80.47408
#
# Poissons Ratio (x) = 0.08306 0.26433
# Poissons Ratio (y) = 0.09388 0.36009
# Poissons Ratio (z) = 0.26590 0.32047
#
# Static dielectric constant tensor:
#      x y z
#    x 4.105110 0.000000 0.000000 
#    y 0.000000 3.967190 0.000000 
#    z 0.000000 0.000000 3.503790 
# 
# 
# High freq. dielectric constant tensor:
#      x y z
#    x 1.856700 0.000000 0.000000 
#    y 0.000000 1.849190 0.000000 
#    z 0.000000 0.000000 1.801960 
# 
# From -- ./inp_files/31087.got.cif
#   From: 2010.03.12/outbox.cif.g09.slc.cpg/sg20_16_cif.got.tgz:31087.got - 2010.04.14 01:38:04.
