data_PCOD8159336
_publ_section_title
;
Structure prediction by ZEFSAII (Michael W. Deem and Ramdas Pophale) SiO2 
 PCOD8159336
Probable space group: C 2 2 21
;
_chemical_formula_sum "Si O2"
_cell_formula_units_Z 60
_cell_length_a 8.333725
_cell_length_b 27.138573
_cell_length_c 13.107230
_cell_angle_alpha 90.000000
_cell_angle_beta 90.000000
_cell_angle_gamma 90.000000
_cell_volume 2964.401972
_symmetry_space_group_name_H-M "C 2 2 21"
_symmetry_group_IT_number 20
_symmetry_cell_setting 'orthorhombic'
loop_
_space_group_symop_operation_xyz
x,y,z
-x,-y,1/2+z
x,-y,-z
-x,y,1/2-z
1/2+x,1/2+y,z
1/2-x,1/2-y,1/2+z
1/2+x,1/2-y,-z
1/2-x,1/2+y,1/2-z
loop_
_atom_site_type_symbol
_atom_site_label
_atom_site_fract_x
_atom_site_fract_y
_atom_site_fract_z
Si Si1 0.500000 0.251126 0.250000
Si Si2 0.133138 0.047485 0.059273
Si Si3 0.685637 0.987489 0.759031
Si Si4 0.313358 0.913389 0.360208
Si Si5 0.134640 0.616211 0.551427
Si Si6 0.548267 0.843297 0.858699
Si Si7 0.808816 0.087969 0.081510
Si Si8 0.313863 0.817964 0.234008
O O1 0.473617 0.215889 0.349449
O O2 0.669154 0.279976 0.257734
O O3 0.233495 0.031095 0.156453
O O4 0.232582 0.076491 0.974629
O O5 0.998498 0.085079 0.101536
O O6 0.061502 0.000000 0.000000
O O7 0.500000 0.981182 0.750000
O O8 0.729096 0.956386 0.858144
O O9 0.733866 0.044178 0.780327
O O10 0.503491 0.914267 0.384009
O O11 0.212724 0.920936 0.461896
O O12 0.273282 0.860714 0.313327
O O13 0.203417 0.661376 0.618847
O O14 0.066645 0.637832 0.446859
O O15 0.500000 0.868323 0.750000
O O16 0.731785 0.859570 0.884155
O O17 0.500000 0.797877 0.250000
#
# Coordination Sequence:
#
# PCOD8159336 Si02
#       8
#     4   8   8   8   8   8   8   8
#     4  10  24  46  70  94 128 172 222 286 354 404
#     4  12  24  36  57  97 135 171 224 267 327 403
#     4  12  22  37  61  89 129 178 219 264 327 399
#     4  10  21  40  65  89 129 173 218 268 331 404
#     4  10  21  41  64  93 129 173 222 272 333 407
#     4   9  21  45  64  90 126 166 224 270 336 408
#     4  11  23  39  59  90 131 169 214 273 325 397
#     4  10  22  44  68  99 130 167 224 283 341 409
#
# _framework density 20.240169000000002
#
# number of rings (size 3 to 8) (size 9 to 14) (size 15 to 20)
#    0.400    1.067    0.000    7.200    1.867    0.000 
#   12.000    0.000    0.000    0.000    0.000    0.000 
#    0.000    0.000    0.000    0.000    0.000    0.000 
#
# Total GULP energy -371805.614042 kJ/mol
# GULP energy per Si atom -12393.520468 kJ/mol
# Density = 2.019410 g / cm^3
# Si number density = 20.240169 Si / 1000 Ang^3
#
#
#
# Elastic Constant Matrix: (Units=GPa)
#
#
# Indices 1 2 3 4 5 6 
#
# 1 115.0276 71.0727 47.1077 0.0000 0.0000 0.0000
# 2 71.0727 105.4929 31.0232 0.0000 0.0000 0.0000
# 3 47.1077 31.0232 102.1988 0.0000 0.0000 0.0000
# 4 0.0000 0.0000 0.0000 32.6979 0.0000 0.0000
# 5 0.0000 0.0000 0.0000 0.0000 16.8657 0.0000
# 6 0.0000 0.0000 0.0000 0.0000 0.0000 36.2478
#
#
#
# Elastic Compliance Matrix: (Units=1/GPa)
#
#
# Indices 1 2 3 4 5 6 
#
# 1 0.016732 -0.009887 -0.004711 0.000000 0.000000 0.000000
# 2 -0.009887 0.016251 -0.000376 0.000000 0.000000 0.000000
# 3 -0.004711 -0.000376 0.012070 0.000000 0.000000 0.000000
# 4 0.000000 0.000000 0.000000 0.030583 0.000000 0.000000
# 5 0.000000 0.000000 0.000000 0.000000 0.059292 0.000000
# 6 0.000000 0.000000 0.000000 0.000000 0.000000 0.027588
#
#
# Mechanical properties :
#
#
# Convention : Reuss Voigt Hill
#
# Bulk Modulus (GPa) = 66.20160 69.01404 67.60782
# Shear Modulus (GPa) = 25.31648 28.72998 27.02323
#
# Velocity S-wave (km/s) = 3.54051 3.77165 3.65791
# Velocity P-wave (km/s) = 7.03510 7.28963 7.16350
#
# Compressibility (1/GPa) = 0.01510538
#
# Stress axis : x y z
#
# Youngs Moduli (GPa) = 59.76558 61.53452 82.84694
#
# Poissons Ratio (x) = 0.60841 0.39030
# Poissons Ratio (y) = 0.59092 0.03112
# Poissons Ratio (z) = 0.28156 0.02312
#
# Static dielectric constant tensor:
#      x y z
#    x 3.724980 0.000000 0.000000 
#    y 0.000000 3.597260 0.000000 
#    z 0.000000 0.000000 3.676140 
# 
# 
# High freq. dielectric constant tensor:
#      x y z
#    x 1.788200 0.000000 0.000000 
#    y 0.000000 1.775170 0.000000 
#    z 0.000000 0.000000 1.808010 
# 
# From -- ./inp_files/13363.got.cif
#   From: 2010.03.12/outbox.cif.g09.slc.cpg/sg20_7_cif.got.tgz:13363.got - 2010.04.14 01:38:04.
