data_PCOD8159648
_publ_section_title
;
Structure prediction by ZEFSAII (Michael W. Deem and Ramdas Pophale) SiO2 
 PCOD8159648
Probable space group: C 2 2 21
;
_chemical_formula_sum "Si O2"
_cell_formula_units_Z 40
_cell_length_a 7.532027
_cell_length_b 27.794069
_cell_length_c 9.644863
_cell_angle_alpha 90.000000
_cell_angle_beta 90.000000
_cell_angle_gamma 90.000000
_cell_volume 2019.110385
_symmetry_space_group_name_H-M "C 2 2 21"
_symmetry_group_IT_number 20
_symmetry_cell_setting 'orthorhombic'
loop_
_space_group_symop_operation_xyz
x,y,z
-x,-y,1/2+z
x,-y,-z
-x,y,1/2-z
1/2+x,1/2+y,z
1/2-x,1/2-y,1/2+z
1/2+x,1/2-y,-z
1/2-x,1/2+y,1/2-z
loop_
_atom_site_type_symbol
_atom_site_label
_atom_site_fract_x
_atom_site_fract_y
_atom_site_fract_z
Si Si1 0.514001 0.545721 0.087458
Si Si2 0.119233 0.697431 0.618871
Si Si3 0.885543 0.721598 0.380864
Si Si4 0.226102 0.379545 0.876447
Si Si5 0.168975 0.392639 0.566143
O O1 0.500000 0.532429 0.250000
O O2 0.381796 0.589969 0.052769
O O3 0.711304 0.560454 0.031311
O O4 0.450912 0.500000 0.000000
O O5 0.282911 0.730714 0.665584
O O6 0.192850 0.648903 0.548853
O O7 0.000000 0.683156 0.750000
O O8 0.013128 0.731488 0.511249
O O9 0.765966 0.675765 0.428661
O O10 0.000000 0.703339 0.250000
O O11 0.252961 0.375921 0.711650
O O12 0.039192 0.405000 0.918285
#
# Coordination Sequence:
#
# PCOD8159648 Si02
#       5
#     8   8   8   8   8
#     4  10  22  40  64  90 112 152 201 248 308 359
#     4  11  23  35  57  91 124 158 204 247 296 342
#     4  11  21  39  58  87 122 164 205 238 295 362
#     4   9  18  38  64  80 113 162 202 232 291 367
#     4   9  19  40  58  84 119 157 197 241 292 362
#
# _framework density 19.810704999999999
#
# number of rings (size 3 to 8) (size 9 to 14) (size 15 to 20)
#    0.000    2.000    4.000    1.200    2.800    1.600 
#    7.200    0.000    0.000    0.000    0.000    0.000 
#    0.000    0.000    0.000    0.000    0.000    0.000 
#
# Total GULP energy -247907.024330 kJ/mol
# GULP energy per Si atom -12395.351217 kJ/mol
# Density = 1.976561 g / cm^3
# Si number density = 19.810705 Si / 1000 Ang^3
#
#
#
# Elastic Constant Matrix: (Units=GPa)
#
#
# Indices 1 2 3 4 5 6 
#
# 1 68.9429 46.2762 34.9495 0.0000 0.0000 0.0000
# 2 46.2762 103.9552 46.5958 0.0000 0.0000 0.0000
# 3 34.9495 46.5958 74.6605 0.0000 0.0000 0.0000
# 4 0.0000 0.0000 0.0000 29.4448 0.0000 0.0000
# 5 0.0000 0.0000 0.0000 0.0000 23.7054 0.0000
# 6 0.0000 0.0000 0.0000 0.0000 0.0000 29.6719
#
#
#
# Elastic Compliance Matrix: (Units=1/GPa)
#
#
# Indices 1 2 3 4 5 6 
#
# 1 0.022427 -0.007328 -0.005925 0.000000 0.000000 0.000000
# 2 -0.007328 0.015750 -0.006399 0.000000 0.000000 0.000000
# 3 -0.005925 -0.006399 0.020161 0.000000 0.000000 0.000000
# 4 0.000000 0.000000 0.000000 0.033962 0.000000 0.000000
# 5 0.000000 0.000000 0.000000 0.000000 0.042184 0.000000
# 6 0.000000 0.000000 0.000000 0.000000 0.000000 0.033702
#
#
# Mechanical properties :
#
#
# Convention : Reuss Voigt Hill
#
# Bulk Modulus (GPa) = 52.53765 55.91127 54.22446
# Shear Modulus (GPa) = 23.38248 24.54689 23.96469
#
# Velocity S-wave (km/s) = 3.43927 3.52386 3.48182
# Velocity P-wave (km/s) = 6.50760 6.69633 6.60264
#
# Compressibility (1/GPa) = 0.01903397
#
# Stress axis : x y z
#
# Youngs Moduli (GPa) = 44.58931 63.49262 49.59964
#
# Poissons Ratio (x) = 0.46525 0.29388
# Poissons Ratio (y) = 0.32673 0.31741
# Poissons Ratio (z) = 0.26420 0.40631
#
# Static dielectric constant tensor:
#      x y z
#    x 3.763230 0.000000 0.000000 
#    y 0.000000 3.387400 0.000000 
#    z 0.000000 0.000000 3.445830 
# 
# 
# High freq. dielectric constant tensor:
#      x y z
#    x 1.772810 0.000000 0.000000 
#    y 0.000000 1.755150 0.000000 
#    z 0.000000 0.000000 1.758450 
# 
# From -- ./inp_files/6054.got.cif
#   From: 2010.03.12/outbox.cif.g09.slc.cpg/sg20_4_cif.got.tgz:6054.got - 2010.04.14 01:38:04.
