data_PCOD8159326
_publ_section_title
;
Structure prediction by ZEFSAII (Michael W. Deem and Ramdas Pophale) SiO2 
 PCOD8159326
Probable space group: C 2 2 21
;
_chemical_formula_sum "Si O2"
_cell_formula_units_Z 56
_cell_length_a 8.867446
_cell_length_b 18.367818
_cell_length_c 16.938241
_cell_angle_alpha 90.000000
_cell_angle_beta 90.000000
_cell_angle_gamma 90.000000
_cell_volume 2758.826746
_symmetry_space_group_name_H-M "C 2 2 21"
_symmetry_group_IT_number 20
_symmetry_cell_setting 'orthorhombic'
loop_
_space_group_symop_operation_xyz
x,y,z
-x,-y,1/2+z
x,-y,-z
-x,y,1/2-z
1/2+x,1/2+y,z
1/2-x,1/2-y,1/2+z
1/2+x,1/2-y,-z
1/2-x,1/2+y,1/2-z
loop_
_atom_site_type_symbol
_atom_site_label
_atom_site_fract_x
_atom_site_fract_y
_atom_site_fract_z
Si Si1 0.314758 0.841622 0.119757
Si Si2 0.109348 0.072138 0.545037
Si Si3 0.605559 0.545589 0.814700
Si Si4 0.652691 0.615880 0.209584
Si Si5 0.864216 0.167306 0.465715
Si Si6 0.824276 0.256238 0.741746
Si Si7 0.656428 0.183074 0.888368
O O1 0.255039 0.909266 0.170412
O O2 0.234765 0.770007 0.156350
O O3 0.491376 0.844190 0.134056
O O4 0.269223 0.849474 0.027947
O O5 0.253075 0.112954 0.581071
O O6 0.992977 0.037285 0.606889
O O7 0.023413 0.134762 0.495243
O O8 0.167976 0.000000 0.500000
O O9 0.500000 0.586010 0.750000
O O10 0.661184 0.469988 0.776496
O O11 0.500000 0.647378 0.250000
O O12 0.668884 0.628763 0.116586
O O13 0.790275 0.657383 0.252569
O O14 0.868148 0.254614 0.454776
O O15 0.736419 0.215337 0.811597
O O16 0.000000 0.241367 0.750000
#
# Coordination Sequence:
#
# PCOD8159326 Si02
#       7
#     8   8   8   8   8   8   8
#     4  11  22  38  65  91 124 168 216 267 323 384
#     4  11  21  39  63  92 127 169 215 261 323 389
#     4  10  21  40  65  91 123 170 211 263 326 400
#     4  10  21  40  64  90 124 165 210 262 326 391
#     4  10  21  40  64  91 126 169 215 262 324 386
#     4  11  22  40  63  89 120 162 214 266 321 391
#     4  11  23  39  62  93 129 168 212 269 321 387
#
# _framework density 20.298484999999999
#
# number of rings (size 3 to 8) (size 9 to 14) (size 15 to 20)
#    0.000    1.429    1.429    6.000    0.000    1.143 
#    2.571    4.286    0.000    0.000    0.000    0.000 
#    0.000    0.000    0.000    0.000    0.000    0.000 
#
# Total GULP energy -347136.587795 kJ/mol
# GULP energy per Si atom -12397.735278 kJ/mol
# Density = 2.025228 g / cm^3
# Si number density = 20.298485 Si / 1000 Ang^3
#
#
#
# Elastic Constant Matrix: (Units=GPa)
#
#
# Indices 1 2 3 4 5 6 
#
# 1 148.1633 51.6123 29.8769 0.0000 0.0000 0.0000
# 2 51.6123 114.0391 22.1201 0.0000 0.0000 0.0000
# 3 29.8769 22.1201 81.1090 0.0000 0.0000 0.0000
# 4 0.0000 0.0000 0.0000 29.4922 0.0000 0.0000
# 5 0.0000 0.0000 0.0000 0.0000 27.3147 0.0000
# 6 0.0000 0.0000 0.0000 0.0000 0.0000 27.7909
#
#
#
# Elastic Compliance Matrix: (Units=1/GPa)
#
#
# Indices 1 2 3 4 5 6 
#
# 1 0.008357 -0.003363 -0.002161 0.000000 0.000000 0.000000
# 2 -0.003363 0.010612 -0.001655 0.000000 0.000000 0.000000
# 3 -0.002161 -0.001655 0.013577 0.000000 0.000000 0.000000
# 4 0.000000 0.000000 0.000000 0.033907 0.000000 0.000000
# 5 0.000000 0.000000 0.000000 0.000000 0.036610 0.000000
# 6 0.000000 0.000000 0.000000 0.000000 0.000000 0.035983
#
#
# Mechanical properties :
#
#
# Convention : Reuss Voigt Hill
#
# Bulk Modulus (GPa) = 54.98577 61.16999 58.07788
# Shear Modulus (GPa) = 31.35458 32.89972 32.12715
#
# Velocity S-wave (km/s) = 3.93450 4.03028 3.98268
# Velocity P-wave (km/s) = 6.91287 7.20126 7.05854
#
# Compressibility (1/GPa) = 0.01818652
#
# Stress axis : x y z
#
# Youngs Moduli (GPa) = 119.66708 94.23308 73.65630
#
# Poissons Ratio (x) = 0.31689 0.15917
# Poissons Ratio (y) = 0.40242 0.12193
# Poissons Ratio (z) = 0.25861 0.15599
#
# Static dielectric constant tensor:
#      x y z
#    x 3.576430 0.000000 0.000000 
#    y 0.000000 3.824270 0.000000 
#    z 0.000000 0.000000 3.833650 
# 
# 
# High freq. dielectric constant tensor:
#      x y z
#    x 1.780040 0.000000 0.000000 
#    y 0.000000 1.797650 0.000000 
#    z 0.000000 0.000000 1.801780 
# 
# From -- ./inp_files/19210.got.cif
#   From: 2010.03.12/outbox.cif.g09.slc.cpg/sg20_10_cif.got.tgz:19210.got - 2010.04.14 01:38:04.
