data_PCOD8159936
_publ_section_title
;
Structure prediction by ZEFSAII (Michael W. Deem and Ramdas Pophale) SiO2 
 PCOD8159936
Probable space group: C 2 2 21
;
_chemical_formula_sum "Si O2"
_cell_formula_units_Z 64
_cell_length_a 13.509805
_cell_length_b 18.611178
_cell_length_c 11.963555
_cell_angle_alpha 90.000000
_cell_angle_beta 90.000000
_cell_angle_gamma 90.000000
_cell_volume 3008.037137
_symmetry_space_group_name_H-M "C 2 2 21"
_symmetry_group_IT_number 20
_symmetry_cell_setting 'orthorhombic'
loop_
_space_group_symop_operation_xyz
x,y,z
-x,-y,1/2+z
x,-y,-z
-x,y,1/2-z
1/2+x,1/2+y,z
1/2-x,1/2-y,1/2+z
1/2+x,1/2-y,-z
1/2-x,1/2+y,1/2-z
loop_
_atom_site_type_symbol
_atom_site_label
_atom_site_fract_x
_atom_site_fract_y
_atom_site_fract_z
Si Si1 0.360376 0.804246 0.463387
Si Si2 0.304376 0.419912 0.984386
Si Si3 0.419652 0.795699 0.980529
Si Si4 0.909458 0.153581 0.832296
Si Si5 0.785645 0.849939 0.551347
Si Si6 0.105928 0.340921 0.280228
Si Si7 0.715125 0.420214 0.170398
Si Si8 0.117122 0.932260 0.754895
O O1 0.285744 0.865713 0.500147
O O2 0.466346 0.822985 0.522119
O O3 0.321097 0.726172 0.500311
O O4 0.359922 0.798026 0.329246
O O5 0.349349 0.404847 0.864505
O O6 0.262546 0.500000 0.000000
O O7 0.392661 0.409148 0.075544
O O8 0.394474 0.785535 0.113173
O O9 0.413758 0.725730 0.903425
O O10 0.334622 0.848571 0.929446
O O11 0.818668 0.148673 0.745702
O O12 0.000000 0.137683 0.750000
O O13 0.813263 0.909871 0.458929
O O14 0.847764 0.870489 0.660284
O O15 0.166880 0.413115 0.312617
O O16 0.000000 0.373680 0.250000
O O17 0.671119 0.493979 0.213712
O O18 0.000000 0.943077 0.750000
#
# Coordination Sequence:
#
# PCOD8159936 Si02
#       8
#     8   8   8   8   8   8   8   8
#     4  11  22  42  69 104 136 184 230 291 359 425
#     4  12  26  47  69  99 140 183 241 294 354 434
#     4  10  23  41  67 104 137 182 229 288 353 425
#     4  12  24  41  67  99 138 183 227 287 361 419
#     4  11  25  42  68 100 142 180 235 298 356 429
#     4   9  19  38  68  96 135 180 233 280 348 424
#     4  11  22  45  64  96 138 185 231 289 353 429
#     4  12  29  43  67  98 139 185 236 297 358 435
#
# _framework density 21.276333000000001
#
# number of rings (size 3 to 8) (size 9 to 14) (size 15 to 20)
#    0.000    1.000    3.750    1.500    5.250    2.500 
#    0.000    5.000    0.000    0.000    0.000    0.000 
#    0.000    0.000    0.000    0.000    0.000    0.000 
#
# Total GULP energy -396419.545573 kJ/mol
# GULP energy per Si atom -12388.110799 kJ/mol
# Density = 2.122791 g / cm^3
# Si number density = 21.276333 Si / 1000 Ang^3
#
#
#
# Elastic Constant Matrix: (Units=GPa)
#
#
# Indices 1 2 3 4 5 6 
#
# 1 129.5598 55.1996 57.1610 0.0000 0.0000 0.0000
# 2 55.1996 104.5560 46.4360 0.0000 0.0000 0.0000
# 3 57.1610 46.4360 123.4195 0.0000 0.0000 0.0000
# 4 0.0000 0.0000 0.0000 30.3805 0.0000 0.0000
# 5 0.0000 0.0000 0.0000 0.0000 39.2561 0.0000
# 6 0.0000 0.0000 0.0000 0.0000 0.0000 18.0577
#
#
#
# Elastic Compliance Matrix: (Units=1/GPa)
#
#
# Indices 1 2 3 4 5 6 
#
# 1 0.011105 -0.004296 -0.003527 0.000000 0.000000 0.000000
# 2 -0.004296 0.013145 -0.002956 0.000000 0.000000 0.000000
# 3 -0.003527 -0.002956 0.010848 0.000000 0.000000 0.000000
# 4 0.000000 0.000000 0.000000 0.032916 0.000000 0.000000
# 5 0.000000 0.000000 0.000000 0.000000 0.025474 0.000000
# 6 0.000000 0.000000 0.000000 0.000000 0.000000 0.055378
#
#
# Mechanical properties :
#
#
# Convention : Reuss Voigt Hill
#
# Bulk Modulus (GPa) = 73.85514 75.01427 74.43471
# Shear Modulus (GPa) = 28.58164 30.78811 29.68488
#
# Velocity S-wave (km/s) = 3.66916 3.80815 3.73930
# Velocity P-wave (km/s) = 7.26209 7.39390 7.32829
#
# Compressibility (1/GPa) = 0.01354002
#
# Stress axis : x y z
#
# Youngs Moduli (GPa) = 90.05023 76.07233 92.18319
#
# Poissons Ratio (x) = 0.32684 0.32510
# Poissons Ratio (y) = 0.38690 0.27249
# Poissons Ratio (z) = 0.31757 0.22487
#
# Static dielectric constant tensor:
#      x y z
#    x 4.365890 0.000000 0.000000 
#    y 0.000000 3.529150 0.000000 
#    z 0.000000 0.000000 4.240080 
# 
# 
# High freq. dielectric constant tensor:
#      x y z
#    x 1.849720 0.000000 0.000000 
#    y 0.000000 1.804540 0.000000 
#    z 0.000000 0.000000 1.854050 
# 
# From -- ./inp_files/15336.got.cif
#   From: 2010.03.12/outbox.cif.g09.slc.cpg/sg20_8_cif.got.tgz:15336.got - 2010.04.14 01:38:04.
