data_PCOD8159086
_publ_section_title
;
Structure prediction by ZEFSAII (Michael W. Deem and Ramdas Pophale) SiO2 
 PCOD8159086
Probable space group: C 2 2 21
;
_chemical_formula_sum "Si O2"
_cell_formula_units_Z 60
_cell_length_a 8.794896
_cell_length_b 15.895312
_cell_length_c 19.649887
_cell_angle_alpha 90.000000
_cell_angle_beta 90.000000
_cell_angle_gamma 90.000000
_cell_volume 2747.007356
_symmetry_space_group_name_H-M "C 2 2 21"
_symmetry_group_IT_number 20
_symmetry_cell_setting 'orthorhombic'
loop_
_space_group_symop_operation_xyz
x,y,z
-x,-y,1/2+z
x,-y,-z
-x,y,1/2-z
1/2+x,1/2+y,z
1/2-x,1/2-y,1/2+z
1/2+x,1/2-y,-z
1/2-x,1/2+y,1/2-z
loop_
_atom_site_type_symbol
_atom_site_label
_atom_site_fract_x
_atom_site_fract_y
_atom_site_fract_z
Si Si1 0.114139 0.512985 0.392235
Si Si2 0.270586 0.036170 0.619140
Si Si3 0.707594 0.637701 0.027505
Si Si4 0.649271 0.777244 0.136085
Si Si5 0.328518 0.048922 0.252754
Si Si6 0.313314 0.821515 0.108473
Si Si7 0.669659 0.240269 0.230969
Si Si8 0.458477 0.500000 0.000000
O O1 0.159628 0.570278 0.456361
O O2 0.209918 0.550173 0.327329
O O3 0.182057 0.421171 0.398339
O O4 0.931055 0.512807 0.390821
O O5 0.284345 0.135605 0.606930
O O6 0.145260 0.002323 0.567396
O O7 0.227903 0.012812 0.698361
O O8 0.694905 0.697215 0.092497
O O9 0.556179 0.585525 0.007390
O O10 0.758930 0.702459 0.967624
O O11 0.467912 0.780060 0.134103
O O12 0.707021 0.766751 0.212915
O O13 0.500000 0.012268 0.250000
O O14 0.316623 0.141530 0.284633
O O15 0.189031 0.792111 0.161964
O O16 0.500000 0.264728 0.250000
#
# Coordination Sequence:
#
# PCOD8159086 Si02
#       8
#     8   8   8   8   8   8   8   4
#     4  10  20  47  72  95 131 187 236 277 354 429
#     4  10  25  42  73  99 134 182 240 291 346 433
#     4  12  26  45  69 102 146 183 231 297 349 418
#     4  11  26  45  69 104 138 185 236 285 354 429
#     4   9  19  41  69  98 130 177 226 283 342 419
#     4  11  25  43  69  96 140 186 228 283 354 423
#     4  11  24  41  69 103 138 176 233 298 351 418
#     4  12  28  44  64 108 144 182 238 300 358 416
#
# _framework density 21.841950000000001
#
# number of rings (size 3 to 8) (size 9 to 14) (size 15 to 20)
#    0.000    1.333    2.667    1.200    9.333    2.133 
#    0.000    0.667    0.000    0.000    0.000    0.000 
#    0.000    0.000    0.000    0.000    0.000    0.000 
#
# Total GULP energy -371847.785926 kJ/mol
# GULP energy per Si atom -12394.926198 kJ/mol
# Density = 2.179224 g / cm^3
# Si number density = 21.841950 Si / 1000 Ang^3
#
#
#
# Elastic Constant Matrix: (Units=GPa)
#
#
# Indices 1 2 3 4 5 6 
#
# 1 69.1780 33.1837 27.8721 0.0000 0.0000 0.0000
# 2 33.1837 81.1648 35.7279 0.0000 0.0000 0.0000
# 3 27.8721 35.7279 117.3557 0.0000 0.0000 0.0000
# 4 0.0000 0.0000 0.0000 41.0975 0.0000 0.0000
# 5 0.0000 0.0000 0.0000 0.0000 37.7158 0.0000
# 6 0.0000 0.0000 0.0000 0.0000 0.0000 15.8820
#
#
#
# Elastic Compliance Matrix: (Units=1/GPa)
#
#
# Indices 1 2 3 4 5 6 
#
# 1 0.018560 -0.006522 -0.002423 0.000000 0.000000 0.000000
# 2 -0.006522 0.016519 -0.003480 0.000000 0.000000 0.000000
# 3 -0.002423 -0.003480 0.010156 0.000000 0.000000 0.000000
# 4 0.000000 0.000000 0.000000 0.024332 0.000000 0.000000
# 5 0.000000 0.000000 0.000000 0.000000 0.026514 0.000000
# 6 0.000000 0.000000 0.000000 0.000000 0.000000 0.062965
#
#
# Mechanical properties :
#
#
# Convention : Reuss Voigt Hill
#
# Bulk Modulus (GPa) = 49.05323 51.25177 50.15250
# Shear Modulus (GPa) = 26.22061 30.33338 28.27700
#
# Velocity S-wave (km/s) = 3.46854 3.73066 3.60198
# Velocity P-wave (km/s) = 6.20871 6.48636 6.34905
#
# Compressibility (1/GPa) = 0.02038602
#
# Stress axis : x y z
#
# Youngs Moduli (GPa) = 53.87968 60.53682 98.46450
#
# Poissons Ratio (x) = 0.39480 0.23853
# Poissons Ratio (y) = 0.35139 0.34267
# Poissons Ratio (z) = 0.13052 0.21068
#
# Static dielectric constant tensor:
#      x y z
#    x 3.810910 0.000000 0.000000 
#    y 0.000000 3.886610 0.000000 
#    z 0.000000 0.000000 4.344980 
# 
# 
# High freq. dielectric constant tensor:
#      x y z
#    x 1.841040 0.000000 0.000000 
#    y 0.000000 1.861800 0.000000 
#    z 0.000000 0.000000 1.877190 
# 
# From -- ./inp_files/23759.got.cif
#   From: 2010.03.12/outbox.cif.g09.slc.cpg/sg20_12_cif.got.tgz:23759.got - 2010.04.14 01:38:04.
