data_PCOD8159530
_publ_section_title
;
Structure prediction by ZEFSAII (Michael W. Deem and Ramdas Pophale) SiO2 
 PCOD8159530
Probable space group: C 2 2 21
;
_chemical_formula_sum "Si O2"
_cell_formula_units_Z 36
_cell_length_a 11.590909
_cell_length_b 26.591492
_cell_length_c 5.642649
_cell_angle_alpha 90.000000
_cell_angle_beta 90.000000
_cell_angle_gamma 90.000000
_cell_volume 1739.174814
_symmetry_space_group_name_H-M "C 2 2 21"
_symmetry_group_IT_number 20
_symmetry_cell_setting 'orthorhombic'
loop_
_space_group_symop_operation_xyz
x,y,z
-x,-y,1/2+z
x,-y,-z
-x,y,1/2-z
1/2+x,1/2+y,z
1/2-x,1/2-y,1/2+z
1/2+x,1/2-y,-z
1/2-x,1/2+y,1/2-z
loop_
_atom_site_type_symbol
_atom_site_label
_atom_site_fract_x
_atom_site_fract_y
_atom_site_fract_z
Si Si1 0.634609 0.816165 0.779220
Si Si2 0.676350 0.705907 0.931426
Si Si3 0.305427 0.625894 0.937716
Si Si4 0.863744 0.025902 0.749992
Si Si5 0.000000 0.850302 0.750000
O O1 0.500000 0.826207 0.750000
O O2 0.661385 0.765554 0.924304
O O3 0.696615 0.809685 0.525555
O O4 0.687565 0.864659 0.916404
O O5 0.660899 0.679093 0.680064
O O6 0.576869 0.687078 0.100266
O O7 0.297555 0.580015 0.751539
O O8 0.414940 0.612530 0.106368
O O9 0.000000 0.033573 0.750000
O O10 0.824545 0.000000 0.500000
O O11 0.824829 0.000000 0.000000
#
# Coordination Sequence:
#
# PCOD8159530 Si02
#       5
#     8   8   8   8   4
#     4  11  24  38  60  92 129 173 224 264 325 393
#     4  11  22  38  58  91 126 173 213 265 319 388
#     4  11  23  39  61  93 132 174 210 270 329 393
#     4  10  23  39  65  99 134 169 215 277 343 403
#     4  10  22  34  64  88 132 164 216 258 328 394
#
# _framework density 20.699473999999999
#
# number of rings (size 3 to 8) (size 9 to 14) (size 15 to 20)
#    0.000    1.333    2.222    3.333   14.000    0.889 
#    0.000    0.000    0.000    0.000    5.778    0.000 
#    0.000    0.000    0.000    0.000    0.000    0.000 
#
# Total GULP energy -223093.932080 kJ/mol
# GULP energy per Si atom -12394.107338 kJ/mol
# Density = 2.065236 g / cm^3
# Si number density = 20.699474 Si / 1000 Ang^3
#
#
#
# Elastic Constant Matrix: (Units=GPa)
#
#
# Indices 1 2 3 4 5 6 
#
# 1 143.3711 34.4453 46.7472 0.0000 0.0000 0.0000
# 2 34.4453 104.1360 41.1207 0.0000 0.0000 0.0000
# 3 46.7472 41.1207 109.8386 0.0000 0.0000 0.0000
# 4 0.0000 0.0000 0.0000 40.3511 0.0000 0.0000
# 5 0.0000 0.0000 0.0000 0.0000 3.6101 0.0000
# 6 0.0000 0.0000 0.0000 0.0000 0.0000 14.8026
#
#
#
# Elastic Compliance Matrix: (Units=1/GPa)
#
#
# Indices 1 2 3 4 5 6 
#
# 1 0.008317 -0.001588 -0.002945 0.000000 0.000000 0.000000
# 2 -0.001588 0.011572 -0.003656 0.000000 0.000000 0.000000
# 3 -0.002945 -0.003656 0.011727 0.000000 0.000000 0.000000
# 4 0.000000 0.000000 0.000000 0.024782 0.000000 0.000000
# 5 0.000000 0.000000 0.000000 0.000000 0.277001 0.000000
# 6 0.000000 0.000000 0.000000 0.000000 0.000000 0.067556
#
#
# Mechanical properties :
#
#
# Convention : Reuss Voigt Hill
#
# Bulk Modulus (GPa) = 65.63291 66.88578 66.25935
# Shear Modulus (GPa) = 11.83677 27.42159 19.62918
#
# Velocity S-wave (km/s) = 2.39391 3.64366 3.08278
# Velocity P-wave (km/s) = 6.27833 7.07705 6.68962
#
# Compressibility (1/GPa) = 0.01523626
#
# Stress axis : x y z
#
# Youngs Moduli (GPa) = 120.24018 86.41628 85.27673
#
# Poissons Ratio (x) = 0.13723 0.25115
# Poissons Ratio (y) = 0.19094 0.31180
# Poissons Ratio (z) = 0.35412 0.31597
#
# Static dielectric constant tensor:
#      x y z
#    x 3.648550 0.000000 0.000000 
#    y 0.000000 3.727640 0.000000 
#    z 0.000000 0.000000 4.162690 
# 
# 
# High freq. dielectric constant tensor:
#      x y z
#    x 1.780670 0.000000 0.000000 
#    y 0.000000 1.797530 0.000000 
#    z 0.000000 0.000000 1.826810 
# 
# From -- ./inp_files/1193.got.cif
#   From: 2010.03.12/outbox.cif.g09.slc.cpg/sg20_1_cif.got.tgz:1193.got - 2010.04.14 01:38:04.
