data_PCOD8159645
_publ_section_title
;
Structure prediction by ZEFSAII (Michael W. Deem and Ramdas Pophale) SiO2 
 PCOD8159645
Probable space group: C 2 2 21
;
_chemical_formula_sum "Si O2"
_cell_formula_units_Z 28
_cell_length_a 13.428894
_cell_length_b 8.479858
_cell_length_c 9.995491
_cell_angle_alpha 90.000000
_cell_angle_beta 90.000000
_cell_angle_gamma 90.000000
_cell_volume 1138.237679
_symmetry_space_group_name_H-M "C 2 2 21"
_symmetry_group_IT_number 20
_symmetry_cell_setting 'orthorhombic'
loop_
_space_group_symop_operation_xyz
x,y,z
-x,-y,1/2+z
x,-y,-z
-x,y,1/2-z
1/2+x,1/2+y,z
1/2-x,1/2-y,1/2+z
1/2+x,1/2-y,-z
1/2-x,1/2+y,1/2-z
loop_
_atom_site_type_symbol
_atom_site_label
_atom_site_fract_x
_atom_site_fract_y
_atom_site_fract_z
Si Si1 0.500000 0.996603 0.250000
Si Si2 0.651020 0.241958 0.199710
Si Si3 0.461562 0.286005 0.569832
Si Si4 0.849979 0.923697 0.808834
O O1 0.518048 0.892149 0.117967
O O2 0.595912 0.104790 0.283295
O O3 0.752518 0.169521 0.140117
O O4 0.670928 0.389255 0.297799
O O5 0.575593 0.292694 0.081466
O O6 0.375785 0.360555 0.661615
O O7 0.562002 0.389443 0.585838
#
# Coordination Sequence:
#
# PCOD8159645 Si02
#       4
#     4   8   8   8
#     4  10  22  40  64 100 134 172 224 268 328 410
#     4  12  23  43  73 101 138 181 222 284 339 395
#     4  10  23  45  68  99 139 175 219 283 343 398
#     4  10  23  43  67 103 135 176 233 273 332 417
#
# _framework density 24.599430999999999
#
# number of rings (size 3 to 8) (size 9 to 14) (size 15 to 20)
#    0.000    1.714    0.000    6.857    0.000    2.286 
#    0.000   25.714    0.000    0.000    0.000    0.000 
#    0.000    0.000    0.000    0.000    0.000    0.000 
#
# Total GULP energy -173621.333341 kJ/mol
# GULP energy per Si atom -12401.523810 kJ/mol
# Density = 2.454344 g / cm^3
# Si number density = 24.599431 Si / 1000 Ang^3
#
#
#
# Elastic Constant Matrix: (Units=GPa)
#
#
# Indices 1 2 3 4 5 6 
#
# 1 150.2450 62.4715 29.0128 0.0000 0.0000 0.0000
# 2 62.4715 181.7130 41.2155 0.0000 0.0000 0.0000
# 3 29.0128 41.2155 51.4629 0.0000 0.0000 0.0000
# 4 0.0000 0.0000 0.0000 29.6222 0.0000 0.0000
# 5 0.0000 0.0000 0.0000 0.0000 22.3406 0.0000
# 6 0.0000 0.0000 0.0000 0.0000 0.0000 49.9643
#
#
#
# Elastic Compliance Matrix: (Units=1/GPa)
#
#
# Indices 1 2 3 4 5 6 
#
# 1 0.008095 -0.002136 -0.002853 0.000000 0.000000 0.000000
# 2 -0.002136 0.007288 -0.004633 0.000000 0.000000 0.000000
# 3 -0.002853 -0.004633 0.024750 0.000000 0.000000 0.000000
# 4 0.000000 0.000000 0.000000 0.033759 0.000000 0.000000
# 5 0.000000 0.000000 0.000000 0.000000 0.044761 0.000000
# 6 0.000000 0.000000 0.000000 0.000000 0.000000 0.020014
#
#
# Mechanical properties :
#
#
# Convention : Reuss Voigt Hill
#
# Bulk Modulus (GPa) = 47.87008 72.09117 59.98063
# Shear Modulus (GPa) = 30.32611 37.10016 33.71314
#
# Velocity S-wave (km/s) = 3.51493 3.88773 3.70602
# Velocity P-wave (km/s) = 5.99792 7.03721 6.53825
#
# Compressibility (1/GPa) = 0.02088987
#
# Stress axis : x y z
#
# Youngs Moduli (GPa) = 123.53628 137.20649 40.40354
#
# Poissons Ratio (x) = 0.29305 0.11527
# Poissons Ratio (y) = 0.26385 0.18719
# Poissons Ratio (z) = 0.35245 0.63567
#
# Static dielectric constant tensor:
#      x y z
#    x 4.587060 0.000000 0.000000 
#    y 0.000000 4.809860 0.000000 
#    z 0.000000 0.000000 3.867630 
# 
# 
# High freq. dielectric constant tensor:
#      x y z
#    x 1.979890 0.000000 0.000000 
#    y 0.000000 2.006050 0.000000 
#    z 0.000000 0.000000 1.951140 
# 
# From -- ./inp_files/12391.got.cif
#   From: 2010.03.12/outbox.cif.g09.slc.cpg/sg20_7_cif.got.tgz:12391.got - 2010.04.14 01:38:04.
