data_PCOD8159143
_publ_section_title
;
Structure prediction by ZEFSAII (Michael W. Deem and Ramdas Pophale) SiO2 
 PCOD8159143
Probable space group: C 2 2 21
;
_chemical_formula_sum "Si O2"
_cell_formula_units_Z 52
_cell_length_a 26.801541
_cell_length_b 18.975324
_cell_length_c 4.981637
_cell_angle_alpha 90.000000
_cell_angle_beta 90.000000
_cell_angle_gamma 90.000000
_cell_volume 2533.500788
_symmetry_space_group_name_H-M "C 2 2 21"
_symmetry_group_IT_number 20
_symmetry_cell_setting 'orthorhombic'
loop_
_space_group_symop_operation_xyz
x,y,z
-x,-y,1/2+z
x,-y,-z
-x,y,1/2-z
1/2+x,1/2+y,z
1/2-x,1/2-y,1/2+z
1/2+x,1/2-y,-z
1/2-x,1/2+y,1/2-z
loop_
_atom_site_type_symbol
_atom_site_label
_atom_site_fract_x
_atom_site_fract_y
_atom_site_fract_z
Si Si1 0.255781 0.371110 0.758295
Si Si2 0.151120 0.314933 0.640187
Si Si3 0.605461 0.451583 0.250405
Si Si4 0.966276 0.500000 0.500000
Si Si5 0.816788 0.836387 0.248841
Si Si6 0.620764 0.101968 0.859735
Si Si7 0.794913 0.500000 0.500000
Si Si8 0.500000 0.548825 0.750000
O O1 0.209462 0.331184 0.630828
O O2 0.300386 0.355187 0.551898
O O3 0.269954 0.335876 0.044274
O O4 0.241061 0.453474 0.806530
O O5 0.148925 0.232970 0.719331
O O6 0.124022 0.336417 0.362689
O O7 0.122533 0.361396 0.854781
O O8 0.597243 0.500000 0.500000
O O9 0.648112 0.399159 0.339409
O O10 0.552385 0.409142 0.202005
O O11 0.620999 0.500000 0.000000
O O12 0.931483 0.440018 0.361966
O O13 0.000000 0.471787 0.750000
O O14 0.668628 0.049811 0.820825
O O15 0.508745 0.500000 0.500000
#
# Coordination Sequence:
#
# PCOD8159143 Si02
#       8
#     8   8   8   4   8   8   4   4
#     4  11  23  36  57  82 124 159 208 250 308 355
#     4  11  22  41  57  82 121 175 210 236 293 387
#     4  10  21  37  56  84 109 144 189 250 309 357
#     4  11  22  40  70 106 128 150 202 270 333 366
#     4  12  24  36  57  84 122 159 204 256 306 361
#     4  10  22  40  65  87 122 165 207 247 306 379
#     4   9  22  38  58  90 118 162 204 260 303 362
#     4   8  16  34  58  74 100 134 176 224 290 360
#
# _framework density 20.524961000000001
#
# number of rings (size 3 to 8) (size 9 to 14) (size 15 to 20)
#    0.000    1.538    0.000    5.538    3.231    7.385 
#    0.000    0.000    5.077    0.000    0.000    0.000 
#    0.000    0.000    0.000    0.000    0.000    0.000 
#
# Total GULP energy -322124.764860 kJ/mol
# GULP energy per Si atom -12389.414033 kJ/mol
# Density = 2.047825 g / cm^3
# Si number density = 20.524961 Si / 1000 Ang^3
#
#
#
# Elastic Constant Matrix: (Units=GPa)
#
#
# Indices 1 2 3 4 5 6 
#
# 1 81.0975 37.4417 22.7565 0.0000 0.0000 0.0000
# 2 37.4417 81.9571 27.1691 0.0000 0.0000 0.0000
# 3 22.7565 27.1691 102.3297 0.0000 0.0000 0.0000
# 4 0.0000 0.0000 0.0000 31.6778 0.0000 0.0000
# 5 0.0000 0.0000 0.0000 0.0000 33.3616 0.0000
# 6 0.0000 0.0000 0.0000 0.0000 0.0000 8.4105
#
#
#
# Elastic Compliance Matrix: (Units=1/GPa)
#
#
# Indices 1 2 3 4 5 6 
#
# 1 0.015912 -0.006685 -0.001764 0.000000 0.000000 0.000000
# 2 -0.006685 0.016187 -0.002811 0.000000 0.000000 0.000000
# 3 -0.001764 -0.002811 0.010911 0.000000 0.000000 0.000000
# 4 0.000000 0.000000 0.000000 0.031568 0.000000 0.000000
# 5 0.000000 0.000000 0.000000 0.000000 0.029975 0.000000
# 6 0.000000 0.000000 0.000000 0.000000 0.000000 0.118899
#
#
# Mechanical properties :
#
#
# Convention : Reuss Voigt Hill
#
# Bulk Modulus (GPa) = 48.80206 48.90212 48.85209
# Shear Modulus (GPa) = 19.77836 26.55778 23.16807
#
# Velocity S-wave (km/s) = 3.10760 3.60102 3.36337
# Velocity P-wave (km/s) = 6.05845 6.41617 6.23987
#
# Compressibility (1/GPa) = 0.02049094
#
# Stress axis : x y z
#
# Youngs Moduli (GPa) = 62.84581 61.77693 91.65088
#
# Poissons Ratio (x) = 0.41295 0.16165
# Poissons Ratio (y) = 0.42010 0.25765
# Poissons Ratio (z) = 0.11085 0.17367
#
# Static dielectric constant tensor:
#      x y z
#    x 4.084550 0.000000 0.000000 
#    y 0.000000 3.685150 0.000000 
#    z 0.000000 0.000000 3.716030 
# 
# 
# High freq. dielectric constant tensor:
#      x y z
#    x 1.800580 0.000000 0.000000 
#    y 0.000000 1.776340 0.000000 
#    z 0.000000 0.000000 1.816650 
# 
# From -- ./inp_files/4314.got.cif
#   From: 2010.03.12/outbox.cif.g09.slc.cpg/sg20_3_cif.got.tgz:4314.got - 2010.04.14 01:38:04.
