data_PCOD8159265
_publ_section_title
;
Structure prediction by ZEFSAII (Michael W. Deem and Ramdas Pophale) SiO2 
 PCOD8159265
Probable space group: C 2 2 21
;
_chemical_formula_sum "Si O2"
_cell_formula_units_Z 64
_cell_length_a 30.526367
_cell_length_b 11.797937
_cell_length_c 8.657765
_cell_angle_alpha 90.000000
_cell_angle_beta 90.000000
_cell_angle_gamma 90.000000
_cell_volume 3118.078089
_symmetry_space_group_name_H-M "C 2 2 21"
_symmetry_group_IT_number 20
_symmetry_cell_setting 'orthorhombic'
loop_
_space_group_symop_operation_xyz
x,y,z
-x,-y,1/2+z
x,-y,-z
-x,y,1/2-z
1/2+x,1/2+y,z
1/2-x,1/2-y,1/2+z
1/2+x,1/2-y,-z
1/2-x,1/2+y,1/2-z
loop_
_atom_site_type_symbol
_atom_site_label
_atom_site_fract_x
_atom_site_fract_y
_atom_site_fract_z
Si Si1 0.546531 0.755933 0.818715
Si Si2 0.371806 0.627003 0.818515
Si Si3 0.299105 0.775734 0.682767
Si Si4 0.293738 0.774028 0.319414
Si Si5 0.127905 0.862966 0.677651
Si Si6 0.044810 0.744320 0.823236
Si Si7 0.168415 0.505563 0.679829
Si Si8 0.921530 0.504695 0.674755
O O1 0.500000 0.719215 0.750000
O O2 0.583940 0.686177 0.734480
O O3 0.553812 0.888819 0.784493
O O4 0.547852 0.722415 0.997871
O O5 0.329460 0.669181 0.725117
O O6 0.376563 0.494746 0.784433
O O7 0.364352 0.656883 0.996984
O O8 0.292770 0.781171 0.501785
O O9 0.252692 0.771428 0.765035
O O10 0.323658 0.887291 0.737851
O O11 0.330824 0.686848 0.267522
O O12 0.300794 0.898585 0.251157
O O13 0.084344 0.800131 0.731028
O O14 0.044742 0.608060 0.807495
O O15 0.000000 0.791043 0.750000
O O16 0.178844 0.500000 0.500000
O O17 0.117608 0.533361 0.707795
O O18 0.902548 0.500000 0.500000
#
# Coordination Sequence:
#
# PCOD8159265 Si02
#       8
#     8   8   8   8   8   8   8   8
#     4  11  23  40  65  95 131 170 217 267 325 389
#     4  11  25  45  67  94 130 170 218 271 327 389
#     4  12  26  45  69  98 134 172 219 269 324 388
#     4  12  26  45  69  98 134 172 219 269 324 388
#     4  11  25  45  67  94 130 170 218 271 327 389
#     4  11  23  40  65  95 131 170 217 267 325 389
#     4  12  24  41  69 100 133 173 216 265 328 385
#     4  10  21  39  63  96 132 169 211 265 325 385
#
# _framework density 20.525465000000001
#
# number of rings (size 3 to 8) (size 9 to 14) (size 15 to 20)
#    0.000    0.750    2.500    5.250    1.750    3.500 
#    0.000    0.000    0.000    0.000    0.000    0.000 
#    0.000    0.000    0.000    0.000    0.000    0.000 
#
# Total GULP energy -397017.481852 kJ/mol
# GULP energy per Si atom -12406.796308 kJ/mol
# Density = 2.047875 g / cm^3
# Si number density = 20.525465 Si / 1000 Ang^3
#
#
#
# Elastic Constant Matrix: (Units=GPa)
#
#
# Indices 1 2 3 4 5 6 
#
# 1 123.3733 23.8840 31.5227 0.0000 0.0000 0.0000
# 2 23.8840 94.4468 43.1295 0.0000 0.0000 0.0000
# 3 31.5227 43.1295 136.6993 0.0000 0.0000 0.0000
# 4 0.0000 0.0000 0.0000 26.3710 0.0000 0.0000
# 5 0.0000 0.0000 0.0000 0.0000 40.4768 0.0000
# 6 0.0000 0.0000 0.0000 0.0000 0.0000 13.7863
#
#
#
# Elastic Compliance Matrix: (Units=1/GPa)
#
#
# Indices 1 2 3 4 5 6 
#
# 1 0.008795 -0.001516 -0.001550 0.000000 0.000000 0.000000
# 2 -0.001516 0.012632 -0.003636 0.000000 0.000000 0.000000
# 3 -0.001550 -0.003636 0.008820 0.000000 0.000000 0.000000
# 4 0.000000 0.000000 0.000000 0.037920 0.000000 0.000000
# 5 0.000000 0.000000 0.000000 0.000000 0.024706 0.000000
# 6 0.000000 0.000000 0.000000 0.000000 0.000000 0.072536
#
#
# Mechanical properties :
#
#
# Convention : Reuss Voigt Hill
#
# Bulk Modulus (GPa) = 59.37235 61.28798 60.33016
# Shear Modulus (GPa) = 27.11112 33.19236 30.15174
#
# Velocity S-wave (km/s) = 3.63830 4.02572 3.83690
# Velocity P-wave (km/s) = 6.82925 7.17864 7.00612
#
# Compressibility (1/GPa) = 0.01684286
#
# Stress axis : x y z
#
# Youngs Moduli (GPa) = 113.70095 79.16589 113.38170
#
# Poissons Ratio (x) = 0.12005 0.17570
# Poissons Ratio (y) = 0.17242 0.41222
# Poissons Ratio (z) = 0.17620 0.28782
#
# Static dielectric constant tensor:
#      x y z
#    x 3.726610 0.000000 0.000000 
#    y 0.000000 3.830310 0.000000 
#    z 0.000000 0.000000 3.763390 
# 
# 
# High freq. dielectric constant tensor:
#      x y z
#    x 1.812380 0.000000 0.000000 
#    y 0.000000 1.809560 0.000000 
#    z 0.000000 0.000000 1.818410 
# 
# From -- ./inp_files/11613.got.cif
#   From: 2010.03.12/outbox.cif.g09.slc.cpg/sg20_6_cif.got.tgz:11613.got - 2010.04.14 01:38:04.
