data_PCOD8159585
_publ_section_title
;
Structure prediction by ZEFSAII (Michael W. Deem and Ramdas Pophale) SiO2 
 PCOD8159585
Probable space group: C 2 2 21
;
_chemical_formula_sum "Si O2"
_cell_formula_units_Z 52
_cell_length_a 21.669659
_cell_length_b 8.343113
_cell_length_c 14.700731
_cell_angle_alpha 90.000000
_cell_angle_beta 90.000000
_cell_angle_gamma 90.000000
_cell_volume 2657.780641
_symmetry_space_group_name_H-M "C 2 2 21"
_symmetry_group_IT_number 20
_symmetry_cell_setting 'orthorhombic'
loop_
_space_group_symop_operation_xyz
x,y,z
-x,-y,1/2+z
x,-y,-z
-x,y,1/2-z
1/2+x,1/2+y,z
1/2-x,1/2-y,1/2+z
1/2+x,1/2-y,-z
1/2-x,1/2+y,1/2-z
loop_
_atom_site_type_symbol
_atom_site_label
_atom_site_fract_x
_atom_site_fract_y
_atom_site_fract_z
Si Si1 0.132186 0.000000 0.500000
Si Si2 0.468927 0.269276 0.073497
Si Si3 0.119023 0.144487 0.200974
Si Si4 0.000000 0.050643 0.750000
Si Si5 0.818277 0.257688 0.121468
Si Si6 0.895915 0.500000 0.000000
Si Si7 0.688944 0.608334 0.915719
Si Si8 0.910515 0.311292 0.481932
O O1 0.088271 0.880235 0.448075
O O2 0.176414 0.914058 0.572437
O O3 0.497171 0.324314 0.167971
O O4 0.524136 0.276737 0.000011
O O5 0.440214 0.091272 0.072075
O O6 0.154738 0.245249 0.277395
O O7 0.104618 0.273424 0.122480
O O8 0.160620 0.000770 0.163191
O O9 0.058018 0.067309 0.243957
O O10 0.746725 0.301907 0.128519
O O11 0.854567 0.387084 0.062198
O O12 0.711196 0.500000 0.000000
O O13 0.639892 0.738767 0.949740
O O14 0.914525 0.500000 0.500000
#
# Coordination Sequence:
#
# PCOD8159585 Si02
#       8
#     4   8   8   4   8   4   8   8
#     4  10  22  38  66  92 122 176 208 256 326 390
#     4  11  21  40  64  94 130 161 215 263 331 380
#     4  11  25  42  67  96 128 172 221 267 325 392
#     4  12  22  40  68  98 124 172 220 268 320 406
#     4  11  23  45  65  93 132 170 222 268 320 393
#     4  10  24  42  64  94 128 168 206 278 330 372
#     4  10  23  46  65  90 131 176 214 266 330 390
#     4  11  24  41  68  97 131 174 213 274 331 391
#
# _framework density 19.565197999999999
#
# number of rings (size 3 to 8) (size 9 to 14) (size 15 to 20)
#    0.000    1.231    4.615    0.923    4.308    2.462 
#    5.538    0.000    0.000    0.000    0.000    0.000 
#    0.000    0.000    0.000    0.000    0.000    0.000 
#
# Total GULP energy -322399.911847 kJ/mol
# GULP energy per Si atom -12399.996610 kJ/mol
# Density = 1.952067 g / cm^3
# Si number density = 19.565198 Si / 1000 Ang^3
#
#
#
# Elastic Constant Matrix: (Units=GPa)
#
#
# Indices 1 2 3 4 5 6 
#
# 1 130.5566 47.0680 44.4230 0.0000 0.0000 0.0000
# 2 47.0680 103.9374 46.1517 0.0000 0.0000 0.0000
# 3 44.4230 46.1517 114.2371 0.0000 0.0000 0.0000
# 4 0.0000 0.0000 0.0000 31.2440 0.0000 0.0000
# 5 0.0000 0.0000 0.0000 0.0000 30.1480 0.0000
# 6 0.0000 0.0000 0.0000 0.0000 0.0000 43.7458
#
#
#
# Elastic Compliance Matrix: (Units=1/GPa)
#
#
# Indices 1 2 3 4 5 6 
#
# 1 0.009677 -0.003304 -0.002428 0.000000 0.000000 0.000000
# 2 -0.003304 0.012852 -0.003908 0.000000 0.000000 0.000000
# 3 -0.002428 -0.003908 0.011277 0.000000 0.000000 0.000000
# 4 0.000000 0.000000 0.000000 0.032006 0.000000 0.000000
# 5 0.000000 0.000000 0.000000 0.000000 0.033170 0.000000
# 6 0.000000 0.000000 0.000000 0.000000 0.000000 0.022859
#
#
# Mechanical properties :
#
#
# Convention : Reuss Voigt Hill
#
# Bulk Modulus (GPa) = 68.83991 69.33516 69.08754
# Shear Modulus (GPa) = 34.25530 35.10013 34.67771
#
# Velocity S-wave (km/s) = 4.18883 4.24017 4.21458
# Velocity P-wave (km/s) = 7.65874 7.71278 7.68581
#
# Compressibility (1/GPa) = 0.01452646
#
# Stress axis : x y z
#
# Youngs Moduli (GPa) = 103.33917 77.80596 88.67893
#
# Poissons Ratio (x) = 0.25707 0.21533
# Poissons Ratio (y) = 0.34143 0.34652
# Poissons Ratio (z) = 0.25093 0.30403
#
# Static dielectric constant tensor:
#      x y z
#    x 3.685910 0.000000 0.000000 
#    y 0.000000 3.539220 0.000000 
#    z 0.000000 0.000000 3.557290 
# 
# 
# High freq. dielectric constant tensor:
#      x y z
#    x 1.774310 0.000000 0.000000 
#    y 0.000000 1.769000 0.000000 
#    z 0.000000 0.000000 1.759290 
# 
# From -- ./inp_files/21740.got.cif
#   From: 2010.03.12/outbox.cif.g09.slc.cpg/sg20_11_cif.got.tgz:21740.got - 2010.04.14 01:38:04.
