data_PCOD8159047
_publ_section_title
;
Structure prediction by ZEFSAII (Michael W. Deem and Ramdas Pophale) SiO2 
 PCOD8159047
Probable space group: C 2 2 21
;
_chemical_formula_sum "Si O2"
_cell_formula_units_Z 52
_cell_length_a 8.896103
_cell_length_b 19.861343
_cell_length_c 13.342111
_cell_angle_alpha 90.000000
_cell_angle_beta 90.000000
_cell_angle_gamma 90.000000
_cell_volume 2357.398287
_symmetry_space_group_name_H-M "C 2 2 21"
_symmetry_group_IT_number 20
_symmetry_cell_setting 'orthorhombic'
loop_
_space_group_symop_operation_xyz
x,y,z
-x,-y,1/2+z
x,-y,-z
-x,y,1/2-z
1/2+x,1/2+y,z
1/2-x,1/2-y,1/2+z
1/2+x,1/2-y,-z
1/2-x,1/2+y,1/2-z
loop_
_atom_site_type_symbol
_atom_site_label
_atom_site_fract_x
_atom_site_fract_y
_atom_site_fract_z
Si Si1 0.652767 0.191357 0.011287
Si Si2 0.500000 0.388720 0.250000
Si Si3 0.251150 0.682768 0.633515
Si Si4 0.286187 0.424410 0.518305
Si Si5 0.898296 0.349775 0.839557
Si Si6 0.879066 0.928859 0.045474
Si Si7 0.866586 0.245609 0.303430
O O1 0.741599 0.245915 0.076382
O O2 0.504860 0.167541 0.068036
O O3 0.760954 0.129443 0.981868
O O4 0.589441 0.229463 0.913365
O O5 0.589353 0.339001 0.178060
O O6 0.405169 0.433651 0.167839
O O7 0.197586 0.623368 0.559870
O O8 0.139496 0.690293 0.727318
O O9 0.237770 0.500000 0.500000
O O10 0.225357 0.405282 0.628372
O O11 0.464479 0.412590 0.511682
O O12 0.799386 0.286798 0.801896
O O13 0.000000 0.378286 0.750000
O O14 0.819305 0.000000 0.000000
O O15 0.000000 0.200663 0.250000
#
# Coordination Sequence:
#
# PCOD8159047 Si02
#       7
#     8   4   8   8   8   8   8
#     4  12  25  42  73 106 142 183 232 304 364 422
#     4  10  20  42  74  98 146 190 230 306 354 426
#     4  11  21  41  69  99 138 178 229 294 352 419
#     4  10  24  45  70  95 137 191 232 285 346 425
#     4  12  26  44  66 102 144 177 231 298 366 414
#     4  10  24  47  73 105 143 189 246 292 358 431
#     4  12  26  41  70 107 135 182 236 288 363 435
#
# _framework density 22.058216000000002
#
# number of rings (size 3 to 8) (size 9 to 14) (size 15 to 20)
#    0.000    0.923    4.615    1.846    4.308    0.615 
#    8.308    2.308    1.692    0.000    0.000    0.000 
#    0.000    0.000    0.000    0.000    0.000    0.000 
#
# Total GULP energy -322137.680100 kJ/mol
# GULP energy per Si atom -12389.910773 kJ/mol
# Density = 2.200801 g / cm^3
# Si number density = 22.058216 Si / 1000 Ang^3
#
#
#
# Elastic Constant Matrix: (Units=GPa)
#
#
# Indices 1 2 3 4 5 6 
#
# 1 99.1853 35.9671 58.9788 0.0000 0.0000 0.0000
# 2 35.9671 112.8095 50.9735 0.0000 0.0000 0.0000
# 3 58.9788 50.9735 137.0884 0.0000 0.0000 0.0000
# 4 0.0000 0.0000 0.0000 26.1565 0.0000 0.0000
# 5 0.0000 0.0000 0.0000 0.0000 51.9114 0.0000
# 6 0.0000 0.0000 0.0000 0.0000 0.0000 5.5774
#
#
#
# Elastic Compliance Matrix: (Units=1/GPa)
#
#
# Indices 1 2 3 4 5 6 
#
# 1 0.013945 -0.002086 -0.005224 0.000000 0.000000 0.000000
# 2 -0.002086 0.010967 -0.003180 0.000000 0.000000 0.000000
# 3 -0.005224 -0.003180 0.010725 0.000000 0.000000 0.000000
# 4 0.000000 0.000000 0.000000 0.038231 0.000000 0.000000
# 5 0.000000 0.000000 0.000000 0.000000 0.019264 0.000000
# 6 0.000000 0.000000 0.000000 0.000000 0.000000 0.179294
#
#
# Mechanical properties :
#
#
# Convention : Reuss Voigt Hill
#
# Bulk Modulus (GPa) = 68.23103 71.21356 69.72229
# Shear Modulus (GPa) = 16.76222 30.27331 23.51776
#
# Velocity S-wave (km/s) = 2.75963 3.70865 3.26877
# Velocity P-wave (km/s) = 6.41510 7.11992 6.77668
#
# Compressibility (1/GPa) = 0.01465609
#
# Stress axis : x y z
#
# Youngs Moduli (GPa) = 71.71182 91.18656 93.24367
#
# Poissons Ratio (x) = 0.19017 0.48709
# Poissons Ratio (y) = 0.14956 0.29655
# Poissons Ratio (z) = 0.37461 0.29001
#
# Static dielectric constant tensor:
#      x y z
#    x 4.110440 0.000000 0.000000 
#    y 0.000000 3.900020 0.000000 
#    z 0.000000 0.000000 4.491960 
# 
# 
# High freq. dielectric constant tensor:
#      x y z
#    x 1.874840 0.000000 0.000000 
#    y 0.000000 1.836570 0.000000 
#    z 0.000000 0.000000 1.891770 
# 
# From -- ./inp_files/19112.got.cif
#   From: 2010.03.12/outbox.cif.g09.slc.cpg/sg20_10_cif.got.tgz:19112.got - 2010.04.14 01:38:04.
