data_PCOD8159957
_publ_section_title
;
Structure prediction by ZEFSAII (Michael W. Deem and Ramdas Pophale) SiO2 
 PCOD8159957
Probable space group: C 2 2 21
;
_chemical_formula_sum "Si O2"
_cell_formula_units_Z 44
_cell_length_a 17.407249
_cell_length_b 14.066145
_cell_length_c 8.753489
_cell_angle_alpha 90.000000
_cell_angle_beta 90.000000
_cell_angle_gamma 90.000000
_cell_volume 2143.317066
_symmetry_space_group_name_H-M "C 2 2 21"
_symmetry_group_IT_number 20
_symmetry_cell_setting 'orthorhombic'
loop_
_space_group_symop_operation_xyz
x,y,z
-x,-y,1/2+z
x,-y,-z
-x,y,1/2-z
1/2+x,1/2+y,z
1/2-x,1/2-y,1/2+z
1/2+x,1/2-y,-z
1/2-x,1/2+y,1/2-z
loop_
_atom_site_type_symbol
_atom_site_label
_atom_site_fract_x
_atom_site_fract_y
_atom_site_fract_z
Si Si1 0.000000 0.266553 0.250000
Si Si2 0.986702 0.392853 0.522527
Si Si3 0.658454 0.686311 0.321292
Si Si4 0.728806 0.486764 0.825952
Si Si5 0.275332 0.310742 0.163478
Si Si6 0.373922 0.858455 0.779212
O O1 0.962174 0.336787 0.372686
O O2 0.933156 0.203606 0.171691
O O3 0.013592 0.500000 0.500000
O O4 0.910877 0.395315 0.624304
O O5 0.060907 0.341850 0.594115
O O6 0.667834 0.580149 0.258220
O O7 0.702778 0.692636 0.483989
O O8 0.693401 0.761921 0.200059
O O9 0.727136 0.584344 0.732081
O O10 0.812383 0.437621 0.829435
O O11 0.701909 0.500000 0.000000
O O12 0.337164 0.244741 0.250973
#
# Coordination Sequence:
#
# PCOD8159957 Si02
#       6
#     4   8   8   8   8   8
#     4  12  26  44  68  96 146 172 228 282 338 404
#     4  11  24  39  65 100 136 177 214 278 347 408
#     4  11  26  44  68 101 133 183 229 279 343 399
#     4  11  25  42  71  98 135 176 235 279 338 397
#     4  11  23  45  69  95 140 178 230 286 329 405
#     4  10  23  42  64 100 133 175 222 271 345 403
#
# _framework density 20.528926999999999
#
# number of rings (size 3 to 8) (size 9 to 14) (size 15 to 20)
#    0.000    1.091    1.818    4.364   12.727    0.000 
#    0.000    3.636    0.000    0.000    0.000    0.000 
#    0.000    0.000    0.000    0.000    0.000    0.000 
#
# Total GULP energy -272740.949100 kJ/mol
# GULP energy per Si atom -12397.315868 kJ/mol
# Density = 2.048220 g / cm^3
# Si number density = 20.528927 Si / 1000 Ang^3
#
#
#
# Elastic Constant Matrix: (Units=GPa)
#
#
# Indices 1 2 3 4 5 6 
#
# 1 83.2774 35.7179 31.2345 0.0000 0.0000 0.0000
# 2 35.7179 144.3752 35.1352 0.0000 0.0000 0.0000
# 3 31.2345 35.1352 119.1537 0.0000 0.0000 0.0000
# 4 0.0000 0.0000 0.0000 36.1908 0.0000 0.0000
# 5 0.0000 0.0000 0.0000 0.0000 -0.3004 0.0000
# 6 0.0000 0.0000 0.0000 0.0000 0.0000 42.1606
#
#
#
# Elastic Compliance Matrix: (Units=1/GPa)
#
#
# Indices 1 2 3 4 5 6 
#
# 1 0.014317 -0.002832 -0.002918 0.000000 0.000000 0.000000
# 2 -0.002832 0.008022 -0.001623 0.000000 0.000000 0.000000
# 3 -0.002918 -0.001623 0.009636 0.000000 0.000000 0.000000
# 4 0.000000 0.000000 0.000000 0.027631 0.000000 0.000000
# 5 0.000000 0.000000 0.000000 0.000000 -3.329075 0.000000
# 6 0.000000 0.000000 0.000000 0.000000 0.000000 0.023719
#
#
# Mechanical properties :
#
#
# Convention : Reuss Voigt Hill
#
# Bulk Modulus (GPa) = 58.04115 61.22016 59.63065
# Shear Modulus (GPa) = -1.55026 31.92480 15.18727
#
# Velocity S-wave (km/s) = -0.86994 3.94777 2.72287
# Velocity P-wave (km/s) = 5.22735 7.11801 6.24464
#
# Compressibility (1/GPa) = 0.01722916
#
# Stress axis : x y z
#
# Youngs Moduli (GPa) = 69.84659 124.65721 103.77701
#
# Poissons Ratio (x) = 0.35301 0.30282
# Poissons Ratio (y) = 0.19780 0.16844
# Poissons Ratio (z) = 0.20381 0.20233
#
# Static dielectric constant tensor:
#      x y z
#    x 3.649270 0.000000 0.000000 
#    y 0.000000 3.723760 0.000000 
#    z 0.000000 0.000000 3.815230 
# 
# 
# High freq. dielectric constant tensor:
#      x y z
#    x 1.799030 0.000000 0.000000 
#    y 0.000000 1.805280 0.000000 
#    z 0.000000 0.000000 1.814660 
# 
# From -- ./inp_files/9283.got.cif
#   From: 2010.03.12/outbox.cif.g09.slc.cpg/sg20_5_cif.got.tgz:9283.got - 2010.04.14 01:38:04.
