data_PCOD8159357
_publ_section_title
;
Structure prediction by ZEFSAII (Michael W. Deem and Ramdas Pophale) SiO2 
 PCOD8159357
Probable space group: C 2 2 21
;
_chemical_formula_sum "Si O2"
_cell_formula_units_Z 40
_cell_length_a 13.062344
_cell_length_b 7.592873
_cell_length_c 19.293942
_cell_angle_alpha 90.000000
_cell_angle_beta 90.000000
_cell_angle_gamma 90.000000
_cell_volume 1913.587041
_symmetry_space_group_name_H-M "C 2 2 21"
_symmetry_group_IT_number 20
_symmetry_cell_setting 'orthorhombic'
loop_
_space_group_symop_operation_xyz
x,y,z
-x,-y,1/2+z
x,-y,-z
-x,y,1/2-z
1/2+x,1/2+y,z
1/2-x,1/2-y,1/2+z
1/2+x,1/2-y,-z
1/2-x,1/2+y,1/2-z
loop_
_atom_site_type_symbol
_atom_site_label
_atom_site_fract_x
_atom_site_fract_y
_atom_site_fract_z
Si Si1 0.943585 0.823812 0.915980
Si Si2 0.088103 0.515306 0.922663
Si Si3 0.083180 0.226696 0.568628
Si Si4 0.383842 0.619801 0.229466
Si Si5 0.247267 0.651467 0.830264
O O1 0.878434 0.783711 0.846132
O O2 0.048567 0.715247 0.911672
O O3 0.965459 0.033804 0.917085
O O4 0.887398 0.758818 0.986794
O O5 0.183013 0.497073 0.869810
O O6 0.999606 0.372423 0.908383
O O7 0.132048 0.500000 0.000000
O O8 0.186247 0.259574 0.612894
O O9 0.500000 0.580093 0.250000
O O10 0.324399 0.435250 0.224552
O O11 0.331554 0.730112 0.289182
#
# Coordination Sequence:
#
# PCOD8159357 Si02
#       5
#     8   8   8   8   8
#     4   9  19  41  66  88 135 161 205 280 307 368
#     4  10  21  40  69  96 124 167 214 267 320 370
#     4   9  21  40  66  96 125 165 216 269 315 372
#     4  11  24  41  60  91 133 166 207 266 314 381
#     4  11  25  40  67  92 127 174 214 256 327 384
#
# _framework density 20.903151999999999
#
# number of rings (size 3 to 8) (size 9 to 14) (size 15 to 20)
#    0.000    2.000    2.000    0.000    8.400    3.200 
#    0.000    0.000   13.200    0.000    0.000    0.000 
#    0.000    0.000    0.000    0.000    0.000    0.000 
#
# Total GULP energy -247852.491496 kJ/mol
# GULP energy per Si atom -12392.624575 kJ/mol
# Density = 2.085558 g / cm^3
# Si number density = 20.903152 Si / 1000 Ang^3
#
#
#
# Elastic Constant Matrix: (Units=GPa)
#
#
# Indices 1 2 3 4 5 6 
#
# 1 128.9241 42.1767 69.7907 0.0000 0.0000 0.0000
# 2 42.1767 62.4328 38.9730 0.0000 0.0000 0.0000
# 3 69.7907 38.9730 132.9624 0.0000 0.0000 0.0000
# 4 0.0000 0.0000 0.0000 25.8727 0.0000 0.0000
# 5 0.0000 0.0000 0.0000 0.0000 21.9599 0.0000
# 6 0.0000 0.0000 0.0000 0.0000 0.0000 24.6550
#
#
#
# Elastic Compliance Matrix: (Units=1/GPa)
#
#
# Indices 1 2 3 4 5 6 
#
# 1 0.012042 -0.005128 -0.004818 0.000000 0.000000 0.000000
# 2 -0.005128 0.021788 -0.003695 0.000000 0.000000 0.000000
# 3 -0.004818 -0.003695 0.011133 0.000000 0.000000 0.000000
# 4 0.000000 0.000000 0.000000 0.038651 0.000000 0.000000
# 5 0.000000 0.000000 0.000000 0.000000 0.045538 0.000000
# 6 0.000000 0.000000 0.000000 0.000000 0.000000 0.040560
#
#
# Mechanical properties :
#
#
# Convention : Reuss Voigt Hill
#
# Bulk Modulus (GPa) = 56.55462 69.57780 63.06621
# Shear Modulus (GPa) = 24.64456 26.05613 25.35034
#
# Velocity S-wave (km/s) = 3.43736 3.53443 3.48624
# Velocity P-wave (km/s) = 6.54738 7.07208 6.81479
#
# Compressibility (1/GPa) = 0.01768202
#
# Stress axis : x y z
#
# Youngs Moduli (GPa) = 83.04301 45.89759 89.82527
#
# Poissons Ratio (x) = 0.23534 0.43276
# Poissons Ratio (y) = 0.42581 0.33189
# Poissons Ratio (z) = 0.40008 0.16958
#
# Static dielectric constant tensor:
#      x y z
#    x 3.655890 0.000000 0.000000 
#    y 0.000000 3.640130 0.000000 
#    z 0.000000 0.000000 4.260560 
# 
# 
# High freq. dielectric constant tensor:
#      x y z
#    x 1.807000 0.000000 0.000000 
#    y 0.000000 1.795780 0.000000 
#    z 0.000000 0.000000 1.842000 
# 
# From -- ./inp_files/23152.got.cif
#   From: 2010.03.12/outbox.cif.g09.slc.cpg/sg20_12_cif.got.tgz:23152.got - 2010.04.14 01:38:04.
