data_PCOD8159690
_publ_section_title
;
Structure prediction by ZEFSAII (Michael W. Deem and Ramdas Pophale) SiO2 
 PCOD8159690
Probable space group: C 2 2 21
;
_chemical_formula_sum "Si O2"
_cell_formula_units_Z 28
_cell_length_a 16.839446
_cell_length_b 14.856768
_cell_length_c 5.108030
_cell_angle_alpha 90.000000
_cell_angle_beta 90.000000
_cell_angle_gamma 90.000000
_cell_volume 1277.925630
_symmetry_space_group_name_H-M "C 2 2 21"
_symmetry_group_IT_number 20
_symmetry_cell_setting 'orthorhombic'
loop_
_space_group_symop_operation_xyz
x,y,z
-x,-y,1/2+z
x,-y,-z
-x,y,1/2-z
1/2+x,1/2+y,z
1/2-x,1/2-y,1/2+z
1/2+x,1/2-y,-z
1/2-x,1/2+y,1/2-z
loop_
_atom_site_type_symbol
_atom_site_label
_atom_site_fract_x
_atom_site_fract_y
_atom_site_fract_z
Si Si1 0.167535 0.676197 0.225727
Si Si2 0.252079 0.630521 0.726497
Si Si3 0.626725 0.500000 0.000000
Si Si4 0.500000 0.250501 0.250000
Si Si5 0.000000 0.872416 0.750000
O O1 0.188383 0.624455 0.491963
O O2 0.204642 0.774487 0.218023
O O3 0.073340 0.685267 0.187387
O O4 0.203962 0.615901 0.993592
O O5 0.319475 0.555337 0.701515
O O6 0.574941 0.565756 0.181118
O O7 0.522441 0.311884 0.500007
#
# Coordination Sequence:
#
# PCOD8159690 Si02
#       5
#     8   8   4   4   4
#     4  10  22  41  61  91 126 173 219 258 310 379
#     4  10  23  39  62  89 133 171 212 257 315 394
#     4  12  26  42  64 100 144 166 210 262 344 400
#     4  12  23  44  68  96 133 168 220 276 317 390
#     4  12  27  38  64 102 137 172 194 272 351 400
#
# _framework density 21.910509999999999
#
# number of rings (size 3 to 8) (size 9 to 14) (size 15 to 20)
#    0.000    1.143    2.857    2.571    8.000    3.429 
#    0.000    0.000    0.000    3.429    0.000    0.000 
#    0.000    0.000    0.000    0.000    0.000    0.000 
#
# Total GULP energy -173673.417133 kJ/mol
# GULP energy per Si atom -12405.244081 kJ/mol
# Density = 2.186064 g / cm^3
# Si number density = 21.910510 Si / 1000 Ang^3
#
#
#
# Elastic Constant Matrix: (Units=GPa)
#
#
# Indices 1 2 3 4 5 6 
#
# 1 150.2933 27.9694 28.2659 0.0000 0.0000 0.0000
# 2 27.9694 37.9334 4.1418 0.0000 0.0000 0.0000
# 3 28.2659 4.1418 91.8968 0.0000 0.0000 0.0000
# 4 0.0000 0.0000 0.0000 12.4456 0.0000 0.0000
# 5 0.0000 0.0000 0.0000 0.0000 36.4791 0.0000
# 6 0.0000 0.0000 0.0000 0.0000 0.0000 37.8055
#
#
#
# Elastic Compliance Matrix: (Units=1/GPa)
#
#
# Indices 1 2 3 4 5 6 
#
# 1 0.008149 -0.005763 -0.002247 0.000000 0.000000 0.000000
# 2 -0.005763 0.030568 0.000395 0.000000 0.000000 0.000000
# 3 -0.002247 0.000395 0.011555 0.000000 0.000000 0.000000
# 4 0.000000 0.000000 0.000000 0.080350 0.000000 0.000000
# 5 0.000000 0.000000 0.000000 0.000000 0.027413 0.000000
# 6 0.000000 0.000000 0.000000 0.000000 0.000000 0.026451
#
#
# Mechanical properties :
#
#
# Convention : Reuss Voigt Hill
#
# Bulk Modulus (GPa) = 28.53694 44.54196 36.53945
# Shear Modulus (GPa) = 23.65230 31.99579 27.82405
#
# Velocity S-wave (km/s) = 3.28913 3.82553 3.56742
# Velocity P-wave (km/s) = 5.24186 6.31554 5.80358
#
# Compressibility (1/GPa) = 0.03504230
#
# Stress axis : x y z
#
# Youngs Moduli (GPa) = 122.71955 32.71386 86.54258
#
# Poissons Ratio (x) = 0.18853 0.19443
# Poissons Ratio (y) = 0.70723 -0.03417
# Poissons Ratio (z) = 0.27571 -0.01292
#
# Static dielectric constant tensor:
#      x y z
#    x 4.050160 0.000000 0.000000 
#    y 0.000000 3.739450 0.000000 
#    z 0.000000 0.000000 4.221010 
# 
# 
# High freq. dielectric constant tensor:
#      x y z
#    x 1.864360 0.000000 0.000000 
#    y 0.000000 1.833140 0.000000 
#    z 0.000000 0.000000 1.878800 
# 
# From -- ./inp_files/2384.got.cif
#   From: 2010.03.12/outbox.cif.g09.slc.cpg/sg20_2_cif.got.tgz:2384.got - 2010.04.14 01:38:04.
