data_PCOD8159058
_publ_section_title
;
Structure prediction by ZEFSAII (Michael W. Deem and Ramdas Pophale) SiO2 
 PCOD8159058
Probable space group: C 2 2 21
;
_chemical_formula_sum "Si O2"
_cell_formula_units_Z 48
_cell_length_a 13.041575
_cell_length_b 18.076340
_cell_length_c 9.236091
_cell_angle_alpha 90.000000
_cell_angle_beta 90.000000
_cell_angle_gamma 90.000000
_cell_volume 2177.352518
_symmetry_space_group_name_H-M "C 2 2 21"
_symmetry_group_IT_number 20
_symmetry_cell_setting 'orthorhombic'
loop_
_space_group_symop_operation_xyz
x,y,z
-x,-y,1/2+z
x,-y,-z
-x,y,1/2-z
1/2+x,1/2+y,z
1/2-x,1/2-y,1/2+z
1/2+x,1/2-y,-z
1/2-x,1/2+y,1/2-z
loop_
_atom_site_type_symbol
_atom_site_label
_atom_site_fract_x
_atom_site_fract_y
_atom_site_fract_z
Si Si1 0.936286 0.083745 0.521560
Si Si2 0.775603 0.062053 0.753333
Si Si3 0.063014 0.568808 0.602683
Si Si4 0.584570 0.180149 0.371302
Si Si5 0.647767 0.334653 0.479131
Si Si6 0.781727 0.894620 0.735487
O O1 0.878305 0.088756 0.673389
O O2 0.861050 0.111162 0.395642
O O3 0.032547 0.136529 0.528387
O O4 0.974531 0.000000 0.500000
O O5 0.682624 0.071565 0.641941
O O6 0.769648 0.114865 0.892833
O O7 0.784436 0.976966 0.802922
O O8 0.036053 0.500000 0.500000
O O9 0.032928 0.643213 0.513848
O O10 0.000000 0.563622 0.750000
O O11 0.500000 0.198309 0.250000
O O12 0.648345 0.252514 0.415414
O O13 0.665650 0.120298 0.312923
O O14 0.685170 0.334647 0.644784
#
# Coordination Sequence:
#
# PCOD8159058 Si02
#       6
#     8   8   8   8   8   8
#     4  10  20  43  70  99 139 176 232 294 357 418
#     4  11  22  44  72 105 136 182 236 298 355 422
#     4  12  26  47  73 103 140 194 248 301 355 421
#     4  12  28  48  67 103 149 195 236 303 356 429
#     4  12  27  40  72 104 142 187 232 287 368 433
#     4  11  24  44  71 100 141 181 242 296 352 423
#
# _framework density 22.045121000000002
#
# number of rings (size 3 to 8) (size 9 to 14) (size 15 to 20)
#    0.000    0.667    3.333    4.500    4.667    5.333 
#    0.000    0.000    0.000    0.000    0.000    0.000 
#    0.000    0.000    0.000    0.000    0.000    0.000 
#
# Total GULP energy -297723.708186 kJ/mol
# GULP energy per Si atom -12405.154508 kJ/mol
# Density = 2.199495 g / cm^3
# Si number density = 22.045121 Si / 1000 Ang^3
#
#
#
# Elastic Constant Matrix: (Units=GPa)
#
#
# Indices 1 2 3 4 5 6 
#
# 1 61.8475 18.3093 29.6100 0.0000 0.0000 0.0000
# 2 18.3093 100.8496 53.6577 0.0000 0.0000 0.0000
# 3 29.6100 53.6577 115.8224 0.0000 0.0000 0.0000
# 4 0.0000 0.0000 0.0000 38.4205 0.0000 0.0000
# 5 0.0000 0.0000 0.0000 0.0000 39.5066 0.0000
# 6 0.0000 0.0000 0.0000 0.0000 0.0000 25.3565
#
#
#
# Elastic Compliance Matrix: (Units=1/GPa)
#
#
# Indices 1 2 3 4 5 6 
#
# 1 0.018518 -0.001119 -0.004216 0.000000 0.000000 0.000000
# 2 -0.001119 0.013227 -0.005842 0.000000 0.000000 0.000000
# 3 -0.004216 -0.005842 0.012418 0.000000 0.000000 0.000000
# 4 0.000000 0.000000 0.000000 0.026028 0.000000 0.000000
# 5 0.000000 0.000000 0.000000 0.000000 0.025312 0.000000
# 6 0.000000 0.000000 0.000000 0.000000 0.000000 0.039438
#
#
# Mechanical properties :
#
#
# Convention : Reuss Voigt Hill
#
# Bulk Modulus (GPa) = 45.84962 53.51929 49.68445
# Shear Modulus (GPa) = 30.38329 32.45289 31.41809
#
# Velocity S-wave (km/s) = 3.71648 3.84097 3.77924
# Velocity P-wave (km/s) = 6.26574 6.63330 6.45214
#
# Compressibility (1/GPa) = 0.02181043
#
# Stress axis : x y z
#
# Youngs Moduli (GPa) = 54.00031 75.60283 80.52826
#
# Poissons Ratio (x) = 0.08460 0.33949
# Poissons Ratio (y) = 0.06042 0.47042
# Poissons Ratio (z) = 0.22766 0.44165
#
# Static dielectric constant tensor:
#      x y z
#    x 3.863240 0.000000 0.000000 
#    y 0.000000 3.946000 0.000000 
#    z 0.000000 0.000000 4.119460 
# 
# 
# High freq. dielectric constant tensor:
#      x y z
#    x 1.864800 0.000000 0.000000 
#    y 0.000000 1.860870 0.000000 
#    z 0.000000 0.000000 1.883940 
# 
# From -- ./inp_files/8429.got.cif
#   From: 2010.03.12/outbox.cif.g09.slc.cpg/sg20_5_cif.got.tgz:8429.got - 2010.04.14 01:38:04.
