data_PCOD8159535
_publ_section_title
;
Structure prediction by ZEFSAII (Michael W. Deem and Ramdas Pophale) SiO2 
 PCOD8159535
Probable space group: C 2 2 21
;
_chemical_formula_sum "Si O2"
_cell_formula_units_Z 60
_cell_length_a 8.572315
_cell_length_b 11.390034
_cell_length_c 28.290055
_cell_angle_alpha 90.000000
_cell_angle_beta 90.000000
_cell_angle_gamma 90.000000
_cell_volume 2762.211529
_symmetry_space_group_name_H-M "C 2 2 21"
_symmetry_group_IT_number 20
_symmetry_cell_setting 'orthorhombic'
loop_
_space_group_symop_operation_xyz
x,y,z
-x,-y,1/2+z
x,-y,-z
-x,y,1/2-z
1/2+x,1/2+y,z
1/2-x,1/2-y,1/2+z
1/2+x,1/2-y,-z
1/2-x,1/2+y,1/2-z
loop_
_atom_site_type_symbol
_atom_site_label
_atom_site_fract_x
_atom_site_fract_y
_atom_site_fract_z
Si Si1 0.941338 0.108806 0.031679
Si Si2 0.680961 0.964580 0.827947
Si Si3 0.367133 0.526932 0.605693
Si Si4 0.013539 0.925561 0.804100
Si Si5 0.370887 0.743799 0.541507
Si Si6 0.928330 0.616783 0.102182
Si Si7 0.000000 0.332274 0.750000
Si Si8 0.262529 0.265097 0.180073
O O1 0.797219 0.196188 0.038347
O O2 0.007137 0.060441 0.081191
O O3 0.086826 0.175111 0.006459
O O4 0.883285 0.000000 0.000000
O O5 0.586790 0.932180 0.874645
O O6 0.583735 0.925243 0.783179
O O7 0.845108 0.896879 0.826094
O O8 0.714978 0.102169 0.827388
O O9 0.400303 0.522895 0.662327
O O10 0.377344 0.658796 0.587226
O O11 0.191255 0.488408 0.593523
O O12 0.108038 0.805208 0.805884
O O13 0.000000 0.972586 0.750000
O O14 0.512049 0.834726 0.551740
O O15 0.841012 0.716883 0.132384
O O16 0.883447 0.245860 0.777002
#
# Coordination Sequence:
#
# PCOD8159535 Si02
#       8
#     8   8   8   8   8   8   4   8
#     4  10  23  41  66  99 128 163 213 258 319 395
#     4  11  23  38  59  84 120 162 211 265 317 371
#     4  10  23  42  63  93 135 166 211 267 316 379
#     4  11  22  41  63  92 125 173 222 261 313 380
#     4  11  22  42  69  96 128 170 202 264 330 383
#     4  10  23  40  60  94 126 161 214 258 317 387
#     4  10  22  36  54  84 112 152 218 260 308 374
#     4  10  23  40  59  86 123 168 209 270 316 370
#
# _framework density 21.721726
#
# number of rings (size 3 to 8) (size 9 to 14) (size 15 to 20)
#    0.000    1.600    1.333    2.400    1.867    5.333 
#    0.000    2.667    0.000    0.000    0.000    0.000 
#    0.000    0.000    0.000    0.000    0.000    0.000 
#
# Total GULP energy -372006.147687 kJ/mol
# GULP energy per Si atom -12400.204923 kJ/mol
# Density = 2.167229 g / cm^3
# Si number density = 21.721726 Si / 1000 Ang^3
#
#
#
# Elastic Constant Matrix: (Units=GPa)
#
#
# Indices 1 2 3 4 5 6 
#
# 1 132.2240 48.8725 31.2767 0.0000 0.0000 0.0000
# 2 48.8725 98.1499 32.6324 0.0000 0.0000 0.0000
# 3 31.2767 32.6324 74.4771 0.0000 0.0000 0.0000
# 4 0.0000 0.0000 0.0000 18.7729 0.0000 0.0000
# 5 0.0000 0.0000 0.0000 0.0000 48.8706 0.0000
# 6 0.0000 0.0000 0.0000 0.0000 0.0000 37.3075
#
#
#
# Elastic Compliance Matrix: (Units=1/GPa)
#
#
# Indices 1 2 3 4 5 6 
#
# 1 0.009584 -0.004020 -0.002264 0.000000 0.000000 0.000000
# 2 -0.004020 0.013612 -0.004276 0.000000 0.000000 0.000000
# 3 -0.002264 -0.004276 0.016251 0.000000 0.000000 0.000000
# 4 0.000000 0.000000 0.000000 0.053268 0.000000 0.000000
# 5 0.000000 0.000000 0.000000 0.000000 0.020462 0.000000
# 6 0.000000 0.000000 0.000000 0.000000 0.000000 0.026804
#
#
# Mechanical properties :
#
#
# Convention : Reuss Voigt Hill
#
# Bulk Modulus (GPa) = 54.56015 58.93490 56.74752
# Shear Modulus (GPa) = 29.90257 33.79481 31.84869
#
# Velocity S-wave (km/s) = 3.71431 3.94865 3.83327
# Velocity P-wave (km/s) = 6.60054 6.92675 6.76561
#
# Compressibility (1/GPa) = 0.01832839
#
# Stress axis : x y z
#
# Youngs Moduli (GPa) = 104.33918 73.46623 61.53443
#
# Poissons Ratio (x) = 0.29531 0.13929
# Poissons Ratio (y) = 0.41941 0.26312
# Poissons Ratio (z) = 0.23618 0.31414
#
# Static dielectric constant tensor:
#      x y z
#    x 4.176010 0.000000 0.000000 
#    y 0.000000 3.658220 0.000000 
#    z 0.000000 0.000000 3.972530 
# 
# 
# High freq. dielectric constant tensor:
#      x y z
#    x 1.870900 0.000000 0.000000 
#    y 0.000000 1.844140 0.000000 
#    z 0.000000 0.000000 1.854860 
# 
# From -- ./inp_files/31049.got.cif
#   From: 2010.03.12/outbox.cif.g09.slc.cpg/sg20_16_cif.got.tgz:31049.got - 2010.04.14 01:38:04.
