data_PCOD8159094
_publ_section_title
;
Structure prediction by ZEFSAII (Michael W. Deem and Ramdas Pophale) SiO2 
 PCOD8159094
Probable space group: C 2 2 21
;
_chemical_formula_sum "Si O2"
_cell_formula_units_Z 56
_cell_length_a 17.870401
_cell_length_b 13.843609
_cell_length_c 11.293680
_cell_angle_alpha 90.000000
_cell_angle_beta 90.000000
_cell_angle_gamma 90.000000
_cell_volume 2793.953028
_symmetry_space_group_name_H-M "C 2 2 21"
_symmetry_group_IT_number 20
_symmetry_cell_setting 'orthorhombic'
loop_
_space_group_symop_operation_xyz
x,y,z
-x,-y,1/2+z
x,-y,-z
-x,y,1/2-z
1/2+x,1/2+y,z
1/2-x,1/2-y,1/2+z
1/2+x,1/2-y,-z
1/2-x,1/2+y,1/2-z
loop_
_atom_site_type_symbol
_atom_site_label
_atom_site_fract_x
_atom_site_fract_y
_atom_site_fract_z
Si Si1 0.223857 0.403098 0.666720
Si Si2 0.335140 0.723047 0.712843
Si Si3 0.611441 0.388891 0.765045
Si Si4 0.701216 0.882397 0.395987
Si Si5 0.937369 0.910246 0.163805
Si Si6 0.048994 0.174130 0.996263
Si Si7 0.954830 0.700129 0.854310
O O1 0.165208 0.332775 0.735833
O O2 0.299662 0.389261 0.739834
O O3 0.233674 0.377486 0.528447
O O4 0.201888 0.515012 0.670844
O O5 0.250215 0.692441 0.680405
O O6 0.362505 0.654052 0.820523
O O7 0.389954 0.705260 0.601708
O O8 0.579376 0.479548 0.693860
O O9 0.588660 0.390210 0.903117
O O10 0.577152 0.297414 0.702330
O O11 0.613467 0.860062 0.405230
O O12 0.000000 0.865967 0.250000
O O13 0.977637 0.893470 0.038397
O O14 0.014052 0.275015 0.042622
O O15 0.000000 0.643527 0.750000
#
# Coordination Sequence:
#
# PCOD8159094 Si02
#       7
#     8   8   8   8   8   8   8
#     4  11  23  39  62  94 118 161 216 248 311 370
#     4  11  21  38  64  87 122 160 204 256 302 373
#     4  11  20  36  62  92 125 160 203 258 313 382
#     4  11  22  40  65  87 125 164 205 257 304 375
#     4  10  21  33  56  91 122 153 196 249 309 372
#     4  10  22  39  59  90 129 162 199 257 318 367
#     4  10  22  40  62  90 122 167 211 255 314 369
#
# _framework density 20.043286999999999
#
# number of rings (size 3 to 8) (size 9 to 14) (size 15 to 20)
#    0.000    1.429    4.286    2.143    0.000    5.143 
#    0.000    5.000    0.000    6.857    0.000    0.000 
#    0.000    0.000    0.000    0.000    0.000    0.000 
#
# Total GULP energy -346943.372838 kJ/mol
# GULP energy per Si atom -12390.834744 kJ/mol
# Density = 1.999767 g / cm^3
# Si number density = 20.043287 Si / 1000 Ang^3
#
#
#
# Elastic Constant Matrix: (Units=GPa)
#
#
# Indices 1 2 3 4 5 6 
#
# 1 86.8559 22.0672 12.8209 0.0000 0.0000 0.0000
# 2 22.0672 81.9597 32.7207 0.0000 0.0000 0.0000
# 3 12.8209 32.7207 59.4866 0.0000 0.0000 0.0000
# 4 0.0000 0.0000 0.0000 19.4734 0.0000 0.0000
# 5 0.0000 0.0000 0.0000 0.0000 32.3047 0.0000
# 6 0.0000 0.0000 0.0000 0.0000 0.0000 56.8329
#
#
#
# Elastic Compliance Matrix: (Units=1/GPa)
#
#
# Indices 1 2 3 4 5 6 
#
# 1 0.012412 -0.002914 -0.001072 0.000000 0.000000 0.000000
# 2 -0.002914 0.016318 -0.008348 0.000000 0.000000 0.000000
# 3 -0.001072 -0.008348 0.021633 0.000000 0.000000 0.000000
# 4 0.000000 0.000000 0.000000 0.051352 0.000000 0.000000
# 5 0.000000 0.000000 0.000000 0.000000 0.030955 0.000000
# 6 0.000000 0.000000 0.000000 0.000000 0.000000 0.017595
#
#
# Mechanical properties :
#
#
# Convention : Reuss Voigt Hill
#
# Bulk Modulus (GPa) = 38.91718 40.39108 39.65413
# Shear Modulus (GPa) = 27.24798 32.43510 29.84154
#
# Velocity S-wave (km/s) = 3.69108 4.02711 3.86275
# Velocity P-wave (km/s) = 6.13385 6.46678 6.30251
#
# Compressibility (1/GPa) = 0.02569559
#
# Stress axis : x y z
#
# Youngs Moduli (GPa) = 80.56785 61.28070 46.22474
#
# Poissons Ratio (x) = 0.17855 0.04957
# Poissons Ratio (y) = 0.23475 0.38588
# Poissons Ratio (z) = 0.08640 0.51157
#
# Static dielectric constant tensor:
#      x y z
#    x 4.176230 0.000000 0.000000 
#    y 0.000000 3.402680 0.000000 
#    z 0.000000 0.000000 3.773900 
# 
# 
# High freq. dielectric constant tensor:
#      x y z
#    x 1.792530 0.000000 0.000000 
#    y 0.000000 1.760230 0.000000 
#    z 0.000000 0.000000 1.780670 
# 
# From -- ./inp_files/15135.got.cif
#   From: 2010.03.12/outbox.cif.g09.slc.cpg/sg20_8_cif.got.tgz:15135.got - 2010.04.14 01:38:04.
