data_PCOD8159750
_publ_section_title
;
Structure prediction by ZEFSAII (Michael W. Deem and Ramdas Pophale) SiO2 
 PCOD8159750
Probable space group: C 2 2 21
;
_chemical_formula_sum "Si O2"
_cell_formula_units_Z 52
_cell_length_a 8.352801
_cell_length_b 15.642341
_cell_length_c 18.356538
_cell_angle_alpha 90.000000
_cell_angle_beta 90.000000
_cell_angle_gamma 90.000000
_cell_volume 2398.416822
_symmetry_space_group_name_H-M "C 2 2 21"
_symmetry_group_IT_number 20
_symmetry_cell_setting 'orthorhombic'
loop_
_space_group_symop_operation_xyz
x,y,z
-x,-y,1/2+z
x,-y,-z
-x,y,1/2-z
1/2+x,1/2+y,z
1/2-x,1/2-y,1/2+z
1/2+x,1/2-y,-z
1/2-x,1/2+y,1/2-z
loop_
_atom_site_type_symbol
_atom_site_label
_atom_site_fract_x
_atom_site_fract_y
_atom_site_fract_z
Si Si1 0.500000 0.520528 0.750000
Si Si2 0.748092 0.099676 0.169160
Si Si3 0.172549 0.691226 0.915242
Si Si4 0.170564 0.236868 0.441047
Si Si5 0.236990 0.118517 0.847356
Si Si6 0.322365 0.256109 0.738931
Si Si7 0.522450 0.018921 0.914247
O O1 0.638685 0.467689 0.710096
O O2 0.574632 0.578180 0.815191
O O3 0.840322 0.148862 0.104030
O O4 0.700058 0.173505 0.227884
O O5 0.587735 0.060510 0.133414
O O6 0.229019 0.740409 0.843471
O O7 0.161741 0.589579 0.903782
O O8 0.997996 0.717446 0.940524
O O9 0.298861 0.715786 0.975773
O O10 0.297152 0.307082 0.408045
O O11 0.327369 0.166001 0.781242
O O12 0.351397 0.044868 0.880130
O O13 0.500000 0.295812 0.750000
O O14 0.499368 0.000000 0.000000
#
# Coordination Sequence:
#
# PCOD8159750 Si02
#       7
#     4   8   8   8   8   8   8
#     4  12  24  42  64 102 134 168 218 284 338 376
#     4  11  22  41  67  97 129 167 224 271 330 391
#     4  11  21  40  68  90 130 172 215 268 334 387
#     4  10  22  42  64  93 126 172 223 260 324 402
#     4  10  25  44  66  93 133 177 219 267 333 404
#     4  11  19  43  71  89 125 179 217 267 326 393
#     4  11  22  42  68  99 130 173 219 275 338 396
#
# _framework density 21.680968
#
# number of rings (size 3 to 8) (size 9 to 14) (size 15 to 20)
#    0.000    1.231    6.923    0.923    0.000    2.462 
#   11.077    7.692    0.000    0.000    0.000    0.000 
#    0.000    0.000    0.000    0.000    0.000    0.000 
#
# Total GULP energy -322254.051197 kJ/mol
# GULP energy per Si atom -12394.386584 kJ/mol
# Density = 2.163162 g / cm^3
# Si number density = 21.680968 Si / 1000 Ang^3
#
#
#
# Elastic Constant Matrix: (Units=GPa)
#
#
# Indices 1 2 3 4 5 6 
#
# 1 42.6483 26.8747 30.2061 0.0000 0.0000 0.0000
# 2 26.8747 90.5633 40.7972 0.0000 0.0000 0.0000
# 3 30.2061 40.7972 156.7835 0.0000 0.0000 0.0000
# 4 0.0000 0.0000 0.0000 14.5947 0.0000 0.0000
# 5 0.0000 0.0000 0.0000 0.0000 37.9253 0.0000
# 6 0.0000 0.0000 0.0000 0.0000 0.0000 20.3697
#
#
#
# Elastic Compliance Matrix: (Units=1/GPa)
#
#
# Indices 1 2 3 4 5 6 
#
# 1 0.030954 -0.007362 -0.004048 0.000000 0.000000 0.000000
# 2 -0.007362 0.014259 -0.002292 0.000000 0.000000 0.000000
# 3 -0.004048 -0.002292 0.007755 0.000000 0.000000 0.000000
# 4 0.000000 0.000000 0.000000 0.068518 0.000000 0.000000
# 5 0.000000 0.000000 0.000000 0.000000 0.026368 0.000000
# 6 0.000000 0.000000 0.000000 0.000000 0.000000 0.049093
#
#
# Mechanical properties :
#
#
# Convention : Reuss Voigt Hill
#
# Bulk Modulus (GPa) = 39.11828 53.97236 46.54532
# Shear Modulus (GPa) = 21.47114 27.38574 24.42844
#
# Velocity S-wave (km/s) = 3.15035 3.55790 3.36031
# Velocity P-wave (km/s) = 5.59596 6.46731 6.04735
#
# Compressibility (1/GPa) = 0.02556350
#
# Stress axis : x y z
#
# Youngs Moduli (GPa) = 32.30631 70.13005 128.95711
#
# Poissons Ratio (x) = 0.51630 0.52200
# Poissons Ratio (y) = 0.23784 0.29558
# Poissons Ratio (z) = 0.13077 0.16074
#
# Static dielectric constant tensor:
#      x y z
#    x 3.581820 0.000000 0.000000 
#    y 0.000000 4.259350 0.000000 
#    z 0.000000 0.000000 4.255210 
# 
# 
# High freq. dielectric constant tensor:
#      x y z
#    x 1.814950 0.000000 0.000000 
#    y 0.000000 1.863780 0.000000 
#    z 0.000000 0.000000 1.868130 
# 
# From -- ./inp_files/23714.got.cif
#   From: 2010.03.12/outbox.cif.g09.slc.cpg/sg20_12_cif.got.tgz:23714.got - 2010.04.14 01:38:04.
