data_PCOD8159125
_publ_section_title
;
Structure prediction by ZEFSAII (Michael W. Deem and Ramdas Pophale) SiO2 
 PCOD8159125
Probable space group: C 2 2 21
;
_chemical_formula_sum "Si O2"
_cell_formula_units_Z 48
_cell_length_a 22.175244
_cell_length_b 11.357648
_cell_length_c 9.587618
_cell_angle_alpha 90.000000
_cell_angle_beta 90.000000
_cell_angle_gamma 90.000000
_cell_volume 2414.724197
_symmetry_space_group_name_H-M "C 2 2 21"
_symmetry_group_IT_number 20
_symmetry_cell_setting 'orthorhombic'
loop_
_space_group_symop_operation_xyz
x,y,z
-x,-y,1/2+z
x,-y,-z
-x,y,1/2-z
1/2+x,1/2+y,z
1/2-x,1/2-y,1/2+z
1/2+x,1/2-y,-z
1/2-x,1/2+y,1/2-z
loop_
_atom_site_type_symbol
_atom_site_label
_atom_site_fract_x
_atom_site_fract_y
_atom_site_fract_z
Si Si1 0.626700 0.285195 0.711130
Si Si2 0.151610 0.950997 0.204058
Si Si3 0.778983 0.461422 0.860657
Si Si4 0.443654 0.500000 0.500000
Si Si5 0.000000 0.146871 0.250000
Si Si6 0.178328 0.589166 0.894092
Si Si7 0.199728 0.207400 0.567365
O O1 0.634837 0.423006 0.734165
O O2 0.554518 0.269023 0.698408
O O3 0.645183 0.208163 0.846483
O O4 0.665307 0.252799 0.573576
O O5 0.152295 0.855423 0.328582
O O6 0.217165 0.962858 0.135696
O O7 0.101738 0.913383 0.088124
O O8 0.819285 0.502798 0.735715
O O9 0.771777 0.320458 0.854114
O O10 0.814068 0.500000 0.000000
O O11 0.483878 0.569202 0.387448
O O12 0.243761 0.620949 0.962131
O O13 0.143820 0.500000 0.000000
#
# Coordination Sequence:
#
# PCOD8159125 Si02
#       7
#     8   8   8   4   4   8   8
#     4  11  22  42  61  90 130 163 217 269 317 395
#     4  10  21  36  60  93 128 164 211 260 325 384
#     4  11  20  35  57  96 130 163 205 255 325 388
#     4  10  22  40  62  90 126 164 216 268 322 394
#     4  10  26  40  64  90 126 172 216 272 332 370
#     4  11  24  37  64  95 129 169 209 258 329 394
#     4  11  22  37  65  95 133 168 208 265 332 392
#
# _framework density 19.878046999999999
#
# number of rings (size 3 to 8) (size 9 to 14) (size 15 to 20)
#    0.000    1.333    4.167    2.500    4.667    2.667 
#    0.000    0.000    3.667    0.000    0.000    0.000 
#    0.000    0.000    0.000    0.000    0.000    0.000 
#
# Total GULP energy -297338.446705 kJ/mol
# GULP energy per Si atom -12389.101946 kJ/mol
# Density = 1.983280 g / cm^3
# Si number density = 19.878047 Si / 1000 Ang^3
#
#
#
# Elastic Constant Matrix: (Units=GPa)
#
#
# Indices 1 2 3 4 5 6 
#
# 1 89.2623 22.6855 47.8622 0.0000 0.0000 0.0000
# 2 22.6855 87.9430 32.2835 0.0000 0.0000 0.0000
# 3 47.8622 32.2835 111.1941 0.0000 0.0000 0.0000
# 4 0.0000 0.0000 0.0000 41.9480 0.0000 0.0000
# 5 0.0000 0.0000 0.0000 0.0000 27.2796 0.0000
# 6 0.0000 0.0000 0.0000 0.0000 0.0000 18.4319
#
#
#
# Elastic Compliance Matrix: (Units=1/GPa)
#
#
# Indices 1 2 3 4 5 6 
#
# 1 0.014776 -0.001653 -0.005880 0.000000 0.000000 0.000000
# 2 -0.001653 0.012912 -0.003037 0.000000 0.000000 0.000000
# 3 -0.005880 -0.003037 0.012406 0.000000 0.000000 0.000000
# 4 0.000000 0.000000 0.000000 0.023839 0.000000 0.000000
# 5 0.000000 0.000000 0.000000 0.000000 0.036657 0.000000
# 6 0.000000 0.000000 0.000000 0.000000 0.000000 0.054254
#
#
# Mechanical properties :
#
#
# Convention : Reuss Voigt Hill
#
# Bulk Modulus (GPa) = 52.76097 54.89574 53.82836
# Shear Modulus (GPa) = 27.42670 29.90310 28.66490
#
# Velocity S-wave (km/s) = 3.71853 3.88277 3.80154
# Velocity P-wave (km/s) = 6.71093 6.91212 6.81227
#
# Compressibility (1/GPa) = 0.01895340
#
# Stress axis : x y z
#
# Youngs Moduli (GPa) = 67.67737 77.44477 80.60460
#
# Poissons Ratio (x) = 0.12801 0.47397
# Poissons Ratio (y) = 0.11187 0.24483
# Poissons Ratio (z) = 0.39796 0.23523
#
# Static dielectric constant tensor:
#      x y z
#    x 3.738260 0.000000 0.000000 
#    y 0.000000 3.658540 0.000000 
#    z 0.000000 0.000000 3.897570 
# 
# 
# High freq. dielectric constant tensor:
#      x y z
#    x 1.737590 0.000000 0.000000 
#    y 0.000000 1.765090 0.000000 
#    z 0.000000 0.000000 1.795130 
# 
# From -- ./inp_files/7424.got.cif
#   From: 2010.03.12/outbox.cif.g09.slc.cpg/sg20_4_cif.got.tgz:7424.got - 2010.04.14 01:38:04.
