data_PCOD8159311
_publ_section_title
;
Structure prediction by ZEFSAII (Michael W. Deem and Ramdas Pophale) SiO2 
 PCOD8159311
Probable space group: C 2 2 21
;
_chemical_formula_sum "Si O2"
_cell_formula_units_Z 52
_cell_length_a 10.483784
_cell_length_b 8.998426
_cell_length_c 25.486555
_cell_angle_alpha 90.000000
_cell_angle_beta 90.000000
_cell_angle_gamma 90.000000
_cell_volume 2404.339272
_symmetry_space_group_name_H-M "C 2 2 21"
_symmetry_group_IT_number 20
_symmetry_cell_setting 'orthorhombic'
loop_
_space_group_symop_operation_xyz
x,y,z
-x,-y,1/2+z
x,-y,-z
-x,y,1/2-z
1/2+x,1/2+y,z
1/2-x,1/2-y,1/2+z
1/2+x,1/2-y,-z
1/2-x,1/2+y,1/2-z
loop_
_atom_site_type_symbol
_atom_site_label
_atom_site_fract_x
_atom_site_fract_y
_atom_site_fract_z
Si Si1 0.634402 0.831136 0.482792
Si Si2 0.195077 0.369053 0.367354
Si Si3 0.500000 0.659731 0.750000
Si Si4 0.887193 0.065027 0.314505
Si Si5 0.719369 0.135033 0.217069
Si Si6 0.848688 0.646034 0.533479
Si Si7 0.083251 0.392588 0.149295
O O1 0.701360 0.808500 0.426483
O O2 0.724572 0.747761 0.524063
O O3 0.485727 0.774779 0.480474
O O4 0.628765 0.000000 0.500000
O O5 0.298584 0.498504 0.360052
O O6 0.215770 0.231230 0.328456
O O7 0.060304 0.451350 0.357971
O O8 0.500076 0.555099 0.802813
O O9 0.376318 0.763908 0.750887
O O10 0.819832 0.071552 0.257851
O O11 0.936205 0.223912 0.331562
O O12 0.650613 0.991798 0.192658
O O13 0.828900 0.500000 0.500000
O O14 0.842273 0.601385 0.594532
#
# Coordination Sequence:
#
# PCOD8159311 Si02
#       7
#     8   8   4   8   8   8   8
#     4  10  21  40  62  87 118 155 198 249 305 361
#     4  10  22  38  58  83 115 153 193 239 296 359
#     4  10  22  36  52  78 112 146 184 232 280 332
#     4  11  22  37  56  83 115 150 194 237 285 350
#     4  11  22  37  57  83 116 153 193 238 291 348
#     4  10  22  40  62  90 122 156 202 255 306 366
#     4  11  22  38  61  85 115 156 198 244 301 359
#
# _framework density 21.627562999999999
#
# number of rings (size 3 to 8) (size 9 to 14) (size 15 to 20)
#    0.000    1.538    0.000    5.538    0.000    2.462 
#    0.000    7.692    0.000    0.000    0.000    0.000 
#    0.000    0.000    0.000    0.000    0.000    0.000 
#
# Total GULP energy -322356.562440 kJ/mol
# GULP energy per Si atom -12398.329325 kJ/mol
# Density = 2.157834 g / cm^3
# Si number density = 21.627563 Si / 1000 Ang^3
#
#
#
# Elastic Constant Matrix: (Units=GPa)
#
#
# Indices 1 2 3 4 5 6 
#
# 1 67.9621 20.3862 20.5341 0.0000 0.0000 0.0000
# 2 20.3862 82.8966 17.7366 0.0000 0.0000 0.0000
# 3 20.5341 17.7366 69.4729 0.0000 0.0000 0.0000
# 4 0.0000 0.0000 0.0000 28.3509 0.0000 0.0000
# 5 0.0000 0.0000 0.0000 0.0000 33.5365 0.0000
# 6 0.0000 0.0000 0.0000 0.0000 0.0000 -52.1871
#
#
#
# Elastic Compliance Matrix: (Units=1/GPa)
#
#
# Indices 1 2 3 4 5 6 
#
# 1 0.016959 -0.003277 -0.004176 0.000000 0.000000 0.000000
# 2 -0.003277 0.013394 -0.002451 0.000000 0.000000 0.000000
# 3 -0.004176 -0.002451 0.016254 0.000000 0.000000 0.000000
# 4 0.000000 0.000000 0.000000 0.035272 0.000000 0.000000
# 5 0.000000 0.000000 0.000000 0.000000 0.029818 0.000000
# 6 0.000000 0.000000 0.000000 0.000000 0.000000 -0.019162
#
#
# Mechanical properties :
#
#
# Convention : Reuss Voigt Hill
#
# Bulk Modulus (GPa) = 37.31499 37.51615 37.41557
# Shear Modulus (GPa) = 41.22850 12.71840 26.97345
#
# Velocity S-wave (km/s) = 4.37085 2.42763 3.53537
# Velocity P-wave (km/s) = 6.53937 5.02414 5.83118
#
# Compressibility (1/GPa) = 0.02679888
#
# Stress axis : x y z
#
# Youngs Moduli (GPa) = 58.96650 74.66304 61.52320
#
# Poissons Ratio (x) = 0.24468 0.25691
# Poissons Ratio (y) = 0.19324 0.15078
# Poissons Ratio (z) = 0.24623 0.18298
#
# Static dielectric constant tensor:
#      x y z
#    x 4.052820 0.000000 0.000000 
#    y 0.000000 3.904450 0.000000 
#    z 0.000000 0.000000 5.136500 
# 
# 
# High freq. dielectric constant tensor:
#      x y z
#    x 1.857330 0.000000 0.000000 
#    y 0.000000 1.848260 0.000000 
#    z 0.000000 0.000000 1.848520 
# 
# From -- ./inp_files/30279.got.cif
#   From: 2010.03.12/outbox.cif.g09.slc.cpg/sg20_16_cif.got.tgz:30279.got - 2010.04.14 01:38:04.
