data_PCOD8159084
_publ_section_title
;
Structure prediction by ZEFSAII (Michael W. Deem and Ramdas Pophale) SiO2 
 PCOD8159084
Probable space group: C 2 2 21
;
_chemical_formula_sum "Si O2"
_cell_formula_units_Z 36
_cell_length_a 12.920080
_cell_length_b 12.201012
_cell_length_c 10.626784
_cell_angle_alpha 90.000000
_cell_angle_beta 90.000000
_cell_angle_gamma 90.000000
_cell_volume 1675.185519
_symmetry_space_group_name_H-M "C 2 2 21"
_symmetry_group_IT_number 20
_symmetry_cell_setting 'orthorhombic'
loop_
_space_group_symop_operation_xyz
x,y,z
-x,-y,1/2+z
x,-y,-z
-x,y,1/2-z
1/2+x,1/2+y,z
1/2-x,1/2-y,1/2+z
1/2+x,1/2-y,-z
1/2-x,1/2+y,1/2-z
loop_
_atom_site_type_symbol
_atom_site_label
_atom_site_fract_x
_atom_site_fract_y
_atom_site_fract_z
Si Si1 0.002820 0.338496 0.108467
Si Si2 0.222115 0.654396 0.542387
Si Si3 0.784867 0.033561 0.298672
Si Si4 0.500000 0.372573 0.750000
Si Si5 0.799913 0.393514 0.557668
O O1 0.899063 0.372234 0.035951
O O2 0.010532 0.206203 0.126583
O O3 0.000000 0.391852 0.250000
O O4 0.092511 0.382273 0.017127
O O5 0.278941 0.607029 0.422341
O O6 0.269442 0.595029 0.667185
O O7 0.233747 0.784124 0.547561
O O8 0.898594 0.050998 0.238227
O O9 0.693609 0.076293 0.205734
O O10 0.740602 0.500000 0.500000
#
# Coordination Sequence:
#
# PCOD8159084 Si02
#       5
#     8   8   8   4   8
#     4  10  21  43  72 100 145 183 232 297 356 420
#     4  11  24  47  69 102 147 183 241 306 359 429
#     4  11  25  44  73 101 145 191 236 304 363 429
#     4  10  20  46  70  94 144 188 230 294 364 410
#     4  12  25  43  74 104 141 194 244 287 370 438
#
# _framework density 21.490155999999999
#
# number of rings (size 3 to 8) (size 9 to 14) (size 15 to 20)
#    0.667    0.444    4.444    1.333    6.222    0.889 
#    8.000    0.000    0.000    0.000    0.000    0.000 
#    0.000    0.000    0.000    0.000    0.000    0.000 
#
# Total GULP energy -222999.109925 kJ/mol
# GULP energy per Si atom -12388.839440 kJ/mol
# Density = 2.144124 g / cm^3
# Si number density = 21.490156 Si / 1000 Ang^3
#
#
#
# Elastic Constant Matrix: (Units=GPa)
#
#
# Indices 1 2 3 4 5 6 
#
# 1 123.7771 39.4045 66.4064 0.0000 0.0000 0.0000
# 2 39.4045 151.2187 44.2624 0.0000 0.0000 0.0000
# 3 66.4064 44.2624 105.9368 0.0000 0.0000 0.0000
# 4 0.0000 0.0000 0.0000 29.9305 0.0000 0.0000
# 5 0.0000 0.0000 0.0000 0.0000 32.9763 0.0000
# 6 0.0000 0.0000 0.0000 0.0000 0.0000 16.3492
#
#
#
# Elastic Compliance Matrix: (Units=1/GPa)
#
#
# Indices 1 2 3 4 5 6 
#
# 1 0.012326 -0.001083 -0.007274 0.000000 0.000000 0.000000
# 2 -0.001083 0.007629 -0.002509 0.000000 0.000000 0.000000
# 3 -0.007274 -0.002509 0.015048 0.000000 0.000000 0.000000
# 4 0.000000 0.000000 0.000000 0.033411 0.000000 0.000000
# 5 0.000000 0.000000 0.000000 0.000000 0.030325 0.000000
# 6 0.000000 0.000000 0.000000 0.000000 0.000000 0.061165
#
#
# Mechanical properties :
#
#
# Convention : Reuss Voigt Hill
#
# Bulk Modulus (GPa) = 75.34998 75.67547 75.51272
# Shear Modulus (GPa) = 26.87293 31.24180 29.05736
#
# Velocity S-wave (km/s) = 3.54004 3.81697 3.68111
# Velocity P-wave (km/s) = 7.20055 7.39704 7.29945
#
# Compressibility (1/GPa) = 0.01327140
#
# Stress axis : x y z
#
# Youngs Moduli (GPa) = 81.12613 131.07043 66.45448
#
# Poissons Ratio (x) = 0.14192 0.48342
# Poissons Ratio (y) = 0.08784 0.16673
# Poissons Ratio (z) = 0.59015 0.32886
#
# Static dielectric constant tensor:
#      x y z
#    x 3.617910 0.000000 0.000000 
#    y 0.000000 4.056160 0.000000 
#    z 0.000000 0.000000 3.916320 
# 
# 
# High freq. dielectric constant tensor:
#      x y z
#    x 1.832130 0.000000 0.000000 
#    y 0.000000 1.847290 0.000000 
#    z 0.000000 0.000000 1.838480 
# 
# From -- ./inp_files/14826.got.cif
#   From: 2010.03.12/outbox.cif.g09.slc.cpg/sg20_8_cif.got.tgz:14826.got - 2010.04.14 01:38:04.
