data_PCOD8159485
_publ_section_title
;
Structure prediction by ZEFSAII (Michael W. Deem and Ramdas Pophale) SiO2 
 PCOD8159485
Probable space group: C 2 2 21
;
_chemical_formula_sum "Si O2"
_cell_formula_units_Z 64
_cell_length_a 8.612954
_cell_length_b 15.240118
_cell_length_c 22.997704
_cell_angle_alpha 90.000000
_cell_angle_beta 90.000000
_cell_angle_gamma 90.000000
_cell_volume 3018.734633
_symmetry_space_group_name_H-M "C 2 2 21"
_symmetry_group_IT_number 20
_symmetry_cell_setting 'orthorhombic'
loop_
_space_group_symop_operation_xyz
x,y,z
-x,-y,1/2+z
x,-y,-z
-x,y,1/2-z
1/2+x,1/2+y,z
1/2-x,1/2-y,1/2+z
1/2+x,1/2-y,-z
1/2-x,1/2+y,1/2-z
loop_
_atom_site_type_symbol
_atom_site_label
_atom_site_fract_x
_atom_site_fract_y
_atom_site_fract_z
Si Si1 0.048074 0.310413 0.603653
Si Si2 0.836192 0.619178 0.223381
Si Si3 0.857486 0.058842 0.707225
Si Si4 0.651309 0.767675 0.289176
Si Si5 0.263242 0.410275 0.527997
Si Si6 0.313465 0.332156 0.898840
Si Si7 0.518060 0.497540 0.598326
Si Si8 0.045286 0.154962 0.524852
O O1 0.140686 0.331541 0.662123
O O2 0.103697 0.373240 0.551981
O O3 0.867409 0.320892 0.611321
O O4 0.091098 0.214177 0.579836
O O5 0.730205 0.533000 0.217372
O O6 0.758022 0.689558 0.265427
O O7 0.000000 0.588896 0.250000
O O8 0.740202 0.139890 0.711478
O O9 0.000000 0.071930 0.750000
O O10 0.940009 0.061448 0.644821
O O11 0.500000 0.778964 0.250000
O O12 0.604731 0.738827 0.355335
O O13 0.208428 0.500000 0.500000
O O14 0.388529 0.428239 0.578083
O O15 0.356211 0.343643 0.484692
O O16 0.348575 0.432442 0.877641
O O17 0.362838 0.318000 0.966190
O O18 0.585396 0.555415 0.544908
#
# Coordination Sequence:
#
# PCOD8159485 Si02
#       8
#     8   8   8   8   8   8   8   8
#     4  12  23  40  66 100 137 173 228 280 336 399
#     4  12  25  46  70 103 141 181 229 289 345 413
#     4  12  26  45  74 100 133 184 231 288 351 405
#     4  12  27  47  71 102 137 177 234 287 347 416
#     4   9  20  40  65  91 128 176 223 276 335 399
#     4  11  23  43  69 100 138 179 224 284 341 406
#     4  10  21  43  68  94 132 179 225 274 344 410
#     4  10  23  41  66  96 135 182 229 272 338 411
#
# _framework density 21.200934
#
# number of rings (size 3 to 8) (size 9 to 14) (size 15 to 20)
#    0.000    1.000    2.500    5.250    3.500    2.000 
#    0.000    0.000    0.000    0.000    0.000    0.000 
#    0.000    0.000    0.000    0.000    0.000    0.000 
#
# Total GULP energy -396586.206745 kJ/mol
# GULP energy per Si atom -12393.318961 kJ/mol
# Density = 2.115268 g / cm^3
# Si number density = 21.200934 Si / 1000 Ang^3
#
#
#
# Elastic Constant Matrix: (Units=GPa)
#
#
# Indices 1 2 3 4 5 6 
#
# 1 56.8083 34.7639 26.4926 0.0000 0.0000 0.0000
# 2 34.7639 120.4122 52.5343 0.0000 0.0000 0.0000
# 3 26.4926 52.5343 88.2064 0.0000 0.0000 0.0000
# 4 0.0000 0.0000 0.0000 39.6170 0.0000 0.0000
# 5 0.0000 0.0000 0.0000 0.0000 34.8354 0.0000
# 6 0.0000 0.0000 0.0000 0.0000 0.0000 37.5511
#
#
#
# Elastic Compliance Matrix: (Units=1/GPa)
#
#
# Indices 1 2 3 4 5 6 
#
# 1 0.022318 -0.004754 -0.003872 0.000000 0.000000 0.000000
# 2 -0.004754 0.012233 -0.005858 0.000000 0.000000 0.000000
# 3 -0.003872 -0.005858 0.015989 0.000000 0.000000 0.000000
# 4 0.000000 0.000000 0.000000 0.025242 0.000000 0.000000
# 5 0.000000 0.000000 0.000000 0.000000 0.028706 0.000000
# 6 0.000000 0.000000 0.000000 0.000000 0.000000 0.026630
#
#
# Mechanical properties :
#
#
# Convention : Reuss Voigt Hill
#
# Bulk Modulus (GPa) = 46.35571 54.77872 50.56721
# Shear Modulus (GPa) = 29.89060 32.50977 31.20019
#
# Velocity S-wave (km/s) = 3.75890 3.92013 3.84036
# Velocity P-wave (km/s) = 6.38369 6.81057 6.60058
#
# Compressibility (1/GPa) = 0.02157232
#
# Stress axis : x y z
#
# Youngs Moduli (GPa) = 44.80697 81.74524 62.54396
#
# Poissons Ratio (x) = 0.38864 0.24215
# Poissons Ratio (y) = 0.21302 0.36638
# Poissons Ratio (z) = 0.17347 0.47886
#
# Static dielectric constant tensor:
#      x y z
#    x 3.947820 0.000000 0.000000 
#    y 0.000000 3.874280 0.000000 
#    z 0.000000 0.000000 3.994210 
# 
# 
# High freq. dielectric constant tensor:
#      x y z
#    x 1.820250 0.000000 0.000000 
#    y 0.000000 1.837780 0.000000 
#    z 0.000000 0.000000 1.848360 
# 
# From -- ./inp_files/28887.got.cif
#   From: 2010.03.12/outbox.cif.g09.slc.cpg/sg20_15_cif.got.tgz:28887.got - 2010.04.14 01:38:04.
