data_PCOD8159100
_publ_section_title
;
Structure prediction by ZEFSAII (Michael W. Deem and Ramdas Pophale) SiO2 
 PCOD8159100
Probable space group: C 2 2 21
;
_chemical_formula_sum "Si O2"
_cell_formula_units_Z 48
_cell_length_a 25.494770
_cell_length_b 8.506386
_cell_length_c 11.711981
_cell_angle_alpha 90.000000
_cell_angle_beta 90.000000
_cell_angle_gamma 90.000000
_cell_volume 2539.958049
_symmetry_space_group_name_H-M "C 2 2 21"
_symmetry_group_IT_number 20
_symmetry_cell_setting 'orthorhombic'
loop_
_space_group_symop_operation_xyz
x,y,z
-x,-y,1/2+z
x,-y,-z
-x,y,1/2-z
1/2+x,1/2+y,z
1/2-x,1/2-y,1/2+z
1/2+x,1/2-y,-z
1/2-x,1/2+y,1/2-z
loop_
_atom_site_type_symbol
_atom_site_label
_atom_site_fract_x
_atom_site_fract_y
_atom_site_fract_z
Si Si1 0.349955 0.831578 0.643762
Si Si2 0.560577 0.322380 0.276836
Si Si3 0.176454 0.682402 0.886430
Si Si4 0.113779 0.318768 0.512925
Si Si5 0.298527 0.680374 0.848840
Si Si6 0.368934 0.396596 0.803849
O O1 0.407801 0.783478 0.685866
O O2 0.341922 0.779194 0.513956
O O3 0.305640 0.743735 0.719467
O O4 0.346246 0.018401 0.658354
O O5 0.500000 0.312419 0.250000
O O6 0.570613 0.260790 0.405099
O O7 0.580508 0.501769 0.267169
O O8 0.238920 0.671312 0.884467
O O9 0.155758 0.821864 0.808753
O O10 0.099454 0.500000 0.500000
O O11 0.171706 0.301285 0.567237
O O12 0.112020 0.236816 0.390183
O O13 0.324946 0.508257 0.861737
#
# Coordination Sequence:
#
# PCOD8159100 Si02
#       6
#     8   8   8   8   8   8
#     4   9  22  39  54  89 123 157 198 241 289 350
#     4  10  22  45  63  83 116 153 200 259 305 347
#     4  11  21  36  59  88 129 157 189 242 290 351
#     4  10  21  40  62  92 118 153 205 241 284 361
#     4  10  21  34  59  87 126 165 191 232 282 353
#     4  10  21  38  60  91 116 155 202 241 286 356
#
# _framework density 18.897950000000002
#
# number of rings (size 3 to 8) (size 9 to 14) (size 15 to 20)
#    0.000    2.333    0.000    5.000    7.000    2.667 
#   12.000    1.667    0.000    0.000    0.000    0.000 
#    0.000    0.000    0.000    0.000    0.000    0.000 
#
# Total GULP energy -297639.276550 kJ/mol
# GULP energy per Si atom -12401.636523 kJ/mol
# Density = 1.885494 g / cm^3
# Si number density = 18.897950 Si / 1000 Ang^3
#
#
#
# Elastic Constant Matrix: (Units=GPa)
#
#
# Indices 1 2 3 4 5 6 
#
# 1 134.4091 25.1842 33.3957 0.0000 0.0000 0.0000
# 2 25.1842 81.2201 10.7789 0.0000 0.0000 0.0000
# 3 33.3957 10.7789 59.1042 0.0000 0.0000 0.0000
# 4 0.0000 0.0000 0.0000 38.2412 0.0000 0.0000
# 5 0.0000 0.0000 0.0000 0.0000 18.0067 0.0000
# 6 0.0000 0.0000 0.0000 0.0000 0.0000 10.6980
#
#
#
# Elastic Compliance Matrix: (Units=1/GPa)
#
#
# Indices 1 2 3 4 5 6 
#
# 1 0.009014 -0.002172 -0.004697 0.000000 0.000000 0.000000
# 2 -0.002172 0.013141 -0.001169 0.000000 0.000000 0.000000
# 3 -0.004697 -0.001169 0.019787 0.000000 0.000000 0.000000
# 4 0.000000 0.000000 0.000000 0.026150 0.000000 0.000000
# 5 0.000000 0.000000 0.000000 0.000000 0.055535 0.000000
# 6 0.000000 0.000000 0.000000 0.000000 0.000000 0.093475
#
#
# Mechanical properties :
#
#
# Convention : Reuss Voigt Hill
#
# Bulk Modulus (GPa) = 38.66248 45.93903 42.30075
# Shear Modulus (GPa) = 20.67832 27.08083 23.87958
#
# Velocity S-wave (km/s) = 3.31147 3.78961 3.55858
# Velocity P-wave (km/s) = 5.92656 6.59621 6.27033
#
# Compressibility (1/GPa) = 0.02586487
#
# Stress axis : x y z
#
# Youngs Moduli (GPa) = 110.93940 76.09896 50.53935
#
# Poissons Ratio (x) = 0.16526 0.23739
# Poissons Ratio (y) = 0.24092 0.05910
# Poissons Ratio (z) = 0.52109 0.08900
#
# Static dielectric constant tensor:
#      x y z
#    x 3.189360 0.000000 0.000000 
#    y 0.000000 3.570440 0.000000 
#    z 0.000000 0.000000 3.528390 
# 
# 
# High freq. dielectric constant tensor:
#      x y z
#    x 1.709510 0.000000 0.000000 
#    y 0.000000 1.744980 0.000000 
#    z 0.000000 0.000000 1.745900 
# 
# From -- ./inp_files/16968.got.cif
#   From: 2010.03.12/outbox.cif.g09.slc.cpg/sg20_9_cif.got.tgz:16968.got - 2010.04.14 01:38:04.
