data_PCOD8159971
_publ_section_title
;
Structure prediction by ZEFSAII (Michael W. Deem and Ramdas Pophale) SiO2 
 PCOD8159971
Probable space group: C 2 2 21
;
_chemical_formula_sum "Si O2"
_cell_formula_units_Z 60
_cell_length_a 7.896731
_cell_length_b 12.333877
_cell_length_c 25.300865
_cell_angle_alpha 90.000000
_cell_angle_beta 90.000000
_cell_angle_gamma 90.000000
_cell_volume 2464.236163
_symmetry_space_group_name_H-M "C 2 2 21"
_symmetry_group_IT_number 20
_symmetry_cell_setting 'orthorhombic'
loop_
_space_group_symop_operation_xyz
x,y,z
-x,-y,1/2+z
x,-y,-z
-x,y,1/2-z
1/2+x,1/2+y,z
1/2-x,1/2-y,1/2+z
1/2+x,1/2-y,-z
1/2-x,1/2+y,1/2-z
loop_
_atom_site_type_symbol
_atom_site_label
_atom_site_fract_x
_atom_site_fract_y
_atom_site_fract_z
Si Si1 0.912342 0.843803 0.646361
Si Si2 0.561223 0.275345 0.089863
Si Si3 0.449155 0.818599 0.806748
Si Si4 0.414151 0.953340 0.556177
Si Si5 0.852030 0.552261 0.781810
Si Si6 0.104094 0.640531 0.611612
Si Si7 0.000000 0.957530 0.750000
Si Si8 0.466516 0.498839 0.061189
O O1 0.738664 0.798823 0.670746
O O2 0.020364 0.886399 0.696645
O O3 0.982209 0.742624 0.614582
O O4 0.902074 0.940922 0.601805
O O5 0.574688 0.233629 0.150502
O O6 0.511068 0.168839 0.056426
O O7 0.742864 0.326765 0.072405
O O8 0.432013 0.373788 0.078977
O O9 0.500000 0.764081 0.750000
O O10 0.461383 0.947387 0.800385
O O11 0.214217 0.942767 0.567344
O O12 0.456780 0.000000 0.500000
O O13 0.505614 0.031295 0.597424
O O14 0.803216 0.621739 0.832419
O O15 0.674811 0.526953 0.751941
O O16 0.000000 0.617985 0.750000
O O17 0.530444 0.500000 0.000000
#
# Coordination Sequence:
#
# PCOD8159971 Si02
#       8
#     8   8   8   8   8   8   4   8
#     4  11  25  46  73 108 153 206 253 324 392 467
#     4  12  25  47  76 107 151 196 252 315 381 471
#     4  10  23  45  71 106 151 195 248 312 388 470
#     4  11  27  48  75 110 147 198 259 325 390 455
#     4  10  23  42  70 101 146 197 245 313 375 461
#     4  12  26  45  72 108 148 196 259 313 386 467
#     4  10  24  44  68 106 150 200 260 302 396 480
#     4  11  27  51  76 111 153 202 266 323 388 465
#
# _framework density 24.348316000000001
#
# number of rings (size 3 to 8) (size 9 to 14) (size 15 to 20)
#    0.000    1.067    2.667    2.400   10.267    0.533 
#    7.200    0.000    0.000    0.000    0.000    0.000 
#    0.000    0.000    0.000    0.000    0.000    0.000 
#
# Total GULP energy -371680.027884 kJ/mol
# GULP energy per Si atom -12389.334263 kJ/mol
# Density = 2.429290 g / cm^3
# Si number density = 24.348316 Si / 1000 Ang^3
#
#
#
# Elastic Constant Matrix: (Units=GPa)
#
#
# Indices 1 2 3 4 5 6 
#
# 1 89.6147 21.3158 24.8938 0.0000 0.0000 0.0000
# 2 21.3158 128.3960 27.3442 0.0000 0.0000 0.0000
# 3 24.8938 27.3442 110.1371 0.0000 0.0000 0.0000
# 4 0.0000 0.0000 0.0000 21.9711 0.0000 0.0000
# 5 0.0000 0.0000 0.0000 0.0000 32.3985 0.0000
# 6 0.0000 0.0000 0.0000 0.0000 0.0000 9.3724
#
#
#
# Elastic Compliance Matrix: (Units=1/GPa)
#
#
# Indices 1 2 3 4 5 6 
#
# 1 0.012180 -0.001516 -0.002377 0.000000 0.000000 0.000000
# 2 -0.001516 0.008412 -0.001746 0.000000 0.000000 0.000000
# 3 -0.002377 -0.001746 0.010050 0.000000 0.000000 0.000000
# 4 0.000000 0.000000 0.000000 0.045514 0.000000 0.000000
# 5 0.000000 0.000000 0.000000 0.000000 0.030866 0.000000
# 6 0.000000 0.000000 0.000000 0.000000 0.000000 0.106696
#
#
# Mechanical properties :
#
#
# Convention : Reuss Voigt Hill
#
# Bulk Modulus (GPa) = 51.63908 52.80615 52.22261
# Shear Modulus (GPa) = 21.60298 29.72135 25.66217
#
# Velocity S-wave (km/s) = 2.98190 3.49760 3.25000
# Velocity P-wave (km/s) = 5.75414 6.16813 5.96473
#
# Compressibility (1/GPa) = 0.01936518
#
# Stress axis : x y z
#
# Youngs Moduli (GPa) = 82.10432 118.87962 99.50058
#
# Poissons Ratio (x) = 0.18021 0.23647
# Poissons Ratio (y) = 0.12446 0.17371
# Poissons Ratio (z) = 0.19512 0.20754
#
# Static dielectric constant tensor:
#      x y z
#    x 4.208160 0.000000 0.000000 
#    y 0.000000 4.362990 0.000000 
#    z 0.000000 0.000000 4.878370 
# 
# 
# High freq. dielectric constant tensor:
#      x y z
#    x 1.960430 0.000000 0.000000 
#    y 0.000000 1.974040 0.000000 
#    z 0.000000 0.000000 1.965130 
# 
# From -- ./inp_files/30151.got.cif
#   From: 2010.03.12/outbox.cif.g09.slc.cpg/sg20_16_cif.got.tgz:30151.got - 2010.04.14 01:38:04.
