data_PCOD8159836
_publ_section_title
;
Structure prediction by ZEFSAII (Michael W. Deem and Ramdas Pophale) SiO2 
 PCOD8159836
Probable space group: C 2 2 21
;
_chemical_formula_sum "Si O2"
_cell_formula_units_Z 52
_cell_length_a 11.504071
_cell_length_b 8.579161
_cell_length_c 25.805594
_cell_angle_alpha 90.000000
_cell_angle_beta 90.000000
_cell_angle_gamma 90.000000
_cell_volume 2546.890255
_symmetry_space_group_name_H-M "C 2 2 21"
_symmetry_group_IT_number 20
_symmetry_cell_setting 'orthorhombic'
loop_
_space_group_symop_operation_xyz
x,y,z
-x,-y,1/2+z
x,-y,-z
-x,y,1/2-z
1/2+x,1/2+y,z
1/2-x,1/2-y,1/2+z
1/2+x,1/2-y,-z
1/2-x,1/2+y,1/2-z
loop_
_atom_site_type_symbol
_atom_site_label
_atom_site_fract_x
_atom_site_fract_y
_atom_site_fract_z
Si Si1 0.661442 0.226938 0.313670
Si Si2 0.010334 0.697862 0.583297
Si Si3 0.786276 0.441072 0.247313
Si Si4 0.568067 0.946572 0.835010
Si Si5 0.232488 0.284951 0.357866
Si Si6 0.717759 0.607789 0.090825
Si Si7 0.375277 0.000000 0.000000
O O1 0.675750 0.390984 0.283334
O O2 0.527776 0.178055 0.316414
O O3 0.719259 0.230187 0.370540
O O4 0.737201 0.109444 0.277634
O O5 0.981374 0.552310 0.619828
O O6 0.909622 0.825699 0.577343
O O7 0.124552 0.777320 0.608081
O O8 0.041718 0.626698 0.527413
O O9 0.897692 0.448293 0.285572
O O10 0.811733 0.322584 0.200160
O O11 0.676677 0.853951 0.857612
O O12 0.291888 0.437817 0.383191
O O13 0.793679 0.596414 0.039080
#
# Coordination Sequence:
#
# PCOD8159836 Si02
#       7
#     8   8   8   8   8   8   4
#     4  11  22  39  63  94 127 174 208 254 311 380
#     4  11  23  43  69  89 121 167 206 269 323 375
#     4  11  21  35  61  94 128 170 209 243 309 374
#     4  12  22  39  65  88 132 167 210 259 307 377
#     4  10  24  39  59  99 129 167 212 250 314 381
#     4  10  22  44  64  90 128 160 211 266 317 376
#     4  10  22  44  64  94 120 160 214 270 330 374
#
# _framework density 20.417055000000001
#
# number of rings (size 3 to 8) (size 9 to 14) (size 15 to 20)
#    0.000    1.231    7.692    0.462    0.000    3.692 
#    0.000    1.538    0.000    0.000    0.000    0.000 
#    0.000    0.000    0.000    0.000    0.000    0.000 
#
# Total GULP energy -322319.973647 kJ/mol
# GULP energy per Si atom -12396.922063 kJ/mol
# Density = 2.037059 g / cm^3
# Si number density = 20.417055 Si / 1000 Ang^3
#
#
#
# Elastic Constant Matrix: (Units=GPa)
#
#
# Indices 1 2 3 4 5 6 
#
# 1 126.4849 45.8961 49.7984 0.0000 0.0000 0.0000
# 2 45.8961 39.3288 28.7040 0.0000 0.0000 0.0000
# 3 49.7984 28.7040 132.7491 0.0000 0.0000 0.0000
# 4 0.0000 0.0000 0.0000 23.1538 0.0000 0.0000
# 5 0.0000 0.0000 0.0000 0.0000 34.1513 0.0000
# 6 0.0000 0.0000 0.0000 0.0000 0.0000 47.0217
#
#
#
# Elastic Compliance Matrix: (Units=1/GPa)
#
#
# Indices 1 2 3 4 5 6 
#
# 1 0.014175 -0.015033 -0.002067 0.000000 0.000000 0.000000
# 2 -0.015033 0.046135 -0.004336 0.000000 0.000000 0.000000
# 3 -0.002067 -0.004336 0.009246 0.000000 0.000000 0.000000
# 4 0.000000 0.000000 0.000000 0.043189 0.000000 0.000000
# 5 0.000000 0.000000 0.000000 0.000000 0.029281 0.000000
# 6 0.000000 0.000000 0.000000 0.000000 0.000000 0.021267
#
#
# Mechanical properties :
#
#
# Convention : Reuss Voigt Hill
#
# Bulk Modulus (GPa) = 37.47677 60.81776 49.14726
# Shear Modulus (GPa) = 23.24928 32.47632 27.86280
#
# Velocity S-wave (km/s) = 3.37815 3.99262 3.69817
# Velocity P-wave (km/s) = 5.79753 7.14892 6.50839
#
# Compressibility (1/GPa) = 0.02668320
#
# Stress axis : x y z
#
# Youngs Moduli (GPa) = 70.54796 21.67546 108.15570
#
# Poissons Ratio (x) = 0.32585 0.22353
# Poissons Ratio (y) = 1.06057 0.46899
# Poissons Ratio (z) = 0.14581 0.09399
#
# Static dielectric constant tensor:
#      x y z
#    x 3.735640 0.000000 0.000000 
#    y 0.000000 3.602940 0.000000 
#    z 0.000000 0.000000 3.963930 
# 
# 
# High freq. dielectric constant tensor:
#      x y z
#    x 1.793020 0.000000 0.000000 
#    y 0.000000 1.778040 0.000000 
#    z 0.000000 0.000000 1.811160 
# 
# From -- ./inp_files/30276.got.cif
#   From: 2010.03.12/outbox.cif.g09.slc.cpg/sg20_16_cif.got.tgz:30276.got - 2010.04.14 01:38:04.
