data_PCOD8159555
_publ_section_title
;
Structure prediction by ZEFSAII (Michael W. Deem and Ramdas Pophale) SiO2 
 PCOD8159555
Probable space group: C 2 2 21
;
_chemical_formula_sum "Si O2"
_cell_formula_units_Z 60
_cell_length_a 19.580046
_cell_length_b 11.921512
_cell_length_c 12.466208
_cell_angle_alpha 90.000000
_cell_angle_beta 90.000000
_cell_angle_gamma 90.000000
_cell_volume 2909.909061
_symmetry_space_group_name_H-M "C 2 2 21"
_symmetry_group_IT_number 20
_symmetry_cell_setting 'orthorhombic'
loop_
_space_group_symop_operation_xyz
x,y,z
-x,-y,1/2+z
x,-y,-z
-x,y,1/2-z
1/2+x,1/2+y,z
1/2-x,1/2-y,1/2+z
1/2+x,1/2-y,-z
1/2-x,1/2+y,1/2-z
loop_
_atom_site_type_symbol
_atom_site_label
_atom_site_fract_x
_atom_site_fract_y
_atom_site_fract_z
Si Si1 0.076177 0.118532 0.755979
Si Si2 0.808949 0.606679 0.816233
Si Si3 0.077533 0.262114 0.560285
Si Si4 0.446692 0.633086 0.509842
Si Si5 0.896206 0.500000 0.000000
Si Si6 0.336040 0.737864 0.363040
Si Si7 0.224515 0.790721 0.534003
Si Si8 0.800544 0.041985 0.214814
O O1 0.077788 0.232963 0.686399
O O2 0.000000 0.064148 0.750000
O O3 0.128229 0.025693 0.711167
O O4 0.091070 0.158088 0.877219
O O5 0.851422 0.527932 0.895214
O O6 0.856992 0.678362 0.734437
O O7 0.759569 0.689594 0.883661
O O8 0.761362 0.539326 0.736937
O O9 0.058530 0.392558 0.535719
O O10 0.152380 0.238221 0.517879
O O11 0.022678 0.182944 0.501779
O O12 0.450066 0.500000 0.500000
O O13 0.404654 0.694500 0.417686
O O14 0.284456 0.797668 0.446536
O O15 0.299003 0.631199 0.310866
O O16 0.215262 0.906835 0.597929
#
# Coordination Sequence:
#
# PCOD8159555 Si02
#       8
#     8   8   8   8   4   8   8   8
#     4  10  22  37  61  96 123 164 211 264 326 386
#     4  10  22  38  61  90 121 170 219 261 321 392
#     4  10  23  42  65  93 125 173 222 255 323 395
#     4  11  23  42  67  96 134 167 206 275 335 378
#     4  10  22  48  64  82 124 174 212 266 320 388
#     4  11  23  39  59  98 128 167 217 266 335 383
#     4  10  23  37  60  91 131 166 216 267 318 392
#     4  11  21  37  61  88 129 169 211 272 324 381
#
# _framework density 20.619202000000001
#
# number of rings (size 3 to 8) (size 9 to 14) (size 15 to 20)
#    0.000    1.600    1.333    3.200    3.733    4.800 
#    0.000   10.667    0.000    0.000    0.000    0.000 
#    0.000    0.000    0.000    0.000    0.000    0.000 
#
# Total GULP energy -371895.373071 kJ/mol
# GULP energy per Si atom -12396.512436 kJ/mol
# Density = 2.057227 g / cm^3
# Si number density = 20.619202 Si / 1000 Ang^3
#
#
#
# Elastic Constant Matrix: (Units=GPa)
#
#
# Indices 1 2 3 4 5 6 
#
# 1 69.4922 51.6354 20.9901 0.0000 0.0000 0.0000
# 2 51.6354 115.1758 62.3549 0.0000 0.0000 0.0000
# 3 20.9901 62.3549 101.8361 0.0000 0.0000 0.0000
# 4 0.0000 0.0000 0.0000 45.8816 0.0000 0.0000
# 5 0.0000 0.0000 0.0000 0.0000 24.1475 0.0000
# 6 0.0000 0.0000 0.0000 0.0000 0.0000 30.0930
#
#
#
# Elastic Compliance Matrix: (Units=1/GPa)
#
#
# Indices 1 2 3 4 5 6 
#
# 1 0.021915 -0.011039 0.002242 0.000000 0.000000 0.000000
# 2 -0.011039 0.018548 -0.009082 0.000000 0.000000 0.000000
# 3 0.002242 -0.009082 0.014918 0.000000 0.000000 0.000000
# 4 0.000000 0.000000 0.000000 0.021795 0.000000 0.000000
# 5 0.000000 0.000000 0.000000 0.000000 0.041412 0.000000
# 6 0.000000 0.000000 0.000000 0.000000 0.000000 0.033230
#
#
# Mechanical properties :
#
#
# Convention : Reuss Voigt Hill
#
# Bulk Modulus (GPa) = 50.95662 61.82941 56.39301
# Shear Modulus (GPa) = 25.75755 30.12601 27.94178
#
# Velocity S-wave (km/s) = 3.53824 3.82654 3.68521
# Velocity P-wave (km/s) = 6.43887 7.04092 6.74661
#
# Compressibility (1/GPa) = 0.01962453
#
# Stress axis : x y z
#
# Youngs Moduli (GPa) = 45.63060 53.91406 67.03114
#
# Poissons Ratio (x) = 0.59514 -0.15029
# Poissons Ratio (y) = 0.50370 0.60876
# Poissons Ratio (z) = -0.10231 0.48964
#
# Static dielectric constant tensor:
#      x y z
#    x 3.486280 0.000000 0.000000 
#    y 0.000000 4.038070 0.000000 
#    z 0.000000 0.000000 4.129630 
# 
# 
# High freq. dielectric constant tensor:
#      x y z
#    x 1.785170 0.000000 0.000000 
#    y 0.000000 1.808820 0.000000 
#    z 0.000000 0.000000 1.826430 
# 
# From -- ./inp_files/16372.got.cif
#   From: 2010.03.12/outbox.cif.g09.slc.cpg/sg20_9_cif.got.tgz:16372.got - 2010.04.14 01:38:04.
