data_PCOD8159103
_publ_section_title
;
Structure prediction by ZEFSAII (Michael W. Deem and Ramdas Pophale) SiO2 
 PCOD8159103
Probable space group: C 2 2 21
;
_chemical_formula_sum "Si O2"
_cell_formula_units_Z 52
_cell_length_a 20.877754
_cell_length_b 13.224378
_cell_length_c 9.875968
_cell_angle_alpha 90.000000
_cell_angle_beta 90.000000
_cell_angle_gamma 90.000000
_cell_volume 2726.708453
_symmetry_space_group_name_H-M "C 2 2 21"
_symmetry_group_IT_number 20
_symmetry_cell_setting 'orthorhombic'
loop_
_space_group_symop_operation_xyz
x,y,z
-x,-y,1/2+z
x,-y,-z
-x,y,1/2-z
1/2+x,1/2+y,z
1/2-x,1/2-y,1/2+z
1/2+x,1/2-y,-z
1/2-x,1/2+y,1/2-z
loop_
_atom_site_type_symbol
_atom_site_label
_atom_site_fract_x
_atom_site_fract_y
_atom_site_fract_z
Si Si1 0.088113 0.119252 0.476515
Si Si2 0.209750 0.252767 0.443208
Si Si3 0.610944 0.554087 0.859079
Si Si4 0.000000 0.920988 0.750000
Si Si5 0.069602 0.757062 0.254416
Si Si6 0.698272 0.161482 0.264172
Si Si7 0.247188 0.541807 0.647574
O O1 0.149889 0.178590 0.416056
O O2 0.025094 0.141287 0.381065
O O3 0.072119 0.167013 0.619625
O O4 0.101637 0.000000 0.500000
O O5 0.272273 0.203091 0.375189
O O6 0.223365 0.276671 0.602537
O O7 0.201597 0.359351 0.362672
O O8 0.563206 0.487525 0.770911
O O9 0.583567 0.668447 0.873089
O O10 0.681821 0.563377 0.789784
O O11 0.616210 0.500000 0.000000
O O12 0.121368 0.668545 0.261133
O O13 0.000000 0.705038 0.250000
O O14 0.711972 0.042439 0.264245
O O15 0.260346 0.500000 0.500000
#
# Coordination Sequence:
#
# PCOD8159103 Si02
#       7
#     8   8   8   4   8   8   8
#     4  11  22  35  53  85 114 150 183 234 288 340
#     4  10  21  37  57  84 116 148 191 236 290 334
#     4  11  19  29  51  76 111 141 179 224 276 345
#     4  12  20  32  50  80 114 150 174 222 302 334
#     4  11  20  35  52  80 113 146 189 229 285 338
#     4  10  21  35  57  84 109 152 191 239 285 344
#     4   9  19  36  54  79 108 147 189 224 279 342
#
# _framework density 19.070611
#
# number of rings (size 3 to 8) (size 9 to 14) (size 15 to 20)
#    0.000    1.538    3.846    2.308    0.000    0.000 
#    2.769    0.000    1.692    0.000    0.000    0.000 
#    0.000    0.000    0.000    0.000    0.000    0.000 
#
# Total GULP energy -322090.011020 kJ/mol
# GULP energy per Si atom -12388.077347 kJ/mol
# Density = 1.902721 g / cm^3
# Si number density = 19.070611 Si / 1000 Ang^3
#
#
#
# Elastic Constant Matrix: (Units=GPa)
#
#
# Indices 1 2 3 4 5 6 
#
# 1 150.6861 55.1151 33.0791 0.0000 0.0000 0.0000
# 2 55.1151 72.5855 17.2165 0.0000 0.0000 0.0000
# 3 33.0791 17.2165 44.5297 0.0000 0.0000 0.0000
# 4 0.0000 0.0000 0.0000 13.4326 0.0000 0.0000
# 5 0.0000 0.0000 0.0000 0.0000 20.9454 0.0000
# 6 0.0000 0.0000 0.0000 0.0000 0.0000 34.5706
#
#
#
# Elastic Compliance Matrix: (Units=1/GPa)
#
#
# Indices 1 2 3 4 5 6 
#
# 1 0.010107 -0.006489 -0.004999 0.000000 0.000000 0.000000
# 2 -0.006489 0.019333 -0.002655 0.000000 0.000000 0.000000
# 3 -0.004999 -0.002655 0.027197 0.000000 0.000000 0.000000
# 4 0.000000 0.000000 0.000000 0.074446 0.000000 0.000000
# 5 0.000000 0.000000 0.000000 0.000000 0.047743 0.000000
# 6 0.000000 0.000000 0.000000 0.000000 0.000000 0.028926
#
#
# Mechanical properties :
#
#
# Convention : Reuss Voigt Hill
#
# Bulk Modulus (GPa) = 35.27075 53.18028 44.22552
# Shear Modulus (GPa) = 20.36750 24.61576 22.49163
#
# Velocity S-wave (km/s) = 3.27158 3.59663 3.43795
# Velocity P-wave (km/s) = 5.72765 6.72266 6.24500
#
# Compressibility (1/GPa) = 0.02835210
#
# Stress axis : x y z
#
# Youngs Moduli (GPa) = 98.94044 51.72382 36.76858
#
# Poissons Ratio (x) = 0.33562 0.18382
# Poissons Ratio (y) = 0.64199 0.09761
# Poissons Ratio (z) = 0.49464 0.13731
#
# Static dielectric constant tensor:
#      x y z
#    x 3.694560 0.000000 0.000000 
#    y 0.000000 3.652160 0.000000 
#    z 0.000000 0.000000 3.013850 
# 
# 
# High freq. dielectric constant tensor:
#      x y z
#    x 1.740680 0.000000 0.000000 
#    y 0.000000 1.716860 0.000000 
#    z 0.000000 0.000000 1.736840 
# 
# From -- ./inp_files/15845.got.cif
#   From: 2010.03.12/outbox.cif.g09.slc.cpg/sg20_8_cif.got.tgz:15845.got - 2010.04.14 01:38:04.
