data_PCOD8159706
_publ_section_title
;
Structure prediction by ZEFSAII (Michael W. Deem and Ramdas Pophale) SiO2 
 PCOD8159706
Probable space group: C 2 2 21
;
_chemical_formula_sum "Si O2"
_cell_formula_units_Z 56
_cell_length_a 33.286483
_cell_length_b 4.975585
_cell_length_c 14.734877
_cell_angle_alpha 90.000000
_cell_angle_beta 90.000000
_cell_angle_gamma 90.000000
_cell_volume 2440.386284
_symmetry_space_group_name_H-M "C 2 2 21"
_symmetry_group_IT_number 20
_symmetry_cell_setting 'orthorhombic'
loop_
_space_group_symop_operation_xyz
x,y,z
-x,-y,1/2+z
x,-y,-z
-x,y,1/2-z
1/2+x,1/2+y,z
1/2-x,1/2-y,1/2+z
1/2+x,1/2-y,-z
1/2-x,1/2+y,1/2-z
loop_
_atom_site_type_symbol
_atom_site_label
_atom_site_fract_x
_atom_site_fract_y
_atom_site_fract_z
Si Si1 0.384371 0.982842 0.397471
Si Si2 0.102048 0.119370 0.601624
Si Si3 0.862202 0.995488 0.287716
Si Si4 0.474827 0.162074 0.587862
Si Si5 0.816672 0.738179 0.058364
Si Si6 0.725288 0.601840 0.731090
Si Si7 0.012494 0.174888 0.655359
O O1 0.357938 0.778763 0.338847
O O2 0.427168 0.834027 0.404160
O O3 0.366818 0.000000 0.500000
O O4 0.386665 0.272272 0.346954
O O5 0.118034 0.940063 0.688111
O O6 0.138378 0.340906 0.596506
O O7 0.059370 0.229297 0.634729
O O8 0.095968 0.000000 0.500000
O O9 0.816693 0.891151 0.283459
O O10 0.492748 0.463761 0.584230
O O11 0.490184 0.000000 0.500000
O O12 0.492833 0.969245 0.665028
O O13 0.782231 0.793689 0.130103
O O14 0.798563 0.500000 0.000000
O O15 0.825245 0.000000 0.000000
O O16 0.743092 0.302609 0.722526
O O17 0.000000 0.032577 0.750000
#
# Coordination Sequence:
#
# PCOD8159706 Si02
#       7
#     8   8   8   8   8   8   8
#     4  11  23  43  67  92 128 174 220 267 323 387
#     4  10  23  40  65  95 131 175 224 275 329 392
#     4  11  24  43  67  96 129 167 219 271 323 394
#     4  11  23  39  59  84 120 165 210 259 317 372
#     4  10  22  41  65  95 129 172 219 265 321 394
#     4  11  23  43  68  96 131 168 205 260 334 398
#     4  12  24  39  59  90 128 167 217 273 327 379
#
# _framework density 22.947188000000001
#
# number of rings (size 3 to 8) (size 9 to 14) (size 15 to 20)
#    0.000    1.143    0.000    6.429    0.000   12.000 
#    0.000    7.143    0.000    0.000    0.000    0.000 
#    0.000    0.000    0.000    0.000    0.000    0.000 
#
# Total GULP energy -346874.601473 kJ/mol
# GULP energy per Si atom -12388.378624 kJ/mol
# Density = 2.289496 g / cm^3
# Si number density = 22.947188 Si / 1000 Ang^3
#
#
#
# Elastic Constant Matrix: (Units=GPa)
#
#
# Indices 1 2 3 4 5 6 
#
# 1 84.0966 3.6351 23.1458 0.0000 0.0000 0.0000
# 2 3.6351 95.9075 22.4517 0.0000 0.0000 0.0000
# 3 23.1458 22.4517 143.7181 0.0000 0.0000 0.0000
# 4 0.0000 0.0000 0.0000 33.0671 0.0000 0.0000
# 5 0.0000 0.0000 0.0000 0.0000 29.3931 0.0000
# 6 0.0000 0.0000 0.0000 0.0000 0.0000 22.2208
#
#
#
# Elastic Compliance Matrix: (Units=1/GPa)
#
#
# Indices 1 2 3 4 5 6 
#
# 1 0.012443 -0.000003 -0.002003 0.000000 0.000000 0.000000
# 2 -0.000003 0.010822 -0.001690 0.000000 0.000000 0.000000
# 3 -0.002003 -0.001690 0.007545 0.000000 0.000000 0.000000
# 4 0.000000 0.000000 0.000000 0.030242 0.000000 0.000000
# 5 0.000000 0.000000 0.000000 0.000000 0.034022 0.000000
# 6 0.000000 0.000000 0.000000 0.000000 0.000000 0.045003
#
#
# Mechanical properties :
#
#
# Convention : Reuss Voigt Hill
#
# Bulk Modulus (GPa) = 42.70365 46.90971 44.80668
# Shear Modulus (GPa) = 32.20105 35.23549 33.71827
#
# Velocity S-wave (km/s) = 3.75009 3.92280 3.83742
# Velocity P-wave (km/s) = 6.11562 6.40349 6.26121
#
# Compressibility (1/GPa) = 0.02341720
#
# Stress axis : x y z
#
# Youngs Moduli (GPa) = 80.36896 92.40011 132.54191
#
# Poissons Ratio (x) = 0.00024 0.26554
# Poissons Ratio (y) = 0.00021 0.22403
# Poissons Ratio (z) = 0.16102 0.15618
#
# Static dielectric constant tensor:
#      x y z
#    x 4.035110 0.000000 0.000000 
#    y 0.000000 3.932940 0.000000 
#    z 0.000000 0.000000 4.697780 
# 
# 
# High freq. dielectric constant tensor:
#      x y z
#    x 1.900680 0.000000 0.000000 
#    y 0.000000 1.894840 0.000000 
#    z 0.000000 0.000000 1.925760 
# 
# From -- ./inp_files/22272.got.cif
#   From: 2010.03.12/outbox.cif.g09.slc.cpg/sg20_12_cif.got.tgz:22272.got - 2010.04.14 01:38:04.
