data_PCOD8159973
_publ_section_title
;
Structure prediction by ZEFSAII (Michael W. Deem and Ramdas Pophale) SiO2 
 PCOD8159973
Probable space group: C 2 2 21
;
_chemical_formula_sum "Si O2"
_cell_formula_units_Z 28
_cell_length_a 32.718779
_cell_length_b 4.863853
_cell_length_c 7.325799
_cell_angle_alpha 90.000000
_cell_angle_beta 90.000000
_cell_angle_gamma 90.000000
_cell_volume 1165.822755
_symmetry_space_group_name_H-M "C 2 2 21"
_symmetry_group_IT_number 20
_symmetry_cell_setting 'orthorhombic'
loop_
_space_group_symop_operation_xyz
x,y,z
-x,-y,1/2+z
x,-y,-z
-x,y,1/2-z
1/2+x,1/2+y,z
1/2-x,1/2-y,1/2+z
1/2+x,1/2-y,-z
1/2-x,1/2+y,1/2-z
loop_
_atom_site_type_symbol
_atom_site_label
_atom_site_fract_x
_atom_site_fract_y
_atom_site_fract_z
Si Si1 0.237543 0.700536 0.351182
Si Si2 0.452783 0.587184 0.795037
Si Si3 0.840352 0.500000 0.000000
Si Si4 0.903162 0.600651 0.694139
O O1 0.260507 0.500000 0.500000
O O2 0.244633 0.510848 0.166828
O O3 0.189367 0.725696 0.403347
O O4 0.500000 0.561905 0.750000
O O5 0.426141 0.389295 0.664507
O O6 0.437930 0.896210 0.768013
O O7 0.443700 0.500000 0.000000
O O8 0.867170 0.361917 0.158629
O O9 0.885116 0.500000 0.500000
#
# Coordination Sequence:
#
# PCOD8159973 Si02
#       4
#     8   8   4   8
#     4  10  23  42  70  97 136 176 229 273 353 411
#     4  12  24  44  69 101 143 183 235 289 340 412
#     4  10  26  46  74 100 150 172 236 292 352 404
#     4  12  25  45  69 101 139 187 233 284 352 403
#
# _framework density 24.017371000000001
#
# number of rings (size 3 to 8) (size 9 to 14) (size 15 to 20)
#    0.857    0.000    2.857    4.286    0.000    6.857 
#    0.000    0.000    0.000    0.000    0.000    0.000 
#    0.000    0.000    0.000    0.000    0.000    0.000 
#
# Total GULP energy -173525.289008 kJ/mol
# GULP energy per Si atom -12394.663501 kJ/mol
# Density = 2.396271 g / cm^3
# Si number density = 24.017371 Si / 1000 Ang^3
#
#
#
# Elastic Constant Matrix: (Units=GPa)
#
#
# Indices 1 2 3 4 5 6 
#
# 1 152.6361 34.6397 43.6935 0.0000 0.0000 0.0000
# 2 34.6397 108.2033 -5.8952 0.0000 0.0000 0.0000
# 3 43.6935 -5.8952 93.3613 0.0000 0.0000 0.0000
# 4 0.0000 0.0000 0.0000 29.3464 0.0000 0.0000
# 5 0.0000 0.0000 0.0000 0.0000 47.0157 0.0000
# 6 0.0000 0.0000 0.0000 0.0000 0.0000 6.8005
#
#
#
# Elastic Compliance Matrix: (Units=1/GPa)
#
#
# Indices 1 2 3 4 5 6 
#
# 1 0.008388 -0.002909 -0.004109 0.000000 0.000000 0.000000
# 2 -0.002909 0.010283 0.002011 0.000000 0.000000 0.000000
# 3 -0.004109 0.002011 0.012761 0.000000 0.000000 0.000000
# 4 0.000000 0.000000 0.000000 0.034076 0.000000 0.000000
# 5 0.000000 0.000000 0.000000 0.000000 0.021269 0.000000
# 6 0.000000 0.000000 0.000000 0.000000 0.000000 0.147048
#
#
# Mechanical properties :
#
#
# Convention : Reuss Voigt Hill
#
# Bulk Modulus (GPa) = 46.69279 55.45296 51.07288
# Shear Modulus (GPa) = 19.92194 35.41671 27.66932
#
# Velocity S-wave (km/s) = 2.88319 3.84426 3.39788
# Velocity P-wave (km/s) = 5.52876 6.54547 6.05848
#
# Compressibility (1/GPa) = 0.02141658
#
# Stress axis : x y z
#
# Youngs Moduli (GPa) = 119.21654 97.25010 78.36230
#
# Poissons Ratio (x) = 0.28292 0.32202
# Poissons Ratio (y) = 0.34683 -0.15757
# Poissons Ratio (z) = 0.48990 -0.19555
#
# Static dielectric constant tensor:
#      x y z
#    x 4.004990 0.000000 0.000000 
#    y 0.000000 4.277740 0.000000 
#    z 0.000000 0.000000 4.798270 
# 
# 
# High freq. dielectric constant tensor:
#      x y z
#    x 1.925900 0.000000 0.000000 
#    y 0.000000 1.954610 0.000000 
#    z 0.000000 0.000000 1.982500 
# 
# From -- ./inp_files/10899.got.cif
#   From: 2010.03.12/outbox.cif.g09.slc.cpg/sg20_6_cif.got.tgz:10899.got - 2010.04.14 01:38:04.
