data_PCOD8159825
_publ_section_title
;
Structure prediction by ZEFSAII (Michael W. Deem and Ramdas Pophale) SiO2 
 PCOD8159825
Probable space group: C 2 2 21
;
_chemical_formula_sum "Si O2"
_cell_formula_units_Z 64
_cell_length_a 10.941155
_cell_length_b 15.456343
_cell_length_c 17.730970
_cell_angle_alpha 90.000000
_cell_angle_beta 90.000000
_cell_angle_gamma 90.000000
_cell_volume 2998.488672
_symmetry_space_group_name_H-M "C 2 2 21"
_symmetry_group_IT_number 20
_symmetry_cell_setting 'orthorhombic'
loop_
_space_group_symop_operation_xyz
x,y,z
-x,-y,1/2+z
x,-y,-z
-x,y,1/2-z
1/2+x,1/2+y,z
1/2-x,1/2-y,1/2+z
1/2+x,1/2-y,-z
1/2-x,1/2+y,1/2-z
loop_
_atom_site_type_symbol
_atom_site_label
_atom_site_fract_x
_atom_site_fract_y
_atom_site_fract_z
Si Si1 0.123318 0.761839 0.945447
Si Si2 0.476991 0.677465 0.668079
Si Si3 0.332795 0.173345 0.149063
Si Si4 0.953428 0.488444 0.919023
Si Si5 0.805791 0.614907 0.447231
Si Si6 0.755550 0.782182 0.810031
Si Si7 0.523248 0.838749 0.332412
Si Si8 0.455492 0.594678 0.984449
O O1 0.253868 0.803718 0.925338
O O2 0.093624 0.704022 0.872199
O O3 0.129283 0.700346 0.018510
O O4 0.021603 0.834453 0.962998
O O5 0.500000 0.633877 0.750000
O O6 0.551986 0.765247 0.657498
O O7 0.336416 0.705184 0.667252
O O8 0.515514 0.610785 0.603491
O O9 0.385199 0.077871 0.135872
O O10 0.254823 0.179564 0.225678
O O11 0.095109 0.461587 0.936095
O O12 0.935707 0.581444 0.882366
O O13 0.887669 0.500000 0.000000
O O14 0.756732 0.635431 0.364142
O O15 0.690822 0.591477 0.500978
O O16 0.885210 0.740427 0.824228
O O17 0.500000 0.877500 0.250000
O O18 0.510730 0.500000 0.000000
#
# Coordination Sequence:
#
# PCOD8159825 Si02
#       8
#     8   8   8   8   8   8   8   8
#     4  12  24  44  69  95 138 186 228 283 351 426
#     4  10  22  43  70  99 135 184 234 280 352 424
#     4  11  24  43  71 102 140 182 235 291 347 422
#     4  12  27  43  70 108 141 179 235 300 350 416
#     4  12  24  44  70  99 140 181 236 282 352 423
#     4  11  23  43  73  97 133 189 236 280 352 424
#     4  12  27  46  68 102 143 185 236 294 359 425
#     4  12  26  43  69 103 139 182 234 297 352 418
#
# _framework density 21.344086000000001
#
# number of rings (size 3 to 8) (size 9 to 14) (size 15 to 20)
#    0.000    0.500    7.500    0.375    3.500    1.500 
#    0.000    1.875    0.000    0.000    0.000    0.000 
#    0.000    0.000    0.000    0.000    0.000    0.000 
#
# Total GULP energy -396761.830775 kJ/mol
# GULP energy per Si atom -12398.807212 kJ/mol
# Density = 2.129551 g / cm^3
# Si number density = 21.344086 Si / 1000 Ang^3
#
#
#
# Elastic Constant Matrix: (Units=GPa)
#
#
# Indices 1 2 3 4 5 6 
#
# 1 50.1900 1.4538 6.2494 0.0000 0.0000 0.0000
# 2 1.4538 97.2423 44.9985 0.0000 0.0000 0.0000
# 3 6.2494 44.9985 137.0253 0.0000 0.0000 0.0000
# 4 0.0000 0.0000 0.0000 33.4597 0.0000 0.0000
# 5 0.0000 0.0000 0.0000 0.0000 30.9818 0.0000
# 6 0.0000 0.0000 0.0000 0.0000 0.0000 8.8993
#
#
#
# Elastic Compliance Matrix: (Units=1/GPa)
#
#
# Indices 1 2 3 4 5 6 
#
# 1 0.020040 0.000145 -0.000962 0.000000 0.000000 0.000000
# 2 0.000145 0.012127 -0.003989 0.000000 0.000000 0.000000
# 3 -0.000962 -0.003989 0.008652 0.000000 0.000000 0.000000
# 4 0.000000 0.000000 0.000000 0.029887 0.000000 0.000000
# 5 0.000000 0.000000 0.000000 0.000000 0.032277 0.000000
# 6 0.000000 0.000000 0.000000 0.000000 0.000000 0.112368
#
#
# Mechanical properties :
#
#
# Convention : Reuss Voigt Hill
#
# Bulk Modulus (GPa) = 32.04305 43.31789 37.68047
# Shear Modulus (GPa) = 21.24361 30.11855 25.68108
#
# Velocity S-wave (km/s) = 3.15825 3.76053 3.47247
# Velocity P-wave (km/s) = 5.32396 6.26055 5.81116
#
# Compressibility (1/GPa) = 0.03120802
#
# Stress axis : x y z
#
# Youngs Moduli (GPa) = 49.90067 82.45786 115.58250
#
# Poissons Ratio (x) = -0.01199 0.11116
# Poissons Ratio (y) = -0.00726 0.46108
# Poissons Ratio (z) = 0.04799 0.32894
#
# Static dielectric constant tensor:
#      x y z
#    x 3.756730 0.000000 0.000000 
#    y 0.000000 3.639330 0.000000 
#    z 0.000000 0.000000 4.541240 
# 
# 
# High freq. dielectric constant tensor:
#      x y z
#    x 1.833750 0.000000 0.000000 
#    y 0.000000 1.825070 0.000000 
#    z 0.000000 0.000000 1.855900 
# 
# From -- ./inp_files/24464.got.cif
#   From: 2010.03.12/outbox.cif.g09.slc.cpg/sg20_13_cif.got.tgz:24464.got - 2010.04.14 01:38:04.
