data_PCOD8159650
_publ_section_title
;
Structure prediction by ZEFSAII (Michael W. Deem and Ramdas Pophale) SiO2 
 PCOD8159650
Probable space group: C 2 2 21
;
_chemical_formula_sum "Si O2"
_cell_formula_units_Z 64
_cell_length_a 9.245625
_cell_length_b 10.310149
_cell_length_c 30.699893
_cell_angle_alpha 90.000000
_cell_angle_beta 90.000000
_cell_angle_gamma 90.000000
_cell_volume 2926.429581
_symmetry_space_group_name_H-M "C 2 2 21"
_symmetry_group_IT_number 20
_symmetry_cell_setting 'orthorhombic'
loop_
_space_group_symop_operation_xyz
x,y,z
-x,-y,1/2+z
x,-y,-z
-x,y,1/2-z
1/2+x,1/2+y,z
1/2-x,1/2-y,1/2+z
1/2+x,1/2-y,-z
1/2-x,1/2+y,1/2-z
loop_
_atom_site_type_symbol
_atom_site_label
_atom_site_fract_x
_atom_site_fract_y
_atom_site_fract_z
Si Si1 0.486781 0.015458 0.617733
Si Si2 0.079728 0.859968 0.479954
Si Si3 0.761592 0.110921 0.827492
Si Si4 0.302602 0.204867 0.839713
Si Si5 0.580793 0.129054 0.973452
Si Si6 0.492736 0.721758 0.612874
Si Si7 0.854019 0.092660 0.735976
Si Si8 0.950676 0.172298 0.297703
O O1 0.333936 0.012910 0.643572
O O2 0.538216 0.871095 0.605477
O O3 0.611912 0.075120 0.647368
O O4 0.464337 0.106066 0.576051
O O5 0.250774 0.835861 0.477141
O O6 0.008489 0.854599 0.432279
O O7 0.012675 0.749633 0.510292
O O8 0.043716 0.000000 0.500000
O O9 0.785068 0.039733 0.781081
O O10 0.911895 0.149891 0.850775
O O11 0.677863 0.243574 0.817551
O O12 0.416762 0.322981 0.833270
O O13 0.175931 0.227708 0.874112
O O14 0.245483 0.188948 0.790506
O O15 0.542862 0.000000 0.000000
O O16 0.895435 0.973753 0.704645
O O17 0.000000 0.169522 0.750000
O O18 0.000000 0.223248 0.250000
#
# Coordination Sequence:
#
# PCOD8159650 Si02
#       8
#     8   8   8   8   8   8   8   8
#     4  11  26  43  70 102 138 178 225 291 337 413
#     4  11  27  47  74 107 137 181 228 284 353 436
#     4  11  23  44  64  96 139 179 231 284 336 404
#     4  11  25  42  64 101 135 179 232 278 339 399
#     4  11  24  49  73 102 144 179 222 281 358 420
#     4  12  25  45  69 103 139 177 230 280 349 412
#     4  11  22  40  64  92 134 183 225 278 334 392
#     4  10  22  40  64  92 129 180 232 277 334 393
#
# _framework density 21.869653
#
# number of rings (size 3 to 8) (size 9 to 14) (size 15 to 20)
#    0.000    1.000    5.000    0.750    5.250    1.500 
#    4.500    0.000    0.000    0.000    0.000    0.000 
#    0.000    0.000    0.000    0.000    0.000    0.000 
#
# Total GULP energy -396780.588770 kJ/mol
# GULP energy per Si atom -12399.393399 kJ/mol
# Density = 2.181988 g / cm^3
# Si number density = 21.869653 Si / 1000 Ang^3
#
#
#
# Elastic Constant Matrix: (Units=GPa)
#
#
# Indices 1 2 3 4 5 6 
#
# 1 101.4730 33.0359 31.7403 0.0000 0.0000 0.0000
# 2 33.0359 94.4628 31.6051 0.0000 0.0000 0.0000
# 3 31.7403 31.6051 115.7947 0.0000 0.0000 0.0000
# 4 0.0000 0.0000 0.0000 36.8609 0.0000 0.0000
# 5 0.0000 0.0000 0.0000 0.0000 38.2126 0.0000
# 6 0.0000 0.0000 0.0000 0.0000 0.0000 25.0708
#
#
#
# Elastic Compliance Matrix: (Units=1/GPa)
#
#
# Indices 1 2 3 4 5 6 
#
# 1 0.011648 -0.003307 -0.002290 0.000000 0.000000 0.000000
# 2 -0.003307 0.012589 -0.002530 0.000000 0.000000 0.000000
# 3 -0.002290 -0.002530 0.009954 0.000000 0.000000 0.000000
# 4 0.000000 0.000000 0.000000 0.027129 0.000000 0.000000
# 5 0.000000 0.000000 0.000000 0.000000 0.026169 0.000000
# 6 0.000000 0.000000 0.000000 0.000000 0.000000 0.039887
#
#
# Mechanical properties :
#
#
# Convention : Reuss Voigt Hill
#
# Bulk Modulus (GPa) = 55.74977 56.05477 55.90227
# Shear Modulus (GPa) = 33.42032 34.38548 33.90290
#
# Velocity S-wave (km/s) = 3.91341 3.96952 3.94156
# Velocity P-wave (km/s) = 6.77989 6.83347 6.80673
#
# Compressibility (1/GPa) = 0.01793729
#
# Stress axis : x y z
#
# Youngs Moduli (GPa) = 85.85226 79.43344 100.46098
#
# Poissons Ratio (x) = 0.26271 0.23006
# Poissons Ratio (y) = 0.28394 0.25412
# Poissons Ratio (z) = 0.19661 0.20093
#
# Static dielectric constant tensor:
#      x y z
#    x 4.144850 0.000000 0.000000 
#    y 0.000000 3.687450 0.000000 
#    z 0.000000 0.000000 4.082420 
# 
# 
# High freq. dielectric constant tensor:
#      x y z
#    x 1.873830 0.000000 0.000000 
#    y 0.000000 1.850140 0.000000 
#    z 0.000000 0.000000 1.867650 
# 
# From -- ./inp_files/31070.got.cif
#   From: 2010.03.12/outbox.cif.g09.slc.cpg/sg20_16_cif.got.tgz:31070.got - 2010.04.14 01:38:04.
