data_PCOD8159134
_publ_section_title
;
Structure prediction by ZEFSAII (Michael W. Deem and Ramdas Pophale) SiO2 
 PCOD8159134
Probable space group: C 2 2 21
;
_chemical_formula_sum "Si O2"
_cell_formula_units_Z 40
_cell_length_a 11.613751
_cell_length_b 19.527877
_cell_length_c 8.282231
_cell_angle_alpha 90.000000
_cell_angle_beta 90.000000
_cell_angle_gamma 90.000000
_cell_volume 1878.342913
_symmetry_space_group_name_H-M "C 2 2 21"
_symmetry_group_IT_number 20
_symmetry_cell_setting 'orthorhombic'
loop_
_space_group_symop_operation_xyz
x,y,z
-x,-y,1/2+z
x,-y,-z
-x,y,1/2-z
1/2+x,1/2+y,z
1/2-x,1/2-y,1/2+z
1/2+x,1/2-y,-z
1/2-x,1/2+y,1/2-z
loop_
_atom_site_type_symbol
_atom_site_label
_atom_site_fract_x
_atom_site_fract_y
_atom_site_fract_z
Si Si1 0.623239 0.756918 0.002913
Si Si2 0.750562 0.674119 0.781480
Si Si3 0.000000 0.113841 0.750000
Si Si4 0.000000 0.345658 0.750000
Si Si5 0.567392 0.397097 0.909677
Si Si6 0.320361 0.074189 0.046796
O O1 0.736812 0.740574 0.896278
O O2 0.529653 0.797450 0.900312
O O3 0.664207 0.808952 0.138511
O O4 0.571165 0.685801 0.071907
O O5 0.618491 0.657119 0.729563
O O6 0.815718 0.615176 0.878984
O O7 0.986544 0.072229 0.579302
O O8 0.896538 0.393104 0.811583
O O9 0.500000 0.419070 0.750000
O O10 0.692070 0.429779 0.881066
O O11 0.369391 0.000000 0.000000
#
# Coordination Sequence:
#
# PCOD8159134 Si02
#       6
#     8   8   4   4   8   8
#     4  10  21  36  62  99 129 163 215 267 345 389
#     4  10  21  36  64  89 135 161 208 276 323 393
#     4   8  19  36  54  92 126 160 209 254 326 388
#     4  12  25  40  66  94 132 174 217 276 324 394
#     4  10  22  38  69  96 132 169 211 281 338 393
#     4  10  25  47  60  91 133 172 227 267 311 403
#
# _framework density 21.295365
#
# number of rings (size 3 to 8) (size 9 to 14) (size 15 to 20)
#    0.000    2.400    0.000    4.800    8.400    1.600 
#    7.200    0.000    0.000    0.000    0.000    0.000 
#    0.000    0.000    0.000    0.000    0.000    0.000 
#
# Total GULP energy -247798.512388 kJ/mol
# GULP energy per Si atom -12389.925619 kJ/mol
# Density = 2.124690 g / cm^3
# Si number density = 21.295365 Si / 1000 Ang^3
#
#
#
# Elastic Constant Matrix: (Units=GPa)
#
#
# Indices 1 2 3 4 5 6 
#
# 1 62.0135 8.3042 44.0138 0.0000 0.0000 0.0000
# 2 8.3042 43.4692 7.0419 0.0000 0.0000 0.0000
# 3 44.0138 7.0419 134.2237 0.0000 0.0000 0.0000
# 4 0.0000 0.0000 0.0000 19.3123 0.0000 0.0000
# 5 0.0000 0.0000 0.0000 0.0000 54.0847 0.0000
# 6 0.0000 0.0000 0.0000 0.0000 0.0000 9.5532
#
#
#
# Elastic Compliance Matrix: (Units=1/GPa)
#
#
# Indices 1 2 3 4 5 6 
#
# 1 0.021392 -0.002976 -0.006859 0.000000 0.000000 0.000000
# 2 -0.002976 0.023616 -0.000263 0.000000 0.000000 0.000000
# 3 -0.006859 -0.000263 0.009713 0.000000 0.000000 0.000000
# 4 0.000000 0.000000 0.000000 0.051781 0.000000 0.000000
# 5 0.000000 0.000000 0.000000 0.000000 0.018490 0.000000
# 6 0.000000 0.000000 0.000000 0.000000 0.000000 0.104677
#
#
# Mechanical properties :
#
#
# Convention : Reuss Voigt Hill
#
# Bulk Modulus (GPa) = 28.96365 39.82513 34.39439
# Shear Modulus (GPa) = 19.12988 28.61313 23.87151
#
# Velocity S-wave (km/s) = 3.00044 3.66954 3.35172
# Velocity P-wave (km/s) = 5.06300 6.05771 5.58255
#
# Compressibility (1/GPa) = 0.03452603
#
# Stress axis : x y z
#
# Youngs Moduli (GPa) = 46.74690 42.34440 102.95409
#
# Poissons Ratio (x) = 0.12600 0.70612
# Poissons Ratio (y) = 0.13910 0.02710
# Poissons Ratio (z) = 0.32062 0.01115
#
# Static dielectric constant tensor:
#      x y z
#    x 3.725660 0.000000 0.000000 
#    y 0.000000 3.580950 0.000000 
#    z 0.000000 0.000000 4.121600 
# 
# 
# High freq. dielectric constant tensor:
#      x y z
#    x 1.828080 0.000000 0.000000 
#    y 0.000000 1.815090 0.000000 
#    z 0.000000 0.000000 1.845140 
# 
# From -- ./inp_files/7120.got.cif
#   From: 2010.03.12/outbox.cif.g09.slc.cpg/sg20_4_cif.got.tgz:7120.got - 2010.04.14 01:38:04.
