data_PCOD8159832
_publ_section_title
;
Structure prediction by ZEFSAII (Michael W. Deem and Ramdas Pophale) SiO2 
 PCOD8159832
Probable space group: C 2 2 21
;
_chemical_formula_sum "Si O2"
_cell_formula_units_Z 60
_cell_length_a 11.449400
_cell_length_b 29.460008
_cell_length_c 8.155200
_cell_angle_alpha 90.000000
_cell_angle_beta 90.000000
_cell_angle_gamma 90.000000
_cell_volume 2750.744194
_symmetry_space_group_name_H-M "C 2 2 21"
_symmetry_group_IT_number 20
_symmetry_cell_setting 'orthorhombic'
loop_
_space_group_symop_operation_xyz
x,y,z
-x,-y,1/2+z
x,-y,-z
-x,y,1/2-z
1/2+x,1/2+y,z
1/2-x,1/2-y,1/2+z
1/2+x,1/2-y,-z
1/2-x,1/2+y,1/2-z
loop_
_atom_site_type_symbol
_atom_site_label
_atom_site_fract_x
_atom_site_fract_y
_atom_site_fract_z
Si Si1 0.000000 0.251745 0.750000
Si Si2 0.702718 0.950532 0.547036
Si Si3 0.883544 0.899211 0.331282
Si Si4 0.443986 0.626040 0.077958
Si Si5 0.942785 0.696470 0.579580
Si Si6 0.974646 0.409905 0.434468
Si Si7 0.239529 0.048715 0.422794
Si Si8 0.815506 0.814786 0.128847
O O1 0.113583 0.220442 0.738822
O O2 0.996013 0.280983 0.583120
O O3 0.797027 0.936106 0.408842
O O4 0.588839 0.918778 0.545770
O O5 0.759179 0.950680 0.726159
O O6 0.657971 0.000000 0.500000
O O7 0.809957 0.864349 0.217842
O O8 0.000000 0.922550 0.250000
O O9 0.940287 0.867896 0.469717
O O10 0.500000 0.619440 0.250000
O O11 0.363414 0.582970 0.025201
O O12 0.372854 0.673166 0.049583
O O13 0.954552 0.643153 0.558344
O O14 0.807347 0.708469 0.596694
O O15 0.000000 0.713609 0.750000
O O16 0.863765 0.436316 0.504837
O O17 0.000000 0.427188 0.250000
O O18 0.207648 0.000000 0.500000
#
# Coordination Sequence:
#
# PCOD8159832 Si02
#       8
#     4   8   8   8   8   8   8   8
#     4  12  28  48  74 116 144 188 244 302 368 446
#     4  12  26  42  67 105 140 195 243 295 358 419
#     4  10  22  43  72  92 141 188 236 285 356 424
#     4  11  22  45  70 101 134 193 239 290 359 429
#     4  11  27  48  78 112 147 190 240 301 370 436
#     4  11  24  47  72  97 141 189 239 296 364 431
#     4  12  26  42  67 103 143 185 244 300 352 425
#     4  11  24  51  72 105 147 189 237 300 367 433
#
# _framework density 21.812280000000001
#
# number of rings (size 3 to 8) (size 9 to 14) (size 15 to 20)
#    0.000    0.800    4.667    3.200    9.333    1.067 
#    2.400    0.000    0.000    0.000    0.000    0.000 
#    0.000    0.000    0.000    0.000    0.000    0.000 
#
# Total GULP energy -371802.272145 kJ/mol
# GULP energy per Si atom -12393.409072 kJ/mol
# Density = 2.176263 g / cm^3
# Si number density = 21.812280 Si / 1000 Ang^3
#
#
#
# Elastic Constant Matrix: (Units=GPa)
#
#
# Indices 1 2 3 4 5 6 
#
# 1 108.3526 20.3546 34.3599 0.0000 0.0000 0.0000
# 2 20.3546 61.9784 36.7221 0.0000 0.0000 0.0000
# 3 34.3599 36.7221 108.2863 0.0000 0.0000 0.0000
# 4 0.0000 0.0000 0.0000 37.2773 0.0000 0.0000
# 5 0.0000 0.0000 0.0000 0.0000 39.3959 0.0000
# 6 0.0000 0.0000 0.0000 0.0000 0.0000 32.8919
#
#
#
# Elastic Compliance Matrix: (Units=1/GPa)
#
#
# Indices 1 2 3 4 5 6 
#
# 1 0.010425 -0.001832 -0.002687 0.000000 0.000000 0.000000
# 2 -0.001832 0.020514 -0.006375 0.000000 0.000000 0.000000
# 3 -0.002687 -0.006375 0.012249 0.000000 0.000000 0.000000
# 4 0.000000 0.000000 0.000000 0.026826 0.000000 0.000000
# 5 0.000000 0.000000 0.000000 0.000000 0.025383 0.000000
# 6 0.000000 0.000000 0.000000 0.000000 0.000000 0.030403
#
#
# Mechanical properties :
#
#
# Convention : Reuss Voigt Hill
#
# Bulk Modulus (GPa) = 46.72844 51.27670 49.00257
# Shear Modulus (GPa) = 32.31612 34.39172 33.35392
#
# Velocity S-wave (km/s) = 3.85327 3.97509 3.91466
# Velocity P-wave (km/s) = 6.42390 6.68040 6.55340
#
# Compressibility (1/GPa) = 0.02140024
#
# Stress axis : x y z
#
# Youngs Moduli (GPa) = 95.92079 48.74806 81.63728
#
# Poissons Ratio (x) = 0.08930 0.21934
# Poissons Ratio (y) = 0.17572 0.52046
# Poissons Ratio (z) = 0.25772 0.31078
#
# Static dielectric constant tensor:
#      x y z
#    x 4.068040 0.000000 0.000000 
#    y 0.000000 3.791140 0.000000 
#    z 0.000000 0.000000 3.560620 
# 
# 
# High freq. dielectric constant tensor:
#      x y z
#    x 1.868850 0.000000 0.000000 
#    y 0.000000 1.842040 0.000000 
#    z 0.000000 0.000000 1.874230 
# 
# From -- ./inp_files/7631.got.cif
#   From: 2010.03.12/outbox.cif.g09.slc.cpg/sg20_4_cif.got.tgz:7631.got - 2010.04.14 01:38:04.
