data_PCOD8159609
_publ_section_title
;
Structure prediction by ZEFSAII (Michael W. Deem and Ramdas Pophale) SiO2 
 PCOD8159609
Probable space group: C 2 2 21
;
_chemical_formula_sum "Si O2"
_cell_formula_units_Z 40
_cell_length_a 18.156600
_cell_length_b 19.267367
_cell_length_c 5.360008
_cell_angle_alpha 90.000000
_cell_angle_beta 90.000000
_cell_angle_gamma 90.000000
_cell_volume 1875.090932
_symmetry_space_group_name_H-M "C 2 2 21"
_symmetry_group_IT_number 20
_symmetry_cell_setting 'orthorhombic'
loop_
_space_group_symop_operation_xyz
x,y,z
-x,-y,1/2+z
x,-y,-z
-x,y,1/2-z
1/2+x,1/2+y,z
1/2-x,1/2-y,1/2+z
1/2+x,1/2-y,-z
1/2-x,1/2+y,1/2-z
loop_
_atom_site_type_symbol
_atom_site_label
_atom_site_fract_x
_atom_site_fract_y
_atom_site_fract_z
Si Si1 0.176308 0.095120 0.372418
Si Si2 0.032434 0.579321 0.002211
Si Si3 0.260047 0.000000 0.000000
Si Si4 0.319191 0.112417 0.683553
Si Si5 0.293635 0.258406 0.711897
Si Si6 0.451458 0.500000 0.000000
O O1 0.206499 0.031113 0.209586
O O2 0.235772 0.111910 0.583617
O O3 0.163834 0.167663 0.221444
O O4 0.098811 0.069635 0.485635
O O5 0.121088 0.585137 0.014133
O O6 0.000000 0.615078 0.750000
O O7 0.006302 0.500000 0.000000
O O8 0.000000 0.616198 0.250000
O O9 0.316419 0.939700 0.083650
O O10 0.343457 0.190138 0.769283
O O11 0.268586 0.245752 0.425969
O O12 0.500000 0.493795 0.250000
#
# Coordination Sequence:
#
# PCOD8159609 Si02
#       6
#     8   8   4   8   8   4
#     4  11  23  41  66  98 133 173 224 283 343 401
#     4  10  23  38  57  91 130 167 205 261 317 380
#     4  12  19  36  70 103 126 166 228 282 323 396
#     4  11  23  38  68  98 131 171 227 274 332 407
#     4  10  22  39  63  99 135 166 214 283 342 395
#     4  12  27  44  68 103 134 176 230 292 347 406
#
# _framework density 21.332298999999999
#
# number of rings (size 3 to 8) (size 9 to 14) (size 15 to 20)
#    0.000    1.200    4.000    1.800    7.000    0.000 
#    0.000    1.000    0.000    4.800    0.000    0.000 
#    0.000    0.000    0.000    0.000    0.000    0.000 
#
# Total GULP energy -247808.972646 kJ/mol
# GULP energy per Si atom -12390.448632 kJ/mol
# Density = 2.128375 g / cm^3
# Si number density = 21.332299 Si / 1000 Ang^3
#
#
#
# Elastic Constant Matrix: (Units=GPa)
#
#
# Indices 1 2 3 4 5 6 
#
# 1 110.0881 21.5284 43.8009 0.0000 0.0000 0.0000
# 2 21.5284 119.0831 20.7113 0.0000 0.0000 0.0000
# 3 43.8009 20.7113 107.2403 0.0000 0.0000 0.0000
# 4 0.0000 0.0000 0.0000 27.5235 0.0000 0.0000
# 5 0.0000 0.0000 0.0000 0.0000 35.4465 0.0000
# 6 0.0000 0.0000 0.0000 0.0000 0.0000 8.7280
#
#
#
# Elastic Compliance Matrix: (Units=1/GPa)
#
#
# Indices 1 2 3 4 5 6 
#
# 1 0.011024 -0.001252 -0.004261 0.000000 0.000000 0.000000
# 2 -0.001252 0.008832 -0.001194 0.000000 0.000000 0.000000
# 3 -0.004261 -0.001194 0.011296 0.000000 0.000000 0.000000
# 4 0.000000 0.000000 0.000000 0.036333 0.000000 0.000000
# 5 0.000000 0.000000 0.000000 0.000000 0.028212 0.000000
# 6 0.000000 0.000000 0.000000 0.000000 0.000000 0.114574
#
#
# Mechanical properties :
#
#
# Convention : Reuss Voigt Hill
#
# Bulk Modulus (GPa) = 56.37884 56.49918 56.43901
# Shear Modulus (GPa) = 21.77742 31.03099 26.40421
#
# Velocity S-wave (km/s) = 3.19857 3.81812 3.52199
# Velocity P-wave (km/s) = 6.33461 6.78087 6.56154
#
# Compressibility (1/GPa) = 0.01773715
#
# Stress axis : x y z
#
# Youngs Moduli (GPa) = 90.71403 113.23052 88.52895
#
# Poissons Ratio (x) = 0.14175 0.37719
# Poissons Ratio (y) = 0.11356 0.10573
# Poissons Ratio (z) = 0.38650 0.13523
#
# Static dielectric constant tensor:
#      x y z
#    x 3.578000 0.000000 0.000000 
#    y 0.000000 4.500680 0.000000 
#    z 0.000000 0.000000 4.092550 
# 
# 
# High freq. dielectric constant tensor:
#      x y z
#    x 1.798560 0.000000 0.000000 
#    y 0.000000 1.840030 0.000000 
#    z 0.000000 0.000000 1.847030 
# 
# From -- ./inp_files/2513.got.cif
#   From: 2010.03.12/outbox.cif.g09.slc.cpg/sg20_2_cif.got.tgz:2513.got - 2010.04.14 01:38:04.
