data_PCOD8159404
_publ_section_title
;
Structure prediction by ZEFSAII (Michael W. Deem and Ramdas Pophale) SiO2 
 PCOD8159404
Probable space group: C 2 2 21
;
_chemical_formula_sum "Si O2"
_cell_formula_units_Z 56
_cell_length_a 14.953088
_cell_length_b 13.180544
_cell_length_c 12.857289
_cell_angle_alpha 90.000000
_cell_angle_beta 90.000000
_cell_angle_gamma 90.000000
_cell_volume 2534.040959
_symmetry_space_group_name_H-M "C 2 2 21"
_symmetry_group_IT_number 20
_symmetry_cell_setting 'orthorhombic'
loop_
_space_group_symop_operation_xyz
x,y,z
-x,-y,1/2+z
x,-y,-z
-x,y,1/2-z
1/2+x,1/2+y,z
1/2-x,1/2-y,1/2+z
1/2+x,1/2-y,-z
1/2-x,1/2+y,1/2-z
loop_
_atom_site_type_symbol
_atom_site_label
_atom_site_fract_x
_atom_site_fract_y
_atom_site_fract_z
Si Si1 0.229778 0.877818 0.754908
Si Si2 0.389060 0.210052 0.355485
Si Si3 0.105665 0.304609 0.245383
Si Si4 0.680233 0.110278 0.951510
Si Si5 0.500000 0.624750 0.750000
Si Si6 0.158192 0.471276 0.379748
Si Si7 0.000000 0.555935 0.250000
Si Si8 0.855407 0.030616 0.891899
O O1 0.315385 0.806655 0.734341
O O2 0.149185 0.803751 0.787610
O O3 0.255483 0.962872 0.842564
O O4 0.203506 0.936063 0.649380
O O5 0.345623 0.202193 0.469959
O O6 0.441545 0.314428 0.334758
O O7 0.462545 0.122907 0.344400
O O8 0.119381 0.382642 0.150371
O O9 0.159385 0.349737 0.349882
O O10 0.000000 0.284969 0.250000
O O11 0.784599 0.121261 0.915939
O O12 0.662677 0.000000 0.000000
O O13 0.431438 0.554709 0.810517
O O14 0.141706 0.500000 0.500000
O O15 0.073241 0.489242 0.306338
O O16 0.902740 0.000000 0.000000
#
# Coordination Sequence:
#
# PCOD8159404 Si02
#       8
#     8   8   8   8   4   8   4   8
#     4  11  24  48  67  98 143 185 233 287 360 443
#     4  10  21  41  72 100 133 178 235 289 350 427
#     4  12  27  41  67 104 140 178 238 306 344 419
#     4  11  21  44  74  98 135 196 233 280 373 443
#     4  11  26  44  73 114 142 176 255 312 339 416
#     4  11  24  44  71 102 143 186 237 298 361 416
#     4   9  20  38  65 104 136 170 221 304 341 410
#     4  11  23  48  76  94 144 203 232 281 376 433
#
# _framework density 22.099091000000001
#
# number of rings (size 3 to 8) (size 9 to 14) (size 15 to 20)
#    0.000    1.143    5.000    1.714    3.000    2.286 
#    5.143    0.000    0.000    0.000    0.000    0.000 
#    0.000    0.000    0.000    0.000    0.000    0.000 
#
# Total GULP energy -346939.524772 kJ/mol
# GULP energy per Si atom -12390.697313 kJ/mol
# Density = 2.204879 g / cm^3
# Si number density = 22.099091 Si / 1000 Ang^3
#
#
#
# Elastic Constant Matrix: (Units=GPa)
#
#
# Indices 1 2 3 4 5 6 
#
# 1 124.7282 46.1902 43.2038 0.0000 0.0000 0.0000
# 2 46.1902 74.6462 30.3222 0.0000 0.0000 0.0000
# 3 43.2038 30.3222 127.8265 0.0000 0.0000 0.0000
# 4 0.0000 0.0000 0.0000 19.1409 0.0000 0.0000
# 5 0.0000 0.0000 0.0000 0.0000 39.7662 0.0000
# 6 0.0000 0.0000 0.0000 0.0000 0.0000 30.2840
#
#
#
# Elastic Compliance Matrix: (Units=1/GPa)
#
#
# Indices 1 2 3 4 5 6 
#
# 1 0.010992 -0.005857 -0.002326 0.000000 0.000000 0.000000
# 2 -0.005857 0.017946 -0.002277 0.000000 0.000000 0.000000
# 3 -0.002326 -0.002277 0.009149 0.000000 0.000000 0.000000
# 4 0.000000 0.000000 0.000000 0.052244 0.000000 0.000000
# 5 0.000000 0.000000 0.000000 0.000000 0.025147 0.000000
# 6 0.000000 0.000000 0.000000 0.000000 0.000000 0.033021
#
#
# Mechanical properties :
#
#
# Convention : Reuss Voigt Hill
#
# Bulk Modulus (GPa) = 58.25156 62.95926 60.60541
# Shear Modulus (GPa) = 28.54826 31.67053 30.10939
#
# Velocity S-wave (km/s) = 3.59810 3.78976 3.69517
# Velocity P-wave (km/s) = 6.60895 6.90659 6.75941
#
# Compressibility (1/GPa) = 0.01716692
#
# Stress axis : x y z
#
# Youngs Moduli (GPa) = 90.97472 55.72313 109.29638
#
# Poissons Ratio (x) = 0.32637 0.25420
# Poissons Ratio (y) = 0.53284 0.24891
# Poissons Ratio (z) = 0.21159 0.12690
#
# Static dielectric constant tensor:
#      x y z
#    x 4.117170 0.000000 0.000000 
#    y 0.000000 3.975470 0.000000 
#    z 0.000000 0.000000 5.885390 
# 
# 
# High freq. dielectric constant tensor:
#      x y z
#    x 1.872040 0.000000 0.000000 
#    y 0.000000 1.855740 0.000000 
#    z 0.000000 0.000000 1.862810 
# 
# From -- ./inp_files/15180.got.cif
#   From: 2010.03.12/outbox.cif.g09.slc.cpg/sg20_8_cif.got.tgz:15180.got - 2010.04.14 01:38:04.
