data_PCOD8159114
_publ_section_title
;
Structure prediction by ZEFSAII (Michael W. Deem and Ramdas Pophale) SiO2 
 PCOD8159114
Probable space group: C 2 2 21
;
_chemical_formula_sum "Si O2"
_cell_formula_units_Z 40
_cell_length_a 8.313072
_cell_length_b 26.721530
_cell_length_c 8.672362
_cell_angle_alpha 90.000000
_cell_angle_beta 90.000000
_cell_angle_gamma 90.000000
_cell_volume 1926.461175
_symmetry_space_group_name_H-M "C 2 2 21"
_symmetry_group_IT_number 20
_symmetry_cell_setting 'orthorhombic'
loop_
_space_group_symop_operation_xyz
x,y,z
-x,-y,1/2+z
x,-y,-z
-x,y,1/2-z
1/2+x,1/2+y,z
1/2-x,1/2-y,1/2+z
1/2+x,1/2-y,-z
1/2-x,1/2+y,1/2-z
loop_
_atom_site_type_symbol
_atom_site_label
_atom_site_fract_x
_atom_site_fract_y
_atom_site_fract_z
Si Si1 0.789581 0.500000 0.000000
Si Si2 0.305882 0.695494 0.618308
Si Si3 0.608884 0.402247 0.979053
Si Si4 0.828485 0.784771 0.044672
Si Si5 0.723041 0.618779 0.363442
Si Si6 0.500000 0.053072 0.250000
O O1 0.670559 0.545063 0.958768
O O2 0.894794 0.516063 0.146100
O O3 0.302188 0.636097 0.593517
O O4 0.192676 0.727576 0.507081
O O5 0.484232 0.711195 0.573090
O O6 0.244402 0.705541 0.791257
O O7 0.413186 0.403499 0.980509
O O8 0.662099 0.384905 0.810216
O O9 0.755098 0.823364 0.916866
O O10 0.890881 0.587643 0.365028
#
# Coordination Sequence:
#
# PCOD8159114 Si02
#       6
#     4   8   8   8   8   4
#     4  10  22  38  58  84 116 152 194 242 288 336
#     4  10  21  36  56  83 113 146 190 232 280 343
#     4   9  19  38  58  78 110 155 196 231 281 349
#     4  10  21  36  56  84 115 149 185 232 286 343
#     4   9  19  37  58  81 112 149 188 233 289 342
#     4  10  22  38  58  88 116 146 188 244 292 334
#
# _framework density 20.763459999999998
#
# number of rings (size 3 to 8) (size 9 to 14) (size 15 to 20)
#    0.000    2.400    0.000    1.200    0.000    9.600 
#    0.000   14.000    0.000    0.000    0.000    0.000 
#    0.000    0.000    0.000    0.000    0.000    0.000 
#
# Total GULP energy -247832.289304 kJ/mol
# GULP energy per Si atom -12391.614465 kJ/mol
# Density = 2.071620 g / cm^3
# Si number density = 20.763460 Si / 1000 Ang^3
#
#
#
# Elastic Constant Matrix: (Units=GPa)
#
#
# Indices 1 2 3 4 5 6 
#
# 1 62.9000 56.7833 14.3019 0.0000 0.0000 0.0000
# 2 56.7833 155.8631 38.7694 0.0000 0.0000 0.0000
# 3 14.3019 38.7694 61.0554 0.0000 0.0000 0.0000
# 4 0.0000 0.0000 0.0000 36.3169 0.0000 0.0000
# 5 0.0000 0.0000 0.0000 0.0000 21.3102 0.0000
# 6 0.0000 0.0000 0.0000 0.0000 0.0000 28.4584
#
#
#
# Elastic Compliance Matrix: (Units=1/GPa)
#
#
# Indices 1 2 3 4 5 6 
#
# 1 0.023690 -0.008610 -0.000082 0.000000 0.000000 0.000000
# 2 -0.008610 0.010749 -0.004808 0.000000 0.000000 0.000000
# 3 -0.000082 -0.004808 0.019451 0.000000 0.000000 0.000000
# 4 0.000000 0.000000 0.000000 0.027535 0.000000 0.000000
# 5 0.000000 0.000000 0.000000 0.000000 0.046926 0.000000
# 6 0.000000 0.000000 0.000000 0.000000 0.000000 0.035139
#
#
# Mechanical properties :
#
#
# Convention : Reuss Voigt Hill
#
# Bulk Modulus (GPa) = 37.19048 55.50310 46.34679
# Shear Modulus (GPa) = 25.06850 28.54803 26.80826
#
# Velocity S-wave (km/s) = 3.47845 3.71201 3.59712
# Velocity P-wave (km/s) = 5.83808 6.72021 6.29462
#
# Compressibility (1/GPa) = 0.02688860
#
# Stress axis : x y z
#
# Youngs Moduli (GPa) = 42.21241 93.03409 51.41117
#
# Poissons Ratio (x) = 0.80104 0.00421
# Poissons Ratio (y) = 0.36346 0.24721
# Poissons Ratio (z) = 0.00345 0.44735
#
# Static dielectric constant tensor:
#      x y z
#    x 3.979380 0.000000 0.000000 
#    y 0.000000 3.920140 0.000000 
#    z 0.000000 0.000000 3.745000 
# 
# 
# High freq. dielectric constant tensor:
#      x y z
#    x 1.808350 0.000000 0.000000 
#    y 0.000000 1.815030 0.000000 
#    z 0.000000 0.000000 1.803780 
# 
# From -- ./inp_files/6172.got.cif
#   From: 2010.03.12/outbox.cif.g09.slc.cpg/sg20_4_cif.got.tgz:6172.got - 2010.04.14 01:38:04.
