data_PCOD8159541
_publ_section_title
;
Structure prediction by ZEFSAII (Michael W. Deem and Ramdas Pophale) SiO2 
 PCOD8159541
Probable space group: C 2 2 21
;
_chemical_formula_sum "Si O2"
_cell_formula_units_Z 40
_cell_length_a 14.658166
_cell_length_b 7.355960
_cell_length_c 15.783515
_cell_angle_alpha 90.000000
_cell_angle_beta 90.000000
_cell_angle_gamma 90.000000
_cell_volume 1701.855655
_symmetry_space_group_name_H-M "C 2 2 21"
_symmetry_group_IT_number 20
_symmetry_cell_setting 'orthorhombic'
loop_
_space_group_symop_operation_xyz
x,y,z
-x,-y,1/2+z
x,-y,-z
-x,y,1/2-z
1/2+x,1/2+y,z
1/2-x,1/2-y,1/2+z
1/2+x,1/2-y,-z
1/2-x,1/2+y,1/2-z
loop_
_atom_site_type_symbol
_atom_site_label
_atom_site_fract_x
_atom_site_fract_y
_atom_site_fract_z
Si Si1 0.107010 0.000000 0.000000
Si Si2 0.618130 0.706798 0.393935
Si Si3 0.284111 0.552249 0.657113
Si Si4 0.366781 0.837288 0.764156
Si Si5 0.500000 0.873806 0.250000
Si Si6 0.060425 0.806061 0.430319
O O1 0.172772 0.944480 0.922284
O O2 0.044057 0.158336 0.960090
O O3 0.715726 0.782920 0.365518
O O4 0.537249 0.752507 0.327497
O O5 0.615588 0.489639 0.405743
O O6 0.603514 0.792670 0.487555
O O7 0.363903 0.648462 0.712666
O O8 0.235933 0.395677 0.711661
O O9 0.429777 0.823262 0.849206
O O10 0.417094 0.999627 0.713956
#
# Coordination Sequence:
#
# PCOD8159541 Si02
#       6
#     4   8   8   8   4   8
#     4  10  22  36  60  88 122 162 204 252 306 364
#     4   9  21  40  61  87 123 165 209 257 312 370
#     4  11  22  39  63  94 124 161 210 265 312 367
#     4  11  23  39  64  93 126 165 208 259 315 373
#     4  10  22  38  60  88 122 162 206 252 308 380
#     4  10  22  41  62  86 125 172 206 253 314 377
#
# _framework density 23.503755999999999
#
# number of rings (size 3 to 8) (size 9 to 14) (size 15 to 20)
#    0.000    2.000    0.000    3.600    0.000   12.800 
#    0.000    8.000    0.000    0.000    0.000    0.000 
#    0.000    0.000    0.000    0.000    0.000    0.000 
#
# Total GULP energy -247803.055624 kJ/mol
# GULP energy per Si atom -12390.152781 kJ/mol
# Density = 2.345026 g / cm^3
# Si number density = 23.503756 Si / 1000 Ang^3
#
#
#
# Elastic Constant Matrix: (Units=GPa)
#
#
# Indices 1 2 3 4 5 6 
#
# 1 79.7337 13.9087 37.6616 0.0000 0.0000 0.0000
# 2 13.9087 52.1862 30.6413 0.0000 0.0000 0.0000
# 3 37.6616 30.6413 141.2973 0.0000 0.0000 0.0000
# 4 0.0000 0.0000 0.0000 37.3679 0.0000 0.0000
# 5 0.0000 0.0000 0.0000 0.0000 49.2231 0.0000
# 6 0.0000 0.0000 0.0000 0.0000 0.0000 28.1198
#
#
#
# Elastic Compliance Matrix: (Units=1/GPa)
#
#
# Indices 1 2 3 4 5 6 
#
# 1 0.014499 -0.001828 -0.003468 0.000000 0.000000 0.000000
# 2 -0.001828 0.022188 -0.004325 0.000000 0.000000 0.000000
# 3 -0.003468 -0.004325 0.008939 0.000000 0.000000 0.000000
# 4 0.000000 0.000000 0.000000 0.026761 0.000000 0.000000
# 5 0.000000 0.000000 0.000000 0.000000 0.020316 0.000000
# 6 0.000000 0.000000 0.000000 0.000000 0.000000 0.035562
#
#
# Mechanical properties :
#
#
# Convention : Reuss Voigt Hill
#
# Bulk Modulus (GPa) = 37.89942 48.62671 43.26307
# Shear Modulus (GPa) = 31.98943 35.67589 33.83266
#
# Velocity S-wave (km/s) = 3.69322 3.90023 3.79813
# Velocity P-wave (km/s) = 5.86058 6.40439 6.13851
#
# Compressibility (1/GPa) = 0.02638563
#
# Stress axis : x y z
#
# Youngs Moduli (GPa) = 68.97150 45.06842 111.86338
#
# Poissons Ratio (x) = 0.08238 0.38796
# Poissons Ratio (y) = 0.12607 0.48376
# Poissons Ratio (z) = 0.23920 0.19490
#
# Static dielectric constant tensor:
#      x y z
#    x 4.168050 0.000000 0.000000 
#    y 0.000000 3.808430 0.000000 
#    z 0.000000 0.000000 4.578770 
# 
# 
# High freq. dielectric constant tensor:
#      x y z
#    x 1.928830 0.000000 0.000000 
#    y 0.000000 1.907410 0.000000 
#    z 0.000000 0.000000 1.944890 
# 
# From -- ./inp_files/24713.got.cif
#   From: 2010.03.12/outbox.cif.g09.slc.cpg/sg20_13_cif.got.tgz:24713.got - 2010.04.14 01:38:04.
