data_PCOD8159932
_publ_section_title
;
Structure prediction by ZEFSAII (Michael W. Deem and Ramdas Pophale) SiO2 
 PCOD8159932
Probable space group: C 2 2 21
;
_chemical_formula_sum "Si O2"
_cell_formula_units_Z 32
_cell_length_a 12.721514
_cell_length_b 12.620853
_cell_length_c 8.423008
_cell_angle_alpha 90.000000
_cell_angle_beta 90.000000
_cell_angle_gamma 90.000000
_cell_volume 1352.367489
_symmetry_space_group_name_H-M "C 2 2 21"
_symmetry_group_IT_number 20
_symmetry_cell_setting 'orthorhombic'
loop_
_space_group_symop_operation_xyz
x,y,z
-x,-y,1/2+z
x,-y,-z
-x,y,1/2-z
1/2+x,1/2+y,z
1/2-x,1/2-y,1/2+z
1/2+x,1/2-y,-z
1/2-x,1/2+y,1/2-z
loop_
_atom_site_type_symbol
_atom_site_label
_atom_site_fract_x
_atom_site_fract_y
_atom_site_fract_z
Si Si1 0.614542 0.306067 0.795250
Si Si2 0.169894 0.976034 0.312782
Si Si3 0.327664 0.737731 0.656394
Si Si4 0.105869 0.467259 0.820928
O O1 0.500000 0.257932 0.750000
O O2 0.605736 0.433472 0.778802
O O3 0.702373 0.258231 0.676353
O O4 0.649130 0.279403 0.972367
O O5 0.128498 0.859738 0.263530
O O6 0.161920 0.000000 0.500000
O O7 0.290170 0.979038 0.247658
O O8 0.390220 0.841601 0.711297
O O9 0.000000 0.516027 0.750000
O O10 0.105164 0.500000 0.000000
#
# Coordination Sequence:
#
# PCOD8159932 Si02
#       4
#     8   8   8   8
#     4  11  25  43  68  98 136 183 232 292 355 422
#     4  10  23  44  64  95 140 179 231 293 346 420
#     4  11  24  44  67  99 138 183 234 292 352 419
#     4  10  23  41  64  94 132 175 226 283 340 407
#
# _framework density 23.662206999999999
#
# number of rings (size 3 to 8) (size 9 to 14) (size 15 to 20)
#    0.000    1.500    0.000    5.250    0.000   17.000 
#    0.000    0.000    0.000    0.000    0.000    0.000 
#    0.000    0.000    0.000    0.000    0.000    0.000 
#
# Total GULP energy -198337.134874 kJ/mol
# GULP energy per Si atom -12396.070930 kJ/mol
# Density = 2.360835 g / cm^3
# Si number density = 23.662207 Si / 1000 Ang^3
#
#
#
# Elastic Constant Matrix: (Units=GPa)
#
#
# Indices 1 2 3 4 5 6 
#
# 1 112.7853 -13.4542 41.3586 0.0000 0.0000 0.0000
# 2 -13.4542 119.5199 19.7320 0.0000 0.0000 0.0000
# 3 41.3586 19.7320 89.3941 0.0000 0.0000 0.0000
# 4 0.0000 0.0000 0.0000 44.2561 0.0000 0.0000
# 5 0.0000 0.0000 0.0000 0.0000 4043.1453 0.0000
# 6 0.0000 0.0000 0.0000 0.0000 0.0000 13.2056
#
#
#
# Elastic Compliance Matrix: (Units=1/GPa)
#
#
# Indices 1 2 3 4 5 6 
#
# 1 0.011208 0.002198 -0.005671 0.000000 0.000000 0.000000
# 2 0.002198 0.009114 -0.003029 0.000000 0.000000 0.000000
# 3 -0.005671 -0.003029 0.014478 0.000000 0.000000 0.000000
# 4 0.000000 0.000000 0.000000 0.022596 0.000000 0.000000
# 5 0.000000 0.000000 0.000000 0.000000 0.000247 0.000000
# 6 0.000000 0.000000 0.000000 0.000000 0.000000 0.075725
#
#
# Mechanical properties :
#
#
# Convention : Reuss Voigt Hill
#
# Bulk Modulus (GPa) = 45.87584 46.33023 46.10303
# Shear Modulus (GPa) = 32.54407 838.39227 435.46817
#
# Velocity S-wave (km/s) = 3.71261 18.84373 13.58068
# Velocity P-wave (km/s) = 6.14881 22.20519 16.29231
#
# Compressibility (1/GPa) = 0.02179797
#
# Stress axis : x y z
#
# Youngs Moduli (GPa) = 89.22208 109.71862 69.06819
#
# Poissons Ratio (x) = -0.24114 0.39166
# Poissons Ratio (y) = -0.19610 0.20918
# Poissons Ratio (z) = 0.50594 0.33230
#
# Static dielectric constant tensor:
#      x y z
#    x -7.418440 0.000000 0.000000 
#    y 0.000000 4.585900 0.000000 
#    z 0.000000 0.000000 3.939930 
# 
# 
# High freq. dielectric constant tensor:
#      x y z
#    x 1.940600 0.000000 0.000000 
#    y 0.000000 1.952460 0.000000 
#    z 0.000000 0.000000 1.921050 
# 
# From -- ./inp_files/6889.got.cif
#   From: 2010.03.12/outbox.cif.g09.slc.cpg/sg20_4_cif.got.tgz:6889.got - 2010.04.14 01:38:04.
