data_PCOD8159911
_publ_section_title
;
Structure prediction by ZEFSAII (Michael W. Deem and Ramdas Pophale) SiO2 
 PCOD8159911
Probable space group: C 2 2 21
;
_chemical_formula_sum "Si O2"
_cell_formula_units_Z 64
_cell_length_a 18.300721
_cell_length_b 20.115906
_cell_length_c 9.061374
_cell_angle_alpha 90.000000
_cell_angle_beta 90.000000
_cell_angle_gamma 90.000000
_cell_volume 3335.814204
_symmetry_space_group_name_H-M "C 2 2 21"
_symmetry_group_IT_number 20
_symmetry_cell_setting 'orthorhombic'
loop_
_space_group_symop_operation_xyz
x,y,z
-x,-y,1/2+z
x,-y,-z
-x,y,1/2-z
1/2+x,1/2+y,z
1/2-x,1/2-y,1/2+z
1/2+x,1/2-y,-z
1/2-x,1/2+y,1/2-z
loop_
_atom_site_type_symbol
_atom_site_label
_atom_site_fract_x
_atom_site_fract_y
_atom_site_fract_z
Si Si1 0.068574 0.392158 0.343110
Si Si2 0.783553 0.583168 0.362012
Si Si3 0.963059 0.754575 0.887212
Si Si4 0.785138 0.189150 0.729416
Si Si5 0.438225 0.259694 0.336249
Si Si6 0.426466 0.118217 0.188149
Si Si7 0.693001 0.293587 0.564973
Si Si8 0.711954 0.938339 0.196649
O O1 0.071231 0.312908 0.318582
O O2 0.068228 0.401316 0.518175
O O3 0.137491 0.433716 0.286868
O O4 0.000000 0.421243 0.250000
O O5 0.853480 0.590821 0.259445
O O6 0.724261 0.642238 0.345973
O O7 0.808862 0.584040 0.531294
O O8 0.751536 0.511762 0.310184
O O9 0.895071 0.798566 0.943096
O O10 0.000000 0.793369 0.750000
O O11 0.027608 0.739840 0.005732
O O12 0.862191 0.201866 0.647097
O O13 0.720909 0.227096 0.644259
O O14 0.771042 0.110072 0.726437
O O15 0.780933 0.212758 0.897588
O O16 0.500000 0.303783 0.250000
O O17 0.425756 0.196947 0.225851
O O18 0.500000 0.084488 0.250000
#
# Coordination Sequence:
#
# PCOD8159911 Si02
#       8
#     8   8   8   8   8   8   8   8
#     4  11  21  34  56  84 122 153 196 240 290 360
#     4  10  23  40  59  80 121 161 203 245 301 359
#     4  11  23  36  58  92 122 151 192 250 303 356
#     4  11  22  35  62  88 121 152 199 247 301 358
#     4  11  20  37  57  90 123 149 189 245 305 355
#     4  11  20  34  57  84 118 160 190 237 299 355
#     4  11  22  37  59  91 116 155 196 249 302 358
#     4  10  23  40  56  86 117 162 203 247 296 362
#
# _framework density 19.185721999999998
#
# number of rings (size 3 to 8) (size 9 to 14) (size 15 to 20)
#    0.000    1.250    6.250    0.750    3.500    1.000 
#    0.000    0.000    0.000    0.750    0.000    0.000 
#    0.000    0.000    0.000    0.000    0.000    0.000 
#
# Total GULP energy -396471.178640 kJ/mol
# GULP energy per Si atom -12389.724333 kJ/mol
# Density = 1.914205 g / cm^3
# Si number density = 19.185722 Si / 1000 Ang^3
#
#
#
# Elastic Constant Matrix: (Units=GPa)
#
#
# Indices 1 2 3 4 5 6 
#
# 1 94.6402 37.5726 32.1249 0.0000 0.0000 0.0000
# 2 37.5726 84.8904 24.8162 0.0000 0.0000 0.0000
# 3 32.1249 24.8162 79.7162 0.0000 0.0000 0.0000
# 4 0.0000 0.0000 0.0000 18.6039 0.0000 0.0000
# 5 0.0000 0.0000 0.0000 0.0000 33.2753 0.0000
# 6 0.0000 0.0000 0.0000 0.0000 0.0000 21.3620
#
#
#
# Elastic Compliance Matrix: (Units=1/GPa)
#
#
# Indices 1 2 3 4 5 6 
#
# 1 0.013919 -0.004974 -0.004061 0.000000 0.000000 0.000000
# 2 -0.004974 0.014736 -0.002583 0.000000 0.000000 0.000000
# 3 -0.004061 -0.002583 0.014985 0.000000 0.000000 0.000000
# 4 0.000000 0.000000 0.000000 0.053752 0.000000 0.000000
# 5 0.000000 0.000000 0.000000 0.000000 0.030052 0.000000
# 6 0.000000 0.000000 0.000000 0.000000 0.000000 0.046812
#
#
# Mechanical properties :
#
#
# Convention : Reuss Voigt Hill
#
# Bulk Modulus (GPa) = 49.00699 49.80826 49.40762
# Shear Modulus (GPa) = 24.47441 25.63045 25.05243
#
# Velocity S-wave (km/s) = 3.57551 3.65898 3.61748
# Velocity P-wave (km/s) = 6.53028 6.62331 6.57696
#
# Compressibility (1/GPa) = 0.02040525
#
# Stress axis : x y z
#
# Youngs Moduli (GPa) = 71.84249 67.85940 66.73228
#
# Poissons Ratio (x) = 0.33750 0.27100
# Poissons Ratio (y) = 0.35731 0.17239
# Poissons Ratio (z) = 0.29176 0.17530
#
# Static dielectric constant tensor:
#      x y z
#    x 3.705390 0.000000 0.000000 
#    y 0.000000 3.408140 0.000000 
#    z 0.000000 0.000000 3.626290 
# 
# 
# High freq. dielectric constant tensor:
#      x y z
#    x 1.742910 0.000000 0.000000 
#    y 0.000000 1.710310 0.000000 
#    z 0.000000 0.000000 1.760220 
# 
# From -- ./inp_files/9649.got.cif
#   From: 2010.03.12/outbox.cif.g09.slc.cpg/sg20_5_cif.got.tgz:9649.got - 2010.04.14 01:38:04.
