data_PCOD8159251
_publ_section_title
;
Structure prediction by ZEFSAII (Michael W. Deem and Ramdas Pophale) SiO2 
 PCOD8159251
Probable space group: C 2 2 21
;
_chemical_formula_sum "Si O2"
_cell_formula_units_Z 48
_cell_length_a 11.897083
_cell_length_b 16.878648
_cell_length_c 11.408523
_cell_angle_alpha 90.000000
_cell_angle_beta 90.000000
_cell_angle_gamma 90.000000
_cell_volume 2290.907584
_symmetry_space_group_name_H-M "C 2 2 21"
_symmetry_group_IT_number 20
_symmetry_cell_setting 'orthorhombic'
loop_
_space_group_symop_operation_xyz
x,y,z
-x,-y,1/2+z
x,-y,-z
-x,y,1/2-z
1/2+x,1/2+y,z
1/2-x,1/2-y,1/2+z
1/2+x,1/2-y,-z
1/2-x,1/2+y,1/2-z
loop_
_atom_site_type_symbol
_atom_site_label
_atom_site_fract_x
_atom_site_fract_y
_atom_site_fract_z
Si Si1 0.918393 0.069083 0.915531
Si Si2 0.382227 0.635996 0.299467
Si Si3 0.150998 0.649403 0.637094
Si Si4 0.787298 0.186548 0.060284
Si Si5 0.659974 0.465847 0.158044
Si Si6 0.098462 0.307837 0.109708
O O1 0.855528 0.053806 0.794199
O O2 0.053470 0.071527 0.908848
O O3 0.882378 0.151959 0.973885
O O4 0.874933 0.000000 0.000000
O O5 0.500000 0.602584 0.250000
O O6 0.297382 0.656175 0.193354
O O7 0.331067 0.560496 0.368434
O O8 0.413528 0.711837 0.379972
O O9 0.201954 0.718921 0.557632
O O10 0.223195 0.570825 0.609610
O O11 0.166120 0.666304 0.775009
O O12 0.019275 0.645177 0.604801
O O13 0.664793 0.166447 0.006983
#
# Coordination Sequence:
#
# PCOD8159251 Si02
#       6
#     8   8   8   8   8   8
#     4  11  21  35  60  95 125 156 209 268 327 378
#     4  11  19  39  64  95 126 165 212 277 336 370
#     4  10  22  37  58  91 126 166 210 262 317 385
#     4  11  21  36  63  89 121 171 216 257 321 400
#     4  11  22  36  61  97 125 156 205 285 322 370
#     4  10  21  39  61  87 128 173 214 249 324 395
#
# _framework density 20.952394000000002
#
# number of rings (size 3 to 8) (size 9 to 14) (size 15 to 20)
#    0.000    1.333    8.333    0.000    2.333    0.000 
#    0.000    0.000    0.000   17.000    0.000    0.000 
#    0.000    0.000    0.000    0.000    0.000    0.000 
#
# Total GULP energy -297481.526431 kJ/mol
# GULP energy per Si atom -12395.063601 kJ/mol
# Density = 2.090471 g / cm^3
# Si number density = 20.952394 Si / 1000 Ang^3
#
#
#
# Elastic Constant Matrix: (Units=GPa)
#
#
# Indices 1 2 3 4 5 6 
#
# 1 127.9922 63.6698 47.6103 0.0000 0.0000 0.0000
# 2 63.6698 117.9215 13.9474 0.0000 0.0000 0.0000
# 3 47.6103 13.9474 51.4686 0.0000 0.0000 0.0000
# 4 0.0000 0.0000 0.0000 18.8072 0.0000 0.0000
# 5 0.0000 0.0000 0.0000 0.0000 31.4751 0.0000
# 6 0.0000 0.0000 0.0000 0.0000 0.0000 37.3927
#
#
#
# Elastic Compliance Matrix: (Units=1/GPa)
#
#
# Indices 1 2 3 4 5 6 
#
# 1 0.016294 -0.007247 -0.013109 0.000000 0.000000 0.000000
# 2 -0.007247 0.011985 0.003456 0.000000 0.000000 0.000000
# 3 -0.013109 0.003456 0.030619 0.000000 0.000000 0.000000
# 4 0.000000 0.000000 0.000000 0.053171 0.000000 0.000000
# 5 0.000000 0.000000 0.000000 0.000000 0.031771 0.000000
# 6 0.000000 0.000000 0.000000 0.000000 0.000000 0.026743
#
#
# Mechanical properties :
#
#
# Convention : Reuss Voigt Hill
#
# Bulk Modulus (GPa) = 39.84380 60.87080 50.35730
# Shear Modulus (GPa) = 23.50183 29.01198 26.25691
#
# Velocity S-wave (km/s) = 3.35278 3.72514 3.54385
# Velocity P-wave (km/s) = 5.83488 6.90053 6.38996
#
# Compressibility (1/GPa) = 0.02509801
#
# Stress axis : x y z
#
# Youngs Moduli (GPa) = 61.37042 83.44083 32.65953
#
# Poissons Ratio (x) = 0.60473 0.42813
# Poissons Ratio (y) = 0.44478 -0.11289
# Poissons Ratio (z) = 0.80451 -0.28841
#
# Static dielectric constant tensor:
#      x y z
#    x 3.620450 0.000000 0.000000 
#    y 0.000000 3.774350 0.000000 
#    z 0.000000 0.000000 3.830300 
# 
# 
# High freq. dielectric constant tensor:
#      x y z
#    x 1.803060 0.000000 0.000000 
#    y 0.000000 1.810970 0.000000 
#    z 0.000000 0.000000 1.820870 
# 
# From -- ./inp_files/14111.got.cif
#   From: 2010.03.12/outbox.cif.g09.slc.cpg/sg20_8_cif.got.tgz:14111.got - 2010.04.14 01:38:04.
