data_PCOD8159185
_publ_section_title
;
Structure prediction by ZEFSAII (Michael W. Deem and Ramdas Pophale) SiO2 
 PCOD8159185
Probable space group: C 2 2 21
;
_chemical_formula_sum "Si O2"
_cell_formula_units_Z 36
_cell_length_a 18.851076
_cell_length_b 7.532360
_cell_length_c 11.972932
_cell_angle_alpha 90.000000
_cell_angle_beta 90.000000
_cell_angle_gamma 90.000000
_cell_volume 1700.073621
_symmetry_space_group_name_H-M "C 2 2 21"
_symmetry_group_IT_number 20
_symmetry_cell_setting 'orthorhombic'
loop_
_space_group_symop_operation_xyz
x,y,z
-x,-y,1/2+z
x,-y,-z
-x,y,1/2-z
1/2+x,1/2+y,z
1/2-x,1/2-y,1/2+z
1/2+x,1/2-y,-z
1/2-x,1/2+y,1/2-z
loop_
_atom_site_type_symbol
_atom_site_label
_atom_site_fract_x
_atom_site_fract_y
_atom_site_fract_z
Si Si1 0.119401 0.300121 0.150851
Si Si2 0.436627 0.500000 0.500000
Si Si3 0.437045 0.301980 0.094889
Si Si4 0.272949 0.000000 0.500000
Si Si5 0.854730 0.845183 0.886214
Si Si6 0.000000 0.477656 0.750000
O O1 0.149473 0.262084 0.273110
O O2 0.043912 0.400974 0.162834
O O3 0.111788 0.122716 0.078010
O O4 0.177991 0.421014 0.095220
O O5 0.483772 0.620886 0.581981
O O6 0.384615 0.456517 0.139147
O O7 0.442783 0.140051 0.181282
O O8 0.407161 0.243156 0.973128
O O9 0.223569 0.853454 0.560166
#
# Coordination Sequence:
#
# PCOD8159185 Si02
#       6
#     8   4   8   4   8   4
#     4  12  24  38  62  90 123 159 204 260 311 367
#     4  10  21  38  58  88 123 160 194 244 322 376
#     4   9  19  38  63  89 126 156 196 248 306 381
#     4  10  25  42  58  88 117 156 222 256 286 374
#     4   9  22  43  60  83 124 174 202 244 316 372
#     4  12  22  36  66 104 124 152 204 264 314 358
#
# _framework density 21.175554000000002
#
# number of rings (size 3 to 8) (size 9 to 14) (size 15 to 20)
#    0.000    2.222    0.000    5.333    0.000    8.000 
#    0.000    0.000    0.000    0.000    0.000    0.000 
#    0.000    0.000    0.000    0.000    0.000    0.000 
#
# Total GULP energy -223197.424111 kJ/mol
# GULP energy per Si atom -12399.856895 kJ/mol
# Density = 2.112736 g / cm^3
# Si number density = 21.175554 Si / 1000 Ang^3
#
#
#
# Elastic Constant Matrix: (Units=GPa)
#
#
# Indices 1 2 3 4 5 6 
#
# 1 107.4388 30.9786 50.0308 0.0000 0.0000 0.0000
# 2 30.9786 68.1552 64.5397 0.0000 0.0000 0.0000
# 3 50.0308 64.5397 132.8987 0.0000 0.0000 0.0000
# 4 0.0000 0.0000 0.0000 46.3514 0.0000 0.0000
# 5 0.0000 0.0000 0.0000 0.0000 40.0829 0.0000
# 6 0.0000 0.0000 0.0000 0.0000 0.0000 -5.6266
#
#
#
# Elastic Compliance Matrix: (Units=1/GPa)
#
#
# Indices 1 2 3 4 5 6 
#
# 1 0.011443 -0.002077 -0.003299 0.000000 0.000000 0.000000
# 2 -0.002077 0.027541 -0.012593 0.000000 0.000000 0.000000
# 3 -0.003299 -0.012593 0.014882 0.000000 0.000000 0.000000
# 4 0.000000 0.000000 0.000000 0.021574 0.000000 0.000000
# 5 0.000000 0.000000 0.000000 0.000000 0.024948 0.000000
# 6 0.000000 0.000000 0.000000 0.000000 0.000000 -0.177726
#
#
# Mechanical properties :
#
#
# Convention : Reuss Voigt Hill
#
# Bulk Modulus (GPa) = 55.77868 66.62122 61.19995
# Shear Modulus (GPa) = -141.15348 27.02445 -57.06451
#
# Velocity S-wave (km/s) = -8.17334 3.57628 -5.19681
# Velocity P-wave (km/s) = 7.91663 6.97013 2.65426
#
# Compressibility (1/GPa) = 0.01792800
#
# Stress axis : x y z
#
# Youngs Moduli (GPa) = 87.39134 36.30885 67.19499
#
# Poissons Ratio (x) = 0.07542 0.22168
# Poissons Ratio (y) = 0.18152 0.84619
# Poissons Ratio (z) = 0.28831 0.45724
#
# Static dielectric constant tensor:
#      x y z
#    x 3.728870 0.000000 0.000000 
#    y 0.000000 3.715080 0.000000 
#    z 0.000000 0.000000 3.924650 
# 
# 
# High freq. dielectric constant tensor:
#      x y z
#    x 1.820310 0.000000 0.000000 
#    y 0.000000 1.814330 0.000000 
#    z 0.000000 0.000000 1.840060 
# 
# From -- ./inp_files/16139.got.cif
#   From: 2010.03.12/outbox.cif.g09.slc.cpg/sg20_9_cif.got.tgz:16139.got - 2010.04.14 01:38:04.
