data_PCOD8159947
_publ_section_title
;
Structure prediction by ZEFSAII (Michael W. Deem and Ramdas Pophale) SiO2 
 PCOD8159947
Probable space group: C 2 2 21
;
_chemical_formula_sum "Si O2"
_cell_formula_units_Z 32
_cell_length_a 17.170495
_cell_length_b 4.903129
_cell_length_c 16.085359
_cell_angle_alpha 90.000000
_cell_angle_beta 90.000000
_cell_angle_gamma 90.000000
_cell_volume 1354.212733
_symmetry_space_group_name_H-M "C 2 2 21"
_symmetry_group_IT_number 20
_symmetry_cell_setting 'orthorhombic'
loop_
_space_group_symop_operation_xyz
x,y,z
-x,-y,1/2+z
x,-y,-z
-x,y,1/2-z
1/2+x,1/2+y,z
1/2-x,1/2-y,1/2+z
1/2+x,1/2-y,-z
1/2-x,1/2+y,1/2-z
loop_
_atom_site_type_symbol
_atom_site_label
_atom_site_fract_x
_atom_site_fract_y
_atom_site_fract_z
Si Si1 0.695081 0.000000 0.000000
Si Si2 0.073333 0.828024 0.915973
Si Si3 0.196459 0.500000 0.500000
Si Si4 0.587245 0.410459 0.247853
Si Si5 0.090242 0.611286 0.648099
O O1 0.638738 0.905175 0.074711
O O2 0.750360 0.247210 0.025289
O O3 0.993844 0.673176 0.891908
O O4 0.110813 0.037091 0.847891
O O5 0.059546 0.000000 0.000000
O O6 0.141974 0.456667 0.579838
O O7 0.500000 0.527361 0.250000
O O8 0.629978 0.611541 0.314956
O O9 0.588469 0.095730 0.273603
#
# Coordination Sequence:
#
# PCOD8159947 Si02
#       5
#     4   8   4   8   8
#     4  12  27  46  71 106 146 194 244 294 347 450
#     4  11  26  46  80 106 144 189 245 300 373 424
#     4  12  27  46  71 102 148 198 240 290 363 432
#     4  10  23  41  70 109 141 171 235 307 352 422
#     4  11  25  44  73 105 140 183 240 296 358 425
#
# _framework density 23.629967000000001
#
# number of rings (size 3 to 8) (size 9 to 14) (size 15 to 20)
#    0.000    1.000    1.250    4.500   19.250    0.000 
#    0.000    5.000    0.000    0.000    0.000    0.000 
#    0.000    0.000    0.000    0.000    0.000    0.000 
#
# Total GULP energy -198235.040941 kJ/mol
# GULP energy per Si atom -12389.690059 kJ/mol
# Density = 2.357618 g / cm^3
# Si number density = 23.629967 Si / 1000 Ang^3
#
#
#
# Elastic Constant Matrix: (Units=GPa)
#
#
# Indices 1 2 3 4 5 6 
#
# 1 93.5891 46.3734 39.7237 0.0000 0.0000 0.0000
# 2 46.3734 156.6467 54.0296 0.0000 0.0000 0.0000
# 3 39.7237 54.0296 131.2702 0.0000 0.0000 0.0000
# 4 0.0000 0.0000 0.0000 55.1508 0.0000 0.0000
# 5 0.0000 0.0000 0.0000 0.0000 1.5534 0.0000
# 6 0.0000 0.0000 0.0000 0.0000 0.0000 43.0094
#
#
#
# Elastic Compliance Matrix: (Units=1/GPa)
#
#
# Indices 1 2 3 4 5 6 
#
# 1 0.013358 -0.002984 -0.002814 0.000000 0.000000 0.000000
# 2 -0.002984 0.008107 -0.002434 0.000000 0.000000 0.000000
# 3 -0.002814 -0.002434 0.009471 0.000000 0.000000 0.000000
# 4 0.000000 0.000000 0.000000 0.018132 0.000000 0.000000
# 5 0.000000 0.000000 0.000000 0.000000 0.643763 0.000000
# 6 0.000000 0.000000 0.000000 0.000000 0.000000 0.023251
#
#
# Mechanical properties :
#
#
# Convention : Reuss Voigt Hill
#
# Bulk Modulus (GPa) = 69.09708 73.52882 71.31295
# Shear Modulus (GPa) = 6.78087 36.03468 21.40777
#
# Velocity S-wave (km/s) = 1.69583 3.90931 3.01318
# Velocity P-wave (km/s) = 5.75667 7.18061 6.50770
#
# Compressibility (1/GPa) = 0.01447239
#
# Stress axis : x y z
#
# Youngs Moduli (GPa) = 74.86184 123.35767 105.58410
#
# Poissons Ratio (x) = 0.36808 0.29713
# Poissons Ratio (y) = 0.22337 0.25695
# Poissons Ratio (z) = 0.21067 0.30021
#
# Static dielectric constant tensor:
#      x y z
#    x 4.130800 0.000000 0.000000 
#    y 0.000000 4.086020 0.000000 
#    z 0.000000 0.000000 4.501670 
# 
# 
# High freq. dielectric constant tensor:
#      x y z
#    x 1.903890 0.000000 0.000000 
#    y 0.000000 1.954210 0.000000 
#    z 0.000000 0.000000 1.948090 
# 
# From -- ./inp_files/21032.got.cif
#   From: 2010.03.12/outbox.cif.g09.slc.cpg/sg20_11_cif.got.tgz:21032.got - 2010.04.14 01:38:04.
