data_PCOD8159041
_publ_section_title
;
Structure prediction by ZEFSAII (Michael W. Deem and Ramdas Pophale) SiO2 
 PCOD8159041
Probable space group: C 2 2 21
;
_chemical_formula_sum "Si O2"
_cell_formula_units_Z 40
_cell_length_a 10.344302
_cell_length_b 10.278623
_cell_length_c 17.388037
_cell_angle_alpha 90.000000
_cell_angle_beta 90.000000
_cell_angle_gamma 90.000000
_cell_volume 1848.786172
_symmetry_space_group_name_H-M "C 2 2 21"
_symmetry_group_IT_number 20
_symmetry_cell_setting 'orthorhombic'
loop_
_space_group_symop_operation_xyz
x,y,z
-x,-y,1/2+z
x,-y,-z
-x,y,1/2-z
1/2+x,1/2+y,z
1/2-x,1/2-y,1/2+z
1/2+x,1/2-y,-z
1/2-x,1/2+y,1/2-z
loop_
_atom_site_type_symbol
_atom_site_label
_atom_site_fract_x
_atom_site_fract_y
_atom_site_fract_z
Si Si1 0.081813 0.704038 0.489874
Si Si2 0.523371 0.014862 0.625183
Si Si3 0.854867 0.865105 0.536817
Si Si4 0.863909 0.155316 0.283301
Si Si5 0.700498 0.065047 0.768275
O O1 0.055530 0.632622 0.569500
O O2 0.035914 0.622652 0.416353
O O3 0.235345 0.735606 0.480399
O O4 0.988931 0.829836 0.493730
O O5 0.622615 0.016205 0.694615
O O6 0.377211 0.034129 0.653811
O O7 0.875681 0.880618 0.627449
O O8 0.805364 0.000000 0.500000
O O9 0.768211 0.279691 0.268310
O O10 0.000000 0.206107 0.250000
O O11 0.827047 0.026573 0.234104
#
# Coordination Sequence:
#
# PCOD8159041 Si02
#       5
#     8   8   8   8   8
#     4  11  22  43  70  98 139 183 237 282 354 419
#     4  10  20  42  70  92 134 190 222 282 344 426
#     4  12  25  45  71 104 146 186 233 298 356 420
#     4  12  25  45  71 104 146 186 233 298 356 420
#     4  11  22  43  70  98 139 183 237 282 354 419
#
# _framework density 21.635816999999999
#
# number of rings (size 3 to 8) (size 9 to 14) (size 15 to 20)
#    0.000    0.800    8.000    0.000    0.000    6.400 
#    7.200    0.000    0.000    0.000    0.000    0.000 
#    0.000    0.000    0.000    0.000    0.000    0.000 
#
# Total GULP energy -247952.127929 kJ/mol
# GULP energy per Si atom -12397.606396 kJ/mol
# Density = 2.158657 g / cm^3
# Si number density = 21.635817 Si / 1000 Ang^3
#
#
#
# Elastic Constant Matrix: (Units=GPa)
#
#
# Indices 1 2 3 4 5 6 
#
# 1 100.9968 28.5676 29.9877 0.0000 0.0000 0.0000
# 2 28.5676 93.7620 0.7893 0.0000 0.0000 0.0000
# 3 29.9877 0.7893 84.5941 0.0000 0.0000 0.0000
# 4 0.0000 0.0000 0.0000 17.9202 0.0000 0.0000
# 5 0.0000 0.0000 0.0000 0.0000 24.7086 0.0000
# 6 0.0000 0.0000 0.0000 0.0000 0.0000 40.2405
#
#
#
# Elastic Compliance Matrix: (Units=1/GPa)
#
#
# Indices 1 2 3 4 5 6 
#
# 1 0.012220 -0.003687 -0.004298 0.000000 0.000000 0.000000
# 2 -0.003687 0.011779 0.001197 0.000000 0.000000 0.000000
# 3 -0.004298 0.001197 0.013333 0.000000 0.000000 0.000000
# 4 0.000000 0.000000 0.000000 0.055803 0.000000 0.000000
# 5 0.000000 0.000000 0.000000 0.000000 0.040472 0.000000
# 6 0.000000 0.000000 0.000000 0.000000 0.000000 0.024851
#
#
# Mechanical properties :
#
#
# Convention : Reuss Voigt Hill
#
# Bulk Modulus (GPa) = 42.09241 44.22690 43.15965
# Shear Modulus (GPa) = 27.78527 31.24110 29.51319
#
# Velocity S-wave (km/s) = 3.58750 3.80406 3.69736
# Velocity P-wave (km/s) = 6.05453 6.30717 6.18214
#
# Compressibility (1/GPa) = 0.02375725
#
# Stress axis : x y z
#
# Youngs Moduli (GPa) = 81.83148 84.89960 74.99960
#
# Poissons Ratio (x) = 0.31303 0.32231
# Poissons Ratio (y) = 0.30172 -0.08979
# Poissons Ratio (z) = 0.35167 -0.10164
#
# Static dielectric constant tensor:
#      x y z
#    x 4.056480 0.000000 0.000000 
#    y 0.000000 3.843130 0.000000 
#    z 0.000000 0.000000 4.132500 
# 
# 
# High freq. dielectric constant tensor:
#      x y z
#    x 1.839710 0.000000 0.000000 
#    y 0.000000 1.835940 0.000000 
#    z 0.000000 0.000000 1.863950 
# 
# From -- ./inp_files/24080.got.cif
#   From: 2010.03.12/outbox.cif.g09.slc.cpg/sg20_13_cif.got.tgz:24080.got - 2010.04.14 01:38:04.
