data_PCOD8159359
_publ_section_title
;
Structure prediction by ZEFSAII (Michael W. Deem and Ramdas Pophale) SiO2 
 PCOD8159359
Probable space group: C 2 2 21
;
_chemical_formula_sum "Si O2"
_cell_formula_units_Z 56
_cell_length_a 19.360550
_cell_length_b 9.209929
_cell_length_c 15.277486
_cell_angle_alpha 90.000000
_cell_angle_beta 90.000000
_cell_angle_gamma 90.000000
_cell_volume 2724.117695
_symmetry_space_group_name_H-M "C 2 2 21"
_symmetry_group_IT_number 20
_symmetry_cell_setting 'orthorhombic'
loop_
_space_group_symop_operation_xyz
x,y,z
-x,-y,1/2+z
x,-y,-z
-x,y,1/2-z
1/2+x,1/2+y,z
1/2-x,1/2-y,1/2+z
1/2+x,1/2-y,-z
1/2-x,1/2+y,1/2-z
loop_
_atom_site_type_symbol
_atom_site_label
_atom_site_fract_x
_atom_site_fract_y
_atom_site_fract_z
Si Si1 0.042587 0.877287 0.433437
Si Si2 0.825506 0.412632 0.758859
Si Si3 0.687730 0.751036 0.217006
Si Si4 0.420350 0.531013 0.236762
Si Si5 0.099613 0.219989 0.866586
Si Si6 0.697098 0.665193 0.017315
Si Si7 0.647463 0.854933 0.540984
O O1 0.095793 0.774092 0.483940
O O2 0.978924 0.779574 0.400400
O O3 0.014928 0.000000 0.500000
O O4 0.086272 0.946096 0.354277
O O5 0.756179 0.320283 0.742022
O O6 0.810222 0.579533 0.738198
O O7 0.887940 0.354776 0.698486
O O8 0.848421 0.386351 0.856956
O O9 0.622464 0.679720 0.266096
O O10 0.679244 0.723002 0.113541
O O11 0.500000 0.571809 0.250000
O O12 0.388908 0.431625 0.314703
O O13 0.152520 0.251048 0.945818
O O14 0.778430 0.685214 0.999081
O O15 0.675028 0.500000 0.000000
O O16 0.616531 0.000000 0.500000
#
# Coordination Sequence:
#
# PCOD8159359 Si02
#       7
#     8   8   8   8   8   8   8
#     4  11  25  43  70 101 133 181 228 281 349 414
#     4  11  25  42  70  98 134 182 225 287 348 412
#     4  11  24  42  67 102 132 176 233 281 346 412
#     4  10  22  41  68  98 132 182 229 276 341 415
#     4  11  22  45  70  95 137 180 223 281 344 412
#     4  10  21  40  70  96 130 173 224 284 337 401
#     4  10  24  44  63  99 134 176 222 287 351 395
#
# _framework density 20.557115
#
# number of rings (size 3 to 8) (size 9 to 14) (size 15 to 20)
#    0.000    1.429    2.857    1.286   10.000    0.571 
#    5.143    0.000    0.000    0.000    0.000    0.000 
#    0.000    0.000    0.000    0.000    0.000    0.000 
#
# Total GULP energy -347252.129589 kJ/mol
# GULP energy per Si atom -12401.861771 kJ/mol
# Density = 2.051033 g / cm^3
# Si number density = 20.557115 Si / 1000 Ang^3
#
#
#
# Elastic Constant Matrix: (Units=GPa)
#
#
# Indices 1 2 3 4 5 6 
#
# 1 101.5039 69.5641 47.5302 0.0000 0.0000 0.0000
# 2 69.5641 125.0547 22.9528 0.0000 0.0000 0.0000
# 3 47.5302 22.9528 71.5390 0.0000 0.0000 0.0000
# 4 0.0000 0.0000 0.0000 32.2679 0.0000 0.0000
# 5 0.0000 0.0000 0.0000 0.0000 31.1478 0.0000
# 6 0.0000 0.0000 0.0000 0.0000 0.0000 31.2568
#
#
#
# Elastic Compliance Matrix: (Units=1/GPa)
#
#
# Indices 1 2 3 4 5 6 
#
# 1 0.022292 -0.010288 -0.011510 0.000000 0.000000 0.000000
# 2 -0.010288 0.013245 0.002586 0.000000 0.000000 0.000000
# 3 -0.011510 0.002586 0.020796 0.000000 0.000000 0.000000
# 4 0.000000 0.000000 0.000000 0.030991 0.000000 0.000000
# 5 0.000000 0.000000 0.000000 0.000000 0.032105 0.000000
# 6 0.000000 0.000000 0.000000 0.000000 0.000000 0.031993
#
#
# Mechanical properties :
#
#
# Convention : Reuss Voigt Hill
#
# Bulk Modulus (GPa) = 55.83921 64.24353 60.04137
# Shear Modulus (GPa) = 25.53427 29.47118 27.50273
#
# Velocity S-wave (km/s) = 3.52819 3.79043 3.66166
# Velocity P-wave (km/s) = 6.61962 7.10462 6.86640
#
# Compressibility (1/GPa) = 0.01790856
#
# Stress axis : x y z
#
# Youngs Moduli (GPa) = 44.85885 75.50167 48.08623
#
# Poissons Ratio (x) = 0.77675 0.55347
# Poissons Ratio (y) = 0.46150 -0.12434
# Poissons Ratio (z) = 0.51633 -0.19523
#
# Static dielectric constant tensor:
#      x y z
#    x 3.687950 0.000000 0.000000 
#    y 0.000000 3.581970 0.000000 
#    z 0.000000 0.000000 3.823380 
# 
# 
# High freq. dielectric constant tensor:
#      x y z
#    x 1.804070 0.000000 0.000000 
#    y 0.000000 1.789340 0.000000 
#    z 0.000000 0.000000 1.813430 
# 
# From -- ./inp_files/21766.got.cif
#   From: 2010.03.12/outbox.cif.g09.slc.cpg/sg20_11_cif.got.tgz:21766.got - 2010.04.14 01:38:04.
