data_PCOD8159283
_publ_section_title
;
Structure prediction by ZEFSAII (Michael W. Deem and Ramdas Pophale) SiO2 
 PCOD8159283
Probable space group: C 2 2 21
;
_chemical_formula_sum "Si O2"
_cell_formula_units_Z 64
_cell_length_a 13.019920
_cell_length_b 13.063271
_cell_length_c 17.258836
_cell_angle_alpha 90.000000
_cell_angle_beta 90.000000
_cell_angle_gamma 90.000000
_cell_volume 2935.430174
_symmetry_space_group_name_H-M "C 2 2 21"
_symmetry_group_IT_number 20
_symmetry_cell_setting 'orthorhombic'
loop_
_space_group_symop_operation_xyz
x,y,z
-x,-y,1/2+z
x,-y,-z
-x,y,1/2-z
1/2+x,1/2+y,z
1/2-x,1/2-y,1/2+z
1/2+x,1/2-y,-z
1/2-x,1/2+y,1/2-z
loop_
_atom_site_type_symbol
_atom_site_label
_atom_site_fract_x
_atom_site_fract_y
_atom_site_fract_z
Si Si1 0.685909 0.268886 0.385478
Si Si2 0.729255 0.891642 0.737959
Si Si3 0.022402 0.287910 0.104570
Si Si4 0.162435 0.405009 0.207627
Si Si5 0.064759 0.075571 0.175876
Si Si6 0.699646 0.228405 0.649096
Si Si7 0.983153 0.079182 0.940235
Si Si8 0.343033 0.715075 0.510296
O O1 0.663316 0.185544 0.316988
O O2 0.752111 0.363639 0.352141
O O3 0.583080 0.319880 0.419931
O O4 0.744820 0.207614 0.453388
O O5 0.816675 0.955027 0.691769
O O6 0.797883 0.829695 0.799593
O O7 0.657872 0.971699 0.784526
O O8 0.052307 0.368851 0.172360
O O9 0.071907 0.177539 0.124438
O O10 0.900876 0.276595 0.094202
O O11 0.080648 0.307290 0.021672
O O12 0.189481 0.367240 0.293616
O O13 0.000000 0.108041 0.250000
O O14 0.008150 0.978737 0.138945
O O15 0.801617 0.232778 0.597052
O O16 0.088244 0.112310 0.983667
O O17 0.926751 0.000000 0.000000
#
# Coordination Sequence:
#
# PCOD8159283 Si02
#       8
#     8   8   8   8   8   8   8   8
#     4  10  23  40  62  97 138 166 222 280 330 400
#     4  11  21  41  66  96 133 171 218 282 334 392
#     4  11  20  42  63  95 129 171 224 275 327 411
#     4  10  21  39  65  96 129 174 221 271 333 401
#     4  12  20  37  68 100 128 167 234 283 329 390
#     4  11  22  39  68  93 125 175 223 270 334 395
#     4  12  24  40  66  98 131 177 223 283 344 401
#     4  11  23  39  60  94 136 169 210 277 333 394
#
# _framework density 21.802596000000001
#
# number of rings (size 3 to 8) (size 9 to 14) (size 15 to 20)
#    0.000    1.000    6.250    2.625    0.000    1.000 
#    0.000    4.375    0.000    3.000    0.000    0.000 
#    0.000    0.000    0.000    0.000    0.000    0.000 
#
# Total GULP energy -396506.273260 kJ/mol
# GULP energy per Si atom -12390.821039 kJ/mol
# Density = 2.175297 g / cm^3
# Si number density = 21.802596 Si / 1000 Ang^3
#
#
#
# Elastic Constant Matrix: (Units=GPa)
#
#
# Indices 1 2 3 4 5 6 
#
# 1 95.4323 43.2555 43.7283 0.0000 0.0000 0.0000
# 2 43.2555 106.5540 25.7930 0.0000 0.0000 0.0000
# 3 43.7283 25.7930 90.3798 0.0000 0.0000 0.0000
# 4 0.0000 0.0000 0.0000 24.1469 0.0000 0.0000
# 5 0.0000 0.0000 0.0000 0.0000 32.4933 0.0000
# 6 0.0000 0.0000 0.0000 0.0000 0.0000 28.8021
#
#
#
# Elastic Compliance Matrix: (Units=1/GPa)
#
#
# Indices 1 2 3 4 5 6 
#
# 1 0.015450 -0.004793 -0.006107 0.000000 0.000000 0.000000
# 2 -0.004793 0.011569 -0.000982 0.000000 0.000000 0.000000
# 3 -0.006107 -0.000982 0.014299 0.000000 0.000000 0.000000
# 4 0.000000 0.000000 0.000000 0.041413 0.000000 0.000000
# 5 0.000000 0.000000 0.000000 0.000000 0.030776 0.000000
# 6 0.000000 0.000000 0.000000 0.000000 0.000000 0.034720
#
#
# Mechanical properties :
#
#
# Convention : Reuss Voigt Hill
#
# Bulk Modulus (GPa) = 56.97285 57.54664 57.25975
# Shear Modulus (GPa) = 28.11478 29.06106 28.58792
#
# Velocity S-wave (km/s) = 3.59488 3.65488 3.62500
# Velocity P-wave (km/s) = 6.58930 6.65301 6.62123
#
# Compressibility (1/GPa) = 0.01755222
#
# Stress axis : x y z
#
# Youngs Moduli (GPa) = 64.72653 86.44087 69.93264
#
# Poissons Ratio (x) = 0.41435 0.42708
# Poissons Ratio (y) = 0.31027 0.06869
# Poissons Ratio (z) = 0.39528 0.08491
#
# Static dielectric constant tensor:
#      x y z
#    x 3.800830 0.000000 0.000000 
#    y 0.000000 3.641420 0.000000 
#    z 0.000000 0.000000 4.211300 
# 
# 
# High freq. dielectric constant tensor:
#      x y z
#    x 1.844940 0.000000 0.000000 
#    y 0.000000 1.827310 0.000000 
#    z 0.000000 0.000000 1.869880 
# 
# From -- ./inp_files/25008.got.cif
#   From: 2010.03.12/outbox.cif.g09.slc.cpg/sg20_13_cif.got.tgz:25008.got - 2010.04.14 01:38:04.
