data_PCOD8159144
_publ_section_title
;
Structure prediction by ZEFSAII (Michael W. Deem and Ramdas Pophale) SiO2 
 PCOD8159144
Probable space group: C 2 2 21
;
_chemical_formula_sum "Si O2"
_cell_formula_units_Z 44
_cell_length_a 13.757137
_cell_length_b 12.318284
_cell_length_c 13.617568
_cell_angle_alpha 90.000000
_cell_angle_beta 90.000000
_cell_angle_gamma 90.000000
_cell_volume 2307.691909
_symmetry_space_group_name_H-M "C 2 2 21"
_symmetry_group_IT_number 20
_symmetry_cell_setting 'orthorhombic'
loop_
_space_group_symop_operation_xyz
x,y,z
-x,-y,1/2+z
x,-y,-z
-x,y,1/2-z
1/2+x,1/2+y,z
1/2-x,1/2-y,1/2+z
1/2+x,1/2-y,-z
1/2-x,1/2+y,1/2-z
loop_
_atom_site_type_symbol
_atom_site_label
_atom_site_fract_x
_atom_site_fract_y
_atom_site_fract_z
Si Si1 0.886392 0.848540 0.239464
Si Si2 0.912459 0.613563 0.816129
Si Si3 0.744058 0.760571 0.892250
Si Si4 0.289758 0.187505 0.094300
Si Si5 0.751862 0.957478 0.764873
Si Si6 0.911564 0.500000 0.000000
O O1 0.842711 0.806491 0.342090
O O2 0.862606 0.768494 0.149687
O O3 0.000000 0.858803 0.250000
O O4 0.844210 0.967081 0.216578
O O5 0.848044 0.713884 0.854320
O O6 0.844403 0.528192 0.757783
O O7 0.967662 0.548578 0.905749
O O8 0.000000 0.658895 0.750000
O O9 0.735209 0.886991 0.863154
O O10 0.729677 0.752904 0.010560
O O11 0.223556 0.127064 0.175812
O O12 0.344599 0.097288 0.034014
#
# Coordination Sequence:
#
# PCOD8159144 Si02
#       6
#     8   8   8   8   8   4
#     4  10  21  37  57  83 112 147 187 231 283 343
#     4   9  17  32  52  74  99 133 176 220 269 324
#     4   9  19  36  55  76 108 145 183 228 274 332
#     4   9  18  36  57  77 105 144 185 223 275 334
#     4   9  19  35  54  76 107 142 179 227 278 330
#     4   8  16  30  52  74  98 134 172 212 264 328
#
# _framework density 19.066669999999998
#
# number of rings (size 3 to 8) (size 9 to 14) (size 15 to 20)
#    0.000    2.909    0.000    1.091    0.000    8.000 
#    0.000   20.000    0.000    0.000    0.000    0.000 
#    0.000    0.000    0.000    0.000    0.000    0.000 
#
# Total GULP energy -272573.228471 kJ/mol
# GULP energy per Si atom -12389.692203 kJ/mol
# Density = 1.902327 g / cm^3
# Si number density = 19.066670 Si / 1000 Ang^3
#
#
#
# Elastic Constant Matrix: (Units=GPa)
#
#
# Indices 1 2 3 4 5 6 
#
# 1 86.3959 20.0681 21.3238 0.0000 0.0000 0.0000
# 2 20.0681 97.7266 21.0030 0.0000 0.0000 0.0000
# 3 21.3238 21.0030 78.1010 0.0000 0.0000 0.0000
# 4 0.0000 0.0000 0.0000 28.2362 0.0000 0.0000
# 5 0.0000 0.0000 0.0000 0.0000 20.0967 0.0000
# 6 0.0000 0.0000 0.0000 0.0000 0.0000 28.6459
#
#
#
# Elastic Compliance Matrix: (Units=1/GPa)
#
#
# Indices 1 2 3 4 5 6 
#
# 1 0.012764 -0.001987 -0.002951 0.000000 0.000000 0.000000
# 2 -0.001987 0.011170 -0.002461 0.000000 0.000000 0.000000
# 3 -0.002951 -0.002461 0.014271 0.000000 0.000000 0.000000
# 4 0.000000 0.000000 0.000000 0.035416 0.000000 0.000000
# 5 0.000000 0.000000 0.000000 0.000000 0.049759 0.000000
# 6 0.000000 0.000000 0.000000 0.000000 0.000000 0.034909
#
#
# Mechanical properties :
#
#
# Convention : Reuss Voigt Hill
#
# Bulk Modulus (GPa) = 42.72118 43.00147 42.86132
# Shear Modulus (GPa) = 27.64112 28.71765 28.17939
#
# Velocity S-wave (km/s) = 3.81163 3.88515 3.84857
# Velocity P-wave (km/s) = 6.46732 6.53667 6.50209
#
# Compressibility (1/GPa) = 0.02340759
#
# Stress axis : x y z
#
# Youngs Moduli (GPa) = 78.34259 89.52855 70.06997
#
# Poissons Ratio (x) = 0.17789 0.20676
# Poissons Ratio (y) = 0.15567 0.17246
# Poissons Ratio (z) = 0.23117 0.22035
#
# Static dielectric constant tensor:
#      x y z
#    x 3.003160 0.000000 0.000000 
#    y 0.000000 3.651320 0.000000 
#    z 0.000000 0.000000 3.781760 
# 
# 
# High freq. dielectric constant tensor:
#      x y z
#    x 1.693960 0.000000 0.000000 
#    y 0.000000 1.751170 0.000000 
#    z 0.000000 0.000000 1.752360 
# 
# From -- ./inp_files/14980.got.cif
#   From: 2010.03.12/outbox.cif.g09.slc.cpg/sg20_8_cif.got.tgz:14980.got - 2010.04.14 01:38:04.
