data_PCOD8159691
_publ_section_title
;
Structure prediction by ZEFSAII (Michael W. Deem and Ramdas Pophale) SiO2 
 PCOD8159691
Probable space group: C 2 2 21
;
_chemical_formula_sum "Si O2"
_cell_formula_units_Z 60
_cell_length_a 26.866652
_cell_length_b 11.906748
_cell_length_c 8.844340
_cell_angle_alpha 90.000000
_cell_angle_beta 90.000000
_cell_angle_gamma 90.000000
_cell_volume 2829.255324
_symmetry_space_group_name_H-M "C 2 2 21"
_symmetry_group_IT_number 20
_symmetry_cell_setting 'orthorhombic'
loop_
_space_group_symop_operation_xyz
x,y,z
-x,-y,1/2+z
x,-y,-z
-x,y,1/2-z
1/2+x,1/2+y,z
1/2-x,1/2-y,1/2+z
1/2+x,1/2-y,-z
1/2-x,1/2+y,1/2-z
loop_
_atom_site_type_symbol
_atom_site_label
_atom_site_fract_x
_atom_site_fract_y
_atom_site_fract_z
Si Si1 0.102072 0.129440 0.175343
Si Si2 0.281967 0.766435 0.636266
Si Si3 0.500000 0.718050 0.250000
Si Si4 0.125640 0.882454 0.164479
Si Si5 0.327434 0.960471 0.836814
Si Si6 0.421034 0.823531 0.790497
Si Si7 0.484965 0.872137 0.526699
Si Si8 0.687404 0.807622 0.199744
O O1 0.049569 0.141695 0.267736
O O2 0.140194 0.226929 0.220380
O O3 0.125162 0.009588 0.225079
O O4 0.095392 0.128454 0.993657
O O5 0.317426 0.657666 0.649470
O O6 0.294362 0.865332 0.755445
O O7 0.286454 0.808081 0.463999
O O8 0.226312 0.726691 0.669965
O O9 0.480338 0.801619 0.377020
O O10 0.099904 0.802569 0.287294
O O11 0.382324 0.910010 0.864004
O O12 0.331584 0.066651 0.726775
O O13 0.305622 0.000000 0.000000
O O14 0.433365 0.865126 0.619628
O O15 0.470446 0.814481 0.885199
O O16 0.499146 0.000000 0.500000
#
# Coordination Sequence:
#
# PCOD8159691 Si02
#       8
#     8   8   4   8   8   8   8   8
#     4  10  23  40  68  95 129 175 221 274 332 398
#     4  10  23  43  69  99 132 177 221 280 349 409
#     4  12  24  42  64 100 126 174 230 272 332 406
#     4   9  20  45  65  89 131 172 216 267 335 405
#     4  11  24  40  68  96 133 174 221 278 339 409
#     4  10  22  41  61  92 126 174 212 268 331 390
#     4  11  24  37  62  91 132 168 214 272 332 390
#     4  11  24  42  69 100 135 173 227 281 342 414
#
# _framework density 21.206993000000001
#
# number of rings (size 3 to 8) (size 9 to 14) (size 15 to 20)
#    0.000    1.600    1.333    2.400    7.467    1.067 
#    0.000    0.000    0.000    0.000    0.000    0.000 
#    0.000    0.000    0.000    0.000    0.000    0.000 
#
# Total GULP energy -371936.974741 kJ/mol
# GULP energy per Si atom -12397.899158 kJ/mol
# Density = 2.115873 g / cm^3
# Si number density = 21.206993 Si / 1000 Ang^3
#
#
#
# Elastic Constant Matrix: (Units=GPa)
#
#
# Indices 1 2 3 4 5 6 
#
# 1 82.7910 31.0470 6.5728 0.0000 0.0000 0.0000
# 2 31.0470 143.1061 22.6556 0.0000 0.0000 0.0000
# 3 6.5728 22.6556 64.9590 0.0000 0.0000 0.0000
# 4 0.0000 0.0000 0.0000 28.6142 0.0000 0.0000
# 5 0.0000 0.0000 0.0000 0.0000 32.0519 0.0000
# 6 0.0000 0.0000 0.0000 0.0000 0.0000 23.2304
#
#
#
# Elastic Compliance Matrix: (Units=1/GPa)
#
#
# Indices 1 2 3 4 5 6 
#
# 1 0.013156 -0.002798 -0.000355 0.000000 0.000000 0.000000
# 2 -0.002798 0.007991 -0.002504 0.000000 0.000000 0.000000
# 3 -0.000355 -0.002504 0.016304 0.000000 0.000000 0.000000
# 4 0.000000 0.000000 0.000000 0.034948 0.000000 0.000000
# 5 0.000000 0.000000 0.000000 0.000000 0.031199 0.000000
# 6 0.000000 0.000000 0.000000 0.000000 0.000000 0.043047
#
#
# Mechanical properties :
#
#
# Convention : Reuss Voigt Hill
#
# Bulk Modulus (GPa) = 38.26095 45.71191 41.98643
# Shear Modulus (GPa) = 29.99907 32.15133 31.07520
#
# Velocity S-wave (km/s) = 3.76518 3.89790 3.83211
# Velocity P-wave (km/s) = 6.08136 6.46994 6.27865
#
# Compressibility (1/GPa) = 0.02613631
#
# Stress axis : x y z
#
# Youngs Moduli (GPa) = 76.01060 125.13677 61.33622
#
# Poissons Ratio (x) = 0.35013 0.02180
# Poissons Ratio (y) = 0.21267 0.15358
# Poissons Ratio (z) = 0.02701 0.31334
#
# Static dielectric constant tensor:
#      x y z
#    x 3.988500 0.000000 0.000000 
#    y 0.000000 3.936800 0.000000 
#    z 0.000000 0.000000 3.735620 
# 
# 
# High freq. dielectric constant tensor:
#      x y z
#    x 1.829700 0.000000 0.000000 
#    y 0.000000 1.842690 0.000000 
#    z 0.000000 0.000000 1.820930 
# 
# From -- ./inp_files/11583.got.cif
#   From: 2010.03.12/outbox.cif.g09.slc.cpg/sg20_6_cif.got.tgz:11583.got - 2010.04.14 01:38:04.
