data_PCOD8159171
_publ_section_title
;
Structure prediction by ZEFSAII (Michael W. Deem and Ramdas Pophale) SiO2 
 PCOD8159171
Probable space group: C 2 2 21
;
_chemical_formula_sum "Si O2"
_cell_formula_units_Z 56
_cell_length_a 15.609928
_cell_length_b 11.316132
_cell_length_c 13.994424
_cell_angle_alpha 90.000000
_cell_angle_beta 90.000000
_cell_angle_gamma 90.000000
_cell_volume 2472.031114
_symmetry_space_group_name_H-M "C 2 2 21"
_symmetry_group_IT_number 20
_symmetry_cell_setting 'orthorhombic'
loop_
_space_group_symop_operation_xyz
x,y,z
-x,-y,1/2+z
x,-y,-z
-x,y,1/2-z
1/2+x,1/2+y,z
1/2-x,1/2-y,1/2+z
1/2+x,1/2-y,-z
1/2-x,1/2+y,1/2-z
loop_
_atom_site_type_symbol
_atom_site_label
_atom_site_fract_x
_atom_site_fract_y
_atom_site_fract_z
Si Si1 0.442165 0.215763 0.661730
Si Si2 0.488254 0.740906 0.545062
Si Si3 0.691444 0.617777 0.243888
Si Si4 0.979460 0.470931 0.850792
Si Si5 0.417106 0.417452 0.186987
Si Si6 0.180627 0.768756 0.166623
Si Si7 0.705201 0.962994 0.392580
O O1 0.500000 0.252560 0.750000
O O2 0.476775 0.283436 0.567132
O O3 0.349059 0.264100 0.694322
O O4 0.448407 0.074618 0.638855
O O5 0.552371 0.639668 0.585811
O O6 0.395253 0.741804 0.592123
O O7 0.523585 0.874276 0.564570
O O8 0.628395 0.546111 0.316554
O O9 0.778510 0.644299 0.302191
O O10 0.718547 0.537819 0.154678
O O11 0.886753 0.531831 0.840950
O O12 0.000000 0.403557 0.750000
O O13 0.500000 0.435589 0.250000
O O14 0.350535 0.327989 0.235195
O O15 0.261324 0.829898 0.114530
O O16 0.691983 0.000000 0.500000
#
# Coordination Sequence:
#
# PCOD8159171 Si02
#       7
#     8   8   8   8   8   8   8
#     4  11  24  40  63  92 127 164 204 257 310 364
#     4  11  21  41  66  91 120 164 213 251 300 373
#     4  11  22  39  61  92 129 159 203 264 314 356
#     4  11  22  39  65  93 122 161 208 255 304 366
#     4   9  20  38  62  90 124 169 210 248 305 374
#     4  10  21  37  62  92 124 158 201 257 310 362
#     4  11  22  38  60  88 122 167 205 240 307 385
#
# _framework density 22.653435999999999
#
# number of rings (size 3 to 8) (size 9 to 14) (size 15 to 20)
#    0.000    1.429    0.000    7.286    0.000    1.143 
#    0.000    6.429    0.000   12.000    0.000    0.000 
#    0.000    0.000    0.000    0.000    0.000    0.000 
#
# Total GULP energy -347024.336036 kJ/mol
# GULP energy per Si atom -12393.726287 kJ/mol
# Density = 2.260188 g / cm^3
# Si number density = 22.653436 Si / 1000 Ang^3
#
#
#
# Elastic Constant Matrix: (Units=GPa)
#
#
# Indices 1 2 3 4 5 6 
#
# 1 101.0329 44.1122 27.3740 0.0000 0.0000 0.0000
# 2 44.1122 87.8572 14.8390 0.0000 0.0000 0.0000
# 3 27.3740 14.8390 127.1437 0.0000 0.0000 0.0000
# 4 0.0000 0.0000 0.0000 19.6430 0.0000 0.0000
# 5 0.0000 0.0000 0.0000 0.0000 27.3388 0.0000
# 6 0.0000 0.0000 0.0000 0.0000 0.0000 48.4223
#
#
#
# Elastic Compliance Matrix: (Units=1/GPa)
#
#
# Indices 1 2 3 4 5 6 
#
# 1 0.013210 -0.006276 -0.002112 0.000000 0.000000 0.000000
# 2 -0.006276 0.014593 -0.000352 0.000000 0.000000 0.000000
# 3 -0.002112 -0.000352 0.008361 0.000000 0.000000 0.000000
# 4 0.000000 0.000000 0.000000 0.050909 0.000000 0.000000
# 5 0.000000 0.000000 0.000000 0.000000 0.036578 0.000000
# 6 0.000000 0.000000 0.000000 0.000000 0.000000 0.020652
#
#
# Mechanical properties :
#
#
# Convention : Reuss Voigt Hill
#
# Bulk Modulus (GPa) = 53.52035 54.29824 53.90930
# Shear Modulus (GPa) = 29.76027 34.39472 32.07750
#
# Velocity S-wave (km/s) = 3.62846 3.90076 3.76707
# Velocity P-wave (km/s) = 6.42116 6.65651 6.53989
#
# Compressibility (1/GPa) = 0.01868448
#
# Stress axis : x y z
#
# Youngs Moduli (GPa) = 75.69985 68.52767 119.60541
#
# Poissons Ratio (x) = 0.43008 0.25257
# Poissons Ratio (y) = 0.47509 0.04209
# Poissons Ratio (z) = 0.15985 0.02411
#
# Static dielectric constant tensor:
#      x y z
#    x 4.189390 0.000000 0.000000 
#    y 0.000000 4.169130 0.000000 
#    z 0.000000 0.000000 3.990110 
# 
# 
# High freq. dielectric constant tensor:
#      x y z
#    x 1.900700 0.000000 0.000000 
#    y 0.000000 1.889730 0.000000 
#    z 0.000000 0.000000 1.880110 
# 
# From -- ./inp_files/20747.got.cif
#   From: 2010.03.12/outbox.cif.g09.slc.cpg/sg20_11_cif.got.tgz:20747.got - 2010.04.14 01:38:04.
