data_PCOD8159671
_publ_section_title
;
Structure prediction by ZEFSAII (Michael W. Deem and Ramdas Pophale) SiO2 
 PCOD8159671
Probable space group: C 2 2 21
;
_chemical_formula_sum "Si O2"
_cell_formula_units_Z 48
_cell_length_a 12.248726
_cell_length_b 13.406386
_cell_length_c 13.643878
_cell_angle_alpha 90.000000
_cell_angle_beta 90.000000
_cell_angle_gamma 90.000000
_cell_volume 2240.476880
_symmetry_space_group_name_H-M "C 2 2 21"
_symmetry_group_IT_number 20
_symmetry_cell_setting 'orthorhombic'
loop_
_space_group_symop_operation_xyz
x,y,z
-x,-y,1/2+z
x,-y,-z
-x,y,1/2-z
1/2+x,1/2+y,z
1/2-x,1/2-y,1/2+z
1/2+x,1/2-y,-z
1/2-x,1/2+y,1/2-z
loop_
_atom_site_type_symbol
_atom_site_label
_atom_site_fract_x
_atom_site_fract_y
_atom_site_fract_z
Si Si1 0.828553 0.724405 0.633085
Si Si2 0.950633 0.288284 0.041222
Si Si3 0.977495 0.828252 0.362752
Si Si4 0.888163 0.856962 0.802133
Si Si5 0.728555 0.613793 0.971647
Si Si6 0.827653 0.957254 0.103507
O O1 0.944723 0.675207 0.603857
O O2 0.828153 0.770323 0.741771
O O3 0.800431 0.814756 0.561556
O O4 0.740174 0.638606 0.634082
O O5 0.909429 0.183792 0.087959
O O6 0.983838 0.266645 0.928501
O O7 0.856603 0.371456 0.052716
O O8 0.849982 0.854779 0.381079
O O9 0.000000 0.799892 0.250000
O O10 0.045448 0.925709 0.395909
O O11 0.000000 0.888386 0.750000
O O12 0.813360 0.955370 0.814976
O O13 0.707291 0.500000 0.000000
O O14 0.788223 0.000000 0.000000
#
# Coordination Sequence:
#
# PCOD8159671 Si02
#       6
#     8   8   8   8   8   8
#     4  10  24  41  66 101 131 175 221 281 341 410
#     4  10  22  45  62  94 134 177 219 275 343 413
#     4  11  24  39  67  99 129 171 232 290 334 398
#     4  10  22  40  67  94 129 170 221 276 339 400
#     4  11  24  40  65  94 135 175 220 277 340 405
#     4  12  22  42  69 100 132 175 231 287 339 405
#
# _framework density 21.424009999999999
#
# number of rings (size 3 to 8) (size 9 to 14) (size 15 to 20)
#    0.000    1.333    3.333    1.000    9.333    0.667 
#    0.000    0.000    0.000    1.000    0.000    0.000 
#    0.000    0.000    0.000    0.000    0.000    0.000 
#
# Total GULP energy -297585.653864 kJ/mol
# GULP energy per Si atom -12399.402244 kJ/mol
# Density = 2.137525 g / cm^3
# Si number density = 21.424010 Si / 1000 Ang^3
#
#
#
# Elastic Constant Matrix: (Units=GPa)
#
#
# Indices 1 2 3 4 5 6 
#
# 1 113.3299 58.0991 36.4179 0.0000 0.0000 0.0000
# 2 58.0991 114.7381 56.7767 0.0000 0.0000 0.0000
# 3 36.4179 56.7767 129.2400 0.0000 0.0000 0.0000
# 4 0.0000 0.0000 0.0000 24.8679 0.0000 0.0000
# 5 0.0000 0.0000 0.0000 0.0000 21.5502 0.0000
# 6 0.0000 0.0000 0.0000 0.0000 0.0000 26.6255
#
#
#
# Elastic Compliance Matrix: (Units=1/GPa)
#
#
# Indices 1 2 3 4 5 6 
#
# 1 0.012001 -0.005626 -0.000910 0.000000 0.000000 0.000000
# 2 -0.005626 0.013774 -0.004466 0.000000 0.000000 0.000000
# 3 -0.000910 -0.004466 0.009956 0.000000 0.000000 0.000000
# 4 0.000000 0.000000 0.000000 0.040212 0.000000 0.000000
# 5 0.000000 0.000000 0.000000 0.000000 0.046403 0.000000
# 6 0.000000 0.000000 0.000000 0.000000 0.000000 0.037558
#
#
# Mechanical properties :
#
#
# Convention : Reuss Voigt Hill
#
# Bulk Modulus (GPa) = 72.85112 73.32173 73.08643
# Shear Modulus (GPa) = 26.81194 28.34302 27.57748
#
# Velocity S-wave (km/s) = 3.54148 3.64119 3.59168
# Velocity P-wave (km/s) = 7.12748 7.20944 7.16858
#
# Compressibility (1/GPa) = 0.01372662
#
# Stress axis : x y z
#
# Youngs Moduli (GPa) = 83.32928 72.59859 100.44396
#
# Poissons Ratio (x) = 0.40847 0.09139
# Poissons Ratio (y) = 0.46885 0.44856
# Poissons Ratio (z) = 0.07581 0.32421
#
# Static dielectric constant tensor:
#      x y z
#    x 4.063780 0.000000 0.000000 
#    y 0.000000 3.579020 0.000000 
#    z 0.000000 0.000000 3.943540 
# 
# 
# High freq. dielectric constant tensor:
#      x y z
#    x 1.837730 0.000000 0.000000 
#    y 0.000000 1.820940 0.000000 
#    z 0.000000 0.000000 1.847590 
# 
# From -- ./inp_files/19952.got.cif
#   From: 2010.03.12/outbox.cif.g09.slc.cpg/sg20_10_cif.got.tgz:19952.got - 2010.04.14 01:38:04.
