data_PCOD8159089
_publ_section_title
;
Structure prediction by ZEFSAII (Michael W. Deem and Ramdas Pophale) SiO2 
 PCOD8159089
Probable space group: C 2 2 21
;
_chemical_formula_sum "Si O2"
_cell_formula_units_Z 36
_cell_length_a 25.052408
_cell_length_b 16.434312
_cell_length_c 5.004067
_cell_angle_alpha 90.000000
_cell_angle_beta 90.000000
_cell_angle_gamma 90.000000
_cell_volume 2060.269909
_symmetry_space_group_name_H-M "C 2 2 21"
_symmetry_group_IT_number 20
_symmetry_cell_setting 'orthorhombic'
loop_
_space_group_symop_operation_xyz
x,y,z
-x,-y,1/2+z
x,-y,-z
-x,y,1/2-z
1/2+x,1/2+y,z
1/2-x,1/2-y,1/2+z
1/2+x,1/2-y,-z
1/2-x,1/2+y,1/2-z
loop_
_atom_site_type_symbol
_atom_site_label
_atom_site_fract_x
_atom_site_fract_y
_atom_site_fract_z
Si Si1 0.125247 0.076287 0.798406
Si Si2 0.319720 0.274927 0.494178
Si Si3 0.286536 0.500000 0.000000
Si Si4 0.283627 0.000000 0.000000
Si Si5 0.198997 0.675197 0.506191
Si Si6 0.965487 0.000000 0.000000
O O1 0.131616 0.160999 0.955554
O O2 0.071045 0.072643 0.622278
O O3 0.175288 0.073965 0.592826
O O4 0.126877 0.000000 0.000000
O O5 0.263134 0.320598 0.469076
O O6 0.328666 0.233829 0.779571
O O7 0.322712 0.202483 0.279616
O O8 0.251287 0.470305 0.752680
O O9 0.317902 0.919062 0.065838
O O10 0.000000 0.034947 0.250000
#
# Coordination Sequence:
#
# PCOD8159089 Si02
#       6
#     8   8   4   4   8   4
#     4  11  22  34  57  72 100 138 176 220 259 323
#     4  10  21  32  45  73  94 132 176 226 254 282
#     4  11  20  28  50  69  90 132 188 211 248 304
#     4  12  20  33  48  67  98 146 174 225 263 292
#     4  10  21  31  46  66 104 127 180 228 248 294
#     4  11  24  39  54  80 102 132 178 222 275 326
#
# _framework density 17.473438999999999
#
# number of rings (size 3 to 8) (size 9 to 14) (size 15 to 20)
#    0.000    1.333    4.444    1.333   12.444    0.000 
#    0.000    0.000    0.000    0.000    0.000    0.000 
#    0.000    0.000    0.000    6.000    7.111    0.222 
#
# Total GULP energy -223129.291898 kJ/mol
# GULP energy per Si atom -12396.071772 kJ/mol
# Density = 1.743367 g / cm^3
# Si number density = 17.473439 Si / 1000 Ang^3
#
#
#
# Elastic Constant Matrix: (Units=GPa)
#
#
# Indices 1 2 3 4 5 6 
#
# 1 45.0748 19.2162 15.9672 0.0000 0.0000 0.0000
# 2 19.2162 107.1698 13.5248 0.0000 0.0000 0.0000
# 3 15.9672 13.5248 85.9367 0.0000 0.0000 0.0000
# 4 0.0000 0.0000 0.0000 25.6712 0.0000 0.0000
# 5 0.0000 0.0000 0.0000 0.0000 19.5137 0.0000
# 6 0.0000 0.0000 0.0000 0.0000 0.0000 7.3298
#
#
#
# Elastic Compliance Matrix: (Units=1/GPa)
#
#
# Indices 1 2 3 4 5 6 
#
# 1 0.025347 -0.004031 -0.004075 0.000000 0.000000 0.000000
# 2 -0.004031 0.010161 -0.000850 0.000000 0.000000 0.000000
# 3 -0.004075 -0.000850 0.012527 0.000000 0.000000 0.000000
# 4 0.000000 0.000000 0.000000 0.038954 0.000000 0.000000
# 5 0.000000 0.000000 0.000000 0.000000 0.051246 0.000000
# 6 0.000000 0.000000 0.000000 0.000000 0.000000 0.136429
#
#
# Mechanical properties :
#
#
# Convention : Reuss Voigt Hill
#
# Bulk Modulus (GPa) = 33.19665 37.28865 35.24265
# Shear Modulus (GPa) = 16.52244 23.13448 19.82846
#
# Velocity S-wave (km/s) = 3.07836 3.64260 3.37230
# Velocity P-wave (km/s) = 5.62802 6.25123 5.94779
#
# Compressibility (1/GPa) = 0.03012352
#
# Stress axis : x y z
#
# Youngs Moduli (GPa) = 39.45197 98.41549 79.82457
#
# Poissons Ratio (x) = 0.39668 0.32530
# Poissons Ratio (y) = 0.15902 0.06787
# Poissons Ratio (z) = 0.16078 0.08368
#
# Static dielectric constant tensor:
#      x y z
#    x 2.852190 0.000000 0.000000 
#    y 0.000000 3.151120 0.000000 
#    z 0.000000 0.000000 3.642030 
# 
# 
# High freq. dielectric constant tensor:
#      x y z
#    x 1.595520 0.000000 0.000000 
#    y 0.000000 1.660640 0.000000 
#    z 0.000000 0.000000 1.709010 
# 
# From -- ./inp_files/4166.got.cif
#   From: 2010.03.12/outbox.cif.g09.slc.cpg/sg20_3_cif.got.tgz:4166.got - 2010.04.14 01:38:04.
