data_PCOD8159642
_publ_section_title
;
Structure prediction by ZEFSAII (Michael W. Deem and Ramdas Pophale) SiO2 
 PCOD8159642
Probable space group: C 2 2 21
;
_chemical_formula_sum "Si O2"
_cell_formula_units_Z 56
_cell_length_a 16.320689
_cell_length_b 14.646244
_cell_length_c 11.011995
_cell_angle_alpha 90.000000
_cell_angle_beta 90.000000
_cell_angle_gamma 90.000000
_cell_volume 2632.271973
_symmetry_space_group_name_H-M "C 2 2 21"
_symmetry_group_IT_number 20
_symmetry_cell_setting 'orthorhombic'
loop_
_space_group_symop_operation_xyz
x,y,z
-x,-y,1/2+z
x,-y,-z
-x,y,1/2-z
1/2+x,1/2+y,z
1/2-x,1/2-y,1/2+z
1/2+x,1/2-y,-z
1/2-x,1/2+y,1/2-z
loop_
_atom_site_type_symbol
_atom_site_label
_atom_site_fract_x
_atom_site_fract_y
_atom_site_fract_z
Si Si1 0.859465 0.103571 0.949810
Si Si2 0.311766 0.304795 0.808619
Si Si3 0.541599 0.620997 0.897134
Si Si4 0.445343 0.010641 0.363729
Si Si5 0.132506 0.698480 0.117354
Si Si6 0.685506 0.857854 0.141717
Si Si7 0.074624 0.925148 0.830934
O O1 0.781725 0.116473 0.861916
O O2 0.943119 0.124408 0.875958
O O3 0.850690 0.176842 0.059334
O O4 0.863617 0.000000 0.000000
O O5 0.214152 0.309634 0.803681
O O6 0.336618 0.204148 0.759003
O O7 0.340774 0.384738 0.718198
O O8 0.583981 0.710842 0.845555
O O9 0.580311 0.534728 0.827011
O O10 0.557969 0.613254 0.037842
O O11 0.500000 0.977291 0.250000
O O12 0.361935 0.953195 0.356032
O O13 0.485341 0.000000 0.500000
O O14 0.425785 0.116093 0.344801
O O15 0.156885 0.698859 0.975868
O O16 0.000000 0.888244 0.750000
#
# Coordination Sequence:
#
# PCOD8159642 Si02
#       7
#     8   8   8   8   8   8   8
#     4  11  21  40  64  96 132 174 219 279 356 419
#     4  11  22  38  64  90 128 175 214 263 339 413
#     4  11  22  38  64  97 128 163 216 278 338 406
#     4  10  23  44  68  93 131 182 236 287 338 405
#     4  10  23  40  61  93 128 172 220 280 338 407
#     4  10  22  40  63  91 131 176 226 273 337 416
#     4  11  21  38  62  95 128 164 210 272 340 410
#
# _framework density 21.274397
#
# number of rings (size 3 to 8) (size 9 to 14) (size 15 to 20)
#    0.000    1.429    4.286    2.143    0.000    8.000 
#    0.000    1.429    3.143    0.000    0.000    0.000 
#    0.000    0.000    0.000    0.000    0.000    0.000 
#
# Total GULP energy -347176.505603 kJ/mol
# GULP energy per Si atom -12399.160914 kJ/mol
# Density = 2.122598 g / cm^3
# Si number density = 21.274397 Si / 1000 Ang^3
#
#
#
# Elastic Constant Matrix: (Units=GPa)
#
#
# Indices 1 2 3 4 5 6 
#
# 1 125.6124 63.4844 28.4334 0.0000 0.0000 0.0000
# 2 63.4844 135.0238 32.7160 0.0000 0.0000 0.0000
# 3 28.4334 32.7160 66.0526 0.0000 0.0000 0.0000
# 4 0.0000 0.0000 0.0000 27.5084 0.0000 0.0000
# 5 0.0000 0.0000 0.0000 0.0000 33.7923 0.0000
# 6 0.0000 0.0000 0.0000 0.0000 0.0000 35.8766
#
#
#
# Elastic Compliance Matrix: (Units=1/GPa)
#
#
# Indices 1 2 3 4 5 6 
#
# 1 0.010772 -0.004479 -0.002419 0.000000 0.000000 0.000000
# 2 -0.004479 0.010278 -0.003163 0.000000 0.000000 0.000000
# 3 -0.002419 -0.003163 0.017747 0.000000 0.000000 0.000000
# 4 0.000000 0.000000 0.000000 0.036352 0.000000 0.000000
# 5 0.000000 0.000000 0.000000 0.000000 0.029593 0.000000
# 6 0.000000 0.000000 0.000000 0.000000 0.000000 0.027873
#
#
# Mechanical properties :
#
#
# Convention : Reuss Voigt Hill
#
# Bulk Modulus (GPa) = 53.54204 63.99516 58.76860
# Shear Modulus (GPa) = 31.45408 32.90580 32.17994
#
# Velocity S-wave (km/s) = 3.84929 3.93712 3.89345
# Velocity P-wave (km/s) = 6.70657 7.12839 6.92070
#
# Compressibility (1/GPa) = 0.01867691
#
# Stress axis : x y z
#
# Youngs Moduli (GPa) = 92.83338 97.29329 56.34685
#
# Poissons Ratio (x) = 0.43574 0.13629
# Poissons Ratio (y) = 0.41577 0.17822
# Poissons Ratio (z) = 0.22454 0.30773
#
# Static dielectric constant tensor:
#      x y z
#    x 3.876270 0.000000 0.000000 
#    y 0.000000 3.841890 0.000000 
#    z 0.000000 0.000000 4.025320 
# 
# 
# High freq. dielectric constant tensor:
#      x y z
#    x 1.827140 0.000000 0.000000 
#    y 0.000000 1.837010 0.000000 
#    z 0.000000 0.000000 1.840450 
# 
# From -- ./inp_files/15130.got.cif
#   From: 2010.03.12/outbox.cif.g09.slc.cpg/sg20_8_cif.got.tgz:15130.got - 2010.04.14 01:38:04.
