data_PCOD8159129
_publ_section_title
;
Structure prediction by ZEFSAII (Michael W. Deem and Ramdas Pophale) SiO2 
 PCOD8159129
Probable space group: C 2 2 21
;
_chemical_formula_sum "Si O2"
_cell_formula_units_Z 64
_cell_length_a 18.909136
_cell_length_b 19.303604
_cell_length_c 8.516622
_cell_angle_alpha 90.000000
_cell_angle_beta 90.000000
_cell_angle_gamma 90.000000
_cell_volume 3108.690294
_symmetry_space_group_name_H-M "C 2 2 21"
_symmetry_group_IT_number 20
_symmetry_cell_setting 'orthorhombic'
loop_
_space_group_symop_operation_xyz
x,y,z
-x,-y,1/2+z
x,-y,-z
-x,y,1/2-z
1/2+x,1/2+y,z
1/2-x,1/2-y,1/2+z
1/2+x,1/2-y,-z
1/2-x,1/2+y,1/2-z
loop_
_atom_site_type_symbol
_atom_site_label
_atom_site_fract_x
_atom_site_fract_y
_atom_site_fract_z
Si Si1 0.403603 0.363621 0.819333
Si Si2 0.210489 0.653401 0.817684
Si Si3 0.430494 0.511202 0.682538
Si Si4 0.402590 0.245963 0.570621
Si Si5 0.671906 0.235734 0.249516
Si Si6 0.773856 0.969720 0.327597
Si Si7 0.535335 0.279198 0.409388
Si Si8 0.755284 0.605292 0.352773
O O1 0.429690 0.439019 0.774706
O O2 0.417345 0.314045 0.671513
O O3 0.321520 0.361270 0.854917
O O4 0.446509 0.342129 0.974603
O O5 0.130758 0.685393 0.818440
O O6 0.265409 0.716544 0.814358
O O7 0.225914 0.599759 0.675783
O O8 0.218712 0.604554 0.968966
O O9 0.439886 0.500000 0.500000
O O10 0.500000 0.551727 0.750000
O O11 0.355677 0.550163 0.717522
O O12 0.347680 0.260220 0.427683
O O13 0.479058 0.226881 0.494561
O O14 0.606192 0.237387 0.368792
O O15 0.695625 0.155753 0.250936
O O16 0.772981 0.000000 0.500000
O O17 0.742736 0.027603 0.211708
O O18 0.500000 0.309582 0.250000
#
# Coordination Sequence:
#
# PCOD8159129 Si02
#       8
#     8   8   8   8   8   8   8   8
#     4  11  20  38  60  85 120 159 204 253 305 362
#     4  11  21  38  60  90 119 163 205 255 309 372
#     4  10  23  40  53  78 115 165 210 249 299 365
#     4  10  22  35  59  91 123 152 201 253 314 364
#     4  10  21  36  61  91 121 159 203 256 308 373
#     4  10  24  39  57  83 119 161 211 261 309 368
#     4  10  21  39  57  94 125 158 197 257 318 373
#     4  10  21  37  59  87 121 160 204 257 309 367
#
# _framework density 20.587448999999999
#
# number of rings (size 3 to 8) (size 9 to 14) (size 15 to 20)
#    0.000    1.750    2.500    1.500    5.250    3.000 
#    2.250    0.000    0.000    0.000    0.000   26.250 
#    0.000    0.000    0.000    0.000    0.000    0.000 
#
# Total GULP energy -396622.525858 kJ/mol
# GULP energy per Si atom -12394.453933 kJ/mol
# Density = 2.054059 g / cm^3
# Si number density = 20.587449 Si / 1000 Ang^3
#
#
#
# Elastic Constant Matrix: (Units=GPa)
#
#
# Indices 1 2 3 4 5 6 
#
# 1 100.0680 37.3909 36.9718 0.0000 0.0000 0.0000
# 2 37.3909 57.0397 19.1829 0.0000 0.0000 0.0000
# 3 36.9718 19.1829 51.8244 0.0000 0.0000 0.0000
# 4 0.0000 0.0000 0.0000 31.2511 0.0000 0.0000
# 5 0.0000 0.0000 0.0000 0.0000 21.4976 0.0000
# 6 0.0000 0.0000 0.0000 0.0000 0.0000 56.3917
#
#
#
# Elastic Compliance Matrix: (Units=1/GPa)
#
#
# Indices 1 2 3 4 5 6 
#
# 1 0.016016 -0.007602 -0.008612 0.000000 0.000000 0.000000
# 2 -0.007602 0.023633 -0.003324 0.000000 0.000000 0.000000
# 3 -0.008612 -0.003324 0.026670 0.000000 0.000000 0.000000
# 4 0.000000 0.000000 0.000000 0.031999 0.000000 0.000000
# 5 0.000000 0.000000 0.000000 0.000000 0.046517 0.000000
# 6 0.000000 0.000000 0.000000 0.000000 0.000000 0.017733
#
#
# Mechanical properties :
#
#
# Convention : Reuss Voigt Hill
#
# Bulk Modulus (GPa) = 36.70772 44.00262 40.35517
# Shear Modulus (GPa) = 23.72764 29.52052 26.62408
#
# Velocity S-wave (km/s) = 3.39858 3.79081 3.60004
# Velocity P-wave (km/s) = 5.76795 6.37026 6.07657
#
# Compressibility (1/GPa) = 0.02724222
#
# Stress axis : x y z
#
# Youngs Moduli (GPa) = 62.43919 42.31335 37.49545
#
# Poissons Ratio (x) = 0.32169 0.32289
# Poissons Ratio (y) = 0.47469 0.12464
# Poissons Ratio (z) = 0.53770 0.14066
#
# Static dielectric constant tensor:
#      x y z
#    x 4.124180 0.000000 0.000000 
#    y 0.000000 3.453270 0.000000 
#    z 0.000000 0.000000 3.800690 
# 
# 
# High freq. dielectric constant tensor:
#      x y z
#    x 1.804400 0.000000 0.000000 
#    y 0.000000 1.772490 0.000000 
#    z 0.000000 0.000000 1.820220 
# 
# From -- ./inp_files/10357.got.cif
#   From: 2010.03.12/outbox.cif.g09.slc.cpg/sg20_6_cif.got.tgz:10357.got - 2010.04.14 01:38:04.
