data_PCOD8159182
_publ_section_title
;
Structure prediction by ZEFSAII (Michael W. Deem and Ramdas Pophale) SiO2 
 PCOD8159182
Probable space group: C 2 2 21
;
_chemical_formula_sum "Si O2"
_cell_formula_units_Z 56
_cell_length_a 8.794566
_cell_length_b 14.795653
_cell_length_c 17.028724
_cell_angle_alpha 90.000000
_cell_angle_beta 90.000000
_cell_angle_gamma 90.000000
_cell_volume 2215.800502
_symmetry_space_group_name_H-M "C 2 2 21"
_symmetry_group_IT_number 20
_symmetry_cell_setting 'orthorhombic'
loop_
_space_group_symop_operation_xyz
x,y,z
-x,-y,1/2+z
x,-y,-z
-x,y,1/2-z
1/2+x,1/2+y,z
1/2-x,1/2-y,1/2+z
1/2+x,1/2-y,-z
1/2-x,1/2+y,1/2-z
loop_
_atom_site_type_symbol
_atom_site_label
_atom_site_fract_x
_atom_site_fract_y
_atom_site_fract_z
Si Si1 0.315228 0.685003 0.520190
Si Si2 0.631177 0.617780 0.333357
Si Si3 0.777727 0.563903 0.658253
Si Si4 0.702473 0.396757 0.862555
Si Si5 0.897746 0.547863 0.915277
Si Si6 0.638977 0.353046 0.483920
Si Si7 0.322209 0.253602 0.234928
O O1 0.338881 0.609540 0.453549
O O2 0.184061 0.646013 0.577157
O O3 0.485751 0.691436 0.554419
O O4 0.273126 0.779715 0.481913
O O5 0.722751 0.529941 0.300805
O O6 0.450265 0.611820 0.308208
O O7 0.628466 0.613453 0.427263
O O8 0.723986 0.707712 0.306330
O O9 0.684564 0.568843 0.576363
O O10 0.748282 0.648435 0.715671
O O11 0.953348 0.561624 0.635977
O O12 0.789951 0.491296 0.856458
O O13 0.811453 0.313783 0.838956
O O14 0.931936 0.500000 0.000000
O O15 0.500000 0.266142 0.250000
#
# Coordination Sequence:
#
# PCOD8159182 Si02
#       7
#     8   8   8   8   8   8   8
#     4  10  21  37  70 113 142 183 236 301 369 425
#     4  11  26  47  73 104 145 192 239 305 364 434
#     4  12  25  46  75 109 144 188 244 295 367 435
#     4  10  22  48  69 101 148 187 245 298 361 434
#     4  10  21  40  75 109 146 182 236 305 365 429
#     4  11  22  40  73 107 144 184 242 302 363 431
#     4  12  28  48  70 102 147 197 244 295 361 437
#
# _framework density 25.273033999999999
#
# number of rings (size 3 to 8) (size 9 to 14) (size 15 to 20)
#    0.000    1.143    1.429    4.286    4.000    5.714 
#    2.571    1.429    0.000    0.000    0.000    0.000 
#    0.000    0.000    0.000    0.000    0.000    0.000 
#
# Total GULP energy -347048.139033 kJ/mol
# GULP energy per Si atom -12394.576394 kJ/mol
# Density = 2.521551 g / cm^3
# Si number density = 25.273034 Si / 1000 Ang^3
#
#
#
# Elastic Constant Matrix: (Units=GPa)
#
#
# Indices 1 2 3 4 5 6 
#
# 1 186.2215 45.0222 34.0978 0.0000 0.0000 0.0000
# 2 45.0222 125.9020 28.2079 0.0000 0.0000 0.0000
# 3 34.0978 28.2079 51.0987 0.0000 0.0000 0.0000
# 4 0.0000 0.0000 0.0000 30.9329 0.0000 0.0000
# 5 0.0000 0.0000 0.0000 0.0000 32.0394 0.0000
# 6 0.0000 0.0000 0.0000 0.0000 0.0000 43.8846
#
#
#
# Elastic Compliance Matrix: (Units=1/GPa)
#
#
# Indices 1 2 3 4 5 6 
#
# 1 0.006359 -0.001510 -0.003410 0.000000 0.000000 0.000000
# 2 -0.001510 0.009422 -0.004194 0.000000 0.000000 0.000000
# 3 -0.003410 -0.004194 0.024160 0.000000 0.000000 0.000000
# 4 0.000000 0.000000 0.000000 0.032328 0.000000 0.000000
# 5 0.000000 0.000000 0.000000 0.000000 0.031212 0.000000
# 6 0.000000 0.000000 0.000000 0.000000 0.000000 0.022787
#
#
# Mechanical properties :
#
#
# Convention : Reuss Voigt Hill
#
# Bulk Modulus (GPa) = 46.05193 64.20866 55.13029
# Shear Modulus (GPa) = 32.95231 38.43101 35.69166
#
# Velocity S-wave (km/s) = 3.61481 3.90376 3.76206
# Velocity P-wave (km/s) = 5.97359 6.76611 6.38216
#
# Compressibility (1/GPa) = 0.02171462
#
# Stress axis : x y z
#
# Youngs Moduli (GPa) = 157.24695 106.13153 41.39003
#
# Poissons Ratio (x) = 0.16027 0.14114
# Poissons Ratio (y) = 0.23746 0.17358
# Poissons Ratio (z) = 0.53621 0.44508
#
# Static dielectric constant tensor:
#      x y z
#    x 4.741180 0.000000 0.000000 
#    y 0.000000 4.334980 0.000000 
#    z 0.000000 0.000000 4.550640 
# 
# 
# High freq. dielectric constant tensor:
#      x y z
#    x 2.021340 0.000000 0.000000 
#    y 0.000000 2.005600 0.000000 
#    z 0.000000 0.000000 2.019580 
# 
# From -- ./inp_files/26753.got.cif
#   From: 2010.03.12/outbox.cif.g09.slc.cpg/sg20_14_cif.got.tgz:26753.got - 2010.04.14 01:38:04.
