data_PCOD8159872
_publ_section_title
;
Structure prediction by ZEFSAII (Michael W. Deem and Ramdas Pophale) SiO2 
 PCOD8159872
Probable space group: C 2 2 21
;
_chemical_formula_sum "Si O2"
_cell_formula_units_Z 60
_cell_length_a 12.538837
_cell_length_b 24.108483
_cell_length_c 9.415599
_cell_angle_alpha 90.000000
_cell_angle_beta 90.000000
_cell_angle_gamma 90.000000
_cell_volume 2846.263442
_symmetry_space_group_name_H-M "C 2 2 21"
_symmetry_group_IT_number 20
_symmetry_cell_setting 'orthorhombic'
loop_
_space_group_symop_operation_xyz
x,y,z
-x,-y,1/2+z
x,-y,-z
-x,y,1/2-z
1/2+x,1/2+y,z
1/2-x,1/2-y,1/2+z
1/2+x,1/2-y,-z
1/2-x,1/2+y,1/2-z
loop_
_atom_site_type_symbol
_atom_site_label
_atom_site_fract_x
_atom_site_fract_y
_atom_site_fract_z
Si Si1 0.003395 0.327183 0.412983
Si Si2 0.621950 0.677549 0.748735
Si Si3 0.000000 0.868144 0.750000
Si Si4 0.109395 0.210691 0.439552
Si Si5 0.176465 0.057281 0.150132
Si Si6 0.613821 0.438943 0.170479
Si Si7 0.161424 0.293158 0.866692
Si Si8 0.904661 0.612805 0.161567
O O1 0.078283 0.273887 0.421282
O O2 0.058664 0.376697 0.500338
O O3 0.000000 0.346782 0.250000
O O4 0.887451 0.313828 0.482277
O O5 0.500000 0.660517 0.750000
O O6 0.653659 0.699595 0.595830
O O7 0.677190 0.617985 0.785004
O O8 0.639356 0.726953 0.860885
O O9 0.012013 0.828643 0.610965
O O10 0.106758 0.904493 0.747019
O O11 0.213149 0.197664 0.345691
O O12 0.298732 0.076337 0.152792
O O13 0.179381 0.994464 0.211110
O O14 0.112265 0.061598 0.001234
O O15 0.500000 0.444276 0.250000
O O16 0.109217 0.327168 0.737673
O O17 0.000000 0.581790 0.250000
#
# Coordination Sequence:
#
# PCOD8159872 Si02
#       8
#     8   8   4   8   8   8   8   8
#     4  11  24  38  58  95 135 174 223 272 322 403
#     4  11  21  40  58  85 128 171 206 266 329 397
#     4  12  22  38  58  98 132 160 220 264 332 388
#     4  12  24  33  60  94 130 173 211 268 327 407
#     4  11  23  42  68  95 130 175 219 282 335 406
#     4  10  23  40  64  96 127 170 217 273 348 404
#     4  11  23  39  60  93 134 174 214 265 338 402
#     4  10  22  45  69  94 133 182 224 271 341 409
#
# _framework density 21.080269999999999
#
# number of rings (size 3 to 8) (size 9 to 14) (size 15 to 20)
#    0.000    1.067    5.333    2.000    3.733    0.000 
#    0.000    0.000    0.000    9.600    1.733    0.000 
#    0.000    0.000    0.000    0.000    0.000    0.000 
#
# Total GULP energy -371738.451442 kJ/mol
# GULP energy per Si atom -12391.281715 kJ/mol
# Density = 2.103229 g / cm^3
# Si number density = 21.080270 Si / 1000 Ang^3
#
#
#
# Elastic Constant Matrix: (Units=GPa)
#
#
# Indices 1 2 3 4 5 6 
#
# 1 110.9238 42.2845 23.8211 0.0000 0.0000 0.0000
# 2 42.2845 108.0832 29.8830 0.0000 0.0000 0.0000
# 3 23.8211 29.8830 104.1418 0.0000 0.0000 0.0000
# 4 0.0000 0.0000 0.0000 19.5151 0.0000 0.0000
# 5 0.0000 0.0000 0.0000 0.0000 16.8025 0.0000
# 6 0.0000 0.0000 0.0000 0.0000 0.0000 22.2130
#
#
#
# Elastic Compliance Matrix: (Units=1/GPa)
#
#
# Indices 1 2 3 4 5 6 
#
# 1 0.010770 -0.003837 -0.001363 0.000000 0.000000 0.000000
# 2 -0.003837 0.011416 -0.002398 0.000000 0.000000 0.000000
# 3 -0.001363 -0.002398 0.010602 0.000000 0.000000 0.000000
# 4 0.000000 0.000000 0.000000 0.051242 0.000000 0.000000
# 5 0.000000 0.000000 0.000000 0.000000 0.059515 0.000000
# 6 0.000000 0.000000 0.000000 0.000000 0.000000 0.045019
#
#
# Mechanical properties :
#
#
# Convention : Reuss Voigt Hill
#
# Bulk Modulus (GPa) = 56.83948 57.23622 57.03785
# Shear Modulus (GPa) = 23.85215 26.85014 25.35115
#
# Velocity S-wave (km/s) = 3.36741 3.57278 3.47162
# Velocity P-wave (km/s) = 6.49163 6.65058 6.57158
#
# Compressibility (1/GPa) = 0.01759341
#
# Stress axis : x y z
#
# Youngs Moduli (GPa) = 92.84651 87.59424 94.32068
#
# Poissons Ratio (x) = 0.33609 0.12852
# Poissons Ratio (y) = 0.35624 0.22620
# Poissons Ratio (z) = 0.12651 0.21007
#
# Static dielectric constant tensor:
#      x y z
#    x 3.767570 0.000000 0.000000 
#    y 0.000000 3.892800 0.000000 
#    z 0.000000 0.000000 3.851550 
# 
# 
# High freq. dielectric constant tensor:
#      x y z
#    x 1.816410 0.000000 0.000000 
#    y 0.000000 1.818660 0.000000 
#    z 0.000000 0.000000 1.821260 
# 
# From -- ./inp_files/7567.got.cif
#   From: 2010.03.12/outbox.cif.g09.slc.cpg/sg20_4_cif.got.tgz:7567.got - 2010.04.14 01:38:04.
