data_PCOD8159542
_publ_section_title
;
Structure prediction by ZEFSAII (Michael W. Deem and Ramdas Pophale) SiO2 
 PCOD8159542
Probable space group: C 2 2 21
;
_chemical_formula_sum "Si O2"
_cell_formula_units_Z 36
_cell_length_a 5.333532
_cell_length_b 17.247311
_cell_length_c 18.885374
_cell_angle_alpha 90.000000
_cell_angle_beta 90.000000
_cell_angle_gamma 90.000000
_cell_volume 1737.248277
_symmetry_space_group_name_H-M "C 2 2 21"
_symmetry_group_IT_number 20
_symmetry_cell_setting 'orthorhombic'
loop_
_space_group_symop_operation_xyz
x,y,z
-x,-y,1/2+z
x,-y,-z
-x,y,1/2-z
1/2+x,1/2+y,z
1/2-x,1/2-y,1/2+z
1/2+x,1/2-y,-z
1/2-x,1/2+y,1/2-z
loop_
_atom_site_type_symbol
_atom_site_label
_atom_site_fract_x
_atom_site_fract_y
_atom_site_fract_z
Si Si1 0.166917 0.165713 0.640582
Si Si2 0.500000 0.049643 0.250000
Si Si3 0.824877 0.797798 0.993178
Si Si4 0.000000 0.733593 0.750000
Si Si5 0.629380 0.180310 0.153451
Si Si6 0.000000 0.050923 0.750000
O O1 0.213329 0.140660 0.558684
O O2 0.417984 0.175090 0.687172
O O3 0.063964 0.252987 0.633533
O O4 0.984745 0.105370 0.680038
O O5 0.249254 0.999430 0.250332
O O6 0.495108 0.101585 0.178623
O O7 0.609249 0.733250 0.004068
O O8 0.793195 0.838979 0.916724
O O9 0.785456 0.789881 0.778817
#
# Coordination Sequence:
#
# PCOD8159542 Si02
#       6
#     8   4   8   4   8   4
#     4  11  22  39  65  94 124 165 210 264 310 369
#     4  12  26  40  63  95 130 168 212 256 310 374
#     4  10  22  36  63  98 125 152 206 268 316 360
#     4  12  16  36  68  92 124 156 210 262 306 354
#     4  11  22  39  65  94 124 165 210 264 310 369
#     4  12  26  40  63  95 130 168 212 256 310 374
#
# _framework density 20.722427
#
# number of rings (size 3 to 8) (size 9 to 14) (size 15 to 20)
#    0.000    0.889    6.667    1.333    0.000    0.000 
#    0.000    1.111    0.000    8.000    0.000    0.000 
#    0.000    0.000    0.000    0.000    0.000    0.000 
#
# Total GULP energy -223073.547955 kJ/mol
# GULP energy per Si atom -12392.974886 kJ/mol
# Density = 2.067526 g / cm^3
# Si number density = 20.722427 Si / 1000 Ang^3
#
#
#
# Elastic Constant Matrix: (Units=GPa)
#
#
# Indices 1 2 3 4 5 6 
#
# 1 89.8327 28.2596 5.4880 0.0000 0.0000 0.0000
# 2 28.2596 88.3706 33.4470 0.0000 0.0000 0.0000
# 3 5.4880 33.4470 136.7762 0.0000 0.0000 0.0000
# 4 0.0000 0.0000 0.0000 7.5445 0.0000 0.0000
# 5 0.0000 0.0000 0.0000 0.0000 36.2513 0.0000
# 6 0.0000 0.0000 0.0000 0.0000 0.0000 32.0403
#
#
#
# Elastic Compliance Matrix: (Units=1/GPa)
#
#
# Indices 1 2 3 4 5 6 
#
# 1 0.012410 -0.004166 0.000521 0.000000 0.000000 0.000000
# 2 -0.004166 0.013868 -0.003224 0.000000 0.000000 0.000000
# 3 0.000521 -0.003224 0.008079 0.000000 0.000000 0.000000
# 4 0.000000 0.000000 0.000000 0.132546 0.000000 0.000000
# 5 0.000000 0.000000 0.000000 0.000000 0.027585 0.000000
# 6 0.000000 0.000000 0.000000 0.000000 0.000000 0.031211
#
#
# Mechanical properties :
#
#
# Convention : Reuss Voigt Hill
#
# Bulk Modulus (GPa) = 48.49855 49.92983 49.21419
# Shear Modulus (GPa) = 20.29952 31.68624 25.99288
#
# Velocity S-wave (km/s) = 3.13324 3.91459 3.54550
# Velocity P-wave (km/s) = 6.04519 6.67674 6.36880
#
# Compressibility (1/GPa) = 0.02061917
#
# Stress axis : x y z
#
# Youngs Moduli (GPa) = 80.57724 72.10616 123.78133
#
# Poissons Ratio (x) = 0.30038 -0.06446
# Poissons Ratio (y) = 0.33567 0.39910
# Poissons Ratio (z) = -0.04196 0.23249
#
# Static dielectric constant tensor:
#      x y z
#    x 3.855000 0.000000 0.000000 
#    y 0.000000 3.549300 0.000000 
#    z 0.000000 0.000000 4.679670 
# 
# 
# High freq. dielectric constant tensor:
#      x y z
#    x 1.819220 0.000000 0.000000 
#    y 0.000000 1.760880 0.000000 
#    z 0.000000 0.000000 1.834940 
# 
# From -- ./inp_files/1803.got.cif
#   From: 2010.03.12/outbox.cif.g09.slc.cpg/sg20_1_cif.got.tgz:1803.got - 2010.04.14 01:38:04.
