data_PCOD8159363
_publ_section_title
;
Structure prediction by ZEFSAII (Michael W. Deem and Ramdas Pophale) SiO2 
 PCOD8159363
Probable space group: C 2 2 21
;
_chemical_formula_sum "Si O2"
_cell_formula_units_Z 48
_cell_length_a 24.003065
_cell_length_b 8.799695
_cell_length_c 10.924718
_cell_angle_alpha 90.000000
_cell_angle_beta 90.000000
_cell_angle_gamma 90.000000
_cell_volume 2307.515124
_symmetry_space_group_name_H-M "C 2 2 21"
_symmetry_group_IT_number 20
_symmetry_cell_setting 'orthorhombic'
loop_
_space_group_symop_operation_xyz
x,y,z
-x,-y,1/2+z
x,-y,-z
-x,y,1/2-z
1/2+x,1/2+y,z
1/2-x,1/2-y,1/2+z
1/2+x,1/2-y,-z
1/2-x,1/2+y,1/2-z
loop_
_atom_site_type_symbol
_atom_site_label
_atom_site_fract_x
_atom_site_fract_y
_atom_site_fract_z
Si Si1 0.778319 0.802224 0.710728
Si Si2 0.585617 0.000000 0.500000
Si Si3 0.616597 0.518722 0.227298
Si Si4 0.036813 0.000000 0.000000
Si Si5 0.156647 0.290907 0.667883
Si Si6 0.963148 0.230182 0.132477
Si Si7 0.201361 0.525492 0.140555
O O1 0.722302 0.799966 0.625744
O O2 0.797551 0.628640 0.720486
O O3 0.758903 0.877134 0.841320
O O4 0.829543 0.904210 0.661016
O O5 0.621720 0.870802 0.564138
O O6 0.548768 0.903000 0.406699
O O7 0.634685 0.377759 0.310727
O O8 0.591553 0.636771 0.325885
O O9 0.573920 0.468256 0.120820
O O10 0.997005 0.855367 0.975717
O O11 0.150921 0.378649 0.798871
O O12 0.000000 0.247755 0.250000
O O13 0.188124 0.500000 0.000000
#
# Coordination Sequence:
#
# PCOD8159363 Si02
#       7
#     8   4   8   4   8   8   8
#     4  10  21  41  58 102 132 176 215 254 323 403
#     4  12  24  43  72  90 138 173 208 286 342 396
#     4  11  22  42  69  93 131 174 222 264 344 388
#     4  10  24  43  68  92 122 169 220 294 322 390
#     4  10  23  40  59 108 126 177 214 254 331 408
#     4  10  24  44  64  96 123 168 231 280 332 394
#     4  10  22  40  61  91 146 169 220 264 311 385
#
# _framework density 20.801597999999998
#
# number of rings (size 3 to 8) (size 9 to 14) (size 15 to 20)
#    1.000    0.667    1.667    2.000    2.333    4.667 
#    1.500    0.000    0.000    0.000    0.000    0.000 
#    0.000    0.000    0.000    0.000    0.000    0.000 
#
# Total GULP energy -297316.152650 kJ/mol
# GULP energy per Si atom -12388.173027 kJ/mol
# Density = 2.075425 g / cm^3
# Si number density = 20.801598 Si / 1000 Ang^3
#
#
#
# Elastic Constant Matrix: (Units=GPa)
#
#
# Indices 1 2 3 4 5 6 
#
# 1 94.1235 50.3963 18.2538 0.0000 0.0000 0.0000
# 2 50.3963 157.8448 39.5556 0.0000 0.0000 0.0000
# 3 18.2538 39.5556 62.2401 0.0000 0.0000 0.0000
# 4 0.0000 0.0000 0.0000 30.3843 0.0000 0.0000
# 5 0.0000 0.0000 0.0000 0.0000 14.3147 0.0000
# 6 0.0000 0.0000 0.0000 0.0000 0.0000 16.5166
#
#
#
# Elastic Compliance Matrix: (Units=1/GPa)
#
#
# Indices 1 2 3 4 5 6 
#
# 1 0.012915 -0.003776 -0.001388 0.000000 0.000000 0.000000
# 2 -0.003776 0.008639 -0.004383 0.000000 0.000000 0.000000
# 3 -0.001388 -0.004383 0.019260 0.000000 0.000000 0.000000
# 4 0.000000 0.000000 0.000000 0.032912 0.000000 0.000000
# 5 0.000000 0.000000 0.000000 0.000000 0.069858 0.000000
# 6 0.000000 0.000000 0.000000 0.000000 0.000000 0.060545
#
#
# Mechanical properties :
#
#
# Convention : Reuss Voigt Hill
#
# Bulk Modulus (GPa) = 46.04076 58.95777 52.49927
# Shear Modulus (GPa) = 21.69545 25.97663 23.83604
#
# Velocity S-wave (km/s) = 3.23301 3.53764 3.38875
# Velocity P-wave (km/s) = 6.00981 6.71498 6.37216
#
# Compressibility (1/GPa) = 0.02171988
#
# Stress axis : x y z
#
# Youngs Moduli (GPa) = 77.42847 115.75100 51.92213
#
# Poissons Ratio (x) = 0.43703 0.07208
# Poissons Ratio (y) = 0.29234 0.22758
# Poissons Ratio (z) = 0.10749 0.50736
#
# Static dielectric constant tensor:
#      x y z
#    x 3.890130 0.000000 0.000000 
#    y 0.000000 3.941730 0.000000 
#    z 0.000000 0.000000 3.413110 
# 
# 
# High freq. dielectric constant tensor:
#      x y z
#    x 1.813510 0.000000 0.000000 
#    y 0.000000 1.827850 0.000000 
#    z 0.000000 0.000000 1.789760 
# 
# From -- ./inp_files/16695.got.cif
#   From: 2010.03.12/outbox.cif.g09.slc.cpg/sg20_9_cif.got.tgz:16695.got - 2010.04.14 01:38:04.
