data_PCOD8159432
_publ_section_title
;
Structure prediction by ZEFSAII (Michael W. Deem and Ramdas Pophale) SiO2 
 PCOD8159432
Probable space group: C 2 2 21
;
_chemical_formula_sum "Si O2"
_cell_formula_units_Z 64
_cell_length_a 23.654782
_cell_length_b 8.242990
_cell_length_c 15.206596
_cell_angle_alpha 90.000000
_cell_angle_beta 90.000000
_cell_angle_gamma 90.000000
_cell_volume 2965.075327
_symmetry_space_group_name_H-M "C 2 2 21"
_symmetry_group_IT_number 20
_symmetry_cell_setting 'orthorhombic'
loop_
_space_group_symop_operation_xyz
x,y,z
-x,-y,1/2+z
x,-y,-z
-x,y,1/2-z
1/2+x,1/2+y,z
1/2-x,1/2-y,1/2+z
1/2+x,1/2-y,-z
1/2-x,1/2+y,1/2-z
loop_
_atom_site_type_symbol
_atom_site_label
_atom_site_fract_x
_atom_site_fract_y
_atom_site_fract_z
Si Si1 0.320111 0.813957 0.363848
Si Si2 0.131049 0.887798 0.581893
Si Si3 0.112647 0.210443 0.654986
Si Si4 0.215351 0.376507 0.580203
Si Si5 0.658867 0.813731 0.835787
Si Si6 0.410278 0.192891 0.502164
Si Si7 0.962747 0.691861 0.009085
Si Si8 0.781713 0.315400 0.176952
O O1 0.266982 0.750009 0.420058
O O2 0.377088 0.747818 0.410081
O O3 0.313655 0.752631 0.264179
O O4 0.321086 0.007725 0.362095
O O5 0.076359 0.775340 0.565094
O O6 0.186696 0.777870 0.597869
O O7 0.144521 0.000000 0.500000
O O8 0.118674 0.014164 0.662580
O O9 0.157759 0.274915 0.581471
O O10 0.119808 0.298145 0.748711
O O11 0.053286 0.257820 0.609370
O O12 0.221383 0.500000 0.500000
O O13 0.213124 0.489757 0.667834
O O14 0.622257 0.740245 0.916020
O O15 0.714977 0.711034 0.819585
O O16 0.473952 0.259076 0.506341
O O17 0.412122 0.000000 0.500000
O O18 0.958041 0.500000 0.000000
#
# Coordination Sequence:
#
# PCOD8159432 Si02
#       8
#     8   8   8   8   8   8   8   8
#     4  11  22  41  61  93 132 167 211 265 323 393
#     4  10  23  40  65  90 127 168 213 266 323 388
#     4  11  21  38  65  93 126 164 213 268 327 385
#     4  12  23  37  61  98 132 175 216 260 329 395
#     4  11  23  40  65  93 131 168 213 267 329 389
#     4   9  22  42  65  89 122 171 216 266 319 383
#     4  10  21  42  66  90 119 161 219 265 315 379
#     4  12  22  38  62  95 131 167 207 266 321 393
#
# _framework density 21.584613000000001
#
# number of rings (size 3 to 8) (size 9 to 14) (size 15 to 20)
#    0.000    1.250    2.500    4.125    1.750    2.000 
#    0.000    6.250    5.500    0.000    0.000    0.000 
#    0.000    0.000    0.000    0.000    0.000    0.000 
#
# Total GULP energy -396723.280828 kJ/mol
# GULP energy per Si atom -12397.602526 kJ/mol
# Density = 2.153549 g / cm^3
# Si number density = 21.584613 Si / 1000 Ang^3
#
#
#
# Elastic Constant Matrix: (Units=GPa)
#
#
# Indices 1 2 3 4 5 6 
#
# 1 143.5883 30.7393 52.6781 0.0000 0.0000 0.0000
# 2 30.7393 90.3642 17.1396 0.0000 0.0000 0.0000
# 3 52.6781 17.1396 87.2534 0.0000 0.0000 0.0000
# 4 0.0000 0.0000 0.0000 29.2016 0.0000 0.0000
# 5 0.0000 0.0000 0.0000 0.0000 36.4559 0.0000
# 6 0.0000 0.0000 0.0000 0.0000 0.0000 27.5373
#
#
#
# Elastic Compliance Matrix: (Units=1/GPa)
#
#
# Indices 1 2 3 4 5 6 
#
# 1 0.009345 -0.002190 -0.005212 0.000000 0.000000 0.000000
# 2 -0.002190 0.012008 -0.001036 0.000000 0.000000 0.000000
# 3 -0.005212 -0.001036 0.014811 0.000000 0.000000 0.000000
# 4 0.000000 0.000000 0.000000 0.034245 0.000000 0.000000
# 5 0.000000 0.000000 0.000000 0.000000 0.027430 0.000000
# 6 0.000000 0.000000 0.000000 0.000000 0.000000 0.036314
#
#
# Mechanical properties :
#
#
# Convention : Reuss Voigt Hill
#
# Bulk Modulus (GPa) = 51.84811 58.03556 54.94183
# Shear Modulus (GPa) = 31.75403 33.34886 32.55145
#
# Velocity S-wave (km/s) = 3.83971 3.93495 3.88762
# Velocity P-wave (km/s) = 6.61293 6.89862 6.75728
#
# Compressibility (1/GPa) = 0.01928711
#
# Stress axis : x y z
#
# Youngs Moduli (GPa) = 107.00495 83.27760 67.51721
#
# Poissons Ratio (x) = 0.18242 0.35189
# Poissons Ratio (y) = 0.23439 0.06997
# Poissons Ratio (z) = 0.55769 0.08630
#
# Static dielectric constant tensor:
#      x y z
#    x 3.942750 0.000000 0.000000 
#    y 0.000000 4.104220 0.000000 
#    z 0.000000 0.000000 4.042660 
# 
# 
# High freq. dielectric constant tensor:
#      x y z
#    x 1.836670 0.000000 0.000000 
#    y 0.000000 1.850470 0.000000 
#    z 0.000000 0.000000 1.847590 
# 
# From -- ./inp_files/22039.got.cif
#   From: 2010.03.12/outbox.cif.g09.slc.cpg/sg20_12_cif.got.tgz:22039.got - 2010.04.14 01:38:04.
