data_PCOD8159135
_publ_section_title
;
Structure prediction by ZEFSAII (Michael W. Deem and Ramdas Pophale) SiO2 
 PCOD8159135
Probable space group: C 2 2 21
;
_chemical_formula_sum "Si O2"
_cell_formula_units_Z 64
_cell_length_a 18.867040
_cell_length_b 19.631085
_cell_length_c 8.417399
_cell_angle_alpha 90.000000
_cell_angle_beta 90.000000
_cell_angle_gamma 90.000000
_cell_volume 3117.640164
_symmetry_space_group_name_H-M "C 2 2 21"
_symmetry_group_IT_number 20
_symmetry_cell_setting 'orthorhombic'
loop_
_space_group_symop_operation_xyz
x,y,z
-x,-y,1/2+z
x,-y,-z
-x,y,1/2-z
1/2+x,1/2+y,z
1/2-x,1/2-y,1/2+z
1/2+x,1/2-y,-z
1/2-x,1/2+y,1/2-z
loop_
_atom_site_type_symbol
_atom_site_label
_atom_site_fract_x
_atom_site_fract_y
_atom_site_fract_z
Si Si1 0.403615 0.357574 0.815113
Si Si2 0.211967 0.648463 0.816222
Si Si3 0.427183 0.506863 0.812045
Si Si4 0.401918 0.238917 0.572048
Si Si5 0.673345 0.237182 0.252984
Si Si6 0.780765 0.973503 0.323959
Si Si7 0.534424 0.276590 0.412123
Si Si8 0.754003 0.608886 0.346388
O O1 0.425614 0.430239 0.742214
O O2 0.416778 0.305192 0.674840
O O3 0.322608 0.357948 0.864533
O O4 0.449546 0.340020 0.971960
O O5 0.131498 0.679637 0.814498
O O6 0.266081 0.711376 0.809753
O O7 0.230033 0.593524 0.678115
O O8 0.216112 0.604712 0.976640
O O9 0.500000 0.541951 0.750000
O O10 0.358022 0.547429 0.748223
O O11 0.422439 0.500000 0.000000
O O12 0.346954 0.254960 0.429339
O O13 0.479316 0.222609 0.494719
O O14 0.607435 0.238244 0.373636
O O15 0.700356 0.159556 0.263700
O O16 0.791779 0.000000 0.500000
O O17 0.744861 0.033390 0.223148
O O18 0.500000 0.306195 0.250000
#
# Coordination Sequence:
#
# PCOD8159135 Si02
#       8
#     8   8   8   8   8   8   8   8
#     4  11  20  37  58  82 120 158 204 254 302 361
#     4  11  21  39  61  89 118 165 205 256 311 371
#     4  11  24  40  55  78 117 167 211 250 303 368
#     4  10  22  36  59  92 121 152 203 253 319 363
#     4  10  21  36  63  90 121 158 203 255 307 375
#     4  11  25  39  58  85 121 162 214 261 310 371
#     4  10  21  37  55  90 124 158 194 252 310 370
#     4  10  21  38  60  87 122 161 203 260 308 365
#
# _framework density 20.528348000000001
#
# number of rings (size 3 to 8) (size 9 to 14) (size 15 to 20)
#    0.000    1.500    2.500    3.375    3.500    1.500 
#    2.250    0.000    0.000    0.000    0.000   26.250 
#    0.000    0.000    0.000    0.000    0.000    0.000 
#
# Total GULP energy -396641.632536 kJ/mol
# GULP energy per Si atom -12395.051017 kJ/mol
# Density = 2.048162 g / cm^3
# Si number density = 20.528348 Si / 1000 Ang^3
#
#
#
# Elastic Constant Matrix: (Units=GPa)
#
#
# Indices 1 2 3 4 5 6 
#
# 1 91.6232 33.0132 21.1918 0.0000 0.0000 0.0000
# 2 33.0132 65.8233 18.3440 0.0000 0.0000 0.0000
# 3 21.1918 18.3440 59.6512 0.0000 0.0000 0.0000
# 4 0.0000 0.0000 0.0000 30.7527 0.0000 0.0000
# 5 0.0000 0.0000 0.0000 0.0000 23.8896 0.0000
# 6 0.0000 0.0000 0.0000 0.0000 0.0000 14.9580
#
#
#
# Elastic Compliance Matrix: (Units=1/GPa)
#
#
# Indices 1 2 3 4 5 6 
#
# 1 0.013807 -0.006079 -0.003036 0.000000 0.000000 0.000000
# 2 -0.006079 0.019292 -0.003773 0.000000 0.000000 0.000000
# 3 -0.003036 -0.003773 0.019003 0.000000 0.000000 0.000000
# 4 0.000000 0.000000 0.000000 0.032517 0.000000 0.000000
# 5 0.000000 0.000000 0.000000 0.000000 0.041859 0.000000
# 6 0.000000 0.000000 0.000000 0.000000 0.000000 0.066854
#
#
# Mechanical properties :
#
#
# Convention : Reuss Voigt Hill
#
# Bulk Modulus (GPa) = 37.98409 40.24396 39.11403
# Shear Modulus (GPa) = 21.94105 23.55665 22.74885
#
# Velocity S-wave (km/s) = 3.27282 3.39118 3.33253
# Velocity P-wave (km/s) = 5.72933 5.91440 5.82260
#
# Compressibility (1/GPa) = 0.02632681
#
# Stress axis : x y z
#
# Youngs Moduli (GPa) = 72.42901 51.83374 52.62337
#
# Poissons Ratio (x) = 0.31508 0.15975
# Poissons Ratio (y) = 0.44027 0.19857
# Poissons Ratio (z) = 0.21987 0.19559
#
# Static dielectric constant tensor:
#      x y z
#    x 3.992690 0.000000 0.000000 
#    y 0.000000 3.601590 0.000000 
#    z 0.000000 0.000000 3.834100 
# 
# 
# High freq. dielectric constant tensor:
#      x y z
#    x 1.799450 0.000000 0.000000 
#    y 0.000000 1.775140 0.000000 
#    z 0.000000 0.000000 1.812880 
# 
# From -- ./inp_files/10358.got.cif
#   From: 2010.03.12/outbox.cif.g09.slc.cpg/sg20_6_cif.got.tgz:10358.got - 2010.04.14 01:38:04.
