data_PCOD8159787
_publ_section_title
;
Structure prediction by ZEFSAII (Michael W. Deem and Ramdas Pophale) SiO2 
 PCOD8159787
Probable space group: C 2 2 21
;
_chemical_formula_sum "Si O2"
_cell_formula_units_Z 48
_cell_length_a 11.925926
_cell_length_b 22.299732
_cell_length_c 7.186717
_cell_angle_alpha 90.000000
_cell_angle_beta 90.000000
_cell_angle_gamma 90.000000
_cell_volume 1911.271119
_symmetry_space_group_name_H-M "C 2 2 21"
_symmetry_group_IT_number 20
_symmetry_cell_setting 'orthorhombic'
loop_
_space_group_symop_operation_xyz
x,y,z
-x,-y,1/2+z
x,-y,-z
-x,y,1/2-z
1/2+x,1/2+y,z
1/2-x,1/2-y,1/2+z
1/2+x,1/2-y,-z
1/2-x,1/2+y,1/2-z
loop_
_atom_site_type_symbol
_atom_site_label
_atom_site_fract_x
_atom_site_fract_y
_atom_site_fract_z
Si Si1 0.277196 0.195572 0.418678
Si Si2 0.130854 0.095329 0.460553
Si Si3 0.496123 0.131795 0.471065
Si Si4 0.229345 0.671216 0.507936
Si Si5 0.314405 0.000000 0.500000
Si Si6 0.387640 0.431694 0.528607
Si Si7 0.500000 0.974212 0.250000
O O1 0.165364 0.164761 0.507830
O O2 0.386506 0.170420 0.526515
O O3 0.278681 0.267100 0.413346
O O4 0.275144 0.171146 0.212272
O O5 0.234952 0.056762 0.536794
O O6 0.113690 0.083608 0.243741
O O7 0.013108 0.077986 0.557507
O O8 0.500000 0.124829 0.250000
O O9 0.600297 0.165398 0.568969
O O10 0.502108 0.065405 0.559890
O O11 0.304636 0.614857 0.578124
O O12 0.387188 0.988415 0.694590
O O13 0.347931 0.500000 0.500000
#
# Coordination Sequence:
#
# PCOD8159787 Si02
#       7
#     8   8   8   8   4   8   4
#     4  10  22  44  66  97 140 181 237 303 364 430
#     4  10  22  44  65  97 145 180 233 313 354 430
#     4  10  24  47  66 101 143 181 243 311 362 444
#     4  10  24  40  70 102 138 187 240 298 363 442
#     4  12  26  44  68 106 140 194 244 306 372 446
#     4  10  22  42  70 100 136 193 237 293 373 438
#     4  12  28  42  74 102 138 196 238 298 386 438
#
# _framework density 25.114177999999999
#
# number of rings (size 3 to 8) (size 9 to 14) (size 15 to 20)
#    0.000    1.667    2.500    0.000    8.167    0.000 
#    0.000    0.000    0.000    0.000    0.000    0.000 
#    0.000    0.000    0.000    0.000    0.000    0.000 
#
# Total GULP energy -297341.685600 kJ/mol
# GULP energy per Si atom -12389.236900 kJ/mol
# Density = 2.505702 g / cm^3
# Si number density = 25.114178 Si / 1000 Ang^3
#
#
#
# Elastic Constant Matrix: (Units=GPa)
#
#
# Indices 1 2 3 4 5 6 
#
# 1 174.6459 81.2780 15.2311 0.0000 0.0000 0.0000
# 2 81.2780 190.3434 -2.8844 0.0000 0.0000 0.0000
# 3 15.2311 -2.8844 38.3350 0.0000 0.0000 0.0000
# 4 0.0000 0.0000 0.0000 30.8555 0.0000 0.0000
# 5 0.0000 0.0000 0.0000 0.0000 3.2108 0.0000
# 6 0.0000 0.0000 0.0000 0.0000 0.0000 30.4720
#
#
#
# Elastic Compliance Matrix: (Units=1/GPa)
#
#
# Indices 1 2 3 4 5 6 
#
# 1 0.007527 -0.003263 -0.003236 0.000000 0.000000 0.000000
# 2 -0.003263 0.006674 0.001799 0.000000 0.000000 0.000000
# 3 -0.003236 0.001799 0.027507 0.000000 0.000000 0.000000
# 4 0.000000 0.000000 0.000000 0.032409 0.000000 0.000000
# 5 0.000000 0.000000 0.000000 0.000000 0.311446 0.000000
# 6 0.000000 0.000000 0.000000 0.000000 0.000000 0.032817
#
#
# Mechanical properties :
#
#
# Convention : Reuss Voigt Hill
#
# Bulk Modulus (GPa) = 30.95295 65.61930 48.28613
# Shear Modulus (GPa) = 11.40121 33.55431 22.47776
#
# Velocity S-wave (km/s) = 2.13298 3.65920 2.99494
# Velocity P-wave (km/s) = 4.29160 6.63612 5.58819
#
# Compressibility (1/GPa) = 0.03230709
#
# Stress axis : x y z
#
# Youngs Moduli (GPa) = 132.86175 149.83018 36.35456
#
# Poissons Ratio (x) = 0.48889 0.11764
# Poissons Ratio (y) = 0.43352 -0.06539
# Poissons Ratio (z) = 0.42993 -0.26949
#
# Static dielectric constant tensor:
#      x y z
#    x 5.463750 0.000000 0.000000 
#    y 0.000000 4.634790 0.000000 
#    z 0.000000 0.000000 4.302030 
# 
# 
# High freq. dielectric constant tensor:
#      x y z
#    x 2.012650 0.000000 0.000000 
#    y 0.000000 1.999120 0.000000 
#    z 0.000000 0.000000 1.989180 
# 
# From -- ./inp_files/7419.got.cif
#   From: 2010.03.12/outbox.cif.g09.slc.cpg/sg20_4_cif.got.tgz:7419.got - 2010.04.14 01:38:04.
