data_PCOD8159209
_publ_section_title
;
Structure prediction by ZEFSAII (Michael W. Deem and Ramdas Pophale) SiO2 
 PCOD8159209
Probable space group: C 2 2 21
;
_chemical_formula_sum "Si O2"
_cell_formula_units_Z 64
_cell_length_a 11.632451
_cell_length_b 32.266260
_cell_length_c 7.668076
_cell_angle_alpha 90.000000
_cell_angle_beta 90.000000
_cell_angle_gamma 90.000000
_cell_volume 2878.102584
_symmetry_space_group_name_H-M "C 2 2 21"
_symmetry_group_IT_number 20
_symmetry_cell_setting 'orthorhombic'
loop_
_space_group_symop_operation_xyz
x,y,z
-x,-y,1/2+z
x,-y,-z
-x,y,1/2-z
1/2+x,1/2+y,z
1/2-x,1/2-y,1/2+z
1/2+x,1/2-y,-z
1/2-x,1/2+y,1/2-z
loop_
_atom_site_type_symbol
_atom_site_label
_atom_site_fract_x
_atom_site_fract_y
_atom_site_fract_z
Si Si1 0.125862 0.266777 0.760054
Si Si2 0.467930 0.917123 0.059928
Si Si3 0.344312 0.834994 0.032515
Si Si4 0.251810 0.544148 0.463572
Si Si5 0.880228 0.123193 0.454016
Si Si6 0.640033 0.623139 0.459435
Si Si7 0.293738 0.047174 0.437304
Si Si8 0.712126 0.803233 0.117352
O O1 0.129695 0.302242 0.615480
O O2 0.218079 0.232379 0.715488
O O3 0.000000 0.246397 0.750000
O O4 0.142331 0.284589 0.955185
O O5 0.500000 0.902764 0.250000
O O6 0.416243 0.875574 0.970824
O O7 0.366488 0.951292 0.073455
O O8 0.577736 0.936344 0.966211
O O9 0.373972 0.820120 0.230799
O O10 0.206483 0.843935 0.040691
O O11 0.308852 0.500000 0.500000
O O12 0.345994 0.577443 0.518653
O O13 0.217570 0.549081 0.266141
O O14 0.864684 0.127930 0.247657
O O15 0.009190 0.128160 0.525399
O O16 0.698835 0.579197 0.517206
O O17 0.709801 0.660180 0.544259
O O18 0.273642 0.000000 0.500000
#
# Coordination Sequence:
#
# PCOD8159209 Si02
#       8
#     8   8   8   8   8   8   8   8
#     4  12  29  47  75 106 147 186 238 304 365 427
#     4  11  23  39  64  95 131 180 224 286 355 425
#     4  11  25  45  71 103 141 183 240 292 357 430
#     4  10  21  38  61  92 131 176 228 289 349 418
#     4   9  21  42  67  94 132 184 232 291 354 422
#     4  10  22  41  70  98 133 188 235 290 357 431
#     4  11  23  40  64  97 140 182 235 295 354 426
#     4  12  26  50  70 107 143 185 240 294 360 437
#
# _framework density 22.236872000000002
#
# number of rings (size 3 to 8) (size 9 to 14) (size 15 to 20)
#    0.000    1.250    2.500    2.250    5.250    1.500 
#    0.000    0.000    0.000    0.000    0.000    0.000 
#    0.000    0.000    0.000    0.000    0.000    0.000 
#
# Total GULP energy -396674.556327 kJ/mol
# GULP energy per Si atom -12396.079885 kJ/mol
# Density = 2.218626 g / cm^3
# Si number density = 22.236872 Si / 1000 Ang^3
#
#
#
# Elastic Constant Matrix: (Units=GPa)
#
#
# Indices 1 2 3 4 5 6 
#
# 1 79.4854 9.4222 18.9228 0.0000 0.0000 0.0000
# 2 9.4222 86.1039 15.8114 0.0000 0.0000 0.0000
# 3 18.9228 15.8114 69.0522 0.0000 0.0000 0.0000
# 4 0.0000 0.0000 0.0000 34.9191 0.0000 0.0000
# 5 0.0000 0.0000 0.0000 0.0000 15.7320 0.0000
# 6 0.0000 0.0000 0.0000 0.0000 0.0000 9.2988
#
#
#
# Elastic Compliance Matrix: (Units=1/GPa)
#
#
# Indices 1 2 3 4 5 6 
#
# 1 0.013516 -0.000834 -0.003513 0.000000 0.000000 0.000000
# 2 -0.000834 0.012175 -0.002559 0.000000 0.000000 0.000000
# 3 -0.003513 -0.002559 0.016030 0.000000 0.000000 0.000000
# 4 0.000000 0.000000 0.000000 0.028638 0.000000 0.000000
# 5 0.000000 0.000000 0.000000 0.000000 0.063565 0.000000
# 6 0.000000 0.000000 0.000000 0.000000 0.000000 0.107541
#
#
# Mechanical properties :
#
#
# Convention : Reuss Voigt Hill
#
# Bulk Modulus (GPa) = 35.83034 35.88381 35.85707
# Shear Modulus (GPa) = 18.89785 24.68898 21.79341
#
# Velocity S-wave (km/s) = 2.91837 3.33569 3.13398
# Velocity P-wave (km/s) = 5.24441 5.56847 5.40887
#
# Compressibility (1/GPa) = 0.02790931
#
# Stress axis : x y z
#
# Youngs Moduli (GPa) = 73.98583 82.13482 62.38112
#
# Poissons Ratio (x) = 0.06850 0.21914
# Poissons Ratio (y) = 0.06170 0.15965
# Poissons Ratio (z) = 0.25991 0.21021
#
# Static dielectric constant tensor:
#      x y z
#    x 3.695260 0.000000 0.000000 
#    y 0.000000 4.092080 0.000000 
#    z 0.000000 0.000000 4.104450 
# 
# 
# High freq. dielectric constant tensor:
#      x y z
#    x 1.874140 0.000000 0.000000 
#    y 0.000000 1.884230 0.000000 
#    z 0.000000 0.000000 1.883350 
# 
# From -- ./inp_files/7695.got.cif
#   From: 2010.03.12/outbox.cif.g09.slc.cpg/sg20_4_cif.got.tgz:7695.got - 2010.04.14 01:38:04.
