data_PCOD8159695
_publ_section_title
;
Structure prediction by ZEFSAII (Michael W. Deem and Ramdas Pophale) SiO2 
 PCOD8159695
Probable space group: C 2 2 21
;
_chemical_formula_sum "Si O2"
_cell_formula_units_Z 44
_cell_length_a 10.644271
_cell_length_b 25.597988
_cell_length_c 7.992230
_cell_angle_alpha 90.000000
_cell_angle_beta 90.000000
_cell_angle_gamma 90.000000
_cell_volume 2177.658264
_symmetry_space_group_name_H-M "C 2 2 21"
_symmetry_group_IT_number 20
_symmetry_cell_setting 'orthorhombic'
loop_
_space_group_symop_operation_xyz
x,y,z
-x,-y,1/2+z
x,-y,-z
-x,y,1/2-z
1/2+x,1/2+y,z
1/2-x,1/2-y,1/2+z
1/2+x,1/2-y,-z
1/2-x,1/2+y,1/2-z
loop_
_atom_site_type_symbol
_atom_site_label
_atom_site_fract_x
_atom_site_fract_y
_atom_site_fract_z
Si Si1 0.000000 0.644237 0.750000
Si Si2 0.736735 0.596981 0.804306
Si Si3 0.336993 0.635141 0.052569
Si Si4 0.500000 0.433691 0.750000
Si Si5 0.414951 0.802329 0.582974
Si Si6 0.142778 0.000000 0.000000
Si Si7 0.068311 0.185433 0.923690
O O1 0.116401 0.606461 0.717454
O O2 0.986091 0.679390 0.584143
O O3 0.672974 0.603256 0.621986
O O4 0.724105 0.538400 0.879901
O O5 0.675803 0.640699 0.927905
O O6 0.457204 0.674077 0.054594
O O7 0.371705 0.596248 0.200948
O O8 0.211672 0.664908 0.106083
O O9 0.542334 0.466409 0.904869
O O10 0.500000 0.809000 0.750000
O O11 0.372206 0.742641 0.548370
O O12 0.000000 0.186177 0.750000
#
# Coordination Sequence:
#
# PCOD8159695 Si02
#       7
#     4   8   8   4   8   4   8
#     4  10  24  43  64  94 132 174 213 264 330 390
#     4  10  22  44  63  90 129 165 217 274 321 379
#     4  10  22  41  62  97 131 164 214 268 318 394
#     4  12  24  39  66  98 120 164 217 270 332 380
#     4  10  23  40  65  96 137 177 207 257 327 392
#     4  12  24  40  66  92 122 164 216 276 330 374
#     4   9  19  39  61  92 132 167 209 263 308 382
#
# _framework density 20.205189000000001
#
# number of rings (size 3 to 8) (size 9 to 14) (size 15 to 20)
#    0.000    1.818    1.818    1.091    6.364    0.727 
#    6.545    3.636    0.000    0.000    0.000    0.000 
#    0.000    0.000    0.000    0.000    0.000    0.000 
#
# Total GULP energy -272613.552419 kJ/mol
# GULP energy per Si atom -12391.525110 kJ/mol
# Density = 2.015920 g / cm^3
# Si number density = 20.205189 Si / 1000 Ang^3
#
#
#
# Elastic Constant Matrix: (Units=GPa)
#
#
# Indices 1 2 3 4 5 6 
#
# 1 121.3260 59.2547 49.4212 0.0000 0.0000 0.0000
# 2 59.2547 135.0826 54.0008 0.0000 0.0000 0.0000
# 3 49.4212 54.0008 98.1881 0.0000 0.0000 0.0000
# 4 0.0000 0.0000 0.0000 39.7495 0.0000 0.0000
# 5 0.0000 0.0000 0.0000 0.0000 32.2073 0.0000
# 6 0.0000 0.0000 0.0000 0.0000 0.0000 41.9796
#
#
#
# Elastic Compliance Matrix: (Units=1/GPa)
#
#
# Indices 1 2 3 4 5 6 
#
# 1 0.011536 -0.003511 -0.003875 0.000000 0.000000 0.000000
# 2 -0.003511 0.010558 -0.004039 0.000000 0.000000 0.000000
# 3 -0.003875 -0.004039 0.014357 0.000000 0.000000 0.000000
# 4 0.000000 0.000000 0.000000 0.025158 0.000000 0.000000
# 5 0.000000 0.000000 0.000000 0.000000 0.031049 0.000000
# 6 0.000000 0.000000 0.000000 0.000000 0.000000 0.023821
#
#
# Mechanical properties :
#
#
# Convention : Reuss Voigt Hill
#
# Bulk Modulus (GPa) = 73.53578 75.55000 74.54289
# Shear Modulus (GPa) = 34.75570 35.58195 35.16882
#
# Velocity S-wave (km/s) = 4.15195 4.20102 4.17656
# Velocity P-wave (km/s) = 7.71093 7.81050 7.76088
#
# Compressibility (1/GPa) = 0.01359882
#
# Stress axis : x y z
#
# Youngs Moduli (GPa) = 86.68867 94.71747 69.65450
#
# Poissons Ratio (x) = 0.33255 0.26993
# Poissons Ratio (y) = 0.30436 0.28135
# Poissons Ratio (z) = 0.33594 0.38259
#
# Static dielectric constant tensor:
#      x y z
#    x 2.947400 0.000000 0.000000 
#    y 0.000000 3.899070 0.000000 
#    z 0.000000 0.000000 3.404240 
# 
# 
# High freq. dielectric constant tensor:
#      x y z
#    x 1.785720 0.000000 0.000000 
#    y 0.000000 1.786130 0.000000 
#    z 0.000000 0.000000 1.800230 
# 
# From -- ./inp_files/7341.got.cif
#   From: 2010.03.12/outbox.cif.g09.slc.cpg/sg20_4_cif.got.tgz:7341.got - 2010.04.14 01:38:04.
