data_PCOD8159255
_publ_section_title
;
Structure prediction by ZEFSAII (Michael W. Deem and Ramdas Pophale) SiO2 
 PCOD8159255
Probable space group: C 2 2 21
;
_chemical_formula_sum "Si O2"
_cell_formula_units_Z 44
_cell_length_a 5.272421
_cell_length_b 22.928324
_cell_length_c 18.319712
_cell_angle_alpha 90.000000
_cell_angle_beta 90.000000
_cell_angle_gamma 90.000000
_cell_volume 2214.629258
_symmetry_space_group_name_H-M "C 2 2 21"
_symmetry_group_IT_number 20
_symmetry_cell_setting 'orthorhombic'
loop_
_space_group_symop_operation_xyz
x,y,z
-x,-y,1/2+z
x,-y,-z
-x,y,1/2-z
1/2+x,1/2+y,z
1/2-x,1/2-y,1/2+z
1/2+x,1/2-y,-z
1/2-x,1/2+y,1/2-z
loop_
_atom_site_type_symbol
_atom_site_label
_atom_site_fract_x
_atom_site_fract_y
_atom_site_fract_z
Si Si1 0.876592 0.955410 0.827431
Si Si2 0.391196 0.549063 0.942549
Si Si3 0.012376 0.744089 0.546372
Si Si4 0.111306 0.379082 0.468591
Si Si5 0.500000 0.118442 0.250000
Si Si6 0.186221 0.850824 0.878676
O O1 0.611565 0.923607 0.812593
O O2 0.000000 0.967179 0.750000
O O3 0.030825 0.911086 0.878835
O O4 0.847785 0.018114 0.864757
O O5 0.625977 0.593625 0.939624
O O6 0.125392 0.578108 0.963055
O O7 0.464291 0.500000 0.000000
O O8 0.746952 0.737520 0.503941
O O9 0.988044 0.793435 0.609310
O O10 0.066125 0.679528 0.579677
O O11 0.124192 0.357531 0.552878
O O12 0.690096 0.158338 0.297830
#
# Coordination Sequence:
#
# PCOD8159255 Si02
#       6
#     8   8   8   8   4   8
#     4  10  23  39  61  91 123 169 211 262 313 377
#     4  12  23  37  63  93 128 161 210 260 309 377
#     4  10  22  38  63  91 127 159 199 260 315 373
#     4  11  23  38  62  96 127 163 205 262 319 369
#     4  10  22  38  64  90 130 160 216 254 320 364
#     4  10  21  39  61  95 121 164 210 265 316 369
#
# _framework density 19.867884
#
# number of rings (size 3 to 8) (size 9 to 14) (size 15 to 20)
#    0.000    1.455    1.818    3.818   10.182    0.000 
#    0.000    0.000    2.000    0.000    0.000    0.000 
#    0.000    0.000    0.000    0.000    0.000    0.000 
#
# Total GULP energy -272652.219642 kJ/mol
# GULP energy per Si atom -12393.282711 kJ/mol
# Density = 1.982266 g / cm^3
# Si number density = 19.867884 Si / 1000 Ang^3
#
#
#
# Elastic Constant Matrix: (Units=GPa)
#
#
# Indices 1 2 3 4 5 6 
#
# 1 112.8282 41.8851 31.3763 0.0000 0.0000 0.0000
# 2 41.8851 125.1583 56.4892 0.0000 0.0000 0.0000
# 3 31.3763 56.4892 72.5694 0.0000 0.0000 0.0000
# 4 0.0000 0.0000 0.0000 22.2674 0.0000 0.0000
# 5 0.0000 0.0000 0.0000 0.0000 20.1790 0.0000
# 6 0.0000 0.0000 0.0000 0.0000 0.0000 37.4596
#
#
#
# Elastic Compliance Matrix: (Units=1/GPa)
#
#
# Indices 1 2 3 4 5 6 
#
# 1 0.010470 -0.002252 -0.002774 0.000000 0.000000 0.000000
# 2 -0.002252 0.012802 -0.008991 0.000000 0.000000 0.000000
# 3 -0.002774 -0.008991 0.021978 0.000000 0.000000 0.000000
# 4 0.000000 0.000000 0.000000 0.044909 0.000000 0.000000
# 5 0.000000 0.000000 0.000000 0.000000 0.049557 0.000000
# 6 0.000000 0.000000 0.000000 0.000000 0.000000 0.026695
#
#
# Mechanical properties :
#
#
# Convention : Reuss Voigt Hill
#
# Bulk Modulus (GPa) = 58.08656 63.33968 60.71312
# Shear Modulus (GPa) = 24.97693 28.03487 26.50590
#
# Velocity S-wave (km/s) = 3.54948 3.76049 3.65651
# Velocity P-wave (km/s) = 6.78957 7.12774 6.96071
#
# Compressibility (1/GPa) = 0.01721569
#
# Stress axis : x y z
#
# Youngs Moduli (GPa) = 95.50670 78.11446 45.49923
#
# Poissons Ratio (x) = 0.17591 0.12622
# Poissons Ratio (y) = 0.21508 0.40910
# Poissons Ratio (z) = 0.26494 0.70236
#
# Static dielectric constant tensor:
#      x y z
#    x 3.844570 0.000000 0.000000 
#    y 0.000000 3.977950 0.000000 
#    z 0.000000 0.000000 3.543220 
# 
# 
# High freq. dielectric constant tensor:
#      x y z
#    x 1.790290 0.000000 0.000000 
#    y 0.000000 1.778190 0.000000 
#    z 0.000000 0.000000 1.747300 
# 
# From -- ./inp_files/22816.got.cif
#   From: 2010.03.12/outbox.cif.g09.slc.cpg/sg20_12_cif.got.tgz:22816.got - 2010.04.14 01:38:04.
