data_PCOD8159226
_publ_section_title
;
Structure prediction by ZEFSAII (Michael W. Deem and Ramdas Pophale) SiO2 
 PCOD8159226
Probable space group: C 2 2 21
;
_chemical_formula_sum "Si O2"
_cell_formula_units_Z 64
_cell_length_a 8.681427
_cell_length_b 22.965661
_cell_length_c 15.667812
_cell_angle_alpha 90.000000
_cell_angle_beta 90.000000
_cell_angle_gamma 90.000000
_cell_volume 3123.765466
_symmetry_space_group_name_H-M "C 2 2 21"
_symmetry_group_IT_number 20
_symmetry_cell_setting 'orthorhombic'
loop_
_space_group_symop_operation_xyz
x,y,z
-x,-y,1/2+z
x,-y,-z
-x,y,1/2-z
1/2+x,1/2+y,z
1/2-x,1/2-y,1/2+z
1/2+x,1/2-y,-z
1/2-x,1/2+y,1/2-z
loop_
_atom_site_type_symbol
_atom_site_label
_atom_site_fract_x
_atom_site_fract_y
_atom_site_fract_z
Si Si1 0.603462 0.873235 0.828365
Si Si2 0.321183 0.402284 0.247571
Si Si3 0.797172 0.393125 0.906251
Si Si4 0.205234 0.214045 0.434709
Si Si5 0.177670 0.037473 0.236989
Si Si6 0.409444 0.295093 0.664649
Si Si7 0.684302 0.152729 0.583904
Si Si8 0.833712 0.673803 0.611035
O O1 0.500000 0.851688 0.750000
O O2 0.483022 0.895768 0.899792
O O3 0.695342 0.817970 0.862736
O O4 0.718462 0.925233 0.802205
O O5 0.500000 0.387652 0.250000
O O6 0.288442 0.470589 0.244906
O O7 0.241776 0.373579 0.328551
O O8 0.250945 0.377456 0.160799
O O9 0.722773 0.450182 0.862269
O O10 0.730663 0.339046 0.850435
O O11 0.753713 0.387209 0.005654
O O12 0.248006 0.282116 0.430087
O O13 0.234414 0.189123 0.528072
O O14 0.025041 0.203684 0.416032
O O15 0.000000 0.054003 0.250000
O O16 0.500000 0.312800 0.750000
O O17 0.342989 0.229794 0.673486
O O18 0.500440 0.152059 0.582768
#
# Coordination Sequence:
#
# PCOD8159226 Si02
#       8
#     8   8   8   8   8   8   8   8
#     4  10  21  38  66  95 125 163 213 262 312 375
#     4  11  27  45  67  89 123 174 219 266 320 383
#     4  11  21  37  66  98 125 163 214 265 314 376
#     4  11  22  39  63  98 134 171 204 257 319 387
#     4  10  23  46  65  91 125 168 219 265 319 378
#     4  11  22  38  62  96 134 177 209 257 323 381
#     4  11  24  41  64  97 134 166 210 264 323 382
#     4  11  23  42  64  94 135 169 211 260 323 386
#
# _framework density 20.488094
#
# number of rings (size 3 to 8) (size 9 to 14) (size 15 to 20)
#    0.000    1.250    2.500    4.500    1.750    5.000 
#    0.000    0.625    0.000    0.000    0.000    0.000 
#    0.000    0.000    0.000    0.000    0.000    0.000 
#
# Total GULP energy -396867.633687 kJ/mol
# GULP energy per Si atom -12402.113553 kJ/mol
# Density = 2.044146 g / cm^3
# Si number density = 20.488094 Si / 1000 Ang^3
#
#
#
# Elastic Constant Matrix: (Units=GPa)
#
#
# Indices 1 2 3 4 5 6 
#
# 1 103.7176 65.4213 40.8377 0.0000 0.0000 0.0000
# 2 65.4213 100.9913 55.9360 0.0000 0.0000 0.0000
# 3 40.8377 55.9360 118.7269 0.0000 0.0000 0.0000
# 4 0.0000 0.0000 0.0000 35.5724 0.0000 0.0000
# 5 0.0000 0.0000 0.0000 0.0000 31.9679 0.0000
# 6 0.0000 0.0000 0.0000 0.0000 0.0000 30.5515
#
#
#
# Elastic Compliance Matrix: (Units=1/GPa)
#
#
# Indices 1 2 3 4 5 6 
#
# 1 0.016367 -0.010127 -0.000859 0.000000 0.000000 0.000000
# 2 -0.010127 0.019664 -0.005781 0.000000 0.000000 0.000000
# 3 -0.000859 -0.005781 0.011442 0.000000 0.000000 0.000000
# 4 0.000000 0.000000 0.000000 0.028112 0.000000 0.000000
# 5 0.000000 0.000000 0.000000 0.000000 0.031281 0.000000
# 6 0.000000 0.000000 0.000000 0.000000 0.000000 0.032732
#
#
# Mechanical properties :
#
#
# Convention : Reuss Voigt Hill
#
# Bulk Modulus (GPa) = 71.73767 71.98063 71.85915
# Shear Modulus (GPa) = 28.12500 30.36775 29.24637
#
# Velocity S-wave (km/s) = 3.70908 3.85413 3.78230
# Velocity P-wave (km/s) = 7.30981 7.41721 7.36371
#
# Compressibility (1/GPa) = 0.01393968
#
# Stress axis : x y z
#
# Youngs Moduli (GPa) = 61.09682 50.85429 87.40034
#
# Poissons Ratio (x) = 0.51501 0.07504
# Poissons Ratio (y) = 0.61874 0.50526
# Poissons Ratio (z) = 0.05246 0.29399
#
# Static dielectric constant tensor:
#      x y z
#    x 3.849980 0.000000 0.000000 
#    y 0.000000 3.654390 0.000000 
#    z 0.000000 0.000000 3.722240 
# 
# 
# High freq. dielectric constant tensor:
#      x y z
#    x 1.814290 0.000000 0.000000 
#    y 0.000000 1.789880 0.000000 
#    z 0.000000 0.000000 1.805860 
# 
# From -- ./inp_files/19376.got.cif
#   From: 2010.03.12/outbox.cif.g09.slc.cpg/sg20_10_cif.got.tgz:19376.got - 2010.04.14 01:38:04.
