data_PCOD8159767
_publ_section_title
;
Structure prediction by ZEFSAII (Michael W. Deem and Ramdas Pophale) SiO2 
 PCOD8159767
Probable space group: C 2 2 21
;
_chemical_formula_sum "Si O2"
_cell_formula_units_Z 60
_cell_length_a 10.480259
_cell_length_b 8.276817
_cell_length_c 29.805782
_cell_angle_alpha 90.000000
_cell_angle_beta 90.000000
_cell_angle_gamma 90.000000
_cell_volume 2585.448488
_symmetry_space_group_name_H-M "C 2 2 21"
_symmetry_group_IT_number 20
_symmetry_cell_setting 'orthorhombic'
loop_
_space_group_symop_operation_xyz
x,y,z
-x,-y,1/2+z
x,-y,-z
-x,y,1/2-z
1/2+x,1/2+y,z
1/2-x,1/2-y,1/2+z
1/2+x,1/2-y,-z
1/2-x,1/2+y,1/2-z
loop_
_atom_site_type_symbol
_atom_site_label
_atom_site_fract_x
_atom_site_fract_y
_atom_site_fract_z
Si Si1 0.528315 0.225183 0.168834
Si Si2 0.181639 0.679809 0.485628
Si Si3 0.000000 0.506507 0.250000
Si Si4 0.294660 0.203722 0.705358
Si Si5 0.862809 0.560640 0.614088
Si Si6 0.131474 0.032532 0.765528
Si Si7 0.030252 0.193079 0.047652
Si Si8 0.406835 0.392298 0.089733
O O1 0.462041 0.114127 0.206556
O O2 0.631450 0.336578 0.194191
O O3 0.431935 0.338487 0.141028
O O4 0.590920 0.112289 0.130899
O O5 0.146364 0.500000 0.500000
O O6 0.337588 0.698095 0.482304
O O7 0.111887 0.727760 0.439163
O O8 0.103844 0.792588 0.520858
O O9 0.881661 0.391522 0.259083
O O10 0.340012 0.185020 0.654847
O O11 0.161290 0.119450 0.717714
O O12 0.278565 0.390134 0.717875
O O13 0.961763 0.656992 0.582347
O O14 0.730783 0.520208 0.588770
O O15 0.000000 0.951191 0.750000
O O16 0.016118 0.016763 0.071857
#
# Coordination Sequence:
#
# PCOD8159767 Si02
#       8
#     8   8   4   8   8   8   8   8
#     4  11  23  43  64  97 141 182 236 289 343 405
#     4  11  24  44  74 102 137 175 226 281 357 431
#     4  10  22  42  66  96 132 184 240 282 338 402
#     4  11  23  42  65  95 137 183 239 289 343 401
#     4  10  24  42  64  99 139 182 228 290 348 418
#     4  12  24  40  64  94 132 188 241 296 345 407
#     4  11  25  47  72 106 137 181 229 286 358 437
#     4  11  24  43  69  98 143 176 226 284 353 422
#
# _framework density 23.206806
#
# number of rings (size 3 to 8) (size 9 to 14) (size 15 to 20)
#    0.000    1.067    1.333    5.200    1.867    4.267 
#    4.800    0.000    0.000    0.000    0.000    0.000 
#    0.000    0.000    0.000    0.000    0.000    0.000 
#
# Total GULP energy -371642.414769 kJ/mol
# GULP energy per Si atom -12388.080492 kJ/mol
# Density = 2.315399 g / cm^3
# Si number density = 23.206806 Si / 1000 Ang^3
#
#
#
# Elastic Constant Matrix: (Units=GPa)
#
#
# Indices 1 2 3 4 5 6 
#
# 1 99.2484 37.1051 40.8657 0.0000 0.0000 0.0000
# 2 37.1051 109.2036 32.1448 0.0000 0.0000 0.0000
# 3 40.8657 32.1448 109.2738 0.0000 0.0000 0.0000
# 4 0.0000 0.0000 0.0000 22.8411 0.0000 0.0000
# 5 0.0000 0.0000 0.0000 0.0000 36.3306 0.0000
# 6 0.0000 0.0000 0.0000 0.0000 0.0000 26.3166
#
#
#
# Elastic Compliance Matrix: (Units=1/GPa)
#
#
# Indices 1 2 3 4 5 6 
#
# 1 0.012877 -0.003238 -0.003863 0.000000 0.000000 0.000000
# 2 -0.003238 0.010840 -0.001978 0.000000 0.000000 0.000000
# 3 -0.003863 -0.001978 0.011178 0.000000 0.000000 0.000000
# 4 0.000000 0.000000 0.000000 0.043781 0.000000 0.000000
# 5 0.000000 0.000000 0.000000 0.000000 0.027525 0.000000
# 6 0.000000 0.000000 0.000000 0.000000 0.000000 0.037999
#
#
# Mechanical properties :
#
#
# Convention : Reuss Voigt Hill
#
# Bulk Modulus (GPa) = 59.74972 59.77301 59.76136
# Shear Modulus (GPa) = 29.77327 30.93832 30.35580
#
# Velocity S-wave (km/s) = 3.58572 3.65520 3.62063
# Velocity P-wave (km/s) = 6.55330 6.60504 6.57922
#
# Compressibility (1/GPa) = 0.01673648
#
# Stress axis : x y z
#
# Youngs Moduli (GPa) = 77.65782 92.25417 89.46308
#
# Poissons Ratio (x) = 0.29874 0.34561
# Poissons Ratio (y) = 0.25147 0.17693
# Poissons Ratio (z) = 0.30000 0.18245
#
# Static dielectric constant tensor:
#      x y z
#    x 4.965240 0.000000 0.000000 
#    y 0.000000 4.103450 0.000000 
#    z 0.000000 0.000000 4.248670 
# 
# 
# High freq. dielectric constant tensor:
#      x y z
#    x 1.920560 0.000000 0.000000 
#    y 0.000000 1.922220 0.000000 
#    z 0.000000 0.000000 1.921900 
# 
# From -- ./inp_files/30319.got.cif
#   From: 2010.03.12/outbox.cif.g09.slc.cpg/sg20_16_cif.got.tgz:30319.got - 2010.04.14 01:38:04.
