data_PCOD8159714
_publ_section_title
;
Structure prediction by ZEFSAII (Michael W. Deem and Ramdas Pophale) SiO2 
 PCOD8159714
Probable space group: C 2 2 21
;
_chemical_formula_sum "Si O2"
_cell_formula_units_Z 48
_cell_length_a 29.809612
_cell_length_b 9.115856
_cell_length_c 8.117462
_cell_angle_alpha 90.000000
_cell_angle_beta 90.000000
_cell_angle_gamma 90.000000
_cell_volume 2205.840182
_symmetry_space_group_name_H-M "C 2 2 21"
_symmetry_group_IT_number 20
_symmetry_cell_setting 'orthorhombic'
loop_
_space_group_symop_operation_xyz
x,y,z
-x,-y,1/2+z
x,-y,-z
-x,y,1/2-z
1/2+x,1/2+y,z
1/2-x,1/2-y,1/2+z
1/2+x,1/2-y,-z
1/2-x,1/2+y,1/2-z
loop_
_atom_site_type_symbol
_atom_site_label
_atom_site_fract_x
_atom_site_fract_y
_atom_site_fract_z
Si Si1 0.547278 0.657445 0.807344
Si Si2 0.364655 0.812009 0.689359
Si Si3 0.210573 0.130482 0.617709
Si Si4 0.364865 0.159789 0.689758
Si Si5 0.780991 0.367924 0.114200
Si Si6 0.047840 0.171430 0.195435
O O1 0.500000 0.725310 0.750000
O O2 0.587302 0.759033 0.742428
O O3 0.553237 0.493349 0.732412
O O4 0.548791 0.658924 0.001704
O O5 0.328876 0.721722 0.795489
O O6 0.357820 0.780281 0.495376
O O7 0.362923 0.985303 0.711067
O O8 0.239477 0.241201 0.502600
O O9 0.244657 0.070348 0.756226
O O10 0.192565 0.000000 0.500000
O O11 0.323259 0.213529 0.799234
O O12 0.411714 0.224918 0.759519
O O13 0.797822 0.500000 0.000000
O O14 0.000000 0.239648 0.250000
#
# Coordination Sequence:
#
# PCOD8159714 Si02
#       6
#     8   8   8   8   8   8
#     4   9  19  37  59  90 129 166 210 263 317 379
#     4  10  22  42  63  94 128 174 217 263 329 383
#     4  12  27  43  67  99 128 171 217 270 327 396
#     4  10  22  41  67  88 132 172 215 269 320 389
#     4  12  25  46  66  95 131 169 215 267 331 388
#     4   9  19  37  60  91 124 169 213 260 320 379
#
# _framework density 21.760414000000001
#
# number of rings (size 3 to 8) (size 9 to 14) (size 15 to 20)
#    0.000    1.667    1.667    2.000    4.667    2.000 
#    6.000    0.000    0.000    0.000    0.000    0.000 
#    0.000    0.000    0.000    0.000    0.000    0.000 
#
# Total GULP energy -297481.055727 kJ/mol
# GULP energy per Si atom -12395.043989 kJ/mol
# Density = 2.171089 g / cm^3
# Si number density = 21.760414 Si / 1000 Ang^3
#
#
#
# Elastic Constant Matrix: (Units=GPa)
#
#
# Indices 1 2 3 4 5 6 
#
# 1 150.4647 44.8813 55.2404 0.0000 0.0000 0.0000
# 2 44.8813 79.7939 47.1016 0.0000 0.0000 0.0000
# 3 55.2404 47.1016 77.8438 0.0000 0.0000 0.0000
# 4 0.0000 0.0000 0.0000 35.6948 0.0000 0.0000
# 5 0.0000 0.0000 0.0000 0.0000 31.9199 0.0000
# 6 0.0000 0.0000 0.0000 0.0000 0.0000 35.7402
#
#
#
# Elastic Compliance Matrix: (Units=1/GPa)
#
#
# Indices 1 2 3 4 5 6 
#
# 1 0.009199 -0.002055 -0.005285 0.000000 0.000000 0.000000
# 2 -0.002055 0.019954 -0.010616 0.000000 0.000000 0.000000
# 3 -0.005285 -0.010616 0.023020 0.000000 0.000000 0.000000
# 4 0.000000 0.000000 0.000000 0.028015 0.000000 0.000000
# 5 0.000000 0.000000 0.000000 0.000000 0.031328 0.000000
# 6 0.000000 0.000000 0.000000 0.000000 0.000000 0.027980
#
#
# Mechanical properties :
#
#
# Convention : Reuss Voigt Hill
#
# Bulk Modulus (GPa) = 61.49009 66.94991 64.22000
# Shear Modulus (GPa) = 27.65047 31.39627 29.52337
#
# Velocity S-wave (km/s) = 3.56852 3.80256 3.68740
# Velocity P-wave (km/s) = 6.73040 7.07905 6.90692
#
# Compressibility (1/GPa) = 0.01626278
#
# Stress axis : x y z
#
# Youngs Moduli (GPa) = 108.70562 50.11412 43.44051
#
# Poissons Ratio (x) = 0.10297 0.22957
# Poissons Ratio (y) = 0.22335 0.46116
# Poissons Ratio (z) = 0.57449 0.53201
#
# Static dielectric constant tensor:
#      x y z
#    x 4.137040 0.000000 0.000000 
#    y 0.000000 3.971210 0.000000 
#    z 0.000000 0.000000 4.052890 
# 
# 
# High freq. dielectric constant tensor:
#      x y z
#    x 1.856130 0.000000 0.000000 
#    y 0.000000 1.847370 0.000000 
#    z 0.000000 0.000000 1.858350 
# 
# From -- ./inp_files/11459.got.cif
#   From: 2010.03.12/outbox.cif.g09.slc.cpg/sg20_6_cif.got.tgz:11459.got - 2010.04.14 01:38:04.
