data_PCOD8159221
_publ_section_title
;
Structure prediction by ZEFSAII (Michael W. Deem and Ramdas Pophale) SiO2 
 PCOD8159221
Probable space group: C 2 2 21
;
_chemical_formula_sum "Si O2"
_cell_formula_units_Z 48
_cell_length_a 7.621192
_cell_length_b 22.156218
_cell_length_c 12.528152
_cell_angle_alpha 90.000000
_cell_angle_beta 90.000000
_cell_angle_gamma 90.000000
_cell_volume 2115.463549
_symmetry_space_group_name_H-M "C 2 2 21"
_symmetry_group_IT_number 20
_symmetry_cell_setting 'orthorhombic'
loop_
_space_group_symop_operation_xyz
x,y,z
-x,-y,1/2+z
x,-y,-z
-x,y,1/2-z
1/2+x,1/2+y,z
1/2-x,1/2-y,1/2+z
1/2+x,1/2-y,-z
1/2-x,1/2+y,1/2-z
loop_
_atom_site_type_symbol
_atom_site_label
_atom_site_fract_x
_atom_site_fract_y
_atom_site_fract_z
Si Si1 0.155678 0.430081 0.522667
Si Si2 0.454577 0.626884 0.367086
Si Si3 0.331450 0.337698 0.173226
Si Si4 0.538780 0.263328 0.014549
Si Si5 0.257242 0.070398 0.495399
Si Si6 0.658338 0.179550 0.619998
O O1 0.189049 0.500000 0.500000
O O2 0.278758 0.414019 0.623409
O O3 0.214674 0.387114 0.422342
O O4 0.953161 0.416726 0.547223
O O5 0.500000 0.646449 0.250000
O O6 0.415563 0.687505 0.427832
O O7 0.624446 0.593164 0.408238
O O8 0.500000 0.349767 0.250000
O O9 0.371904 0.283071 0.089547
O O10 0.162314 0.322622 0.249919
O O11 0.280213 0.398704 0.110288
O O12 0.708972 0.264434 0.091258
O O13 0.515957 0.200320 0.947264
O O14 0.224597 0.000000 0.500000
#
# Coordination Sequence:
#
# PCOD8159221 Si02
#       6
#     8   8   8   8   8   8
#     4  10  23  42  61  91 128 163 212 265 318 385
#     4  10  22  40  61  89 124 166 206 259 324 379
#     4   9  20  40  62  93 129 167 216 261 330 392
#     4   9  21  38  59  90 126 157 207 265 312 378
#     4  10  22  40  64  91 126 168 213 269 318 382
#     4  10  21  38  64  89 123 166 205 264 316 384
#
# _framework density 22.690061
#
# number of rings (size 3 to 8) (size 9 to 14) (size 15 to 20)
#    0.000    2.333    0.000    1.500    4.667    6.000 
#    0.000    3.333    0.000    0.000    0.000    0.000 
#    0.000    0.000    0.000    0.000    0.000    0.000 
#
# Total GULP energy -297366.454731 kJ/mol
# GULP energy per Si atom -12390.268947 kJ/mol
# Density = 2.263842 g / cm^3
# Si number density = 22.690061 Si / 1000 Ang^3
#
#
#
# Elastic Constant Matrix: (Units=GPa)
#
#
# Indices 1 2 3 4 5 6 
#
# 1 53.0019 4.3570 11.4098 0.0000 0.0000 0.0000
# 2 4.3570 100.6323 27.0288 0.0000 0.0000 0.0000
# 3 11.4098 27.0288 96.2644 0.0000 0.0000 0.0000
# 4 0.0000 0.0000 0.0000 16.5039 0.0000 0.0000
# 5 0.0000 0.0000 0.0000 0.0000 280.0777 0.0000
# 6 0.0000 0.0000 0.0000 0.0000 0.0000 36.8120
#
#
#
# Elastic Compliance Matrix: (Units=1/GPa)
#
#
# Indices 1 2 3 4 5 6 
#
# 1 0.019367 -0.000240 -0.002228 0.000000 0.000000 0.000000
# 2 -0.000240 0.010751 -0.002990 0.000000 0.000000 0.000000
# 3 -0.002228 -0.002990 0.011492 0.000000 0.000000 0.000000
# 4 0.000000 0.000000 0.000000 0.060592 0.000000 0.000000
# 5 0.000000 0.000000 0.000000 0.000000 0.003570 0.000000
# 6 0.000000 0.000000 0.000000 0.000000 0.000000 0.027165
#
#
# Mechanical properties :
#
#
# Convention : Reuss Voigt Hill
#
# Bulk Modulus (GPa) = 32.58113 37.27662 34.92887
# Shear Modulus (GPa) = 32.44995 80.48558 56.46777
#
# Velocity S-wave (km/s) = 3.78582 5.96228 4.99406
# Velocity P-wave (km/s) = 5.78794 7.99141 6.97721
#
# Compressibility (1/GPa) = 0.03069261
#
# Stress axis : x y z
#
# Youngs Moduli (GPa) = 51.63523 93.01748 87.01951
#
# Poissons Ratio (x) = 0.02233 0.19388
# Poissons Ratio (y) = 0.01240 0.26020
# Poissons Ratio (z) = 0.11504 0.27813
#
# Static dielectric constant tensor:
#      x y z
#    x 4.534860 0.000000 0.000000 
#    y 0.000000 2.532120 0.000000 
#    z 0.000000 0.000000 4.228110 
# 
# 
# High freq. dielectric constant tensor:
#      x y z
#    x 1.920420 0.000000 0.000000 
#    y 0.000000 1.885520 0.000000 
#    z 0.000000 0.000000 1.884000 
# 
# From -- ./inp_files/13069.got.cif
#   From: 2010.03.12/outbox.cif.g09.slc.cpg/sg20_7_cif.got.tgz:13069.got - 2010.04.14 01:38:04.
