data_PCOD8159880
_publ_section_title
;
Structure prediction by ZEFSAII (Michael W. Deem and Ramdas Pophale) SiO2 
 PCOD8159880
Probable space group: C 2 2 21
;
_chemical_formula_sum "Si O2"
_cell_formula_units_Z 64
_cell_length_a 29.492820
_cell_length_b 9.059536
_cell_length_c 10.910706
_cell_angle_alpha 90.000000
_cell_angle_beta 90.000000
_cell_angle_gamma 90.000000
_cell_volume 2915.245333
_symmetry_space_group_name_H-M "C 2 2 21"
_symmetry_group_IT_number 20
_symmetry_cell_setting 'orthorhombic'
loop_
_space_group_symop_operation_xyz
x,y,z
-x,-y,1/2+z
x,-y,-z
-x,y,1/2-z
1/2+x,1/2+y,z
1/2-x,1/2-y,1/2+z
1/2+x,1/2-y,-z
1/2-x,1/2+y,1/2-z
loop_
_atom_site_type_symbol
_atom_site_label
_atom_site_fract_x
_atom_site_fract_y
_atom_site_fract_z
Si Si1 0.688172 0.505884 0.139942
Si Si2 0.948532 0.193784 0.288169
Si Si3 0.585089 0.834722 0.977405
Si Si4 0.402530 0.618222 0.723930
Si Si5 0.141910 0.714670 0.423208
Si Si6 0.223672 0.101841 0.610451
Si Si7 0.174629 0.669803 0.891077
Si Si8 0.376589 0.898333 0.169097
O O1 0.643151 0.407089 0.144644
O O2 0.723025 0.464599 0.250566
O O3 0.671635 0.669216 0.168488
O O4 0.709251 0.500000 0.000000
O O5 0.940272 0.223239 0.431146
O O6 0.922804 0.325179 0.216907
O O7 0.000000 0.208387 0.250000
O O8 0.933423 0.025677 0.263422
O O9 0.639936 0.844195 0.995625
O O10 0.574677 0.760962 0.844321
O O11 0.565090 0.000000 0.000000
O O12 0.389616 0.659080 0.863524
O O13 0.194223 0.746884 0.384646
O O14 0.141996 0.718863 0.570165
O O15 0.118883 0.560838 0.385454
O O16 0.274717 0.134085 0.567006
O O17 0.203258 0.000000 0.500000
O O18 0.158008 0.568341 0.779834
#
# Coordination Sequence:
#
# PCOD8159880 Si02
#       8
#     8   8   8   8   8   8   8   8
#     4  11  21  39  63  90 129 179 220 285 334 400
#     4  11  24  44  71 102 134 167 224 284 343 421
#     4  11  22  43  72  96 134 179 223 278 343 407
#     4  11  20  43  68  98 129 174 226 270 347 412
#     4  10  24  42  68  93 136 182 224 271 345 417
#     4  11  26  39  61  99 137 180 242 287 329 406
#     4  11  22  39  65  92 133 178 227 278 332 389
#     4  10  22  46  65  94 135 183 217 277 354 410
#
# _framework density 21.953555999999999
#
# number of rings (size 3 to 8) (size 9 to 14) (size 15 to 20)
#    0.000    1.250    3.750    3.000    3.500    2.000 
#    6.750    1.250    0.000    0.000    0.000    0.000 
#    0.000    0.000    0.000    0.000    0.000    0.000 
#
# Total GULP energy -396439.334179 kJ/mol
# GULP energy per Si atom -12388.729193 kJ/mol
# Density = 2.190359 g / cm^3
# Si number density = 21.953556 Si / 1000 Ang^3
#
#
#
# Elastic Constant Matrix: (Units=GPa)
#
#
# Indices 1 2 3 4 5 6 
#
# 1 98.0465 33.6006 32.8417 0.0000 0.0000 0.0000
# 2 33.6006 103.8933 18.7440 0.0000 0.0000 0.0000
# 3 32.8417 18.7440 108.7667 0.0000 0.0000 0.0000
# 4 0.0000 0.0000 0.0000 39.8053 0.0000 0.0000
# 5 0.0000 0.0000 0.0000 0.0000 7.2609 0.0000
# 6 0.0000 0.0000 0.0000 0.0000 0.0000 5.4726
#
#
#
# Elastic Compliance Matrix: (Units=1/GPa)
#
#
# Indices 1 2 3 4 5 6 
#
# 1 0.012442 -0.003453 -0.003162 0.000000 0.000000 0.000000
# 2 -0.003453 0.010893 -0.000834 0.000000 0.000000 0.000000
# 3 -0.003162 -0.000834 0.010292 0.000000 0.000000 0.000000
# 4 0.000000 0.000000 0.000000 0.025122 0.000000 0.000000
# 5 0.000000 0.000000 0.000000 0.000000 0.137724 0.000000
# 6 0.000000 0.000000 0.000000 0.000000 0.000000 0.182728
#
#
# Mechanical properties :
#
#
# Convention : Reuss Voigt Hill
#
# Bulk Modulus (GPa) = 53.39610 53.45325 53.42467
# Shear Modulus (GPa) = 12.48930 25.54243 19.01587
#
# Velocity S-wave (km/s) = 2.38774 3.41468 2.94630
# Velocity P-wave (km/s) = 5.65481 6.32043 5.99686
#
# Compressibility (1/GPa) = 0.01872796
#
# Stress axis : x y z
#
# Youngs Moduli (GPa) = 80.37454 91.80464 97.15882
#
# Poissons Ratio (x) = 0.31704 0.30718
# Poissons Ratio (y) = 0.27757 0.08107
# Poissons Ratio (z) = 0.25411 0.07660
#
# Static dielectric constant tensor:
#      x y z
#    x 3.555230 0.000000 0.000000 
#    y 0.000000 4.115870 0.000000 
#    z 0.000000 0.000000 4.216020 
# 
# 
# High freq. dielectric constant tensor:
#      x y z
#    x 1.816550 0.000000 0.000000 
#    y 0.000000 1.878660 0.000000 
#    z 0.000000 0.000000 1.874650 
# 
# From -- ./inp_files/17243.got.cif
#   From: 2010.03.12/outbox.cif.g09.slc.cpg/sg20_9_cif.got.tgz:17243.got - 2010.04.14 01:38:04.
