data_PCOD8159337
_publ_section_title
;
Structure prediction by ZEFSAII (Michael W. Deem and Ramdas Pophale) SiO2 
 PCOD8159337
Probable space group: C 2 2 21
;
_chemical_formula_sum "Si O2"
_cell_formula_units_Z 64
_cell_length_a 9.670297
_cell_length_b 22.959668
_cell_length_c 14.403736
_cell_angle_alpha 90.000000
_cell_angle_beta 90.000000
_cell_angle_gamma 90.000000
_cell_volume 3198.015536
_symmetry_space_group_name_H-M "C 2 2 21"
_symmetry_group_IT_number 20
_symmetry_cell_setting 'orthorhombic'
loop_
_space_group_symop_operation_xyz
x,y,z
-x,-y,1/2+z
x,-y,-z
-x,y,1/2-z
1/2+x,1/2+y,z
1/2-x,1/2-y,1/2+z
1/2+x,1/2-y,-z
1/2-x,1/2+y,1/2-z
loop_
_atom_site_type_symbol
_atom_site_label
_atom_site_fract_x
_atom_site_fract_y
_atom_site_fract_z
Si Si1 0.529960 0.877818 0.484500
Si Si2 0.271574 0.036847 0.908117
Si Si3 0.116371 0.859250 0.821044
Si Si4 0.739511 0.665178 0.560321
Si Si5 0.624499 0.928404 0.679861
Si Si6 0.940347 0.125653 0.531116
Si Si7 0.148872 0.729206 0.770551
Si Si8 0.729393 0.222467 0.565436
O O1 0.598072 0.919252 0.406879
O O2 0.366337 0.875701 0.469855
O O3 0.562711 0.905359 0.583705
O O4 0.597829 0.813943 0.472295
O O5 0.130963 0.075556 0.905186
O O6 0.295947 0.990974 0.825209
O O7 0.266020 0.000000 0.000000
O O8 0.263504 0.882053 0.783813
O O9 0.122695 0.789331 0.825991
O O10 0.000000 0.880696 0.750000
O O11 0.083953 0.887021 0.921795
O O12 0.601451 0.626520 0.556432
O O13 0.759987 0.687093 0.665510
O O14 0.728789 0.717661 0.488942
O O15 0.500000 0.934130 0.750000
O O16 0.872166 0.188175 0.551536
O O17 0.224511 0.739524 0.673493
O O18 0.000000 0.699625 0.750000
#
# Coordination Sequence:
#
# PCOD8159337 Si02
#       8
#     8   8   8   8   8   8   8   8
#     4  10  21  40  65  91 126 174 211 253 319 391
#     4   9  19  45  67  79 120 172 199 259 342 377
#     4  11  22  40  63  97 129 167 211 268 327 379
#     4  12  22  37  62 101 126 167 224 257 303 399
#     4  11  23  42  70  99 120 161 221 278 327 384
#     4  11  22  40  65  89 131 176 208 258 338 389
#     4  11  22  38  62  91 132 175 210 258 311 382
#     4  11  21  40  62  88 137 181 201 250 335 384
#
# _framework density 20.012411
#
# number of rings (size 3 to 8) (size 9 to 14) (size 15 to 20)
#    0.000    1.250    6.250    2.250    3.500    0.500 
#    4.500    3.125    0.000    0.000    0.000    0.000 
#    0.000    0.000    0.000    0.000    0.000    0.000 
#
# Total GULP energy -396774.824516 kJ/mol
# GULP energy per Si atom -12399.213266 kJ/mol
# Density = 1.996686 g / cm^3
# Si number density = 20.012411 Si / 1000 Ang^3
#
#
#
# Elastic Constant Matrix: (Units=GPa)
#
#
# Indices 1 2 3 4 5 6 
#
# 1 175.3991 51.4761 37.1903 0.0000 0.0000 0.0000
# 2 51.4761 76.1772 25.4171 0.0000 0.0000 0.0000
# 3 37.1903 25.4171 94.9330 0.0000 0.0000 0.0000
# 4 0.0000 0.0000 0.0000 17.4003 0.0000 0.0000
# 5 0.0000 0.0000 0.0000 0.0000 31.4512 0.0000
# 6 0.0000 0.0000 0.0000 0.0000 0.0000 23.8216
#
#
#
# Elastic Compliance Matrix: (Units=1/GPa)
#
#
# Indices 1 2 3 4 5 6 
#
# 1 0.007354 -0.004401 -0.001703 0.000000 0.000000 0.000000
# 2 -0.004401 0.017049 -0.002840 0.000000 0.000000 0.000000
# 3 -0.001703 -0.002840 0.011961 0.000000 0.000000 0.000000
# 4 0.000000 0.000000 0.000000 0.057470 0.000000 0.000000
# 5 0.000000 0.000000 0.000000 0.000000 0.031795 0.000000
# 6 0.000000 0.000000 0.000000 0.000000 0.000000 0.041979
#
#
# Mechanical properties :
#
#
# Convention : Reuss Voigt Hill
#
# Bulk Modulus (GPa) = 54.12512 63.85291 58.98901
# Shear Modulus (GPa) = 26.08844 30.02969 28.05907
#
# Velocity S-wave (km/s) = 3.61448 3.87790 3.74850
# Velocity P-wave (km/s) = 6.67261 7.21296 6.94804
#
# Compressibility (1/GPa) = 0.01847571
#
# Stress axis : x y z
#
# Youngs Moduli (GPa) = 135.98088 58.65383 83.60355
#
# Poissons Ratio (x) = 0.25815 0.14234
# Poissons Ratio (y) = 0.59850 0.23747
# Poissons Ratio (z) = 0.23151 0.16660
#
# Static dielectric constant tensor:
#      x y z
#    x 3.772900 0.000000 0.000000 
#    y 0.000000 3.845440 0.000000 
#    z 0.000000 0.000000 3.641250 
# 
# 
# High freq. dielectric constant tensor:
#      x y z
#    x 1.783350 0.000000 0.000000 
#    y 0.000000 1.773000 0.000000 
#    z 0.000000 0.000000 1.770330 
# 
# From -- ./inp_files/19366.got.cif
#   From: 2010.03.12/outbox.cif.g09.slc.cpg/sg20_10_cif.got.tgz:19366.got - 2010.04.14 01:38:04.
