data_PCOD8159543
_publ_section_title
;
Structure prediction by ZEFSAII (Michael W. Deem and Ramdas Pophale) SiO2 
 PCOD8159543
Probable space group: C 2 2 21
;
_chemical_formula_sum "Si O2"
_cell_formula_units_Z 44
_cell_length_a 20.017836
_cell_length_b 11.504208
_cell_length_c 8.915065
_cell_angle_alpha 90.000000
_cell_angle_beta 90.000000
_cell_angle_gamma 90.000000
_cell_volume 2053.044516
_symmetry_space_group_name_H-M "C 2 2 21"
_symmetry_group_IT_number 20
_symmetry_cell_setting 'orthorhombic'
loop_
_space_group_symop_operation_xyz
x,y,z
-x,-y,1/2+z
x,-y,-z
-x,y,1/2-z
1/2+x,1/2+y,z
1/2-x,1/2-y,1/2+z
1/2+x,1/2-y,-z
1/2-x,1/2+y,1/2-z
loop_
_atom_site_type_symbol
_atom_site_label
_atom_site_fract_x
_atom_site_fract_y
_atom_site_fract_z
Si Si1 0.110540 0.443215 0.356073
Si Si2 0.500000 0.098419 0.250000
Si Si3 0.214463 0.545150 0.156694
Si Si4 0.578419 0.292523 0.766539
Si Si5 0.846246 0.008870 0.676781
Si Si6 0.382387 0.244226 0.392151
O O1 0.149071 0.500000 0.500000
O O2 0.150549 0.468979 0.204066
O O3 0.102079 0.303433 0.356950
O O4 0.039966 0.511683 0.359316
O O5 0.448496 0.179472 0.337555
O O6 0.271020 0.525980 0.280432
O O7 0.187249 0.676089 0.137589
O O8 0.243492 0.500000 0.000000
O O9 0.500000 0.299852 0.750000
O O10 0.607099 0.420040 0.728985
O O11 0.605898 0.262639 0.931520
O O12 0.870717 0.140136 0.709167
O O13 0.853762 0.000000 0.500000
#
# Coordination Sequence:
#
# PCOD8159543 Si02
#       6
#     8   4   8   8   8   8
#     4  11  22  38  66  98 126 169 222 279 347 408
#     4  10  22  36  64  94 130 166 226 278 342 400
#     4  11  23  43  67  93 133 173 224 289 345 408
#     4  11  22  42  69  94 139 178 229 286 343 412
#     4  10  25  44  65  98 133 185 229 278 348 416
#     4  10  23  43  66  95 139 177 227 290 338 416
#
# _framework density 21.431585999999999
#
# number of rings (size 3 to 8) (size 9 to 14) (size 15 to 20)
#    0.000    1.455    2.727    1.636    3.818    0.000 
#    9.818    0.000    0.000    0.000    0.000    0.000 
#    0.000    0.000    0.000    0.000    0.000    0.000 
#
# Total GULP energy -272595.664956 kJ/mol
# GULP energy per Si atom -12390.712043 kJ/mol
# Density = 2.138281 g / cm^3
# Si number density = 21.431586 Si / 1000 Ang^3
#
#
#
# Elastic Constant Matrix: (Units=GPa)
#
#
# Indices 1 2 3 4 5 6 
#
# 1 80.2953 49.5449 13.3701 0.0000 0.0000 0.0000
# 2 49.5449 182.4992 34.3971 0.0000 0.0000 0.0000
# 3 13.3701 34.3971 48.7652 0.0000 0.0000 0.0000
# 4 0.0000 0.0000 0.0000 28.5597 0.0000 0.0000
# 5 0.0000 0.0000 0.0000 0.0000 33.0387 0.0000
# 6 0.0000 0.0000 0.0000 0.0000 0.0000 28.1040
#
#
#
# Elastic Compliance Matrix: (Units=1/GPa)
#
#
# Indices 1 2 3 4 5 6 
#
# 1 0.015047 -0.003814 -0.001435 0.000000 0.000000 0.000000
# 2 -0.003814 0.007287 -0.004094 0.000000 0.000000 0.000000
# 3 -0.001435 -0.004094 0.023787 0.000000 0.000000 0.000000
# 4 0.000000 0.000000 0.000000 0.035014 0.000000 0.000000
# 5 0.000000 0.000000 0.000000 0.000000 0.030268 0.000000
# 6 0.000000 0.000000 0.000000 0.000000 0.000000 0.035582
#
#
# Mechanical properties :
#
#
# Convention : Reuss Voigt Hill
#
# Bulk Modulus (GPa) = 36.45056 56.24266 46.34661
# Shear Modulus (GPa) = 28.60155 32.22367 30.41261
#
# Velocity S-wave (km/s) = 3.65711 3.88178 3.77112
# Velocity P-wave (km/s) = 5.90571 6.81108 6.37449
#
# Compressibility (1/GPa) = 0.02743442
#
# Stress axis : x y z
#
# Youngs Moduli (GPa) = 66.46040 137.23784 42.03892
#
# Poissons Ratio (x) = 0.52348 0.06032
# Poissons Ratio (y) = 0.25351 0.17210
# Poissons Ratio (z) = 0.09536 0.56184
#
# Static dielectric constant tensor:
#      x y z
#    x 3.748380 0.000000 0.000000 
#    y 0.000000 4.455960 0.000000 
#    z 0.000000 0.000000 3.767620 
# 
# 
# High freq. dielectric constant tensor:
#      x y z
#    x 1.838270 0.000000 0.000000 
#    y 0.000000 1.854220 0.000000 
#    z 0.000000 0.000000 1.828790 
# 
# From -- ./inp_files/10604.got.cif
#   From: 2010.03.12/outbox.cif.g09.slc.cpg/sg20_6_cif.got.tgz:10604.got - 2010.04.14 01:38:04.
