data_PCOD8159325
_publ_section_title
;
Structure prediction by ZEFSAII (Michael W. Deem and Ramdas Pophale) SiO2 
 PCOD8159325
Probable space group: C 2 2 21
;
_chemical_formula_sum "Si O2"
_cell_formula_units_Z 64
_cell_length_a 9.526730
_cell_length_b 20.380222
_cell_length_c 16.066099
_cell_angle_alpha 90.000000
_cell_angle_beta 90.000000
_cell_angle_gamma 90.000000
_cell_volume 3119.343532
_symmetry_space_group_name_H-M "C 2 2 21"
_symmetry_group_IT_number 20
_symmetry_cell_setting 'orthorhombic'
loop_
_space_group_symop_operation_xyz
x,y,z
-x,-y,1/2+z
x,-y,-z
-x,y,1/2-z
1/2+x,1/2+y,z
1/2-x,1/2-y,1/2+z
1/2+x,1/2-y,-z
1/2-x,1/2+y,1/2-z
loop_
_atom_site_type_symbol
_atom_site_label
_atom_site_fract_x
_atom_site_fract_y
_atom_site_fract_z
Si Si1 0.878413 0.743508 0.310110
Si Si2 0.033145 0.124600 0.900914
Si Si3 0.030487 0.499999 0.099535
Si Si4 0.285472 0.880568 0.402210
Si Si5 0.121585 0.256494 0.189885
Si Si6 0.466849 0.624595 0.400905
Si Si7 0.787950 0.999997 0.401240
Si Si8 0.714537 0.880573 0.902199
O O1 0.910438 0.810778 0.356805
O O2 0.750011 0.750017 0.249991
O O3 0.849439 0.689550 0.379966
O O4 0.000000 0.718955 0.250000
O O5 0.129745 0.064504 0.870285
O O6 0.874213 0.111215 0.869777
O O7 0.040024 0.134452 0.000005
O O8 0.114027 0.437004 0.134922
O O9 0.114024 0.562994 0.134927
O O10 0.870948 0.499996 0.134470
O O11 0.026488 0.500000 0.000000
O O12 0.349475 0.810448 0.379984
O O13 0.283534 0.887572 0.500005
O O14 0.089575 0.189214 0.143210
O O15 0.000000 0.281042 0.250000
O O16 0.370248 0.564498 0.370280
O O17 0.625779 0.611206 0.369768
O O18 0.785105 0.000000 0.500000
#
# Coordination Sequence:
#
# PCOD8159325 Si02
#       8
#     8   8   8   8   8   8   8   8
#     4  12  25  42  59  86 124 161 199 245 297 351
#     4  10  21  40  64  89 118 158 200 243 296 355
#     4   9  19  35  61  93 119 148 196 251 296 345
#     4  10  21  40  64  89 118 157 200 244 295 355
#     4  12  25  42  59  86 124 161 199 245 297 351
#     4  10  21  40  64  89 118 158 200 243 296 355
#     4   9  19  35  61  93 119 147 196 252 296 345
#     4  10  21  40  64  89 118 157 200 244 295 355
#
# _framework density 20.517137999999999
#
# number of rings (size 3 to 8) (size 9 to 14) (size 15 to 20)
#    0.000    1.750    2.500    1.500    3.500    3.000 
#    0.000    2.500    0.000    0.000    0.000    0.000 
#    0.000    0.000    0.000    0.000    0.000    0.000 
#
# Total GULP energy -396789.466114 kJ/mol
# GULP energy per Si atom -12399.670816 kJ/mol
# Density = 2.047044 g / cm^3
# Si number density = 20.517138 Si / 1000 Ang^3
#
#
#
# Elastic Constant Matrix: (Units=GPa)
#
#
# Indices 1 2 3 4 5 6 
#
# 1 206.3343 103.9818 28.8148 0.0000 0.0000 0.0000
# 2 103.9818 178.7039 22.8879 0.0000 0.0000 0.0000
# 3 28.8148 22.8879 20.0946 0.0000 0.0000 0.0000
# 4 0.0000 0.0000 0.0000 3.4424 0.0000 0.0000
# 5 0.0000 0.0000 0.0000 0.0000 30.8694 0.0000
# 6 0.0000 0.0000 0.0000 0.0000 0.0000 44.1445
#
#
#
# Elastic Compliance Matrix: (Units=1/GPa)
#
#
# Indices 1 2 3 4 5 6 
#
# 1 0.007585 -0.003536 -0.006849 0.000000 0.000000 0.000000
# 2 -0.003536 0.008200 -0.004269 0.000000 0.000000 0.000000
# 3 -0.006849 -0.004269 0.064448 0.000000 0.000000 0.000000
# 4 0.000000 0.000000 0.000000 0.290493 0.000000 0.000000
# 5 0.000000 0.000000 0.000000 0.000000 0.032394 0.000000
# 6 0.000000 0.000000 0.000000 0.000000 0.000000 0.022653
#
#
# Mechanical properties :
#
#
# Convention : Reuss Voigt Hill
#
# Bulk Modulus (GPa) = 19.63678 79.61132 49.62405
# Shear Modulus (GPa) = 10.59192 32.32116 21.45654
#
# Velocity S-wave (km/s) = 2.27457 3.97334 3.23737
# Velocity P-wave (km/s) = 4.06078 7.74187 6.18168
#
# Compressibility (1/GPa) = 0.05092484
#
# Stress axis : x y z
#
# Youngs Moduli (GPa) = 131.83809 121.94648 15.51633
#
# Poissons Ratio (x) = 0.43124 0.10627
# Poissons Ratio (y) = 0.46622 0.06624
# Poissons Ratio (z) = 0.90292 0.52063
#
# Static dielectric constant tensor:
#      x y z
#    x 3.851260 0.000000 0.000000 
#    y 0.000000 6.693350 0.000000 
#    z 0.000000 0.000000 3.438470 
# 
# 
# High freq. dielectric constant tensor:
#      x y z
#    x 1.823380 0.000000 0.000000 
#    y 0.000000 1.811940 0.000000 
#    z 0.000000 0.000000 1.779660 
# 
# From -- ./inp_files/23894.got.cif
#   From: 2010.03.12/outbox.cif.g09.slc.cpg/sg20_12_cif.got.tgz:23894.got - 2010.04.14 01:38:04.
