data_PCOD8159805
_publ_section_title
;
Structure prediction by ZEFSAII (Michael W. Deem and Ramdas Pophale) SiO2 
 PCOD8159805
Probable space group: C 2 2 21
;
_chemical_formula_sum "Si O2"
_cell_formula_units_Z 28
_cell_length_a 7.475713
_cell_length_b 17.281810
_cell_length_c 8.846875
_cell_angle_alpha 90.000000
_cell_angle_beta 90.000000
_cell_angle_gamma 90.000000
_cell_volume 1142.961857
_symmetry_space_group_name_H-M "C 2 2 21"
_symmetry_group_IT_number 20
_symmetry_cell_setting 'orthorhombic'
loop_
_space_group_symop_operation_xyz
x,y,z
-x,-y,1/2+z
x,-y,-z
-x,y,1/2-z
1/2+x,1/2+y,z
1/2-x,1/2-y,1/2+z
1/2+x,1/2-y,-z
1/2-x,1/2+y,1/2-z
loop_
_atom_site_type_symbol
_atom_site_label
_atom_site_fract_x
_atom_site_fract_y
_atom_site_fract_z
Si Si1 0.500000 0.599328 0.750000
Si Si2 0.962140 0.238308 0.956352
Si Si3 0.694774 0.986130 0.820884
Si Si4 0.233260 0.187173 0.279957
O O1 0.506800 0.652912 0.897290
O O2 0.320681 0.549476 0.744315
O O3 0.775661 0.271200 0.879943
O O4 0.109000 0.299846 0.904029
O O5 0.941559 0.226356 0.137827
O O6 0.500000 0.995310 0.750000
O O7 0.783059 0.904794 0.770630
O O8 0.688059 0.000000 0.000000
#
# Coordination Sequence:
#
# PCOD8159805 Si02
#       4
#     4   8   8   8
#     4  10  24  44  68 100 140 180 228 278 344 410
#     4  10  22  44  68  96 137 175 234 275 345 409
#     4  12  25  46  72 106 141 180 230 289 346 411
#     4  10  22  43  65 100 132 174 227 282 336 408
#
# _framework density 24.497754
#
# number of rings (size 3 to 8) (size 9 to 14) (size 15 to 20)
#    0.000    1.714    5.714    0.000    0.000    9.143 
#    0.000    0.000    0.000    0.000    0.000    0.000 
#    0.000    0.000    0.000    0.000    0.000    0.000 
#
# Total GULP energy -173574.653097 kJ/mol
# GULP energy per Si atom -12398.189507 kJ/mol
# Density = 2.444200 g / cm^3
# Si number density = 24.497754 Si / 1000 Ang^3
#
#
#
# Elastic Constant Matrix: (Units=GPa)
#
#
# Indices 1 2 3 4 5 6 
#
# 1 70.8938 29.1487 -10.8051 0.0000 0.0000 0.0000
# 2 29.1487 147.9986 40.6987 0.0000 0.0000 0.0000
# 3 -10.8051 40.6987 129.1456 0.0000 0.0000 0.0000
# 4 0.0000 0.0000 0.0000 16.0867 0.0000 0.0000
# 5 0.0000 0.0000 0.0000 0.0000 32.9122 0.0000
# 6 0.0000 0.0000 0.0000 0.0000 0.0000 35.4641
#
#
#
# Elastic Compliance Matrix: (Units=1/GPa)
#
#
# Indices 1 2 3 4 5 6 
#
# 1 0.016090 -0.003875 0.002567 0.000000 0.000000 0.000000
# 2 -0.003875 0.008331 -0.002950 0.000000 0.000000 0.000000
# 3 0.002567 -0.002950 0.008888 0.000000 0.000000 0.000000
# 4 0.000000 0.000000 0.000000 0.062163 0.000000 0.000000
# 5 0.000000 0.000000 0.000000 0.000000 0.030384 0.000000
# 6 0.000000 0.000000 0.000000 0.000000 0.000000 0.028198
#
#
# Mechanical properties :
#
#
# Convention : Reuss Voigt Hill
#
# Bulk Modulus (GPa) = 40.33196 51.79140 46.06168
# Shear Modulus (GPa) = 29.26840 36.15898 32.71369
#
# Velocity S-wave (km/s) = 3.46025 3.84606 3.65824
# Velocity P-wave (km/s) = 5.69769 6.39610 6.05697
#
# Compressibility (1/GPa) = 0.02479423
#
# Stress axis : x y z
#
# Youngs Moduli (GPa) = 62.14982 120.03141 112.51687
#
# Poissons Ratio (x) = 0.46512 -0.28887
# Poissons Ratio (y) = 0.24083 0.33189
# Poissons Ratio (z) = -0.15956 0.35405
#
# Static dielectric constant tensor:
#      x y z
#    x 5.105820 0.000000 0.000000 
#    y 0.000000 4.382060 0.000000 
#    z 0.000000 0.000000 4.499220 
# 
# 
# High freq. dielectric constant tensor:
#      x y z
#    x 2.004900 0.000000 0.000000 
#    y 0.000000 1.971010 0.000000 
#    z 0.000000 0.000000 1.986070 
# 
# From -- ./inp_files/5679.got.cif
#   From: 2010.03.12/outbox.cif.g09.slc.cpg/sg20_3_cif.got.tgz:5679.got - 2010.04.14 01:38:04.
