data_PCOD8159907
_publ_section_title
;
Structure prediction by ZEFSAII (Michael W. Deem and Ramdas Pophale) SiO2 
 PCOD8159907
Probable space group: C 2 2 21
;
_chemical_formula_sum "Si O2"
_cell_formula_units_Z 48
_cell_length_a 17.445895
_cell_length_b 6.904124
_cell_length_c 19.895142
_cell_angle_alpha 90.000000
_cell_angle_beta 90.000000
_cell_angle_gamma 90.000000
_cell_volume 2396.342446
_symmetry_space_group_name_H-M "C 2 2 21"
_symmetry_group_IT_number 20
_symmetry_cell_setting 'orthorhombic'
loop_
_space_group_symop_operation_xyz
x,y,z
-x,-y,1/2+z
x,-y,-z
-x,y,1/2-z
1/2+x,1/2+y,z
1/2-x,1/2-y,1/2+z
1/2+x,1/2-y,-z
1/2-x,1/2+y,1/2-z
loop_
_atom_site_type_symbol
_atom_site_label
_atom_site_fract_x
_atom_site_fract_y
_atom_site_fract_z
Si Si1 0.393764 0.043620 0.389330
Si Si2 0.337995 0.169411 0.040262
Si Si3 0.018228 0.500000 0.500000
Si Si4 0.347181 0.629709 0.705231
Si Si5 0.229304 0.500000 0.000000
Si Si6 0.586954 0.230122 0.767905
Si Si7 0.187063 0.547105 0.313814
O O1 0.396483 0.245714 0.348477
O O2 0.468671 0.997344 0.432667
O O3 0.321743 0.072900 0.438449
O O4 0.386392 0.861691 0.339141
O O5 0.350416 0.117153 0.117623
O O6 0.423763 0.186465 0.006234
O O7 0.286273 0.353173 0.034320
O O8 0.292975 0.000000 0.000000
O O9 0.403408 0.462363 0.732593
O O10 0.274288 0.519785 0.673486
O O11 0.316760 0.772216 0.763023
O O12 0.500000 0.175842 0.750000
O O13 0.639536 0.138347 0.710418
#
# Coordination Sequence:
#
# PCOD8159907 Si02
#       7
#     8   8   4   8   4   8   8
#     4  10  23  44  63  92 134 171 215 270 326 387
#     4  10  23  39  64  94 126 170 216 268 318 379
#     4   9  22  46  60  91 134 174 208 279 316 374
#     4  11  23  39  67  95 129 172 213 268 326 391
#     4  11  22  40  70  93 128 174 226 261 328 396
#     4  11  24  41  65  96 129 174 215 270 330 388
#     4  11  22  41  66  97 133 162 220 268 324 383
#
# _framework density 20.030525999999998
#
# number of rings (size 3 to 8) (size 9 to 14) (size 15 to 20)
#    0.500    1.000    1.667    3.000    2.333    5.333 
#    3.000    1.667    0.000    0.000    0.000    0.000 
#    0.000    0.000    0.000    0.000    0.000    0.000 
#
# Total GULP energy -297422.866870 kJ/mol
# GULP energy per Si atom -12392.619453 kJ/mol
# Density = 1.998494 g / cm^3
# Si number density = 20.030526 Si / 1000 Ang^3
#
#
#
# Elastic Constant Matrix: (Units=GPa)
#
#
# Indices 1 2 3 4 5 6 
#
# 1 101.2714 24.2003 39.3505 0.0000 0.0000 0.0000
# 2 24.2003 108.3218 46.4099 0.0000 0.0000 0.0000
# 3 39.3505 46.4099 120.4209 0.0000 0.0000 0.0000
# 4 0.0000 0.0000 0.0000 23.1012 0.0000 0.0000
# 5 0.0000 0.0000 0.0000 0.0000 30.5425 0.0000
# 6 0.0000 0.0000 0.0000 0.0000 0.0000 30.8696
#
#
#
# Elastic Compliance Matrix: (Units=1/GPa)
#
#
# Indices 1 2 3 4 5 6 
#
# 1 0.011427 -0.001142 -0.003294 0.000000 0.000000 0.000000
# 2 -0.001142 0.011172 -0.003932 0.000000 0.000000 0.000000
# 3 -0.003294 -0.003932 0.010896 0.000000 0.000000 0.000000
# 4 0.000000 0.000000 0.000000 0.043288 0.000000 0.000000
# 5 0.000000 0.000000 0.000000 0.000000 0.032741 0.000000
# 6 0.000000 0.000000 0.000000 0.000000 0.000000 0.032394
#
#
# Mechanical properties :
#
#
# Convention : Reuss Voigt Hill
#
# Bulk Modulus (GPa) = 59.67075 61.10395 60.38735
# Shear Modulus (GPa) = 30.44302 31.57288 31.00795
#
# Velocity S-wave (km/s) = 3.90273 3.97449 3.93878
# Velocity P-wave (km/s) = 7.08258 7.18566 7.13431
#
# Compressibility (1/GPa) = 0.01675863
#
# Stress axis : x y z
#
# Youngs Moduli (GPa) = 87.51002 89.51236 91.77492
#
# Poissons Ratio (x) = 0.10219 0.30232
# Poissons Ratio (y) = 0.09990 0.36090
# Poissons Ratio (z) = 0.28827 0.35200
#
# Static dielectric constant tensor:
#      x y z
#    x 3.648740 0.000000 0.000000 
#    y 0.000000 3.514440 0.000000 
#    z 0.000000 0.000000 3.690110 
# 
# 
# High freq. dielectric constant tensor:
#      x y z
#    x 1.787660 0.000000 0.000000 
#    y 0.000000 1.770930 0.000000 
#    z 0.000000 0.000000 1.790770 
# 
# From -- ./inp_files/27865.got.cif
#   From: 2010.03.12/outbox.cif.g09.slc.cpg/sg20_14_cif.got.tgz:27865.got - 2010.04.14 01:38:04.
