data_PCOD8159455
_publ_section_title
;
Structure prediction by ZEFSAII (Michael W. Deem and Ramdas Pophale) SiO2 
 PCOD8159455
Probable space group: C 2 2 21
;
_chemical_formula_sum "Si O2"
_cell_formula_units_Z 56
_cell_length_a 13.821541
_cell_length_b 12.134337
_cell_length_c 15.056195
_cell_angle_alpha 90.000000
_cell_angle_beta 90.000000
_cell_angle_gamma 90.000000
_cell_volume 2525.153303
_symmetry_space_group_name_H-M "C 2 2 21"
_symmetry_group_IT_number 20
_symmetry_cell_setting 'orthorhombic'
loop_
_space_group_symop_operation_xyz
x,y,z
-x,-y,1/2+z
x,-y,-z
-x,y,1/2-z
1/2+x,1/2+y,z
1/2-x,1/2-y,1/2+z
1/2+x,1/2-y,-z
1/2-x,1/2+y,1/2-z
loop_
_atom_site_type_symbol
_atom_site_label
_atom_site_fract_x
_atom_site_fract_y
_atom_site_fract_z
Si Si1 0.457706 0.942010 0.661797
Si Si2 0.490760 0.602546 0.348827
Si Si3 0.720084 0.048240 0.770018
Si Si4 0.715558 0.562123 0.094123
Si Si5 0.077602 0.342393 0.350655
Si Si6 0.898898 0.683474 0.045469
Si Si7 0.634812 0.431537 0.423231
O O1 0.500000 0.883931 0.750000
O O2 0.498221 0.868502 0.579926
O O3 0.341385 0.952511 0.676718
O O4 0.493507 0.067711 0.655640
O O5 0.500000 0.554048 0.250000
O O6 0.385557 0.624319 0.391377
O O7 0.540537 0.720028 0.346748
O O8 0.544448 0.511426 0.406825
O O9 0.650308 0.144256 0.732508
O O10 0.798134 0.093769 0.838869
O O11 0.775884 0.012496 0.681451
O O12 0.806896 0.644707 0.102559
O O13 0.714321 0.500000 0.000000
O O14 0.125499 0.361416 0.446968
O O15 0.908013 0.815225 0.044024
O O16 0.693563 0.500000 0.500000
#
# Coordination Sequence:
#
# PCOD8159455 Si02
#       7
#     8   8   8   8   8   8   8
#     4  10  21  42  70 103 134 176 236 295 349 413
#     4  12  26  47  71  99 147 193 239 289 366 433
#     4  11  24  47  73 107 143 181 245 299 361 423
#     4  12  24  46  74 105 138 193 243 287 356 443
#     4  11  23  45  74 102 142 186 237 299 354 429
#     4  12  24  45  76 101 147 184 240 299 357 432
#     4  12  28  49  65 105 151 188 232 304 354 427
#
# _framework density 22.176870000000001
#
# number of rings (size 3 to 8) (size 9 to 14) (size 15 to 20)
#    0.000    0.571    7.143    2.143    4.000    1.714 
#    0.000    0.000    0.000    0.000    0.000    0.000 
#    0.000    0.000    0.000    0.000    0.000    0.000 
#
# Total GULP energy -346906.466389 kJ/mol
# GULP energy per Si atom -12389.516657 kJ/mol
# Density = 2.212639 g / cm^3
# Si number density = 22.176870 Si / 1000 Ang^3
#
#
#
# Elastic Constant Matrix: (Units=GPa)
#
#
# Indices 1 2 3 4 5 6 
#
# 1 89.2172 14.5771 37.3901 0.0000 0.0000 0.0000
# 2 14.5771 83.0953 33.6357 0.0000 0.0000 0.0000
# 3 37.3901 33.6357 139.7515 0.0000 0.0000 0.0000
# 4 0.0000 0.0000 0.0000 29.6058 0.0000 0.0000
# 5 0.0000 0.0000 0.0000 0.0000 39.0826 0.0000
# 6 0.0000 0.0000 0.0000 0.0000 0.0000 18.2911
#
#
#
# Elastic Compliance Matrix: (Units=1/GPa)
#
#
# Indices 1 2 3 4 5 6 
#
# 1 0.012691 -0.000944 -0.003168 0.000000 0.000000 0.000000
# 2 -0.000944 0.013404 -0.002973 0.000000 0.000000 0.000000
# 3 -0.003168 -0.002973 0.008719 0.000000 0.000000 0.000000
# 4 0.000000 0.000000 0.000000 0.033777 0.000000 0.000000
# 5 0.000000 0.000000 0.000000 0.000000 0.025587 0.000000
# 6 0.000000 0.000000 0.000000 0.000000 0.000000 0.054671
#
#
# Mechanical properties :
#
#
# Convention : Reuss Voigt Hill
#
# Bulk Modulus (GPa) = 48.44484 53.69665 51.07075
# Shear Modulus (GPa) = 29.42909 32.49332 30.96121
#
# Velocity S-wave (km/s) = 3.64678 3.83193 3.74050
# Velocity P-wave (km/s) = 6.29477 6.62146 6.46018
#
# Compressibility (1/GPa) = 0.02064203
#
# Stress axis : x y z
#
# Youngs Moduli (GPa) = 78.79873 74.60696 114.69396
#
# Poissons Ratio (x) = 0.07042 0.36337
# Poissons Ratio (y) = 0.07437 0.34104
# Poissons Ratio (z) = 0.24965 0.22184
#
# Static dielectric constant tensor:
#      x y z
#    x 3.967510 0.000000 0.000000 
#    y 0.000000 3.682460 0.000000 
#    z 0.000000 0.000000 4.995610 
# 
# 
# High freq. dielectric constant tensor:
#      x y z
#    x 1.863170 0.000000 0.000000 
#    y 0.000000 1.854160 0.000000 
#    z 0.000000 0.000000 1.901850 
# 
# From -- ./inp_files/20752.got.cif
#   From: 2010.03.12/outbox.cif.g09.slc.cpg/sg20_11_cif.got.tgz:20752.got - 2010.04.14 01:38:04.
