data_PCOD8159405
_publ_section_title
;
Structure prediction by ZEFSAII (Michael W. Deem and Ramdas Pophale) SiO2 
 PCOD8159405
Probable space group: C 2 2 21
;
_chemical_formula_sum "Si O2"
_cell_formula_units_Z 40
_cell_length_a 10.405278
_cell_length_b 12.180040
_cell_length_c 13.418610
_cell_angle_alpha 90.000000
_cell_angle_beta 90.000000
_cell_angle_gamma 90.000000
_cell_volume 1700.630380
_symmetry_space_group_name_H-M "C 2 2 21"
_symmetry_group_IT_number 20
_symmetry_cell_setting 'orthorhombic'
loop_
_space_group_symop_operation_xyz
x,y,z
-x,-y,1/2+z
x,-y,-z
-x,y,1/2-z
1/2+x,1/2+y,z
1/2-x,1/2-y,1/2+z
1/2+x,1/2-y,-z
1/2-x,1/2+y,1/2-z
loop_
_atom_site_type_symbol
_atom_site_label
_atom_site_fract_x
_atom_site_fract_y
_atom_site_fract_z
Si Si1 0.797275 0.596906 0.291953
Si Si2 0.165339 0.167310 0.869315
Si Si3 0.806904 0.169159 0.406297
Si Si4 0.541157 0.513262 0.389825
Si Si5 0.128629 0.372330 0.205816
O O1 0.848978 0.702286 0.351814
O O2 0.797559 0.623708 0.173006
O O3 0.654457 0.551695 0.317581
O O4 0.895129 0.499606 0.323355
O O5 0.264058 0.119021 0.790980
O O6 0.029162 0.102414 0.858851
O O7 0.230180 0.149194 0.978699
O O8 0.823842 0.299779 0.386808
O O9 0.941255 0.111409 0.386836
O O10 0.599839 0.500000 0.500000
O O11 0.000000 0.318469 0.250000
#
# Coordination Sequence:
#
# PCOD8159405 Si02
#       5
#     8   8   8   8   8
#     4  11  23  42  67  99 139 176 232 290 352 410
#     4  10  23  43  67 103 132 175 241 282 346 422
#     4  10  21  42  68  93 130 179 228 290 343 412
#     4  10  21  41  72  99 129 180 234 287 345 417
#     4  11  24  43  65  96 140 183 220 288 361 416
#
# _framework density 23.520690999999999
#
# number of rings (size 3 to 8) (size 9 to 14) (size 15 to 20)
#    0.000    1.600    2.000    3.000    2.800    0.000 
#    7.200    2.000    0.000    0.000    0.000    0.000 
#    0.000    0.000    0.000    0.000    0.000    0.000 
#
# Total GULP energy -247812.399495 kJ/mol
# GULP energy per Si atom -12390.619975 kJ/mol
# Density = 2.346716 g / cm^3
# Si number density = 23.520691 Si / 1000 Ang^3
#
#
#
# Elastic Constant Matrix: (Units=GPa)
#
#
# Indices 1 2 3 4 5 6 
#
# 1 51.8940 11.8075 1.1893 0.0000 0.0000 0.0000
# 2 11.8075 175.6852 12.9711 0.0000 0.0000 0.0000
# 3 1.1893 12.9711 92.0732 0.0000 0.0000 0.0000
# 4 0.0000 0.0000 0.0000 21.0397 0.0000 0.0000
# 5 0.0000 0.0000 0.0000 0.0000 19.4116 0.0000
# 6 0.0000 0.0000 0.0000 0.0000 0.0000 1.9043
#
#
#
# Elastic Compliance Matrix: (Units=1/GPa)
#
#
# Indices 1 2 3 4 5 6 
#
# 1 0.019570 -0.001310 -0.000068 0.000000 0.000000 0.000000
# 2 -0.001310 0.005840 -0.000806 0.000000 0.000000 0.000000
# 3 -0.000068 -0.000806 0.010975 0.000000 0.000000 0.000000
# 4 0.000000 0.000000 0.000000 0.047529 0.000000 0.000000
# 5 0.000000 0.000000 0.000000 0.000000 0.051515 0.000000
# 6 0.000000 0.000000 0.000000 0.000000 0.000000 0.525130
#
#
# Mechanical properties :
#
#
# Convention : Reuss Voigt Hill
#
# Bulk Modulus (GPa) = 31.23409 41.28757 36.26083
# Shear Modulus (GPa) = 7.40083 28.05009 17.72546
#
# Velocity S-wave (km/s) = 1.77577 3.45711 2.74818
# Velocity P-wave (km/s) = 4.18482 5.79028 5.05173
#
# Compressibility (1/GPa) = 0.03201630
#
# Stress axis : x y z
#
# Youngs Moduli (GPa) = 51.09931 171.24617 91.11354
#
# Poissons Ratio (x) = 0.22437 0.00621
# Poissons Ratio (y) = 0.06695 0.07341
# Poissons Ratio (z) = 0.00348 0.13798
#
# Static dielectric constant tensor:
#      x y z
#    x 3.811190 0.000000 0.000000 
#    y 0.000000 4.755910 0.000000 
#    z 0.000000 0.000000 4.567850 
# 
# 
# High freq. dielectric constant tensor:
#      x y z
#    x 1.894440 0.000000 0.000000 
#    y 0.000000 1.957660 0.000000 
#    z 0.000000 0.000000 1.933240 
# 
# From -- ./inp_files/19663.got.cif
#   From: 2010.03.12/outbox.cif.g09.slc.cpg/sg20_10_cif.got.tgz:19663.got - 2010.04.14 01:38:04.
