data_PCOD8159517
_publ_section_title
;
Structure prediction by ZEFSAII (Michael W. Deem and Ramdas Pophale) SiO2 
 PCOD8159517
Probable space group: C 2 2 21
;
_chemical_formula_sum "Si O2"
_cell_formula_units_Z 48
_cell_length_a 10.052673
_cell_length_b 9.417333
_cell_length_c 19.226333
_cell_angle_alpha 90.000000
_cell_angle_beta 90.000000
_cell_angle_gamma 90.000000
_cell_volume 1820.144817
_symmetry_space_group_name_H-M "C 2 2 21"
_symmetry_group_IT_number 20
_symmetry_cell_setting 'orthorhombic'
loop_
_space_group_symop_operation_xyz
x,y,z
-x,-y,1/2+z
x,-y,-z
-x,y,1/2-z
1/2+x,1/2+y,z
1/2-x,1/2-y,1/2+z
1/2+x,1/2-y,-z
1/2-x,1/2+y,1/2-z
loop_
_atom_site_type_symbol
_atom_site_label
_atom_site_fract_x
_atom_site_fract_y
_atom_site_fract_z
Si Si1 0.788960 0.158635 0.010267
Si Si2 0.088643 0.576472 0.121055
Si Si3 0.840255 0.240397 0.863940
Si Si4 0.953491 0.010334 0.674828
Si Si5 0.244124 0.260836 0.286675
Si Si6 0.493207 0.768982 0.116565
O O1 0.649010 0.151180 0.051946
O O2 0.897343 0.254914 0.049955
O O3 0.758811 0.234756 0.936413
O O4 0.846072 0.000000 0.000000
O O5 0.938943 0.625321 0.136026
O O6 0.185900 0.615754 0.185299
O O7 0.088650 0.593658 0.889092
O O8 0.742674 0.249688 0.797156
O O9 0.927141 0.097467 0.860378
O O10 0.918805 0.875047 0.625982
O O11 0.000000 0.956250 0.750000
O O12 0.824330 0.106630 0.682265
O O13 0.095216 0.277429 0.313370
#
# Coordination Sequence:
#
# PCOD8159517 Si02
#       6
#     8   8   8   8   8   8
#     4  11  24  45  68  98 141 196 236 290 354 438
#     4  10  24  44  72 106 143 182 241 304 359 426
#     4  10  21  45  72  97 145 190 232 298 363 426
#     4   9  19  40  66  98 133 179 231 282 350 424
#     4   9  22  46  70 103 141 184 235 299 362 424
#     4  11  23  44  69 104 142 181 242 294 359 434
#
# _framework density 26.371527
#
# number of rings (size 3 to 8) (size 9 to 14) (size 15 to 20)
#    0.000    2.000    1.667    1.500    2.333    4.000 
#    9.000    0.000    3.667    0.000    0.000    0.000 
#    0.000    0.000    0.000    0.000    0.000    0.000 
#
# Total GULP energy -297649.443809 kJ/mol
# GULP energy per Si atom -12402.060159 kJ/mol
# Density = 2.631150 g / cm^3
# Si number density = 26.371527 Si / 1000 Ang^3
#
#
#
# Elastic Constant Matrix: (Units=GPa)
#
#
# Indices 1 2 3 4 5 6 
#
# 1 66.9088 17.4817 31.6770 0.0000 0.0000 0.0000
# 2 17.4817 116.7549 39.8163 0.0000 0.0000 0.0000
# 3 31.6770 39.8163 169.5227 0.0000 0.0000 0.0000
# 4 0.0000 0.0000 0.0000 42.7158 0.0000 0.0000
# 5 0.0000 0.0000 0.0000 0.0000 37.3428 0.0000
# 6 0.0000 0.0000 0.0000 0.0000 0.0000 30.2312
#
#
#
# Elastic Compliance Matrix: (Units=1/GPa)
#
#
# Indices 1 2 3 4 5 6 
#
# 1 0.016653 -0.001557 -0.002746 0.000000 0.000000 0.000000
# 2 -0.001557 0.009456 -0.001930 0.000000 0.000000 0.000000
# 3 -0.002746 -0.001930 0.006865 0.000000 0.000000 0.000000
# 4 0.000000 0.000000 0.000000 0.023411 0.000000 0.000000
# 5 0.000000 0.000000 0.000000 0.000000 0.026779 0.000000
# 6 0.000000 0.000000 0.000000 0.000000 0.000000 0.033078
#
#
# Mechanical properties :
#
#
# Convention : Reuss Voigt Hill
#
# Bulk Modulus (GPa) = 48.76115 59.01514 53.88814
# Shear Modulus (GPa) = 36.88835 39.67206 38.28021
#
# Velocity S-wave (km/s) = 3.74410 3.88281 3.81409
# Velocity P-wave (km/s) = 6.10093 6.52139 6.31466
#
# Compressibility (1/GPa) = 0.02050813
#
# Stress axis : x y z
#
# Youngs Moduli (GPa) = 60.05082 105.74985 145.65869
#
# Poissons Ratio (x) = 0.16464 0.39998
# Poissons Ratio (y) = 0.09349 0.28114
# Poissons Ratio (z) = 0.16490 0.20411
#
# Static dielectric constant tensor:
#      x y z
#    x 4.545040 0.000000 0.000000 
#    y 0.000000 4.772740 0.000000 
#    z 0.000000 0.000000 5.029020 
# 
# 
# High freq. dielectric constant tensor:
#      x y z
#    x 2.061390 0.000000 0.000000 
#    y 0.000000 2.057770 0.000000 
#    z 0.000000 0.000000 2.063030 
# 
# From -- ./inp_files/19912.got.cif
#   From: 2010.03.12/outbox.cif.g09.slc.cpg/sg20_10_cif.got.tgz:19912.got - 2010.04.14 01:38:04.
