data_PCOD8159153
_publ_section_title
;
Structure prediction by ZEFSAII (Michael W. Deem and Ramdas Pophale) SiO2 
 PCOD8159153
Probable space group: C 2 2 21
;
_chemical_formula_sum "Si O2"
_cell_formula_units_Z 64
_cell_length_a 18.561856
_cell_length_b 8.943359
_cell_length_c 19.823568
_cell_angle_alpha 90.000000
_cell_angle_beta 90.000000
_cell_angle_gamma 90.000000
_cell_volume 3290.818184
_symmetry_space_group_name_H-M "C 2 2 21"
_symmetry_group_IT_number 20
_symmetry_cell_setting 'orthorhombic'
loop_
_space_group_symop_operation_xyz
x,y,z
-x,-y,1/2+z
x,-y,-z
-x,y,1/2-z
1/2+x,1/2+y,z
1/2-x,1/2-y,1/2+z
1/2+x,1/2-y,-z
1/2-x,1/2+y,1/2-z
loop_
_atom_site_type_symbol
_atom_site_label
_atom_site_fract_x
_atom_site_fract_y
_atom_site_fract_z
Si Si1 0.199681 0.173846 0.921461
Si Si2 0.957181 0.826515 0.816370
Si Si3 0.800319 0.826154 0.578539
Si Si4 0.290121 0.674897 0.188193
Si Si5 0.551733 0.173873 0.922228
Si Si6 0.709879 0.325103 0.311807
Si Si7 0.948267 0.326127 0.577772
Si Si8 0.457181 0.673485 0.816370
O O1 0.263035 0.256694 0.882012
O O2 0.122753 0.238109 0.898548
O O3 0.200581 1.000000 0.903023
O O4 0.213561 0.203741 1.000000
O O5 0.874073 0.789950 0.804496
O O6 0.000000 0.776256 0.750000
O O7 0.984034 0.730163 0.879537
O O8 0.970294 0.000000 0.832750
O O9 0.877247 0.761891 0.601452
O O10 0.736965 0.743306 0.617988
O O11 0.273906 0.500000 0.188918
O O12 0.250000 0.750000 0.250000
O O13 0.565440 1.000000 0.909331
O O14 0.534021 0.207529 0.000000
O O15 0.625927 0.289950 0.304496
O O16 0.015966 0.269837 0.620463
O O17 0.500000 0.723744 0.750000
#
# Coordination Sequence:
#
# PCOD8159153 Si02
#       8
#     8   8   8   8   8   8   8   8
#     4  10  21  38  60  84 114 153 192 232 282 339
#     4  10  22  39  58  82 113 149 189 232 280 337
#     4  10  21  38  60  84 114 153 192 232 282 339
#     4  11  23  38  59  86 116 150 190 238 287 339
#     4  10  21  37  59  87 116 147 187 234 282 335
#     4  11  23  38  59  86 116 150 190 238 287 339
#     4  10  21  37  59  87 116 147 187 234 282 335
#     4  10  22  39  58  82 113 149 189 232 280 337
#
# _framework density 19.448051
#
# number of rings (size 3 to 8) (size 9 to 14) (size 15 to 20)
#    0.000    1.750    0.000    3.750    0.000    8.500 
#    0.000    5.000    0.000    0.000    0.000    0.000 
#    0.000    0.000    0.000    0.000    0.000    0.000 
#
# Total GULP energy -397035.513635 kJ/mol
# GULP energy per Si atom -12407.359801 kJ/mol
# Density = 1.940379 g / cm^3
# Si number density = 19.448051 Si / 1000 Ang^3
#
#
#
# Elastic Constant Matrix: (Units=GPa)
#
#
# Indices 1 2 3 4 5 6 
#
# 1 135.4013 78.7474 76.5258 0.0000 0.0000 0.0000
# 2 78.7474 116.6254 65.1768 0.0000 0.0000 0.0000
# 3 76.5258 65.1768 104.2134 0.0000 0.0000 0.0000
# 4 0.0000 0.0000 0.0000 36.9722 0.0000 0.0000
# 5 0.0000 0.0000 0.0000 0.0000 41.7051 0.0000
# 6 0.0000 0.0000 0.0000 0.0000 0.0000 37.3427
#
#
#
# Elastic Compliance Matrix: (Units=1/GPa)
#
#
# Indices 1 2 3 4 5 6 
#
# 1 0.015008 -0.006110 -0.007199 0.000000 0.000000 0.000000
# 2 -0.006110 0.015669 -0.005313 0.000000 0.000000 0.000000
# 3 -0.007199 -0.005313 0.018205 0.000000 0.000000 0.000000
# 4 0.000000 0.000000 0.000000 0.027047 0.000000 0.000000
# 5 0.000000 0.000000 0.000000 0.000000 0.023978 0.000000
# 6 0.000000 0.000000 0.000000 0.000000 0.000000 0.026779
#
#
# Mechanical properties :
#
#
# Convention : Reuss Voigt Hill
#
# Bulk Modulus (GPa) = 85.92926 88.57112 87.25019
# Shear Modulus (GPa) = 29.79552 32.25668 31.02610
#
# Velocity S-wave (km/s) = 3.91840 4.07702 3.99849
# Velocity P-wave (km/s) = 8.04684 8.23432 8.14112
#
# Compressibility (1/GPa) = 0.01163748
#
# Stress axis : x y z
#
# Youngs Moduli (GPa) = 66.63162 63.81833 54.93019
#
# Poissons Ratio (x) = 0.38995 0.39545
# Poissons Ratio (y) = 0.40714 0.29184
# Poissons Ratio (z) = 0.47968 0.33907
#
# Static dielectric constant tensor:
#      x y z
#    x 3.585470 0.000000 0.000000 
#    y 0.000000 3.632490 0.000000 
#    z 0.000000 0.000000 3.623820 
# 
# 
# High freq. dielectric constant tensor:
#      x y z
#    x 1.759650 0.000000 0.000000 
#    y 0.000000 1.768180 0.000000 
#    z 0.000000 0.000000 1.766250 
# 
# From -- ./inp_files/27791.got.cif
#   From: 2010.03.12/outbox.cif.g09.slc.cpg/sg20_14_cif.got.tgz:27791.got - 2010.04.14 01:38:04.
