data_PCOD8159918
_publ_section_title
;
Structure prediction by ZEFSAII (Michael W. Deem and Ramdas Pophale) SiO2 
 PCOD8159918
Probable space group: C 2 2 21
;
_chemical_formula_sum "Si O2"
_cell_formula_units_Z 44
_cell_length_a 22.261437
_cell_length_b 5.083672
_cell_length_c 16.968083
_cell_angle_alpha 90.000000
_cell_angle_beta 90.000000
_cell_angle_gamma 90.000000
_cell_volume 1920.275305
_symmetry_space_group_name_H-M "C 2 2 21"
_symmetry_group_IT_number 20
_symmetry_cell_setting 'orthorhombic'
loop_
_space_group_symop_operation_xyz
x,y,z
-x,-y,1/2+z
x,-y,-z
-x,y,1/2-z
1/2+x,1/2+y,z
1/2-x,1/2-y,1/2+z
1/2+x,1/2-y,-z
1/2-x,1/2+y,1/2-z
loop_
_atom_site_type_symbol
_atom_site_label
_atom_site_fract_x
_atom_site_fract_y
_atom_site_fract_z
Si Si1 0.500000 0.174205 0.750000
Si Si2 0.407866 0.224902 0.630277
Si Si3 0.836780 0.000000 0.500000
Si Si4 0.874916 0.501515 0.781688
Si Si5 0.058237 0.000000 0.500000
Si Si6 0.343325 0.493022 0.128196
Si Si7 0.255515 0.000000 0.500000
Si Si8 0.976829 0.500000 0.500000
O O1 0.463653 0.345447 0.683610
O O2 0.448025 0.997604 0.792764
O O3 0.378191 0.450486 0.576958
O O4 0.360451 0.087426 0.690883
O O5 0.433174 0.987903 0.575875
O O6 0.796392 0.250757 0.518356
O O7 0.843433 0.711221 0.839551
O O8 0.846788 0.216617 0.800170
O O9 0.098305 0.943744 0.424170
O O10 0.016601 0.246996 0.487562
O O11 0.284191 0.442272 0.076919
#
# Coordination Sequence:
#
# PCOD8159918 Si02
#       8
#     4   8   4   8   4   8   4   4
#     4   8  20  44  64 114 144 192 210 284 364 436
#     4  10  24  43  71 101 148 186 231 291 355 450
#     4  12  25  49  73 102 139 189 255 300 370 426
#     4  10  23  40  69 104 148 182 227 292 354 443
#     4  11  23  34  65  96 141 188 225 287 330 436
#     4  11  22  44  67 102 141 180 244 298 362 403
#     4  11  27  46  77 102 137 194 251 319 358 416
#     4  12  23  41  61 106 139 191 231 270 354 440
#
# _framework density 22.913383
#
# number of rings (size 3 to 8) (size 9 to 14) (size 15 to 20)
#    1.091    0.364    0.000    5.455    0.000    8.000 
#    0.000    3.636    0.000    0.000    0.000    0.000 
#    0.000    0.000    0.000    0.000    0.000    0.000 
#
# Total GULP energy -272617.499157 kJ/mol
# GULP energy per Si atom -12391.704507 kJ/mol
# Density = 2.286123 g / cm^3
# Si number density = 22.913383 Si / 1000 Ang^3
#
#
#
# Elastic Constant Matrix: (Units=GPa)
#
#
# Indices 1 2 3 4 5 6 
#
# 1 114.1813 48.2704 54.7795 0.0000 0.0000 0.0000
# 2 48.2704 118.9770 33.0581 0.0000 0.0000 0.0000
# 3 54.7795 33.0581 142.2702 0.0000 0.0000 0.0000
# 4 0.0000 0.0000 0.0000 39.5455 0.0000 0.0000
# 5 0.0000 0.0000 0.0000 0.0000 68.6078 0.0000
# 6 0.0000 0.0000 0.0000 0.0000 0.0000 19.6748
#
#
#
# Elastic Compliance Matrix: (Units=1/GPa)
#
#
# Indices 1 2 3 4 5 6 
#
# 1 0.012234 -0.003907 -0.003803 0.000000 0.000000 0.000000
# 2 -0.003907 0.010233 -0.000873 0.000000 0.000000 0.000000
# 3 -0.003803 -0.000873 0.008696 0.000000 0.000000 0.000000
# 4 0.000000 0.000000 0.000000 0.025287 0.000000 0.000000
# 5 0.000000 0.000000 0.000000 0.000000 0.014576 0.000000
# 6 0.000000 0.000000 0.000000 0.000000 0.000000 0.050826
#
#
# Mechanical properties :
#
#
# Convention : Reuss Voigt Hill
#
# Bulk Modulus (GPa) = 71.44533 71.96051 71.70292
# Shear Modulus (GPa) = 34.79862 41.52032 38.15947
#
# Velocity S-wave (km/s) = 3.90128 4.26144 4.08533
# Velocity P-wave (km/s) = 7.17925 7.46236 7.32217
#
# Compressibility (1/GPa) = 0.01399672
#
# Stress axis : x y z
#
# Youngs Moduli (GPa) = 81.73891 97.72562 114.99491
#
# Poissons Ratio (x) = 0.38180 0.43730
# Poissons Ratio (y) = 0.31935 0.10043
# Poissons Ratio (z) = 0.31084 0.08535
#
# Static dielectric constant tensor:
#      x y z
#    x 4.145260 0.000000 0.000000 
#    y 0.000000 3.513870 0.000000 
#    z 0.000000 0.000000 4.341400 
# 
# 
# High freq. dielectric constant tensor:
#      x y z
#    x 1.896850 0.000000 0.000000 
#    y 0.000000 1.884400 0.000000 
#    z 0.000000 0.000000 1.919300 
# 
# From -- ./inp_files/25572.got.cif
#   From: 2010.03.12/outbox.cif.g09.slc.cpg/sg20_13_cif.got.tgz:25572.got - 2010.04.14 01:38:04.
