data_PCOD8159128
_publ_section_title
;
Structure prediction by ZEFSAII (Michael W. Deem and Ramdas Pophale) SiO2 
 PCOD8159128
Probable space group: C 2 2 21
;
_chemical_formula_sum "Si O2"
_cell_formula_units_Z 44
_cell_length_a 12.966088
_cell_length_b 13.754606
_cell_length_c 12.803164
_cell_angle_alpha 90.000000
_cell_angle_beta 90.000000
_cell_angle_gamma 90.000000
_cell_volume 2283.360206
_symmetry_space_group_name_H-M "C 2 2 21"
_symmetry_group_IT_number 20
_symmetry_cell_setting 'orthorhombic'
loop_
_space_group_symop_operation_xyz
x,y,z
-x,-y,1/2+z
x,-y,-z
-x,y,1/2-z
1/2+x,1/2+y,z
1/2-x,1/2-y,1/2+z
1/2+x,1/2-y,-z
1/2-x,1/2+y,1/2-z
loop_
_atom_site_type_symbol
_atom_site_label
_atom_site_fract_x
_atom_site_fract_y
_atom_site_fract_z
Si Si1 0.731701 0.500000 0.500000
Si Si2 0.880380 0.502088 0.137022
Si Si3 0.700402 0.157086 0.504573
Si Si4 0.887220 0.797986 0.350858
Si Si5 0.383884 0.659602 0.879412
Si Si6 0.900483 0.575989 0.360014
O O1 0.660554 0.440723 0.421851
O O2 0.806563 0.573963 0.440127
O O3 0.864315 0.390208 0.101179
O O4 0.871664 0.509258 0.260891
O O5 0.991944 0.536814 0.094171
O O6 0.793859 0.573162 0.084631
O O7 0.811730 0.184741 0.551521
O O8 0.647758 0.252161 0.455861
O O9 0.840622 0.831861 0.239227
O O10 0.916694 0.686740 0.329183
O O11 0.992947 0.852655 0.378464
#
# Coordination Sequence:
#
# PCOD8159128 Si02
#       6
#     4   8   8   8   8   8
#     4  12  24  36  62  90 122 156 206 244 294 342
#     4  10  21  36  61  90 118 151 200 245 292 350
#     4  11  20  36  62  87 112 150 202 242 287 348
#     4  11  22  41  64  82 122 160 195 240 304 356
#     4  11  23  41  59  89 121 160 196 242 297 364
#     4  11  20  38  62  89 119 158 197 248 298 345
#
# _framework density 19.269846000000001
#
# number of rings (size 3 to 8) (size 9 to 14) (size 15 to 20)
#    0.000    1.091    5.455    3.273    0.000    1.455 
#    0.000    0.000    0.000    6.545    0.000    0.000 
#    0.000    0.000    0.000    0.000    0.000    0.000 
#
# Total GULP energy -272692.020803 kJ/mol
# GULP energy per Si atom -12395.091855 kJ/mol
# Density = 1.922599 g / cm^3
# Si number density = 19.269846 Si / 1000 Ang^3
#
#
#
# Elastic Constant Matrix: (Units=GPa)
#
#
# Indices 1 2 3 4 5 6 
#
# 1 97.9720 30.1508 43.0868 0.0000 0.0000 0.0000
# 2 30.1508 58.5009 11.5613 0.0000 0.0000 0.0000
# 3 43.0868 11.5613 88.0310 0.0000 0.0000 0.0000
# 4 0.0000 0.0000 0.0000 38.6213 0.0000 0.0000
# 5 0.0000 0.0000 0.0000 0.0000 38.8459 0.0000
# 6 0.0000 0.0000 0.0000 0.0000 0.0000 27.5513
#
#
#
# Elastic Compliance Matrix: (Units=1/GPa)
#
#
# Indices 1 2 3 4 5 6 
#
# 1 0.015070 -0.006477 -0.006525 0.000000 0.000000 0.000000
# 2 -0.006477 0.020333 0.000500 0.000000 0.000000 0.000000
# 3 -0.006525 0.000500 0.014488 0.000000 0.000000 0.000000
# 4 0.000000 0.000000 0.000000 0.025892 0.000000 0.000000
# 5 0.000000 0.000000 0.000000 0.000000 0.025743 0.000000
# 6 0.000000 0.000000 0.000000 0.000000 0.000000 0.036296
#
#
# Mechanical properties :
#
#
# Convention : Reuss Voigt Hill
#
# Bulk Modulus (GPa) = 40.18384 46.01127 43.09755
# Shear Modulus (GPa) = 29.21866 31.65071 30.43468
#
# Velocity S-wave (km/s) = 3.89818 4.05717 3.97847
# Velocity P-wave (km/s) = 6.41557 6.77324 6.59683
#
# Compressibility (1/GPa) = 0.02488563
#
# Stress axis : x y z
#
# Youngs Moduli (GPa) = 66.35601 49.18023 69.02341
#
# Poissons Ratio (x) = 0.31856 0.45041
# Poissons Ratio (y) = 0.42982 -0.03451
# Poissons Ratio (z) = 0.43300 -0.02459
#
# Static dielectric constant tensor:
#      x y z
#    x 3.448200 0.000000 0.000000 
#    y 0.000000 3.405450 0.000000 
#    z 0.000000 0.000000 3.626770 
# 
# 
# High freq. dielectric constant tensor:
#      x y z
#    x 1.740730 0.000000 0.000000 
#    y 0.000000 1.742780 0.000000 
#    z 0.000000 0.000000 1.762450 
# 
# From -- ./inp_files/19873.got.cif
#   From: 2010.03.12/outbox.cif.g09.slc.cpg/sg20_10_cif.got.tgz:19873.got - 2010.04.14 01:38:04.
