data_PCOD8159672
_publ_section_title
;
Structure prediction by ZEFSAII (Michael W. Deem and Ramdas Pophale) SiO2 
 PCOD8159672
Probable space group: C 2 2 21
;
_chemical_formula_sum "Si O2"
_cell_formula_units_Z 64
_cell_length_a 18.457941
_cell_length_b 18.463354
_cell_length_c 8.747256
_cell_angle_alpha 90.000000
_cell_angle_beta 90.000000
_cell_angle_gamma 90.000000
_cell_volume 2981.025472
_symmetry_space_group_name_H-M "C 2 2 21"
_symmetry_group_IT_number 20
_symmetry_cell_setting 'orthorhombic'
loop_
_space_group_symop_operation_xyz
x,y,z
-x,-y,1/2+z
x,-y,-z
-x,y,1/2-z
1/2+x,1/2+y,z
1/2-x,1/2-y,1/2+z
1/2+x,1/2-y,-z
1/2-x,1/2+y,1/2-z
loop_
_atom_site_type_symbol
_atom_site_label
_atom_site_fract_x
_atom_site_fract_y
_atom_site_fract_z
Si Si1 0.795587 0.809301 0.916356
Si Si2 0.575610 0.305143 0.807647
Si Si3 0.165029 0.586371 0.479421
Si Si4 0.926183 0.831108 0.338090
Si Si5 0.693226 0.560984 0.884302
Si Si6 0.715581 0.933433 0.098804
Si Si7 0.080537 0.362777 0.246544
Si Si8 0.833666 0.714209 0.203076
O O1 0.860223 0.834641 0.801865
O O2 0.734263 0.771350 0.813215
O O3 0.766908 0.877830 0.009843
O O4 0.821751 0.749276 0.036293
O O5 0.500000 0.336945 0.750000
O O6 0.575895 0.219082 0.809109
O O7 0.577085 0.334244 0.979554
O O8 0.151256 0.500000 0.500000
O O9 0.249030 0.606736 0.515150
O O10 0.109566 0.630615 0.582904
O O11 0.152461 0.626724 0.315344
O O12 0.867679 0.892759 0.297220
O O13 0.903462 0.751923 0.278419
O O14 0.000000 0.852249 0.250000
O O15 0.744162 0.531818 0.746616
O O16 0.660714 0.500000 0.000000
O O17 0.637352 0.900240 0.134670
O O18 0.693182 0.000000 0.000000
O O19 0.000000 0.397816 0.250000
#
# Coordination Sequence:
#
# PCOD8159672 Si02
#       8
#     8   8   8   8   8   8   8   8
#     4  12  23  40  69 102 137 182 236 299 353 432
#     4  11  24  43  68  98 137 183 224 292 369 418
#     4  10  22  40  67  97 132 182 229 280 350 426
#     4  12  26  44  69 104 135 179 240 298 363 440
#     4  10  23  46  69  96 138 184 225 294 360 430
#     4  11  25  41  68 105 133 178 243 288 346 422
#     4  10  22  42  65  93 139 183 222 279 347 418
#     4  12  23  40  67 100 137 176 232 291 353 418
#
# _framework density 21.469121999999999
#
# number of rings (size 3 to 8) (size 9 to 14) (size 15 to 20)
#    0.000    1.000    2.500    4.500    8.750    0.500 
#    0.000    1.875    0.000    0.000    0.000    0.000 
#    0.000    0.000    0.000    0.000    0.000    0.000 
#
# Total GULP energy -396461.575185 kJ/mol
# GULP energy per Si atom -12389.424225 kJ/mol
# Density = 2.142026 g / cm^3
# Si number density = 21.469122 Si / 1000 Ang^3
#
#
#
# Elastic Constant Matrix: (Units=GPa)
#
#
# Indices 1 2 3 4 5 6 
#
# 1 128.5273 38.4923 34.1820 0.0000 0.0000 0.0000
# 2 38.4923 75.5451 23.9008 0.0000 0.0000 0.0000
# 3 34.1820 23.9008 104.9134 0.0000 0.0000 0.0000
# 4 0.0000 0.0000 0.0000 37.8436 0.0000 0.0000
# 5 0.0000 0.0000 0.0000 0.0000 37.8100 0.0000
# 6 0.0000 0.0000 0.0000 0.0000 0.0000 9.9052
#
#
#
# Elastic Compliance Matrix: (Units=1/GPa)
#
#
# Indices 1 2 3 4 5 6 
#
# 1 0.009621 -0.004214 -0.002175 0.000000 0.000000 0.000000
# 2 -0.004214 0.016111 -0.002297 0.000000 0.000000 0.000000
# 3 -0.002175 -0.002297 0.010764 0.000000 0.000000 0.000000
# 4 0.000000 0.000000 0.000000 0.026425 0.000000 0.000000
# 5 0.000000 0.000000 0.000000 0.000000 0.026448 0.000000
# 6 0.000000 0.000000 0.000000 0.000000 0.000000 0.100957
#
#
# Mechanical properties :
#
#
# Convention : Reuss Voigt Hill
#
# Bulk Modulus (GPa) = 52.29161 55.79289 54.04225
# Shear Modulus (GPa) = 23.35667 31.27246 27.31457
#
# Velocity S-wave (km/s) = 3.30194 3.82072 3.57076
# Velocity P-wave (km/s) = 6.24072 6.74594 6.49824
#
# Compressibility (1/GPa) = 0.01912352
#
# Stress axis : x y z
#
# Youngs Moduli (GPa) = 103.94096 62.06872 92.90630
#
# Poissons Ratio (x) = 0.26156 0.20203
# Poissons Ratio (y) = 0.43802 0.21344
# Poissons Ratio (z) = 0.22602 0.14259
#
# Static dielectric constant tensor:
#      x y z
#    x 4.056780 0.000000 0.000000 
#    y 0.000000 3.837370 0.000000 
#    z 0.000000 0.000000 4.189520 
# 
# 
# High freq. dielectric constant tensor:
#      x y z
#    x 1.839890 0.000000 0.000000 
#    y 0.000000 1.827070 0.000000 
#    z 0.000000 0.000000 1.858420 
# 
# From -- ./inp_files/9664.got.cif
#   From: 2010.03.12/outbox.cif.g09.slc.cpg/sg20_5_cif.got.tgz:9664.got - 2010.04.14 01:38:04.
