data_PCOD8159447
_publ_section_title
;
Structure prediction by ZEFSAII (Michael W. Deem and Ramdas Pophale) SiO2 
 PCOD8159447
Probable space group: C 2 2 21
;
_chemical_formula_sum "Si O2"
_cell_formula_units_Z 64
_cell_length_a 11.298179
_cell_length_b 16.519238
_cell_length_c 17.157174
_cell_angle_alpha 90.000000
_cell_angle_beta 90.000000
_cell_angle_gamma 90.000000
_cell_volume 3202.168766
_symmetry_space_group_name_H-M "C 2 2 21"
_symmetry_group_IT_number 20
_symmetry_cell_setting 'orthorhombic'
loop_
_space_group_symop_operation_xyz
x,y,z
-x,-y,1/2+z
x,-y,-z
-x,y,1/2-z
1/2+x,1/2+y,z
1/2-x,1/2-y,1/2+z
1/2+x,1/2-y,-z
1/2-x,1/2+y,1/2-z
loop_
_atom_site_type_symbol
_atom_site_label
_atom_site_fract_x
_atom_site_fract_y
_atom_site_fract_z
Si Si1 0.118424 0.177342 0.936075
Si Si2 0.699389 0.111005 0.847433
Si Si3 0.479562 0.190610 0.157370
Si Si4 0.000345 0.507599 0.342640
Si Si5 0.072210 0.048318 0.571294
Si Si6 0.765808 0.567937 0.822070
Si Si7 0.581207 0.565681 0.178314
Si Si8 0.287987 0.713831 0.398408
O O1 0.199363 0.129282 0.876749
O O2 0.070246 0.255394 0.891214
O O3 0.009745 0.120397 0.962300
O O4 0.200710 0.201523 0.008820
O O5 0.830997 0.087743 0.873358
O O6 0.694580 0.117099 0.754101
O O7 0.660027 0.197581 0.880411
O O8 0.608150 0.043159 0.878548
O O9 0.500000 0.204567 0.250000
O O10 0.509463 0.099859 0.129951
O O11 0.345641 0.210526 0.133026
O O12 0.123093 0.467288 0.370739
O O13 0.000000 0.505134 0.250000
O O14 0.132629 0.000000 0.500000
O O15 0.993433 0.983185 0.615632
O O16 0.687532 0.491894 0.793217
O O17 0.500000 0.591115 0.250000
O O18 0.632149 0.647998 0.144057
#
# Coordination Sequence:
#
# PCOD8159447 Si02
#       8
#     8   8   8   8   8   8   8   8
#     4  11  25  40  66  98 133 173 221 282 340 403
#     4  11  23  42  67  96 136 174 221 283 335 405
#     4  11  23  45  72  99 133 184 233 275 338 420
#     4   9  21  41  66  95 129 167 219 270 329 398
#     4  11  22  41  64  96 135 172 223 277 340 401
#     4  10  21  42  68  96 125 175 228 273 334 407
#     4  11  22  39  70  97 124 174 232 276 331 404
#     4  12  25  43  63 103 140 173 224 288 344 407
#
# _framework density 19.986454999999999
#
# number of rings (size 3 to 8) (size 9 to 14) (size 15 to 20)
#    0.000    1.250    5.000    0.750    0.000    3.500 
#    0.000    5.000    0.000    0.000    0.000    0.000 
#    0.000    0.000    0.000    0.000    0.000    0.000 
#
# Total GULP energy -396837.127875 kJ/mol
# GULP energy per Si atom -12401.160246 kJ/mol
# Density = 1.994097 g / cm^3
# Si number density = 19.986455 Si / 1000 Ang^3
#
#
#
# Elastic Constant Matrix: (Units=GPa)
#
#
# Indices 1 2 3 4 5 6 
#
# 1 113.6796 57.6895 41.4725 0.0000 0.0000 0.0000
# 2 57.6895 159.0350 47.9539 0.0000 0.0000 0.0000
# 3 41.4725 47.9539 83.9785 0.0000 0.0000 0.0000
# 4 0.0000 0.0000 0.0000 4.4546 0.0000 0.0000
# 5 0.0000 0.0000 0.0000 0.0000 28.6625 0.0000
# 6 0.0000 0.0000 0.0000 0.0000 0.0000 25.9949
#
#
#
# Elastic Compliance Matrix: (Units=1/GPa)
#
#
# Indices 1 2 3 4 5 6 
#
# 1 0.011846 -0.003060 -0.004103 0.000000 0.000000 0.000000
# 2 -0.003060 0.008386 -0.003278 0.000000 0.000000 0.000000
# 3 -0.004103 -0.003278 0.015806 0.000000 0.000000 0.000000
# 4 0.000000 0.000000 0.000000 0.224487 0.000000 0.000000
# 5 0.000000 0.000000 0.000000 0.000000 0.034889 0.000000
# 6 0.000000 0.000000 0.000000 0.000000 0.000000 0.038469
#
#
# Mechanical properties :
#
#
# Convention : Reuss Voigt Hill
#
# Bulk Modulus (GPa) = 65.97559 72.32500 69.15029
# Shear Modulus (GPa) = 13.89597 25.79420 19.84509
#
# Velocity S-wave (km/s) = 2.63966 3.59637 3.15449
# Velocity P-wave (km/s) = 6.50939 7.31510 6.92398
#
# Compressibility (1/GPa) = 0.01515712
#
# Stress axis : x y z
#
# Youngs Moduli (GPa) = 84.41384 119.24283 63.26877
#
# Poissons Ratio (x) = 0.36489 0.25959
# Poissons Ratio (y) = 0.25831 0.20737
# Poissons Ratio (z) = 0.34634 0.39082
#
# Static dielectric constant tensor:
#      x y z
#    x 3.794740 0.000000 0.000000 
#    y 0.000000 3.897860 0.000000 
#    z 0.000000 0.000000 3.623790 
# 
# 
# High freq. dielectric constant tensor:
#      x y z
#    x 1.783880 0.000000 0.000000 
#    y 0.000000 1.795080 0.000000 
#    z 0.000000 0.000000 1.768830 
# 
# From -- ./inp_files/20282.got.cif
#   From: 2010.03.12/outbox.cif.g09.slc.cpg/sg20_11_cif.got.tgz:20282.got - 2010.04.14 01:38:04.
