data_PCOD8159891
_publ_section_title
;
Structure prediction by ZEFSAII (Michael W. Deem and Ramdas Pophale) SiO2 
 PCOD8159891
Probable space group: C 2 2 21
;
_chemical_formula_sum "Si O2"
_cell_formula_units_Z 48
_cell_length_a 16.815626
_cell_length_b 8.904180
_cell_length_c 13.750888
_cell_angle_alpha 90.000000
_cell_angle_beta 90.000000
_cell_angle_gamma 90.000000
_cell_volume 2058.911670
_symmetry_space_group_name_H-M "C 2 2 21"
_symmetry_group_IT_number 20
_symmetry_cell_setting 'orthorhombic'
loop_
_space_group_symop_operation_xyz
x,y,z
-x,-y,1/2+z
x,-y,-z
-x,y,1/2-z
1/2+x,1/2+y,z
1/2-x,1/2-y,1/2+z
1/2+x,1/2-y,-z
1/2-x,1/2+y,1/2-z
loop_
_atom_site_type_symbol
_atom_site_label
_atom_site_fract_x
_atom_site_fract_y
_atom_site_fract_z
Si Si1 0.664137 0.032040 0.310952
Si Si2 0.500000 0.538040 0.750000
Si Si3 0.830920 0.000000 0.000000
Si Si4 0.093223 0.500000 0.500000
Si Si5 0.500000 0.938932 0.250000
Si Si6 0.742328 0.167673 0.839787
Si Si7 0.926091 0.200037 0.376763
Si Si8 0.531569 0.695493 0.548296
O O1 0.693011 0.203529 0.320174
O O2 0.652801 0.949742 0.414407
O O3 0.578644 0.040700 0.257260
O O4 0.725224 0.921320 0.258728
O O5 0.569627 0.433651 0.796277
O O6 0.532595 0.636035 0.659415
O O7 0.774504 0.036397 0.909503
O O8 0.890894 0.140743 0.012736
O O9 0.036756 0.375130 0.549809
O O10 0.487192 0.832728 0.344831
O O11 0.663988 0.244174 0.884767
O O12 0.954826 0.145615 0.484098
#
# Coordination Sequence:
#
# PCOD8159891 Si02
#       8
#     8   4   4   4   4   8   8   8
#     4  11  25  47  73 111 143 203 245 312 375 449
#     4  11  24  45  82 114 146 192 268 306 376 454
#     4  12  26  51  71 110 146 208 234 310 384 441
#     4  12  26  47  73 106 152 202 248 306 382 445
#     4   9  20  43  76 102 148 198 256 294 366 456
#     4  11  28  46  76 110 154 191 248 318 378 452
#     4  10  22  46  77 110 146 196 245 318 371 439
#     4  12  25  49  80 108 150 201 254 314 367 464
#
# _framework density 23.313288
#
# number of rings (size 3 to 8) (size 9 to 14) (size 15 to 20)
#    0.000    1.000    5.000    0.000    4.667    1.333 
#    6.000    1.667    0.000    0.000    0.000    0.000 
#    0.000    0.000    0.000    0.000    0.000    0.000 
#
# Total GULP energy -297430.621964 kJ/mol
# GULP energy per Si atom -12392.942582 kJ/mol
# Density = 2.326023 g / cm^3
# Si number density = 23.313288 Si / 1000 Ang^3
#
#
#
# Elastic Constant Matrix: (Units=GPa)
#
#
# Indices 1 2 3 4 5 6 
#
# 1 119.9662 52.8430 57.3313 0.0000 0.0000 0.0000
# 2 52.8430 132.9079 67.4359 0.0000 0.0000 0.0000
# 3 57.3313 67.4359 166.9692 0.0000 0.0000 0.0000
# 4 0.0000 0.0000 0.0000 38.6186 0.0000 0.0000
# 5 0.0000 0.0000 0.0000 0.0000 33.7150 0.0000
# 6 0.0000 0.0000 0.0000 0.0000 0.0000 36.7088
#
#
#
# Elastic Compliance Matrix: (Units=1/GPa)
#
#
# Indices 1 2 3 4 5 6 
#
# 1 0.010877 -0.003056 -0.002500 0.000000 0.000000 0.000000
# 2 -0.003056 0.010322 -0.003120 0.000000 0.000000 0.000000
# 3 -0.002500 -0.003120 0.008108 0.000000 0.000000 0.000000
# 4 0.000000 0.000000 0.000000 0.025894 0.000000 0.000000
# 5 0.000000 0.000000 0.000000 0.000000 0.029660 0.000000
# 6 0.000000 0.000000 0.000000 0.000000 0.000000 0.027241
#
#
# Mechanical properties :
#
#
# Convention : Reuss Voigt Hill
#
# Bulk Modulus (GPa) = 83.65055 86.11819 84.88437
# Shear Modulus (GPa) = 37.47045 37.95736 37.71390
#
# Velocity S-wave (km/s) = 4.01341 4.03940 4.02643
# Velocity P-wave (km/s) = 7.57863 7.66651 7.62270
#
# Compressibility (1/GPa) = 0.01195449
#
# Stress axis : x y z
#
# Youngs Moduli (GPa) = 91.94005 96.88269 123.34045
#
# Poissons Ratio (x) = 0.29605 0.30841
# Poissons Ratio (y) = 0.28094 0.38477
# Poissons Ratio (z) = 0.22990 0.30223
#
# Static dielectric constant tensor:
#      x y z
#    x 4.025820 0.000000 0.000000 
#    y 0.000000 4.293560 0.000000 
#    z 0.000000 0.000000 4.474680 
# 
# 
# High freq. dielectric constant tensor:
#      x y z
#    x 1.909540 0.000000 0.000000 
#    y 0.000000 1.930360 0.000000 
#    z 0.000000 0.000000 1.929120 
# 
# From -- ./inp_files/21355.got.cif
#   From: 2010.03.12/outbox.cif.g09.slc.cpg/sg20_11_cif.got.tgz:21355.got - 2010.04.14 01:38:04.
