data_PCOD8159524
_publ_section_title
;
Structure prediction by ZEFSAII (Michael W. Deem and Ramdas Pophale) SiO2 
 PCOD8159524
Probable space group: C 2 2 21
;
_chemical_formula_sum "Si O2"
_cell_formula_units_Z 48
_cell_length_a 26.645934
_cell_length_b 5.944481
_cell_length_c 14.719760
_cell_angle_alpha 90.000000
_cell_angle_beta 90.000000
_cell_angle_gamma 90.000000
_cell_volume 2331.554761
_symmetry_space_group_name_H-M "C 2 2 21"
_symmetry_group_IT_number 20
_symmetry_cell_setting 'orthorhombic'
loop_
_space_group_symop_operation_xyz
x,y,z
-x,-y,1/2+z
x,-y,-z
-x,y,1/2-z
1/2+x,1/2+y,z
1/2-x,1/2-y,1/2+z
1/2+x,1/2-y,-z
1/2-x,1/2+y,1/2-z
loop_
_atom_site_type_symbol
_atom_site_label
_atom_site_fract_x
_atom_site_fract_y
_atom_site_fract_z
Si Si1 0.610342 0.354279 0.877614
Si Si2 0.956889 0.762011 0.325075
Si Si3 0.701189 0.340802 0.118009
Si Si4 0.705234 0.112927 0.403981
Si Si5 0.439645 0.000000 0.500000
Si Si6 0.744455 0.500000 0.500000
Si Si7 0.858045 0.531896 0.257693
O O1 0.558589 0.482459 0.850429
O O2 0.650915 0.531953 0.912866
O O3 0.597444 0.185942 0.958890
O O4 0.635601 0.223932 0.792355
O O5 0.971354 0.617678 0.417231
O O6 0.910072 0.653130 0.275102
O O7 0.000000 0.763456 0.250000
O O8 0.745448 0.512020 0.147164
O O9 0.688588 0.162815 0.196376
O O10 0.720183 0.203598 0.030920
O O11 0.710868 0.384813 0.419813
O O12 0.655399 0.046411 0.348193
O O13 0.695859 0.000000 0.500000
#
# Coordination Sequence:
#
# PCOD8159524 Si02
#       7
#     8   8   8   8   4   4   8
#     4  10  22  38  63  94 125 161 211 259 314 372
#     4  10  23  43  66  96 127 161 210 266 325 378
#     4  10  22  33  58  89 125 164 205 249 304 358
#     4  10  23  38  56  84 124 169 209 250 303 372
#     4  10  22  41  68  96 130 160 208 264 327 380
#     4  10  22  37  54  84 126 166 206 248 299 362
#     4  10  23  39  61  89 121 164 206 256 308 374
#
# _framework density 20.587121
#
# number of rings (size 3 to 8) (size 9 to 14) (size 15 to 20)
#    0.000    2.000    0.000    1.500    4.667   26.667 
#    1.500    0.000    3.667    0.000    0.000    0.000 
#    0.000    0.000    0.000    0.000    0.000    0.000 
#
# Total GULP energy -297444.836285 kJ/mol
# GULP energy per Si atom -12393.534845 kJ/mol
# Density = 2.054026 g / cm^3
# Si number density = 20.587121 Si / 1000 Ang^3
#
#
#
# Elastic Constant Matrix: (Units=GPa)
#
#
# Indices 1 2 3 4 5 6 
#
# 1 76.0969 38.8065 61.8280 0.0000 0.0000 0.0000
# 2 38.8065 130.6390 55.4612 0.0000 0.0000 0.0000
# 3 61.8280 55.4612 125.1246 0.0000 0.0000 0.0000
# 4 0.0000 0.0000 0.0000 30.6786 0.0000 0.0000
# 5 0.0000 0.0000 0.0000 0.0000 30.9072 0.0000
# 6 0.0000 0.0000 0.0000 0.0000 0.0000 18.8323
#
#
#
# Elastic Compliance Matrix: (Units=1/GPa)
#
#
# Indices 1 2 3 4 5 6 
#
# 1 0.022563 -0.002426 -0.010074 0.000000 0.000000 0.000000
# 2 -0.002426 0.009690 -0.003096 0.000000 0.000000 0.000000
# 3 -0.010074 -0.003096 0.014342 0.000000 0.000000 0.000000
# 4 0.000000 0.000000 0.000000 0.032596 0.000000 0.000000
# 5 0.000000 0.000000 0.000000 0.000000 0.032355 0.000000
# 6 0.000000 0.000000 0.000000 0.000000 0.000000 0.053100
#
#
# Mechanical properties :
#
#
# Convention : Reuss Voigt Hill
#
# Bulk Modulus (GPa) = 64.92133 71.56132 68.24132
# Shear Modulus (GPa) = 24.87895 27.80125 26.34010
#
# Velocity S-wave (km/s) = 3.48008 3.67879 3.58081
# Velocity P-wave (km/s) = 6.91023 7.27189 7.09337
#
# Compressibility (1/GPa) = 0.01540326
#
# Stress axis : x y z
#
# Youngs Moduli (GPa) = 44.32003 103.20190 69.72345
#
# Poissons Ratio (x) = 0.25033 0.70239
# Poissons Ratio (y) = 0.10750 0.21589
# Poissons Ratio (z) = 0.44648 0.31955
#
# Static dielectric constant tensor:
#      x y z
#    x 3.394310 0.000000 0.000000 
#    y 0.000000 4.483650 0.000000 
#    z 0.000000 0.000000 3.786440 
# 
# 
# High freq. dielectric constant tensor:
#      x y z
#    x 1.765170 0.000000 0.000000 
#    y 0.000000 1.826790 0.000000 
#    z 0.000000 0.000000 1.800350 
# 
# From -- ./inp_files/22254.got.cif
#   From: 2010.03.12/outbox.cif.g09.slc.cpg/sg20_12_cif.got.tgz:22254.got - 2010.04.14 01:38:04.
