data_PCOD8159617
_publ_section_title
;
Structure prediction by ZEFSAII (Michael W. Deem and Ramdas Pophale) SiO2 
 PCOD8159617
Probable space group: C 2 2 21
;
_chemical_formula_sum "Si O2"
_cell_formula_units_Z 48
_cell_length_a 22.796692
_cell_length_b 9.366747
_cell_length_c 10.830292
_cell_angle_alpha 90.000000
_cell_angle_beta 90.000000
_cell_angle_gamma 90.000000
_cell_volume 2312.601418
_symmetry_space_group_name_H-M "C 2 2 21"
_symmetry_group_IT_number 20
_symmetry_cell_setting 'orthorhombic'
loop_
_space_group_symop_operation_xyz
x,y,z
-x,-y,1/2+z
x,-y,-z
-x,y,1/2-z
1/2+x,1/2+y,z
1/2-x,1/2-y,1/2+z
1/2+x,1/2-y,-z
1/2-x,1/2+y,1/2-z
loop_
_atom_site_type_symbol
_atom_site_label
_atom_site_fract_x
_atom_site_fract_y
_atom_site_fract_z
Si Si1 0.847309 0.215196 0.923810
Si Si2 0.346162 0.591184 0.184239
Si Si3 0.435908 0.200715 0.712481
Si Si4 0.771064 0.134048 0.413725
Si Si5 0.430746 0.115536 0.229731
Si Si6 0.131074 0.658222 0.020930
O O1 0.787854 0.284871 0.874890
O O2 0.904565 0.313476 0.894998
O O3 0.861327 0.066695 0.858034
O O4 0.834896 0.194827 0.068592
O O5 0.400274 0.659246 0.254521
O O6 0.292379 0.585064 0.278962
O O7 0.500000 0.246211 0.750000
O O8 0.426308 0.174339 0.566632
O O9 0.418956 0.053818 0.782477
O O10 0.817696 0.231975 0.486413
O O11 0.756512 0.000000 0.500000
O O12 0.500000 0.146760 0.250000
O O13 0.392379 0.183238 0.341105
O O14 0.157745 0.500000 0.000000
#
# Coordination Sequence:
#
# PCOD8159617 Si02
#       6
#     8   8   8   8   8   8
#     4  11  26  41  63  94 131 167 216 276 327 396
#     4  10  25  43  60  94 130 166 217 270 331 395
#     4   9  20  39  66  92 126 169 218 272 323 393
#     4  11  25  41  67  93 123 178 216 271 330 403
#     4  10  22  39  65  97 128 171 221 272 327 392
#     4   9  20  39  61  91 128 169 214 268 331 388
#
# _framework density 20.755846999999999
#
# number of rings (size 3 to 8) (size 9 to 14) (size 15 to 20)
#    0.000    2.000    0.000    1.000   11.667    2.000 
#    0.000    0.000    0.000    0.000    0.000    0.000 
#    0.000    0.000    0.000    0.000    0.000    0.000 
#
# Total GULP energy -297515.973829 kJ/mol
# GULP energy per Si atom -12396.498910 kJ/mol
# Density = 2.070861 g / cm^3
# Si number density = 20.755847 Si / 1000 Ang^3
#
#
#
# Elastic Constant Matrix: (Units=GPa)
#
#
# Indices 1 2 3 4 5 6 
#
# 1 96.7762 31.9647 17.1902 0.0000 0.0000 0.0000
# 2 31.9647 82.0526 33.1045 0.0000 0.0000 0.0000
# 3 17.1902 33.1045 88.4830 0.0000 0.0000 0.0000
# 4 0.0000 0.0000 0.0000 27.5048 0.0000 0.0000
# 5 0.0000 0.0000 0.0000 0.0000 20.1055 0.0000
# 6 0.0000 0.0000 0.0000 0.0000 0.0000 22.7072
#
#
#
# Elastic Compliance Matrix: (Units=1/GPa)
#
#
# Indices 1 2 3 4 5 6 
#
# 1 0.011894 -0.004359 -0.000680 0.000000 0.000000 0.000000
# 2 -0.004359 0.015952 -0.005121 0.000000 0.000000 0.000000
# 3 -0.000680 -0.005121 0.013350 0.000000 0.000000 0.000000
# 4 0.000000 0.000000 0.000000 0.036357 0.000000 0.000000
# 5 0.000000 0.000000 0.000000 0.000000 0.049738 0.000000
# 6 0.000000 0.000000 0.000000 0.000000 0.000000 0.044039
#
#
# Mechanical properties :
#
#
# Convention : Reuss Voigt Hill
#
# Bulk Modulus (GPa) = 47.90448 47.98119 47.94283
# Shear Modulus (GPa) = 25.17535 26.40034 25.78784
#
# Velocity S-wave (km/s) = 3.48649 3.57031 3.52865
# Velocity P-wave (km/s) = 6.27197 6.33745 6.30479
#
# Compressibility (1/GPa) = 0.02087487
#
# Stress axis : x y z
#
# Youngs Moduli (GPa) = 84.07850 62.68962 74.90814
#
# Poissons Ratio (x) = 0.27327 0.05092
# Poissons Ratio (y) = 0.36650 0.38362
# Poissons Ratio (z) = 0.05716 0.32104
#
# Static dielectric constant tensor:
#      x y z
#    x 3.674910 0.000000 0.000000 
#    y 0.000000 3.798290 0.000000 
#    z 0.000000 0.000000 3.993010 
# 
# 
# High freq. dielectric constant tensor:
#      x y z
#    x 1.804260 0.000000 0.000000 
#    y 0.000000 1.818520 0.000000 
#    z 0.000000 0.000000 1.819630 
# 
# From -- ./inp_files/16645.got.cif
#   From: 2010.03.12/outbox.cif.g09.slc.cpg/sg20_9_cif.got.tgz:16645.got - 2010.04.14 01:38:04.
