data_PCOD8159568
_publ_section_title
;
Structure prediction by ZEFSAII (Michael W. Deem and Ramdas Pophale) SiO2 
 PCOD8159568
Probable space group: C 2 2 21
;
_chemical_formula_sum "Si O2"
_cell_formula_units_Z 44
_cell_length_a 11.935562
_cell_length_b 16.204198
_cell_length_c 11.282793
_cell_angle_alpha 90.000000
_cell_angle_beta 90.000000
_cell_angle_gamma 90.000000
_cell_volume 2182.162231
_symmetry_space_group_name_H-M "C 2 2 21"
_symmetry_group_IT_number 20
_symmetry_cell_setting 'orthorhombic'
loop_
_space_group_symop_operation_xyz
x,y,z
-x,-y,1/2+z
x,-y,-z
-x,y,1/2-z
1/2+x,1/2+y,z
1/2-x,1/2-y,1/2+z
1/2+x,1/2-y,-z
1/2-x,1/2+y,1/2-z
loop_
_atom_site_type_symbol
_atom_site_label
_atom_site_fract_x
_atom_site_fract_y
_atom_site_fract_z
Si Si1 0.413001 0.763245 0.659737
Si Si2 0.933221 0.023612 0.366314
Si Si3 0.000000 0.579089 0.250000
Si Si4 0.335003 0.217396 0.803636
Si Si5 0.041932 0.789068 0.904784
Si Si6 0.181020 0.528838 0.629305
O O1 0.500000 0.718405 0.750000
O O2 0.452607 0.859345 0.646439
O O3 0.287522 0.756717 0.708699
O O4 0.416332 0.714928 0.537781
O O5 0.928338 0.121679 0.355010
O O6 0.000000 0.989245 0.250000
O O7 0.980276 0.000000 0.500000
O O8 0.810345 0.988168 0.348378
O O9 0.104366 0.522566 0.282151
O O10 0.408917 0.271810 0.895509
O O11 0.391379 0.221632 0.673684
O O12 0.337231 0.125198 0.852139
O O13 0.143303 0.500000 0.500000
#
# Coordination Sequence:
#
# PCOD8159568 Si02
#       6
#     8   8   4   8   8   8
#     4  10  24  38  65  94 129 166 217 272 322 377
#     4  11  24  44  69  96 136 173 218 266 333 389
#     4  10  22  38  60  94 126 158 226 260 322 376
#     4  11  23  41  67  94 124 173 221 257 325 386
#     4  11  23  43  68  93 131 171 220 266 321 393
#     4  11  23  41  65  90 134 176 209 266 336 386
#
# _framework density 20.163485999999999
#
# number of rings (size 3 to 8) (size 9 to 14) (size 15 to 20)
#    0.545    0.727    1.818    5.455    2.545    2.909 
#    0.000    0.909    0.000    0.000    0.000    0.000 
#    0.000    0.000    0.000    0.000    0.000    0.000 
#
# Total GULP energy -272671.830897 kJ/mol
# GULP energy per Si atom -12394.174132 kJ/mol
# Density = 2.011759 g / cm^3
# Si number density = 20.163486 Si / 1000 Ang^3
#
#
#
# Elastic Constant Matrix: (Units=GPa)
#
#
# Indices 1 2 3 4 5 6 
#
# 1 107.5497 11.0778 42.6302 0.0000 0.0000 0.0000
# 2 11.0778 85.8951 17.8742 0.0000 0.0000 0.0000
# 3 42.6302 17.8742 124.6994 0.0000 0.0000 0.0000
# 4 0.0000 0.0000 0.0000 29.9784 0.0000 0.0000
# 5 0.0000 0.0000 0.0000 0.0000 30.2013 0.0000
# 6 0.0000 0.0000 0.0000 0.0000 0.0000 37.8462
#
#
#
# Elastic Compliance Matrix: (Units=1/GPa)
#
#
# Indices 1 2 3 4 5 6 
#
# 1 0.010790 -0.000643 -0.003596 0.000000 0.000000 0.000000
# 2 -0.000643 0.012038 -0.001506 0.000000 0.000000 0.000000
# 3 -0.003596 -0.001506 0.009465 0.000000 0.000000 0.000000
# 4 0.000000 0.000000 0.000000 0.033357 0.000000 0.000000
# 5 0.000000 0.000000 0.000000 0.000000 0.033111 0.000000
# 6 0.000000 0.000000 0.000000 0.000000 0.000000 0.026423
#
#
# Mechanical properties :
#
#
# Convention : Reuss Voigt Hill
#
# Bulk Modulus (GPa) = 48.07182 51.25650 49.66416
# Shear Modulus (GPa) = 34.81680 36.04263 35.42972
#
# Velocity S-wave (km/s) = 4.15990 4.23249 4.19635
# Velocity P-wave (km/s) = 6.85316 7.02574 6.93998
#
# Compressibility (1/GPa) = 0.02080221
#
# Stress axis : x y z
#
# Youngs Moduli (GPa) = 92.67989 83.06769 105.65677
#
# Poissons Ratio (x) = 0.05342 0.37999
# Poissons Ratio (y) = 0.05961 0.15909
# Poissons Ratio (z) = 0.33332 0.12507
#
# Static dielectric constant tensor:
#      x y z
#    x 3.780440 0.000000 0.000000 
#    y 0.000000 3.667840 0.000000 
#    z 0.000000 0.000000 3.395630 
# 
# 
# High freq. dielectric constant tensor:
#      x y z
#    x 1.796380 0.000000 0.000000 
#    y 0.000000 1.792160 0.000000 
#    z 0.000000 0.000000 1.782020 
# 
# From -- ./inp_files/14060.got.cif
#   From: 2010.03.12/outbox.cif.g09.slc.cpg/sg20_8_cif.got.tgz:14060.got - 2010.04.14 01:38:04.
