data_PCOD8159438
_publ_section_title
;
Structure prediction by ZEFSAII (Michael W. Deem and Ramdas Pophale) SiO2 
 PCOD8159438
Probable space group: C 2 2 21
;
_chemical_formula_sum "Si O2"
_cell_formula_units_Z 32
_cell_length_a 11.970947
_cell_length_b 9.380589
_cell_length_c 12.582618
_cell_angle_alpha 90.000000
_cell_angle_beta 90.000000
_cell_angle_gamma 90.000000
_cell_volume 1412.959222
_symmetry_space_group_name_H-M "C 2 2 21"
_symmetry_group_IT_number 20
_symmetry_cell_setting 'orthorhombic'
loop_
_space_group_symop_operation_xyz
x,y,z
-x,-y,1/2+z
x,-y,-z
-x,y,1/2-z
1/2+x,1/2+y,z
1/2-x,1/2-y,1/2+z
1/2+x,1/2-y,-z
1/2-x,1/2+y,1/2-z
loop_
_atom_site_type_symbol
_atom_site_label
_atom_site_fract_x
_atom_site_fract_y
_atom_site_fract_z
Si Si1 0.969577 0.257597 0.127148
Si Si2 0.236097 0.349936 0.828154
Si Si3 0.623698 0.397891 0.291162
Si Si4 0.585607 0.000000 0.000000
Si Si5 0.455938 0.500000 0.000000
O O1 0.007117 0.401968 0.072238
O O2 0.000000 0.260114 0.250000
O O3 0.835749 0.240825 0.118416
O O4 0.025786 0.118160 0.067788
O O5 0.287617 0.479311 0.757217
O O6 0.163393 0.255544 0.747545
O O7 0.158118 0.402360 0.922973
O O8 0.500000 0.432983 0.250000
O O9 0.621629 0.407351 0.419673
#
# Coordination Sequence:
#
# PCOD8159438 Si02
#       5
#     8   8   8   4   4
#     4  11  25  45  68 100 137 173 223 278 328 396
#     4  11  24  44  70  98 134 178 221 274 335 391
#     4  11  24  43  69 100 134 175 224 274 329 397
#     4  12  27  46  69 100 136 174 225 278 327 398
#     4  10  21  42  67  94 132 172 215 270 325 384
#
# _framework density 22.647504999999999
#
# number of rings (size 3 to 8) (size 9 to 14) (size 15 to 20)
#    0.000    1.000    0.000    9.000    0.000    7.000 
#    0.000   15.000    0.000    0.000    0.000    0.000 
#    0.000    0.000    0.000    0.000    0.000    0.000 
#
# Total GULP energy -198255.868668 kJ/mol
# GULP energy per Si atom -12390.991792 kJ/mol
# Density = 2.259596 g / cm^3
# Si number density = 22.647505 Si / 1000 Ang^3
#
#
#
# Elastic Constant Matrix: (Units=GPa)
#
#
# Indices 1 2 3 4 5 6 
#
# 1 69.0544 65.7894 46.2963 0.0000 0.0000 0.0000
# 2 65.7894 158.0598 111.1965 0.0000 0.0000 0.0000
# 3 46.2963 111.1965 170.2765 0.0000 0.0000 0.0000
# 4 0.0000 0.0000 0.0000 66.8371 0.0000 0.0000
# 5 0.0000 0.0000 0.0000 0.0000 19.3730 0.0000
# 6 0.0000 0.0000 0.0000 0.0000 0.0000 21.1526
#
#
#
# Elastic Compliance Matrix: (Units=1/GPa)
#
#
# Indices 1 2 3 4 5 6 
#
# 1 0.023998 -0.009986 -0.000003 0.000000 0.000000 0.000000
# 2 -0.009986 0.015859 -0.007641 0.000000 0.000000 0.000000
# 3 -0.000003 -0.007641 0.010864 0.000000 0.000000 0.000000
# 4 0.000000 0.000000 0.000000 0.014962 0.000000 0.000000
# 5 0.000000 0.000000 0.000000 0.000000 0.051618 0.000000
# 6 0.000000 0.000000 0.000000 0.000000 0.000000 0.047275
#
#
# Mechanical properties :
#
#
# Convention : Reuss Voigt Hill
#
# Bulk Modulus (GPa) = 64.68881 93.77281 79.23081
# Shear Modulus (GPa) = 24.39134 33.07977 28.73555
#
# Velocity S-wave (km/s) = 3.28533 3.82597 3.56591
# Velocity P-wave (km/s) = 6.55870 7.81106 7.21211
#
# Compressibility (1/GPa) = 0.01545862
#
# Stress axis : x y z
#
# Youngs Moduli (GPa) = 41.67074 63.05527 92.04866
#
# Poissons Ratio (x) = 0.62968 0.00031
# Poissons Ratio (y) = 0.41613 0.70338
# Poissons Ratio (z) = 0.00014 0.48183
#
# Static dielectric constant tensor:
#      x y z
#    x 4.140590 0.000000 0.000000 
#    y 0.000000 4.332650 0.000000 
#    z 0.000000 0.000000 4.436110 
# 
# 
# High freq. dielectric constant tensor:
#      x y z
#    x 1.878130 0.000000 0.000000 
#    y 0.000000 1.900590 0.000000 
#    z 0.000000 0.000000 1.905740 
# 
# From -- ./inp_files/19511.got.cif
#   From: 2010.03.12/outbox.cif.g09.slc.cpg/sg20_10_cif.got.tgz:19511.got - 2010.04.14 01:38:04.
