data_PCOD8159613
_publ_section_title
;
Structure prediction by ZEFSAII (Michael W. Deem and Ramdas Pophale) SiO2 
 PCOD8159613
Probable space group: C 2 2 21
;
_chemical_formula_sum "Si O2"
_cell_formula_units_Z 56
_cell_length_a 20.337891
_cell_length_b 13.185394
_cell_length_c 9.689136
_cell_angle_alpha 90.000000
_cell_angle_beta 90.000000
_cell_angle_gamma 90.000000
_cell_volume 2598.268804
_symmetry_space_group_name_H-M "C 2 2 21"
_symmetry_group_IT_number 20
_symmetry_cell_setting 'orthorhombic'
loop_
_space_group_symop_operation_xyz
x,y,z
-x,-y,1/2+z
x,-y,-z
-x,y,1/2-z
1/2+x,1/2+y,z
1/2-x,1/2-y,1/2+z
1/2+x,1/2-y,-z
1/2-x,1/2+y,1/2-z
loop_
_atom_site_type_symbol
_atom_site_label
_atom_site_fract_x
_atom_site_fract_y
_atom_site_fract_z
Si Si1 0.063789 0.112201 0.837874
Si Si2 0.631944 0.116597 0.966459
Si Si3 0.359591 0.119523 0.006799
Si Si4 0.168934 0.272344 0.770744
Si Si5 0.183952 0.731984 0.735596
Si Si6 0.493318 0.903334 0.093832
Si Si7 0.565165 0.375233 0.835257
O O1 0.128556 0.167660 0.777097
O O2 0.000000 0.148042 0.750000
O O3 0.076603 0.994062 0.808771
O O4 0.054774 0.139352 0.999944
O O5 0.668548 0.130086 0.822030
O O6 0.557247 0.161433 0.951987
O O7 0.670949 0.177553 0.080028
O O8 0.626388 0.000000 0.000000
O O9 0.309671 0.193183 0.923216
O O10 0.426222 0.156917 0.928835
O O11 0.365745 0.150361 0.165578
O O12 0.342204 0.000000 0.000000
O O13 0.243654 0.265593 0.719751
O O14 0.129996 0.817896 0.776206
O O15 0.500000 0.940453 0.250000
O O16 0.483755 0.000000 0.000000
O O17 0.500000 0.337237 0.750000
#
# Coordination Sequence:
#
# PCOD8159613 Si02
#       7
#     8   8   8   8   8   8   8
#     4  10  24  47  71 103 134 176 233 289 341 397
#     4  11  24  43  68  96 138 173 218 275 341 408
#     4  11  26  43  68  99 140 179 218 272 343 414
#     4  12  27  43  66 104 132 181 230 281 337 406
#     4  12  25  45  67 102 134 181 232 276 341 408
#     4  10  22  39  64  98 129 171 219 264 331 408
#     4  10  24  46  75  99 133 180 230 289 343 397
#
# _framework density 21.552811999999999
#
# number of rings (size 3 to 8) (size 9 to 14) (size 15 to 20)
#    0.000    1.143    2.857    1.714   12.000    2.286 
#    0.000    0.000    0.000    0.000    0.000    0.000 
#    0.000    0.000    0.000    0.000    0.000    0.000 
#
# Total GULP energy -347026.547934 kJ/mol
# GULP energy per Si atom -12393.805283 kJ/mol
# Density = 2.150376 g / cm^3
# Si number density = 21.552812 Si / 1000 Ang^3
#
#
#
# Elastic Constant Matrix: (Units=GPa)
#
#
# Indices 1 2 3 4 5 6 
#
# 1 136.1711 49.7499 45.4974 0.0000 0.0000 0.0000
# 2 49.7499 81.0956 39.8368 0.0000 0.0000 0.0000
# 3 45.4974 39.8368 95.1870 0.0000 0.0000 0.0000
# 4 0.0000 0.0000 0.0000 39.6745 0.0000 0.0000
# 5 0.0000 0.0000 0.0000 0.0000 30.1874 0.0000
# 6 0.0000 0.0000 0.0000 0.0000 0.0000 18.6377
#
#
#
# Elastic Compliance Matrix: (Units=1/GPa)
#
#
# Indices 1 2 3 4 5 6 
#
# 1 0.010021 -0.004777 -0.002791 0.000000 0.000000 0.000000
# 2 -0.004777 0.017799 -0.005166 0.000000 0.000000 0.000000
# 3 -0.002791 -0.005166 0.014002 0.000000 0.000000 0.000000
# 4 0.000000 0.000000 0.000000 0.025205 0.000000 0.000000
# 5 0.000000 0.000000 0.000000 0.000000 0.033126 0.000000
# 6 0.000000 0.000000 0.000000 0.000000 0.000000 0.053655
#
#
# Mechanical properties :
#
#
# Convention : Reuss Voigt Hill
#
# Bulk Modulus (GPa) = 61.14358 64.73577 62.93967
# Shear Modulus (GPa) = 27.06686 29.52454 28.29570
#
# Velocity S-wave (km/s) = 3.54763 3.70519 3.62726
# Velocity P-wave (km/s) = 6.72396 6.95742 6.84169
#
# Compressibility (1/GPa) = 0.01635495
#
# Stress axis : x y z
#
# Youngs Moduli (GPa) = 99.78634 56.18194 71.42037
#
# Poissons Ratio (x) = 0.26838 0.19932
# Poissons Ratio (y) = 0.47667 0.36895
# Poissons Ratio (z) = 0.27849 0.29023
#
# Static dielectric constant tensor:
#      x y z
#    x 4.145130 0.000000 0.000000 
#    y 0.000000 3.861000 0.000000 
#    z 0.000000 0.000000 4.038370 
# 
# 
# High freq. dielectric constant tensor:
#      x y z
#    x 1.846410 0.000000 0.000000 
#    y 0.000000 1.846120 0.000000 
#    z 0.000000 0.000000 1.864140 
# 
# From -- ./inp_files/10228.got.cif
#   From: 2010.03.12/outbox.cif.g09.slc.cpg/sg20_6_cif.got.tgz:10228.got - 2010.04.14 01:38:04.
