data_PCOD8159509
_publ_section_title
;
Structure prediction by ZEFSAII (Michael W. Deem and Ramdas Pophale) SiO2 
 PCOD8159509
Probable space group: C 2 2 21
;
_chemical_formula_sum "Si O2"
_cell_formula_units_Z 40
_cell_length_a 11.618282
_cell_length_b 10.252854
_cell_length_c 13.980616
_cell_angle_alpha 90.000000
_cell_angle_beta 90.000000
_cell_angle_gamma 90.000000
_cell_volume 1665.378654
_symmetry_space_group_name_H-M "C 2 2 21"
_symmetry_group_IT_number 20
_symmetry_cell_setting 'orthorhombic'
loop_
_space_group_symop_operation_xyz
x,y,z
-x,-y,1/2+z
x,-y,-z
-x,y,1/2-z
1/2+x,1/2+y,z
1/2-x,1/2-y,1/2+z
1/2+x,1/2-y,-z
1/2-x,1/2+y,1/2-z
loop_
_atom_site_type_symbol
_atom_site_label
_atom_site_fract_x
_atom_site_fract_y
_atom_site_fract_z
Si Si1 0.000000 0.689458 0.750000
Si Si2 0.833459 0.861693 0.642048
Si Si3 0.311662 0.237754 0.446508
Si Si4 0.316338 0.500000 0.000000
Si Si5 0.861225 0.457939 0.105613
Si Si6 0.007361 0.900764 0.135832
O O1 0.889722 0.783991 0.731015
O O2 0.972466 0.592436 0.837517
O O3 0.824626 0.756456 0.559237
O O4 0.706512 0.924173 0.661650
O O5 0.915987 0.976284 0.603283
O O6 0.263554 0.092066 0.433831
O O7 0.224050 0.337262 0.399230
O O8 0.435036 0.262820 0.395390
O O9 0.388349 0.415350 0.077695
O O10 0.901800 0.500000 0.000000
O O11 0.000000 0.902427 0.250000
#
# Coordination Sequence:
#
# PCOD8159509 Si02
#       6
#     4   8   8   4   8   8
#     4  12  22  42  80 102 136 196 238 282 364 418
#     4  10  21  44  71  99 142 183 237 295 347 419
#     4  10  23  44  72 103 143 187 240 294 358 424
#     4  12  24  46  78 100 144 202 232 292 372 424
#     4   9  22  45  70 105 149 184 229 302 352 413
#     4  11  22  44  78 106 142 194 242 292 362 428
#
# _framework density 24.018561999999999
#
# number of rings (size 3 to 8) (size 9 to 14) (size 15 to 20)
#    0.000    1.600    3.000    2.400    0.000    3.200 
#    1.800    2.000   15.400    0.000    0.000    0.000 
#    0.000    0.000    0.000    0.000    0.000    0.000 
#
# Total GULP energy -247905.331679 kJ/mol
# GULP energy per Si atom -12395.266584 kJ/mol
# Density = 2.396389 g / cm^3
# Si number density = 24.018562 Si / 1000 Ang^3
#
#
#
# Elastic Constant Matrix: (Units=GPa)
#
#
# Indices 1 2 3 4 5 6 
#
# 1 95.6652 70.4248 55.6373 0.0000 0.0000 0.0000
# 2 70.4248 105.9443 58.3941 0.0000 0.0000 0.0000
# 3 55.6373 58.3941 105.4232 0.0000 0.0000 0.0000
# 4 0.0000 0.0000 0.0000 32.8238 0.0000 0.0000
# 5 0.0000 0.0000 0.0000 0.0000 30.4029 0.0000
# 6 0.0000 0.0000 0.0000 0.0000 0.0000 40.1626
#
#
#
# Elastic Compliance Matrix: (Units=1/GPa)
#
#
# Indices 1 2 3 4 5 6 
#
# 1 0.022228 -0.011962 -0.005105 0.000000 0.000000 0.000000
# 2 -0.011962 0.020024 -0.004779 0.000000 0.000000 0.000000
# 3 -0.005105 -0.004779 0.014827 0.000000 0.000000 0.000000
# 4 0.000000 0.000000 0.000000 0.030466 0.000000 0.000000
# 5 0.000000 0.000000 0.000000 0.000000 0.032892 0.000000
# 6 0.000000 0.000000 0.000000 0.000000 0.000000 0.024899
#
#
# Mechanical properties :
#
#
# Convention : Reuss Voigt Hill
#
# Bulk Modulus (GPa) = 74.69521 75.10500 74.90011
# Shear Modulus (GPa) = 25.84128 28.84963 27.34546
#
# Velocity S-wave (km/s) = 3.28363 3.46951 3.37785
# Velocity P-wave (km/s) = 6.74854 6.88385 6.81653
#
# Compressibility (1/GPa) = 0.01338774
#
# Stress axis : x y z
#
# Youngs Moduli (GPa) = 44.98818 49.93959 67.44588
#
# Poissons Ratio (x) = 0.59737 0.34433
# Poissons Ratio (y) = 0.53814 0.32229
# Poissons Ratio (z) = 0.22967 0.23864
#
# Static dielectric constant tensor:
#      x y z
#    x 4.378190 0.000000 0.000000 
#    y 0.000000 4.309510 0.000000 
#    z 0.000000 0.000000 4.092070 
# 
# 
# High freq. dielectric constant tensor:
#      x y z
#    x 1.941860 0.000000 0.000000 
#    y 0.000000 1.947100 0.000000 
#    z 0.000000 0.000000 1.941540 
# 
# From -- ./inp_files/20524.got.cif
#   From: 2010.03.12/outbox.cif.g09.slc.cpg/sg20_11_cif.got.tgz:20524.got - 2010.04.14 01:38:04.
