data_PCOD8159958
_publ_section_title
;
Structure prediction by ZEFSAII (Michael W. Deem and Ramdas Pophale) SiO2 
 PCOD8159958
Probable space group: C 2 2 21
;
_chemical_formula_sum "Si O2"
_cell_formula_units_Z 52
_cell_length_a 24.619959
_cell_length_b 8.734215
_cell_length_c 11.781369
_cell_angle_alpha 90.000000
_cell_angle_beta 90.000000
_cell_angle_gamma 90.000000
_cell_volume 2533.418643
_symmetry_space_group_name_H-M "C 2 2 21"
_symmetry_group_IT_number 20
_symmetry_cell_setting 'orthorhombic'
loop_
_space_group_symop_operation_xyz
x,y,z
-x,-y,1/2+z
x,-y,-z
-x,y,1/2-z
1/2+x,1/2+y,z
1/2-x,1/2-y,1/2+z
1/2+x,1/2-y,-z
1/2-x,1/2+y,1/2-z
loop_
_atom_site_type_symbol
_atom_site_label
_atom_site_fract_x
_atom_site_fract_y
_atom_site_fract_z
Si Si1 0.139057 0.450233 0.376803
Si Si2 0.665427 0.275456 0.311963
Si Si3 0.047008 0.774573 0.661296
Si Si4 0.188943 0.000000 0.000000
Si Si5 0.242539 0.264875 0.357842
Si Si6 0.601707 0.503328 0.172472
Si Si7 0.298072 0.500000 0.000000
Si Si8 0.509769 0.500000 0.000000
O O1 0.158066 0.500000 0.500000
O O2 0.138875 0.608942 0.310940
O O3 0.078819 0.377858 0.375133
O O4 0.183184 0.330805 0.329012
O O5 0.726299 0.260378 0.262037
O O6 0.625477 0.349927 0.222643
O O7 0.666549 0.370710 0.431419
O O8 0.000000 0.728826 0.750000
O O9 0.026195 0.857715 0.545811
O O10 0.089358 0.882962 0.725291
O O11 0.226610 0.867856 0.049791
O O12 0.148540 0.077623 0.092921
O O13 0.237693 0.092497 0.407969
O O14 0.547515 0.451319 0.105587
#
# Coordination Sequence:
#
# PCOD8159958 Si02
#       8
#     8   8   8   4   8   8   4   4
#     4  12  24  41  59  90 129 159 204 258 309 364
#     4  11  24  39  62  95 125 166 205 252 311 383
#     4  10  23  42  64  89 120 162 207 262 317 370
#     4   9  18  38  60  93 130 157 194 255 310 366
#     4  11  22  39  62  91 129 167 204 249 310 377
#     4   9  20  38  68  92 119 158 207 255 310 386
#     4  12  22  37  60  87 126 169 208 245 300 368
#     4   9  20  43  68  92 116 156 212 264 318 370
#
# _framework density 20.525624000000001
#
# number of rings (size 3 to 8) (size 9 to 14) (size 15 to 20)
#    0.000    1.538    2.308    1.846    2.154    5.538 
#    2.769    0.000    0.000    0.000    0.000    0.000 
#    0.000    0.000    0.000    0.000    0.000    0.000 
#
# Total GULP energy -322299.086731 kJ/mol
# GULP energy per Si atom -12396.118720 kJ/mol
# Density = 2.047891 g / cm^3
# Si number density = 20.525624 Si / 1000 Ang^3
#
#
#
# Elastic Constant Matrix: (Units=GPa)
#
#
# Indices 1 2 3 4 5 6 
#
# 1 100.8240 51.5355 22.8019 0.0000 0.0000 0.0000
# 2 51.5355 114.3883 30.0026 0.0000 0.0000 0.0000
# 3 22.8019 30.0026 72.3563 0.0000 0.0000 0.0000
# 4 0.0000 0.0000 0.0000 26.8991 0.0000 0.0000
# 5 0.0000 0.0000 0.0000 0.0000 18.2540 0.0000
# 6 0.0000 0.0000 0.0000 0.0000 0.0000 23.7761
#
#
#
# Elastic Compliance Matrix: (Units=1/GPa)
#
#
# Indices 1 2 3 4 5 6 
#
# 1 0.013112 -0.005412 -0.001888 0.000000 0.000000 0.000000
# 2 -0.005412 0.012043 -0.003288 0.000000 0.000000 0.000000
# 3 -0.001888 -0.003288 0.015779 0.000000 0.000000 0.000000
# 4 0.000000 0.000000 0.000000 0.037176 0.000000 0.000000
# 5 0.000000 0.000000 0.000000 0.000000 0.054783 0.000000
# 6 0.000000 0.000000 0.000000 0.000000 0.000000 0.042059
#
#
# Mechanical properties :
#
#
# Convention : Reuss Voigt Hill
#
# Bulk Modulus (GPa) = 50.61384 55.13874 52.87629
# Shear Modulus (GPa) = 24.66551 26.00108 25.33330
#
# Velocity S-wave (km/s) = 3.47031 3.56302 3.51697
# Velocity P-wave (km/s) = 6.38512 6.62182 6.50455
#
# Compressibility (1/GPa) = 0.01975744
#
# Stress axis : x y z
#
# Youngs Moduli (GPa) = 76.26882 83.03683 63.37619
#
# Poissons Ratio (x) = 0.44940 0.11964
# Poissons Ratio (y) = 0.41277 0.20839
# Poissons Ratio (z) = 0.14398 0.27303
#
# Static dielectric constant tensor:
#      x y z
#    x 3.804870 0.000000 0.000000 
#    y 0.000000 2.592150 0.000000 
#    z 0.000000 0.000000 3.937320 
# 
# 
# High freq. dielectric constant tensor:
#      x y z
#    x 1.806430 0.000000 0.000000 
#    y 0.000000 1.790130 0.000000 
#    z 0.000000 0.000000 1.809930 
# 
# From -- ./inp_files/17041.got.cif
#   From: 2010.03.12/outbox.cif.g09.slc.cpg/sg20_9_cif.got.tgz:17041.got - 2010.04.14 01:38:04.
