data_PCOD8159643
_publ_section_title
;
Structure prediction by ZEFSAII (Michael W. Deem and Ramdas Pophale) SiO2 
 PCOD8159643
Probable space group: C 2 2 21
;
_chemical_formula_sum "Si O2"
_cell_formula_units_Z 48
_cell_length_a 6.773687
_cell_length_b 28.041024
_cell_length_c 12.307329
_cell_angle_alpha 90.000000
_cell_angle_beta 90.000000
_cell_angle_gamma 90.000000
_cell_volume 2337.667851
_symmetry_space_group_name_H-M "C 2 2 21"
_symmetry_group_IT_number 20
_symmetry_cell_setting 'orthorhombic'
loop_
_space_group_symop_operation_xyz
x,y,z
-x,-y,1/2+z
x,-y,-z
-x,y,1/2-z
1/2+x,1/2+y,z
1/2-x,1/2-y,1/2+z
1/2+x,1/2-y,-z
1/2-x,1/2+y,1/2-z
loop_
_atom_site_type_symbol
_atom_site_label
_atom_site_fract_x
_atom_site_fract_y
_atom_site_fract_z
Si Si1 0.268899 0.180778 0.486677
Si Si2 0.500000 0.464181 0.750000
Si Si3 0.979245 0.097845 0.455974
Si Si4 0.663398 0.150605 0.585430
Si Si5 0.237760 0.030880 0.599889
Si Si6 0.000000 0.410196 0.250000
Si Si7 0.947543 0.766248 0.374060
O O1 0.137889 0.139672 0.429978
O O2 0.431263 0.155003 0.560640
O O3 0.387993 0.211656 0.397846
O O4 0.135554 0.216551 0.557346
O O5 0.577810 0.430932 0.847649
O O6 0.668040 0.497657 0.699442
O O7 0.061635 0.063879 0.552328
O O8 0.774950 0.121102 0.492741
O O9 0.675856 0.122143 0.699703
O O10 0.757392 0.202215 0.599181
O O11 0.418429 0.060048 0.648551
O O12 0.323216 0.000000 0.500000
O O13 0.000000 0.770961 0.250000
#
# Coordination Sequence:
#
# PCOD8159643 Si02
#       7
#     8   4   8   8   8   4   8
#     4  11  22  44  61  93 130 162 213 263 304 375
#     4  10  22  44  63  90 126 168 201 262 324 378
#     4  10  23  42  64  91 129 164 209 261 315 373
#     4  11  23  39  65  93 126 162 210 261 306 374
#     4  10  22  40  63  92 126 159 210 261 313 380
#     4  12  22  38  67  96 120 166 209 256 320 376
#     4  11  24  40  64  92 127 170 209 260 314 366
#
# _framework density 20.533286
#
# number of rings (size 3 to 8) (size 9 to 14) (size 15 to 20)
#    0.000    1.333    3.333    2.000    2.333    2.667 
#    0.000    0.000    0.000    0.000    0.000    0.000 
#    0.000    0.000    0.000    0.000    0.000    0.000 
#
# Total GULP energy -297599.746318 kJ/mol
# GULP energy per Si atom -12399.989430 kJ/mol
# Density = 2.048655 g / cm^3
# Si number density = 20.533286 Si / 1000 Ang^3
#
#
#
# Elastic Constant Matrix: (Units=GPa)
#
#
# Indices 1 2 3 4 5 6 
#
# 1 94.7954 38.9618 34.0291 0.0000 0.0000 0.0000
# 2 38.9618 118.0383 49.5164 0.0000 0.0000 0.0000
# 3 34.0291 49.5164 104.0882 0.0000 0.0000 0.0000
# 4 0.0000 0.0000 0.0000 37.2126 0.0000 0.0000
# 5 0.0000 0.0000 0.0000 0.0000 19.5364 0.0000
# 6 0.0000 0.0000 0.0000 0.0000 0.0000 2.6288
#
#
#
# Elastic Compliance Matrix: (Units=1/GPa)
#
#
# Indices 1 2 3 4 5 6 
#
# 1 0.012791 -0.003083 -0.002715 0.000000 0.000000 0.000000
# 2 -0.003083 0.011327 -0.004381 0.000000 0.000000 0.000000
# 3 -0.002715 -0.004381 0.012579 0.000000 0.000000 0.000000
# 4 0.000000 0.000000 0.000000 0.026873 0.000000 0.000000
# 5 0.000000 0.000000 0.000000 0.000000 0.051186 0.000000
# 6 0.000000 0.000000 0.000000 0.000000 0.000000 0.380403
#
#
# Mechanical properties :
#
#
# Convention : Reuss Voigt Hill
#
# Bulk Modulus (GPa) = 61.20149 62.43737 61.81943
# Shear Modulus (GPa) = 9.59762 24.83654 17.21708
#
# Velocity S-wave (km/s) = 2.16433 3.48167 2.89882
# Velocity P-wave (km/s) = 6.00970 6.82910 6.43246
#
# Compressibility (1/GPa) = 0.01633947
#
# Stress axis : x y z
#
# Youngs Moduli (GPa) = 78.18118 88.28398 79.49930
#
# Poissons Ratio (x) = 0.27218 0.21584
# Poissons Ratio (y) = 0.24103 0.34825
# Poissons Ratio (z) = 0.21226 0.38673
#
# Static dielectric constant tensor:
#      x y z
#    x 3.320810 0.000000 0.000000 
#    y 0.000000 3.993810 0.000000 
#    z 0.000000 0.000000 3.619480 
# 
# 
# High freq. dielectric constant tensor:
#      x y z
#    x 1.792080 0.000000 0.000000 
#    y 0.000000 1.824780 0.000000 
#    z 0.000000 0.000000 1.799300 
# 
# From -- ./inp_files/17811.got.cif
#   From: 2010.03.12/outbox.cif.g09.slc.cpg/sg20_9_cif.got.tgz:17811.got - 2010.04.14 01:38:04.
