data_PCOD8159192
_publ_section_title
;
Structure prediction by ZEFSAII (Michael W. Deem and Ramdas Pophale) SiO2 
 PCOD8159192
Probable space group: C 2 2 21
;
_chemical_formula_sum "Si O2"
_cell_formula_units_Z 64
_cell_length_a 12.346124
_cell_length_b 27.691403
_cell_length_c 8.866080
_cell_angle_alpha 90.000000
_cell_angle_beta 90.000000
_cell_angle_gamma 90.000000
_cell_volume 3031.148687
_symmetry_space_group_name_H-M "C 2 2 21"
_symmetry_group_IT_number 20
_symmetry_cell_setting 'orthorhombic'
loop_
_space_group_symop_operation_xyz
x,y,z
-x,-y,1/2+z
x,-y,-z
-x,y,1/2-z
1/2+x,1/2+y,z
1/2-x,1/2-y,1/2+z
1/2+x,1/2-y,-z
1/2-x,1/2+y,1/2-z
loop_
_atom_site_type_symbol
_atom_site_label
_atom_site_fract_x
_atom_site_fract_y
_atom_site_fract_z
Si Si1 0.477748 0.097894 0.074519
Si Si2 0.889708 0.769417 0.501983
Si Si3 0.258752 0.049851 0.087746
Si Si4 0.697468 0.051688 0.059219
Si Si5 0.055319 0.693333 0.597324
Si Si6 0.738851 0.282054 0.267986
Si Si7 0.650061 0.378565 0.377950
Si Si8 0.407576 0.381340 0.457960
O O1 0.500000 0.099597 0.250000
O O2 0.366214 0.073971 0.017625
O O3 0.575487 0.065574 0.009331
O O4 0.474711 0.153163 0.023680
O O5 0.801335 0.754822 0.626543
O O6 0.854734 0.755332 0.329997
O O7 0.895008 0.826745 0.512685
O O8 0.004749 0.744213 0.538743
O O9 0.281180 0.046402 0.264209
O O10 0.151764 0.082967 0.073418
O O11 0.237369 0.000000 0.000000
O O12 0.767321 0.092305 0.978625
O O13 0.730630 0.000000 0.000000
O O14 0.182661 0.697284 0.634283
O O15 0.000000 0.676014 0.750000
O O16 0.686068 0.322411 0.377006
O O17 0.535300 0.389643 0.453919
O O18 0.647168 0.393559 0.202846
#
# Coordination Sequence:
#
# PCOD8159192 Si02
#       8
#     8   8   8   8   8   8   8   8
#     4  10  22  40  63  95 131 166 215 266 322 382
#     4  10  22  38  59  91 123 168 211 259 317 380
#     4  11  24  43  66  95 129 170 212 268 332 384
#     4  11  23  40  65  96 124 163 217 269 324 389
#     4  10  21  38  59  90 126 169 213 259 318 384
#     4  10  22  39  61  89 125 171 216 257 317 379
#     4  10  22  43  65  88 123 169 215 262 317 381
#     4  10  23  43  64  91 126 165 213 263 319 383
#
# _framework density 21.114108000000002
#
# number of rings (size 3 to 8) (size 9 to 14) (size 15 to 20)
#    0.000    1.750    0.000    4.125    1.750    6.000 
#    6.750    0.000    0.000    0.000    0.000    0.000 
#    0.000    0.000    0.000    0.000    0.000    0.000 
#
# Total GULP energy -396645.893614 kJ/mol
# GULP energy per Si atom -12395.184175 kJ/mol
# Density = 2.106605 g / cm^3
# Si number density = 21.114108 Si / 1000 Ang^3
#
#
#
# Elastic Constant Matrix: (Units=GPa)
#
#
# Indices 1 2 3 4 5 6 
#
# 1 108.3417 42.4496 36.9341 0.0000 0.0000 0.0000
# 2 42.4496 103.4315 44.5889 0.0000 0.0000 0.0000
# 3 36.9341 44.5889 61.6983 0.0000 0.0000 0.0000
# 4 0.0000 0.0000 0.0000 37.1146 0.0000 0.0000
# 5 0.0000 0.0000 0.0000 0.0000 30.6712 0.0000
# 6 0.0000 0.0000 0.0000 0.0000 0.0000 26.3655
#
#
#
# Elastic Compliance Matrix: (Units=1/GPa)
#
#
# Indices 1 2 3 4 5 6 
#
# 1 0.012085 -0.002674 -0.005302 0.000000 0.000000 0.000000
# 2 -0.002674 0.014635 -0.008976 0.000000 0.000000 0.000000
# 3 -0.005302 -0.008976 0.025868 0.000000 0.000000 0.000000
# 4 0.000000 0.000000 0.000000 0.026944 0.000000 0.000000
# 5 0.000000 0.000000 0.000000 0.000000 0.032604 0.000000
# 6 0.000000 0.000000 0.000000 0.000000 0.000000 0.037928
#
#
# Mechanical properties :
#
#
# Convention : Reuss Voigt Hill
#
# Bulk Modulus (GPa) = 53.51893 57.93519 55.72706
# Shear Modulus (GPa) = 26.28849 28.79686 27.54267
#
# Velocity S-wave (km/s) = 3.53238 3.69706 3.61566
# Velocity P-wave (km/s) = 6.48378 6.76188 6.62429
#
# Compressibility (1/GPa) = 0.01868498
#
# Stress axis : x y z
#
# Youngs Moduli (GPa) = 82.74511 68.32791 38.65708
#
# Poissons Ratio (x) = 0.18273 0.20495
# Poissons Ratio (y) = 0.22129 0.34698
# Poissons Ratio (z) = 0.43870 0.61330
#
# Static dielectric constant tensor:
#      x y z
#    x 4.208180 0.000000 0.000000 
#    y 0.000000 3.639980 0.000000 
#    z 0.000000 0.000000 3.761070 
# 
# 
# High freq. dielectric constant tensor:
#      x y z
#    x 1.842910 0.000000 0.000000 
#    y 0.000000 1.819530 0.000000 
#    z 0.000000 0.000000 1.829860 
# 
# From -- ./inp_files/7715.got.cif
#   From: 2010.03.12/outbox.cif.g09.slc.cpg/sg20_4_cif.got.tgz:7715.got - 2010.04.14 01:38:04.
