data_PCOD8159974
_publ_section_title
;
Structure prediction by ZEFSAII (Michael W. Deem and Ramdas Pophale) SiO2 
 PCOD8159974
Probable space group: C 2 2 21
;
_chemical_formula_sum "Si O2"
_cell_formula_units_Z 28
_cell_length_a 7.459672
_cell_length_b 17.465007
_cell_length_c 10.385388
_cell_angle_alpha 90.000000
_cell_angle_beta 90.000000
_cell_angle_gamma 90.000000
_cell_volume 1353.041828
_symmetry_space_group_name_H-M "C 2 2 21"
_symmetry_group_IT_number 20
_symmetry_cell_setting 'orthorhombic'
loop_
_space_group_symop_operation_xyz
x,y,z
-x,-y,1/2+z
x,-y,-z
-x,y,1/2-z
1/2+x,1/2+y,z
1/2-x,1/2-y,1/2+z
1/2+x,1/2-y,-z
1/2-x,1/2+y,1/2-z
loop_
_atom_site_type_symbol
_atom_site_label
_atom_site_fract_x
_atom_site_fract_y
_atom_site_fract_z
Si Si1 0.000000 0.970635 0.750000
Si Si2 0.362366 0.726546 0.860471
Si Si3 0.797933 0.413827 0.231954
Si Si4 0.866449 0.139676 0.471213
O O1 0.941486 0.920925 0.629106
O O2 0.835413 0.024391 0.795957
O O3 0.500000 0.749690 0.750000
O O4 0.217205 0.666746 0.806040
O O5 0.270255 0.804275 0.901412
O O6 0.465646 0.688640 0.979463
O O7 0.000000 0.443865 0.250000
O O8 0.740284 0.404621 0.083188
#
# Coordination Sequence:
#
# PCOD8159974 Si02
#       4
#     4   8   8   8
#     4  12  26  46  68 106 148 184 226 294 368 418
#     4  10  23  42  71 101 137 182 242 290 347 420
#     4  11  24  48  70 101 142 186 236 294 352 423
#     4  11  24  44  71 102 144 185 235 296 354 413
#
# _framework density 20.694113000000002
#
# number of rings (size 3 to 8) (size 9 to 14) (size 15 to 20)
#    0.000    1.143    4.286    2.571   10.000    1.143 
#   10.286    0.000    0.000    0.000    0.000    0.000 
#    0.000    0.000    0.000    0.000    0.000    0.000 
#
# Total GULP energy -173666.089545 kJ/mol
# GULP energy per Si atom -12404.720682 kJ/mol
# Density = 2.064701 g / cm^3
# Si number density = 20.694113 Si / 1000 Ang^3
#
#
#
# Elastic Constant Matrix: (Units=GPa)
#
#
# Indices 1 2 3 4 5 6 
#
# 1 159.5433 64.3984 43.0958 0.0000 0.0000 0.0000
# 2 64.3984 118.2468 56.2502 0.0000 0.0000 0.0000
# 3 43.0958 56.2502 95.4079 0.0000 0.0000 0.0000
# 4 0.0000 0.0000 0.0000 32.0714 0.0000 0.0000
# 5 0.0000 0.0000 0.0000 0.0000 19.7374 0.0000
# 6 0.0000 0.0000 0.0000 0.0000 0.0000 51.1188
#
#
#
# Elastic Compliance Matrix: (Units=1/GPa)
#
#
# Indices 1 2 3 4 5 6 
#
# 1 0.008183 -0.003750 -0.001485 0.000000 0.000000 0.000000
# 2 -0.003750 0.013472 -0.006249 0.000000 0.000000 0.000000
# 3 -0.001485 -0.006249 0.014836 0.000000 0.000000 0.000000
# 4 0.000000 0.000000 0.000000 0.031180 0.000000 0.000000
# 5 0.000000 0.000000 0.000000 0.000000 0.050665 0.000000
# 6 0.000000 0.000000 0.000000 0.000000 0.000000 0.019562
#
#
# Mechanical properties :
#
#
# Convention : Reuss Voigt Hill
#
# Bulk Modulus (GPa) = 73.94873 77.85409 75.90141
# Shear Modulus (GPa) = 30.23452 34.54910 32.39181
#
# Velocity S-wave (km/s) = 3.82648 4.09040 3.96064
# Velocity P-wave (km/s) = 7.43870 7.74671 7.59427
#
# Compressibility (1/GPa) = 0.01352288
#
# Stress axis : x y z
#
# Youngs Moduli (GPa) = 122.20925 74.23019 67.40200
#
# Poissons Ratio (x) = 0.27835 0.10011
# Poissons Ratio (y) = 0.45826 0.42118
# Poissons Ratio (z) = 0.18152 0.46385
#
# Static dielectric constant tensor:
#      x y z
#    x 3.709180 0.000000 0.000000 
#    y 0.000000 3.802860 0.000000 
#    z 0.000000 0.000000 3.808900 
# 
# 
# High freq. dielectric constant tensor:
#      x y z
#    x 1.813840 0.000000 0.000000 
#    y 0.000000 1.817650 0.000000 
#    z 0.000000 0.000000 1.815560 
# 
# From -- ./inp_files/5644.got.cif
#   From: 2010.03.12/outbox.cif.g09.slc.cpg/sg20_3_cif.got.tgz:5644.got - 2010.04.14 01:38:04.
