data_PCOD8159615
_publ_section_title
;
Structure prediction by ZEFSAII (Michael W. Deem and Ramdas Pophale) SiO2 
 PCOD8159615
Probable space group: C 2 2 21
;
_chemical_formula_sum "Si O2"
_cell_formula_units_Z 56
_cell_length_a 19.165818
_cell_length_b 15.151827
_cell_length_c 9.199143
_cell_angle_alpha 90.000000
_cell_angle_beta 90.000000
_cell_angle_gamma 90.000000
_cell_volume 2671.404989
_symmetry_space_group_name_H-M "C 2 2 21"
_symmetry_group_IT_number 20
_symmetry_cell_setting 'orthorhombic'
loop_
_space_group_symop_operation_xyz
x,y,z
-x,-y,1/2+z
x,-y,-z
-x,y,1/2-z
1/2+x,1/2+y,z
1/2-x,1/2-y,1/2+z
1/2+x,1/2-y,-z
1/2-x,1/2+y,1/2-z
loop_
_atom_site_type_symbol
_atom_site_label
_atom_site_fract_x
_atom_site_fract_y
_atom_site_fract_z
Si Si1 0.374020 0.190973 0.499373
Si Si2 0.006201 0.197099 0.587200
Si Si3 0.419761 0.938465 0.263521
Si Si4 0.373042 0.201437 0.961840
Si Si5 0.828472 0.173128 0.276974
Si Si6 0.043742 0.937583 0.878724
Si Si7 0.316325 0.101773 0.220391
O O1 0.439925 0.246404 0.454510
O O2 0.400893 0.101387 0.578832
O O3 0.321841 0.250594 0.598392
O O4 0.335744 0.165674 0.351802
O O5 0.074347 0.256336 0.576972
O O6 0.000000 0.159979 0.750000
O O7 0.012388 0.118279 0.471694
O O8 0.500000 0.975989 0.250000
O O9 0.416002 0.858521 0.150439
O O10 0.360757 0.011710 0.228318
O O11 0.329666 0.276270 0.877373
O O12 0.323744 0.142067 0.060242
O O13 0.900106 0.122504 0.300458
O O14 0.768184 0.097854 0.272398
O O15 0.000000 0.985953 0.750000
O O16 0.080119 0.000000 0.000000
#
# Coordination Sequence:
#
# PCOD8159615 Si02
#       7
#     8   8   8   8   8   8   8
#     4  10  22  39  65  91 127 168 215 262 313 389
#     4  11  20  38  67 100 120 158 218 268 315 380
#     4  11  24  38  62  98 134 169 205 267 328 380
#     4  11  22  40  67  92 126 167 219 255 315 387
#     4  10  24  44  64  87 128 174 214 257 325 391
#     4  11  23  42  68  95 123 159 212 282 333 372
#     4  12  24  39  61  94 132 169 212 259 320 383
#
# _framework density 20.962752999999999
#
# number of rings (size 3 to 8) (size 9 to 14) (size 15 to 20)
#    0.000    1.143    4.286    2.143    2.000    2.286 
#    0.000    2.857    0.000    0.000    0.000    0.000 
#    0.000    0.000    0.000    0.000    0.000    0.000 
#
# Total GULP energy -346982.528918 kJ/mol
# GULP energy per Si atom -12392.233176 kJ/mol
# Density = 2.091504 g / cm^3
# Si number density = 20.962753 Si / 1000 Ang^3
#
#
#
# Elastic Constant Matrix: (Units=GPa)
#
#
# Indices 1 2 3 4 5 6 
#
# 1 78.3513 26.9531 26.5600 0.0000 0.0000 0.0000
# 2 26.9531 75.9832 25.7885 0.0000 0.0000 0.0000
# 3 26.5600 25.7885 116.0895 0.0000 0.0000 0.0000
# 4 0.0000 0.0000 0.0000 29.4532 0.0000 0.0000
# 5 0.0000 0.0000 0.0000 0.0000 22.7185 0.0000
# 6 0.0000 0.0000 0.0000 0.0000 0.0000 32.5027
#
#
#
# Elastic Compliance Matrix: (Units=1/GPa)
#
#
# Indices 1 2 3 4 5 6 
#
# 1 0.015159 -0.004543 -0.002459 0.000000 0.000000 0.000000
# 2 -0.004543 0.015595 -0.002425 0.000000 0.000000 0.000000
# 3 -0.002459 -0.002425 0.009715 0.000000 0.000000 0.000000
# 4 0.000000 0.000000 0.000000 0.033952 0.000000 0.000000
# 5 0.000000 0.000000 0.000000 0.000000 0.044017 0.000000
# 6 0.000000 0.000000 0.000000 0.000000 0.000000 0.030767
#
#
# Mechanical properties :
#
#
# Convention : Reuss Voigt Hill
#
# Bulk Modulus (GPa) = 46.26182 47.66967 46.96575
# Shear Modulus (GPa) = 28.52818 29.67636 29.10227
#
# Velocity S-wave (km/s) = 3.69304 3.76662 3.73001
# Velocity P-wave (km/s) = 6.34832 6.45803 6.40341
#
# Compressibility (1/GPa) = 0.02161610
#
# Stress axis : x y z
#
# Youngs Moduli (GPa) = 65.96573 64.12186 102.92958
#
# Poissons Ratio (x) = 0.29129 0.25312
# Poissons Ratio (y) = 0.29967 0.24961
# Poissons Ratio (z) = 0.16222 0.15550
#
# Static dielectric constant tensor:
#      x y z
#    x 3.387550 0.000000 0.000000 
#    y 0.000000 3.963680 0.000000 
#    z 0.000000 0.000000 3.720860 
# 
# 
# High freq. dielectric constant tensor:
#      x y z
#    x 1.805060 0.000000 0.000000 
#    y 0.000000 1.809880 0.000000 
#    z 0.000000 0.000000 1.844550 
# 
# From -- ./inp_files/10185.got.cif
#   From: 2010.03.12/outbox.cif.g09.slc.cpg/sg20_6_cif.got.tgz:10185.got - 2010.04.14 01:38:04.
