data_PCOD8159997
_publ_section_title
;
Structure prediction by ZEFSAII (Michael W. Deem and Ramdas Pophale) SiO2 
 PCOD8159997
Probable space group: C 2 2 21
;
_chemical_formula_sum "Si O2"
_cell_formula_units_Z 36
_cell_length_a 7.758708
_cell_length_b 21.152655
_cell_length_c 10.190836
_cell_angle_alpha 90.000000
_cell_angle_beta 90.000000
_cell_angle_gamma 90.000000
_cell_volume 1672.492220
_symmetry_space_group_name_H-M "C 2 2 21"
_symmetry_group_IT_number 20
_symmetry_cell_setting 'orthorhombic'
loop_
_space_group_symop_operation_xyz
x,y,z
-x,-y,1/2+z
x,-y,-z
-x,y,1/2-z
1/2+x,1/2+y,z
1/2-x,1/2-y,1/2+z
1/2+x,1/2-y,-z
1/2-x,1/2+y,1/2-z
loop_
_atom_site_type_symbol
_atom_site_label
_atom_site_fract_x
_atom_site_fract_y
_atom_site_fract_z
Si Si1 0.199555 0.000000 0.500000
Si Si2 0.696561 0.819289 0.471782
Si Si3 0.808078 0.733609 0.245227
Si Si4 0.481479 0.611094 0.896370
Si Si5 0.833223 0.628957 0.444774
O O1 0.070919 0.963162 0.400705
O O2 0.319646 0.947723 0.573906
O O3 0.690522 0.778566 0.336737
O O4 0.750650 0.773493 0.593814
O O5 0.512035 0.851743 0.487794
O O6 0.839075 0.874654 0.469347
O O7 0.000000 0.762490 0.250000
O O8 0.812030 0.662325 0.304583
O O9 0.500000 0.634526 0.750000
O O10 0.324467 0.651511 0.960829
#
# Coordination Sequence:
#
# PCOD8159997 Si02
#       5
#     4   8   8   8   8
#     4   8  22  44  62  96 134 168 222 274 318 400
#     4  11  24  44  71  95 139 180 217 275 348 388
#     4  10  24  44  65 103 133 175 224 276 326 418
#     4  10  23  43  67 103 133 170 230 277 328 406
#     4   9  23  45  63  98 136 171 221 279 328 399
#
# _framework density 21.524764999999999
#
# number of rings (size 3 to 8) (size 9 to 14) (size 15 to 20)
#    1.333    0.889    0.000    0.667    9.333    4.444 
#    4.000    4.444    0.000    0.000    0.000    0.000 
#    0.000    0.000    0.000    0.000    0.000    0.000 
#
# Total GULP energy -222986.363553 kJ/mol
# GULP energy per Si atom -12388.131308 kJ/mol
# Density = 2.147577 g / cm^3
# Si number density = 21.524765 Si / 1000 Ang^3
#
#
#
# Elastic Constant Matrix: (Units=GPa)
#
#
# Indices 1 2 3 4 5 6 
#
# 1 108.2886 14.5666 20.4636 0.0000 0.0000 0.0000
# 2 14.5666 109.8665 2.5621 0.0000 0.0000 0.0000
# 3 20.4636 2.5621 91.4183 0.0000 0.0000 0.0000
# 4 0.0000 0.0000 0.0000 19.7408 0.0000 0.0000
# 5 0.0000 0.0000 0.0000 0.0000 33.2314 0.0000
# 6 0.0000 0.0000 0.0000 0.0000 0.0000 0.3628
#
#
#
# Elastic Compliance Matrix: (Units=1/GPa)
#
#
# Indices 1 2 3 4 5 6 
#
# 1 0.009811 -0.001250 -0.002161 0.000000 0.000000 0.000000
# 2 -0.001250 0.009267 0.000020 0.000000 0.000000 0.000000
# 3 -0.002161 0.000020 0.011422 0.000000 0.000000 0.000000
# 4 0.000000 0.000000 0.000000 0.050657 0.000000 0.000000
# 5 0.000000 0.000000 0.000000 0.000000 0.030092 0.000000
# 6 0.000000 0.000000 0.000000 0.000000 0.000000 2.756557
#
#
# Mechanical properties :
#
#
# Convention : Reuss Voigt Hill
#
# Bulk Modulus (GPa) = 42.16279 42.75091 42.45685
# Shear Modulus (GPa) = 1.73461 28.79905 15.26683
#
# Velocity S-wave (km/s) = 0.89867 3.66177 2.66610
# Velocity P-wave (km/s) = 4.55054 6.14674 5.40786
#
# Compressibility (1/GPa) = 0.02371760
#
# Stress axis : x y z
#
# Youngs Moduli (GPa) = 101.92452 107.90662 87.55091
#
# Poissons Ratio (x) = 0.13493 0.18921
# Poissons Ratio (y) = 0.12745 -0.00177
# Poissons Ratio (z) = 0.22027 -0.00218
#
# Static dielectric constant tensor:
#      x y z
#    x 3.827560 0.000000 0.000000 
#    y 0.000000 3.769090 0.000000 
#    z 0.000000 0.000000 3.761180 
# 
# 
# High freq. dielectric constant tensor:
#      x y z
#    x 1.842670 0.000000 0.000000 
#    y 0.000000 1.848010 0.000000 
#    z 0.000000 0.000000 1.834620 
# 
# From -- ./inp_files/5929.got.cif
#   From: 2010.03.12/outbox.cif.g09.slc.cpg/sg20_3_cif.got.tgz:5929.got - 2010.04.14 01:38:04.
