data_PCOD8159887
_publ_section_title
;
Structure prediction by ZEFSAII (Michael W. Deem and Ramdas Pophale) SiO2 
 PCOD8159887
Probable space group: C 2 2 21
;
_chemical_formula_sum "Si O2"
_cell_formula_units_Z 60
_cell_length_a 18.895069
_cell_length_b 6.712552
_cell_length_c 23.271534
_cell_angle_alpha 90.000000
_cell_angle_beta 90.000000
_cell_angle_gamma 90.000000
_cell_volume 2951.624843
_symmetry_space_group_name_H-M "C 2 2 21"
_symmetry_group_IT_number 20
_symmetry_cell_setting 'orthorhombic'
loop_
_space_group_symop_operation_xyz
x,y,z
-x,-y,1/2+z
x,-y,-z
-x,y,1/2-z
1/2+x,1/2+y,z
1/2-x,1/2-y,1/2+z
1/2+x,1/2-y,-z
1/2-x,1/2+y,1/2-z
loop_
_atom_site_type_symbol
_atom_site_label
_atom_site_fract_x
_atom_site_fract_y
_atom_site_fract_z
Si Si1 0.362850 0.241488 0.355192
Si Si2 0.028991 0.100072 0.141540
Si Si3 0.366308 0.918735 0.770834
Si Si4 0.000000 0.344517 0.250000
Si Si5 0.391443 0.063183 0.065225
Si Si6 0.049321 0.533644 0.932814
Si Si7 0.625244 0.578368 0.638095
Si Si8 0.706219 0.188361 0.645326
O O1 0.421120 0.411328 0.353337
O O2 0.351157 0.130716 0.294879
O O3 0.287803 0.335825 0.373194
O O4 0.387458 0.078827 0.400989
O O5 0.038757 0.216235 0.201294
O O6 0.051416 0.234299 0.086472
O O7 0.948157 0.037790 0.134415
O O8 0.369453 0.716536 0.806394
O O9 0.442291 0.018902 0.780692
O O10 0.306933 0.074200 0.794015
O O11 0.365395 0.287900 0.080074
O O12 0.472970 0.052705 0.085557
O O13 0.344043 0.906941 0.098269
O O14 0.383685 0.000000 0.000000
O O15 0.062260 0.500000 0.000000
O O16 0.688637 0.422605 0.646433
#
# Coordination Sequence:
#
# PCOD8159887 Si02
#       8
#     8   8   8   4   8   8   8   8
#     4  12  27  43  66 102 139 178 219 275 350 399
#     4  12  22  41  70  98 129 177 223 272 337 400
#     4  11  24  39  67  97 140 169 220 279 328 405
#     4  12  20  40  70  98 132 172 230 280 322 402
#     4  10  22  46  71  96 128 172 233 283 320 390
#     4  11  24  46  70  99 134 173 231 284 328 398
#     4  11  21  42  69  97 128 172 223 265 335 396
#     4  11  26  44  64 101 135 175 219 274 336 405
#
# _framework density 20.327786
#
# number of rings (size 3 to 8) (size 9 to 14) (size 15 to 20)
#    0.000    0.800    5.333    2.400    1.867    3.200 
#    4.800    0.000    0.000    0.000    0.000    0.000 
#    0.000    0.000    0.000    0.000    0.000    0.000 
#
# Total GULP energy -372049.222771 kJ/mol
# GULP energy per Si atom -12401.640759 kJ/mol
# Density = 2.028152 g / cm^3
# Si number density = 20.327786 Si / 1000 Ang^3
#
#
#
# Elastic Constant Matrix: (Units=GPa)
#
#
# Indices 1 2 3 4 5 6 
#
# 1 86.1815 11.7013 25.9330 0.0000 0.0000 0.0000
# 2 11.7013 94.7320 30.9573 0.0000 0.0000 0.0000
# 3 25.9330 30.9573 117.3327 0.0000 0.0000 0.0000
# 4 0.0000 0.0000 0.0000 20.7713 0.0000 0.0000
# 5 0.0000 0.0000 0.0000 0.0000 17.5413 0.0000
# 6 0.0000 0.0000 0.0000 0.0000 0.0000 22.2890
#
#
#
# Elastic Compliance Matrix: (Units=1/GPa)
#
#
# Indices 1 2 3 4 5 6 
#
# 1 0.012472 -0.000700 -0.002572 0.000000 0.000000 0.000000
# 2 -0.000700 0.011591 -0.002904 0.000000 0.000000 0.000000
# 3 -0.002572 -0.002904 0.009857 0.000000 0.000000 0.000000
# 4 0.000000 0.000000 0.000000 0.048143 0.000000 0.000000
# 5 0.000000 0.000000 0.000000 0.000000 0.057008 0.000000
# 6 0.000000 0.000000 0.000000 0.000000 0.000000 0.044865
#
#
# Mechanical properties :
#
#
# Convention : Reuss Voigt Hill
#
# Bulk Modulus (GPa) = 46.36091 48.38104 47.37097
# Shear Modulus (GPa) = 24.57255 27.43063 26.00159
#
# Velocity S-wave (km/s) = 3.48057 3.67742 3.58035
# Velocity P-wave (km/s) = 6.24570 6.47174 6.35972
#
# Compressibility (1/GPa) = 0.02156990
#
# Stress axis : x y z
#
# Youngs Moduli (GPa) = 80.17698 86.27068 101.44751
#
# Poissons Ratio (x) = 0.06040 0.26092
# Poissons Ratio (y) = 0.05613 0.29456
# Poissons Ratio (z) = 0.20621 0.25049
#
# Static dielectric constant tensor:
#      x y z
#    x 3.688680 0.000000 0.000000 
#    y 0.000000 3.964860 0.000000 
#    z 0.000000 0.000000 3.694570 
# 
# 
# High freq. dielectric constant tensor:
#      x y z
#    x 1.787690 0.000000 0.000000 
#    y 0.000000 1.809890 0.000000 
#    z 0.000000 0.000000 1.791550 
# 
# From -- ./inp_files/29553.got.cif
#   From: 2010.03.12/outbox.cif.g09.slc.cpg/sg20_15_cif.got.tgz:29553.got - 2010.04.14 01:38:04.
