data_PCOD8159665
_publ_section_title
;
Structure prediction by ZEFSAII (Michael W. Deem and Ramdas Pophale) SiO2 
 PCOD8159665
Probable space group: C 2 2 21
;
_chemical_formula_sum "Si O2"
_cell_formula_units_Z 40
_cell_length_a 11.739023
_cell_length_b 8.154045
_cell_length_c 20.149356
_cell_angle_alpha 90.000000
_cell_angle_beta 90.000000
_cell_angle_gamma 90.000000
_cell_volume 1928.706870
_symmetry_space_group_name_H-M "C 2 2 21"
_symmetry_group_IT_number 20
_symmetry_cell_setting 'orthorhombic'
loop_
_space_group_symop_operation_xyz
x,y,z
-x,-y,1/2+z
x,-y,-z
-x,y,1/2-z
1/2+x,1/2+y,z
1/2-x,1/2-y,1/2+z
1/2+x,1/2-y,-z
1/2-x,1/2+y,1/2-z
loop_
_atom_site_type_symbol
_atom_site_label
_atom_site_fract_x
_atom_site_fract_y
_atom_site_fract_z
Si Si1 0.325599 0.675344 0.481578
Si Si2 0.564682 0.118249 0.091411
Si Si3 0.389363 0.000000 0.000000
Si Si4 0.559905 0.648261 0.685443
Si Si5 0.500000 0.666393 0.250000
Si Si6 0.177826 0.670657 0.841627
O O1 0.384306 0.500000 0.500000
O O2 0.372091 0.824179 0.524878
O O3 0.190194 0.662432 0.498321
O O4 0.345267 0.711771 0.404236
O O5 0.510818 0.279804 0.124179
O O6 0.464277 0.995736 0.067295
O O7 0.649529 0.018103 0.139286
O O8 0.500000 0.730323 0.750000
O O9 0.548085 0.450134 0.690630
O O10 0.692623 0.692269 0.681577
O O11 0.400403 0.779348 0.279453
#
# Coordination Sequence:
#
# PCOD8159665 Si02
#       6
#     8   8   4   8   4   8
#     4  10  22  43  65  97 133 162 213 278 326 398
#     4  12  23  44  67 100 129 175 216 275 339 388
#     4  10  22  40  66 100 132 158 218 264 332 396
#     4  10  26  44  65  94 133 180 221 267 329 394
#     4  10  28  42  62 100 124 176 226 268 322 392
#     4  12  24  44  67  97 131 174 225 271 330 395
#
# _framework density 20.739284000000001
#
# number of rings (size 3 to 8) (size 9 to 14) (size 15 to 20)
#    1.200    0.000    4.000    1.200    4.200    1.600 
#    3.600    0.000    0.000    0.000    0.000    0.000 
#    0.000    0.000    0.000    0.000    0.000    0.000 
#
# Total GULP energy -247847.812151 kJ/mol
# GULP energy per Si atom -12392.390608 kJ/mol
# Density = 2.069208 g / cm^3
# Si number density = 20.739284 Si / 1000 Ang^3
#
#
#
# Elastic Constant Matrix: (Units=GPa)
#
#
# Indices 1 2 3 4 5 6 
#
# 1 123.4125 36.5337 59.3582 0.0000 0.0000 0.0000
# 2 36.5337 86.8858 34.4923 0.0000 0.0000 0.0000
# 3 59.3582 34.4923 93.8500 0.0000 0.0000 0.0000
# 4 0.0000 0.0000 0.0000 42.7643 0.0000 0.0000
# 5 0.0000 0.0000 0.0000 0.0000 42.6029 0.0000
# 6 0.0000 0.0000 0.0000 0.0000 0.0000 20.2796
#
#
#
# Elastic Compliance Matrix: (Units=1/GPa)
#
#
# Indices 1 2 3 4 5 6 
#
# 1 0.012055 -0.002391 -0.006746 0.000000 0.000000 0.000000
# 2 -0.002391 0.013950 -0.003615 0.000000 0.000000 0.000000
# 3 -0.006746 -0.003615 0.016250 0.000000 0.000000 0.000000
# 4 0.000000 0.000000 0.000000 0.023384 0.000000 0.000000
# 5 0.000000 0.000000 0.000000 0.000000 0.023473 0.000000
# 6 0.000000 0.000000 0.000000 0.000000 0.000000 0.049311
#
#
# Mechanical properties :
#
#
# Convention : Reuss Voigt Hill
#
# Bulk Modulus (GPa) = 59.69336 62.76853 61.23094
# Shear Modulus (GPa) = 29.49675 32.71362 31.10518
#
# Velocity S-wave (km/s) = 3.77538 3.97593 3.87695
# Velocity P-wave (km/s) = 6.91736 7.16998 7.04480
#
# Compressibility (1/GPa) = 0.01675228
#
# Stress axis : x y z
#
# Youngs Moduli (GPa) = 82.95060 71.68637 61.53657
#
# Poissons Ratio (x) = 0.17140 0.41513
# Poissons Ratio (y) = 0.19833 0.22243
# Poissons Ratio (z) = 0.55959 0.25912
#
# Static dielectric constant tensor:
#      x y z
#    x 3.725170 0.000000 0.000000 
#    y 0.000000 3.491980 0.000000 
#    z 0.000000 0.000000 3.589440 
# 
# 
# High freq. dielectric constant tensor:
#      x y z
#    x 1.813140 0.000000 0.000000 
#    y 0.000000 1.798670 0.000000 
#    z 0.000000 0.000000 1.808030 
# 
# From -- ./inp_files/24097.got.cif
#   From: 2010.03.12/outbox.cif.g09.slc.cpg/sg20_13_cif.got.tgz:24097.got - 2010.04.14 01:38:04.
