data_PCOD8159478
_publ_section_title
;
Structure prediction by ZEFSAII (Michael W. Deem and Ramdas Pophale) SiO2 
 PCOD8159478
Probable space group: C 2 2 21
;
_chemical_formula_sum "Si O2"
_cell_formula_units_Z 48
_cell_length_a 13.842615
_cell_length_b 12.780903
_cell_length_c 13.250550
_cell_angle_alpha 90.000000
_cell_angle_beta 90.000000
_cell_angle_gamma 90.000000
_cell_volume 2344.302141
_symmetry_space_group_name_H-M "C 2 2 21"
_symmetry_group_IT_number 20
_symmetry_cell_setting 'orthorhombic'
loop_
_space_group_symop_operation_xyz
x,y,z
-x,-y,1/2+z
x,-y,-z
-x,y,1/2-z
1/2+x,1/2+y,z
1/2-x,1/2-y,1/2+z
1/2+x,1/2-y,-z
1/2-x,1/2+y,1/2-z
loop_
_atom_site_type_symbol
_atom_site_label
_atom_site_fract_x
_atom_site_fract_y
_atom_site_fract_z
Si Si1 0.170485 0.700397 0.038665
Si Si2 0.319931 0.383835 0.115156
Si Si3 0.914430 0.905560 0.817130
Si Si4 0.208376 0.617322 0.472252
Si Si5 0.540467 0.745173 0.491835
Si Si6 0.264184 0.799125 0.760168
O O1 0.240607 0.621846 0.975721
O O2 0.199204 0.818932 0.011657
O O3 0.058320 0.692859 0.011466
O O4 0.180228 0.674688 0.156920
O O5 0.346366 0.503169 0.138209
O O6 0.274381 0.324485 0.212413
O O7 0.418233 0.321455 0.086549
O O8 0.967324 0.837485 0.901804
O O9 0.848582 0.827168 0.751851
O O10 0.000000 0.955199 0.750000
O O11 0.228527 0.500000 0.500000
O O12 0.115960 0.661943 0.532685
O O13 0.193271 0.631001 0.351740
#
# Coordination Sequence:
#
# PCOD8159478 Si02
#       6
#     8   8   8   8   8   8
#     4  10  21  43  66  86 137 171 212 273 336 385
#     4  10  24  40  61 100 131 162 224 277 320 396
#     4  12  23  39  68  99 127 173 225 271 330 399
#     4  10  23  42  62  95 130 170 223 267 319 398
#     4  10  22  42  64  89 134 167 214 276 329 376
#     4  10  22  40  63  94 131 174 206 270 332 392
#
# _framework density 20.475176999999999
#
# number of rings (size 3 to 8) (size 9 to 14) (size 15 to 20)
#    0.000    2.000    3.333    2.500    4.667    3.333 
#    3.000    0.000    0.000    0.000    0.000    0.000 
#    0.000    0.000    0.000    0.000    0.000    0.000 
#
# Total GULP energy -297463.221083 kJ/mol
# GULP energy per Si atom -12394.300878 kJ/mol
# Density = 2.042857 g / cm^3
# Si number density = 20.475177 Si / 1000 Ang^3
#
#
#
# Elastic Constant Matrix: (Units=GPa)
#
#
# Indices 1 2 3 4 5 6 
#
# 1 100.5981 18.8887 27.4091 0.0000 0.0000 0.0000
# 2 18.8887 72.7467 34.3443 0.0000 0.0000 0.0000
# 3 27.4091 34.3443 113.6093 0.0000 0.0000 0.0000
# 4 0.0000 0.0000 0.0000 27.4449 0.0000 0.0000
# 5 0.0000 0.0000 0.0000 0.0000 33.3886 0.0000
# 6 0.0000 0.0000 0.0000 0.0000 0.0000 20.1275
#
#
#
# Elastic Compliance Matrix: (Units=1/GPa)
#
#
# Indices 1 2 3 4 5 6 
#
# 1 0.010848 -0.001844 -0.002060 0.000000 0.000000 0.000000
# 2 -0.001844 0.016348 -0.004497 0.000000 0.000000 0.000000
# 3 -0.002060 -0.004497 0.010658 0.000000 0.000000 0.000000
# 4 0.000000 0.000000 0.000000 0.036437 0.000000 0.000000
# 5 0.000000 0.000000 0.000000 0.000000 0.029950 0.000000
# 6 0.000000 0.000000 0.000000 0.000000 0.000000 0.049683
#
#
# Mechanical properties :
#
#
# Convention : Reuss Voigt Hill
#
# Bulk Modulus (GPa) = 47.50004 49.80425 48.65215
# Shear Modulus (GPa) = 28.13020 29.94634 29.03827
#
# Velocity S-wave (km/s) = 3.71059 3.82850 3.77001
# Velocity P-wave (km/s) = 6.45037 6.62724 6.53940
#
# Compressibility (1/GPa) = 0.02105261
#
# Stress axis : x y z
#
# Youngs Moduli (GPa) = 92.18279 61.16824 93.82186
#
# Poissons Ratio (x) = 0.11281 0.19324
# Poissons Ratio (y) = 0.17002 0.42193
# Poissons Ratio (z) = 0.18986 0.27508
#
# Static dielectric constant tensor:
#      x y z
#    x 3.612140 0.000000 0.000000 
#    y 0.000000 3.523140 0.000000 
#    z 0.000000 0.000000 3.810900 
# 
# 
# High freq. dielectric constant tensor:
#      x y z
#    x 1.795180 0.000000 0.000000 
#    y 0.000000 1.785800 0.000000 
#    z 0.000000 0.000000 1.805360 
# 
# From -- ./inp_files/15023.got.cif
#   From: 2010.03.12/outbox.cif.g09.slc.cpg/sg20_8_cif.got.tgz:15023.got - 2010.04.14 01:38:04.
