data_PCOD8159556
_publ_section_title
;
Structure prediction by ZEFSAII (Michael W. Deem and Ramdas Pophale) SiO2 
 PCOD8159556
Probable space group: C 2 2 21
;
_chemical_formula_sum "Si O2"
_cell_formula_units_Z 60
_cell_length_a 13.891942
_cell_length_b 18.903663
_cell_length_c 11.127434
_cell_angle_alpha 90.000000
_cell_angle_beta 90.000000
_cell_angle_gamma 90.000000
_cell_volume 2922.159753
_symmetry_space_group_name_H-M "C 2 2 21"
_symmetry_group_IT_number 20
_symmetry_cell_setting 'orthorhombic'
loop_
_space_group_symop_operation_xyz
x,y,z
-x,-y,1/2+z
x,-y,-z
-x,y,1/2-z
1/2+x,1/2+y,z
1/2-x,1/2-y,1/2+z
1/2+x,1/2-y,-z
1/2-x,1/2+y,1/2-z
loop_
_atom_site_type_symbol
_atom_site_label
_atom_site_fract_x
_atom_site_fract_y
_atom_site_fract_z
Si Si1 0.037166 0.310805 0.887027
Si Si2 0.359829 0.641168 0.164532
Si Si3 0.000000 0.038770 0.750000
Si Si4 0.830564 0.174057 0.572396
Si Si5 0.943961 0.910478 0.600418
Si Si6 0.853574 0.737449 0.007136
Si Si7 0.829411 0.864534 0.170790
Si Si8 0.192537 0.420164 0.969404
O O1 0.098836 0.239954 0.906288
O O2 0.000000 0.319339 0.750000
O O3 0.947916 0.311059 0.981210
O O4 0.097749 0.378552 0.929302
O O5 0.445878 0.611956 0.080970
O O6 0.390846 0.640597 0.302671
O O7 0.341610 0.721415 0.120465
O O8 0.268650 0.589821 0.140113
O O9 0.077956 0.084202 0.677717
O O10 0.056056 0.990659 0.849829
O O11 0.888704 0.105342 0.522906
O O12 0.743513 0.191455 0.481507
O O13 0.786092 0.148142 0.697565
O O14 0.865075 0.790051 0.119251
O O15 0.741974 0.891315 0.089993
O O16 0.163503 0.500000 0.000000
#
# Coordination Sequence:
#
# PCOD8159556 Si02
#       8
#     8   8   4   8   8   8   8   8
#     4  12  24  42  68 100 129 175 228 286 336 401
#     4   9  19  36  60  95 128 172 216 273 324 398
#     4  10  22  42  64 100 144 180 222 276 344 426
#     4  12  24  40  67  99 141 171 222 284 342 402
#     4  10  22  37  61  99 139 176 215 272 339 402
#     4  11  23  39  64  97 129 169 225 276 336 392
#     4  11  23  42  66  99 134 176 219 277 340 412
#     4  11  24  45  70  92 129 182 232 269 335 410
#
# _framework density 20.532758000000001
#
# number of rings (size 3 to 8) (size 9 to 14) (size 15 to 20)
#    0.000    1.333    5.333    2.400    5.600    0.533 
#    4.800    1.333    0.000    0.000    0.000    0.000 
#    0.000    0.000    0.000    0.000    0.000    0.000 
#
# Total GULP energy -371856.821676 kJ/mol
# GULP energy per Si atom -12395.227389 kJ/mol
# Density = 2.048602 g / cm^3
# Si number density = 20.532758 Si / 1000 Ang^3
#
#
#
# Elastic Constant Matrix: (Units=GPa)
#
#
# Indices 1 2 3 4 5 6 
#
# 1 140.0836 62.4530 45.5308 0.0000 0.0000 0.0000
# 2 62.4530 97.9982 34.0647 0.0000 0.0000 0.0000
# 3 45.5308 34.0647 67.8211 0.0000 0.0000 0.0000
# 4 0.0000 0.0000 0.0000 25.7411 0.0000 0.0000
# 5 0.0000 0.0000 0.0000 0.0000 35.9011 0.0000
# 6 0.0000 0.0000 0.0000 0.0000 0.0000 37.5631
#
#
#
# Elastic Compliance Matrix: (Units=1/GPa)
#
#
# Indices 1 2 3 4 5 6 
#
# 1 0.011093 -0.005429 -0.004721 0.000000 0.000000 0.000000
# 2 -0.005429 0.015019 -0.003899 0.000000 0.000000 0.000000
# 3 -0.004721 -0.003899 0.019872 0.000000 0.000000 0.000000
# 4 0.000000 0.000000 0.000000 0.038848 0.000000 0.000000
# 5 0.000000 0.000000 0.000000 0.000000 0.027854 0.000000
# 6 0.000000 0.000000 0.000000 0.000000 0.000000 0.026622
#
#
# Mechanical properties :
#
#
# Convention : Reuss Voigt Hill
#
# Bulk Modulus (GPa) = 55.90453 65.55554 60.73003
# Shear Modulus (GPa) = 28.84023 30.76469 29.80246
#
# Velocity S-wave (km/s) = 3.75186 3.87502 3.81394
# Velocity P-wave (km/s) = 6.78636 7.21232 7.00258
#
# Compressibility (1/GPa) = 0.01788764
#
# Stress axis : x y z
#
# Youngs Moduli (GPa) = 90.14597 66.58102 50.32120
#
# Poissons Ratio (x) = 0.36144 0.23755
# Poissons Ratio (y) = 0.48937 0.19622
# Poissons Ratio (z) = 0.42554 0.25962
#
# Static dielectric constant tensor:
#      x y z
#    x 3.765960 0.000000 0.000000 
#    y 0.000000 3.680080 0.000000 
#    z 0.000000 0.000000 3.774660 
# 
# 
# High freq. dielectric constant tensor:
#      x y z
#    x 1.798000 0.000000 0.000000 
#    y 0.000000 1.787680 0.000000 
#    z 0.000000 0.000000 1.809040 
# 
# From -- ./inp_files/14393.got.cif
#   From: 2010.03.12/outbox.cif.g09.slc.cpg/sg20_8_cif.got.tgz:14393.got - 2010.04.14 01:38:04.
