data_PCOD8159377
_publ_section_title
;
Structure prediction by ZEFSAII (Michael W. Deem and Ramdas Pophale) SiO2 
 PCOD8159377
Probable space group: C 2 2 21
;
_chemical_formula_sum "Si O2"
_cell_formula_units_Z 48
_cell_length_a 23.166295
_cell_length_b 11.926136
_cell_length_c 8.301797
_cell_angle_alpha 90.000000
_cell_angle_beta 90.000000
_cell_angle_gamma 90.000000
_cell_volume 2293.656877
_symmetry_space_group_name_H-M "C 2 2 21"
_symmetry_group_IT_number 20
_symmetry_cell_setting 'orthorhombic'
loop_
_space_group_symop_operation_xyz
x,y,z
-x,-y,1/2+z
x,-y,-z
-x,y,1/2-z
1/2+x,1/2+y,z
1/2-x,1/2-y,1/2+z
1/2+x,1/2-y,-z
1/2-x,1/2+y,1/2-z
loop_
_atom_site_type_symbol
_atom_site_label
_atom_site_fract_x
_atom_site_fract_y
_atom_site_fract_z
Si Si1 0.736326 0.681103 0.115802
Si Si2 0.810094 0.446653 0.674685
Si Si3 0.367694 0.281934 0.413199
Si Si4 0.673258 0.836828 0.347437
Si Si5 0.559659 0.531041 0.814034
Si Si6 0.433569 0.283543 0.731154
O O1 0.746827 0.589456 0.257023
O O2 0.715471 0.795340 0.202022
O O3 0.685721 0.648934 0.992471
O O4 0.796674 0.689743 0.018116
O O5 0.803483 0.500000 0.500000
O O6 0.849017 0.334021 0.669670
O O7 0.836767 0.531984 0.806150
O O8 0.393472 0.370461 0.284465
O O9 0.415666 0.254726 0.548156
O O10 0.610061 0.780576 0.350855
O O11 0.500000 0.581426 0.750000
O O12 0.574478 0.414921 0.722815
O O13 0.553867 0.500000 0.000000
O O14 0.500000 0.244642 0.750000
#
# Coordination Sequence:
#
# PCOD8159377 Si02
#       6
#     8   8   8   8   8   8
#     4  11  22  41  63  96 126 169 206 260 325 377
#     4  12  22  41  64  90 133 163 210 264 317 382
#     4  10  21  41  63  93 128 168 205 264 323 375
#     4  11  22  40  65  94 127 167 213 261 320 383
#     4   9  19  39  64  91 121 167 208 262 320 372
#     4   9  19  38  64  86 124 169 210 261 319 374
#
# _framework density 20.92728
#
# number of rings (size 3 to 8) (size 9 to 14) (size 15 to 20)
#    0.000    1.667    5.000    0.500    0.000    6.667 
#    9.000    0.833    3.667    3.000    0.000    0.000 
#    0.000    0.000    0.000    0.000    0.000    0.000 
#
# Total GULP energy -297380.533070 kJ/mol
# GULP energy per Si atom -12390.855545 kJ/mol
# Density = 2.087965 g / cm^3
# Si number density = 20.927280 Si / 1000 Ang^3
#
#
#
# Elastic Constant Matrix: (Units=GPa)
#
#
# Indices 1 2 3 4 5 6 
#
# 1 148.5148 72.0268 44.5310 0.0000 0.0000 0.0000
# 2 72.0268 131.0812 29.0788 0.0000 0.0000 0.0000
# 3 44.5310 29.0788 43.7500 0.0000 0.0000 0.0000
# 4 0.0000 0.0000 0.0000 25.2415 0.0000 0.0000
# 5 0.0000 0.0000 0.0000 0.0000 39.6285 0.0000
# 6 0.0000 0.0000 0.0000 0.0000 0.0000 31.8551
#
#
#
# Elastic Compliance Matrix: (Units=1/GPa)
#
#
# Indices 1 2 3 4 5 6 
#
# 1 0.011484 -0.004360 -0.008791 0.000000 0.000000 0.000000
# 2 -0.004360 0.010604 -0.002610 0.000000 0.000000 0.000000
# 3 -0.008791 -0.002610 0.033540 0.000000 0.000000 0.000000
# 4 0.000000 0.000000 0.000000 0.039617 0.000000 0.000000
# 5 0.000000 0.000000 0.000000 0.000000 0.025234 0.000000
# 6 0.000000 0.000000 0.000000 0.000000 0.000000 0.031392
#
#
# Mechanical properties :
#
#
# Convention : Reuss Voigt Hill
#
# Bulk Modulus (GPa) = 41.48446 68.29102 54.88774
# Shear Modulus (GPa) = 26.11960 31.19232 28.65596
#
# Velocity S-wave (km/s) = 3.53670 3.86490 3.70443
# Velocity P-wave (km/s) = 6.04515 7.25396 6.67697
#
# Compressibility (1/GPa) = 0.02410541
#
# Stress axis : x y z
#
# Youngs Moduli (GPa) = 87.08012 94.30792 29.81550
#
# Poissons Ratio (x) = 0.41118 0.26210
# Poissons Ratio (y) = 0.37966 0.07782
# Poissons Ratio (z) = 0.76550 0.24614
#
# Static dielectric constant tensor:
#      x y z
#    x 3.802650 0.000000 0.000000 
#    y 0.000000 4.030490 0.000000 
#    z 0.000000 0.000000 3.833530 
# 
# 
# High freq. dielectric constant tensor:
#      x y z
#    x 1.805400 0.000000 0.000000 
#    y 0.000000 1.816920 0.000000 
#    z 0.000000 0.000000 1.811200 
# 
# From -- ./inp_files/10641.got.cif
#   From: 2010.03.12/outbox.cif.g09.slc.cpg/sg20_6_cif.got.tgz:10641.got - 2010.04.14 01:38:04.
