data_PCOD8159330
_publ_section_title
;
Structure prediction by ZEFSAII (Michael W. Deem and Ramdas Pophale) SiO2 
 PCOD8159330
Probable space group: C 2 2 21
;
_chemical_formula_sum "Si O2"
_cell_formula_units_Z 60
_cell_length_a 8.321714
_cell_length_b 25.223876
_cell_length_c 13.082713
_cell_angle_alpha 90.000000
_cell_angle_beta 90.000000
_cell_angle_gamma 90.000000
_cell_volume 2746.138412
_symmetry_space_group_name_H-M "C 2 2 21"
_symmetry_group_IT_number 20
_symmetry_cell_setting 'orthorhombic'
loop_
_space_group_symop_operation_xyz
x,y,z
-x,-y,1/2+z
x,-y,-z
-x,y,1/2-z
1/2+x,1/2+y,z
1/2-x,1/2-y,1/2+z
1/2+x,1/2-y,-z
1/2-x,1/2+y,1/2-z
loop_
_atom_site_type_symbol
_atom_site_label
_atom_site_fract_x
_atom_site_fract_y
_atom_site_fract_z
Si Si1 0.673331 0.692454 0.087450
Si Si2 0.394775 0.352859 0.163264
Si Si3 0.188178 0.788584 0.520768
Si Si4 0.341364 0.594221 0.529019
Si Si5 0.176247 0.039417 0.295649
Si Si6 0.820971 0.437809 0.220705
Si Si7 0.181241 0.342836 0.787723
Si Si8 0.563849 0.500000 0.500000
O O1 0.486218 0.706214 0.072572
O O2 0.720347 0.694445 0.207343
O O3 0.774143 0.727853 0.007030
O O4 0.721753 0.631540 0.061693
O O5 0.500000 0.321658 0.250000
O O6 0.530570 0.372401 0.089455
O O7 0.298137 0.402211 0.210592
O O8 0.285460 0.315860 0.091464
O O9 0.313312 0.813058 0.602493
O O10 0.196048 0.576164 0.601221
O O11 0.442097 0.547528 0.481439
O O12 0.248190 0.098099 0.304422
O O13 0.177866 0.005660 0.401793
O O14 0.000000 0.043554 0.250000
O O15 0.284492 0.000664 0.226148
O O16 0.000000 0.423540 0.250000
O O17 0.000000 0.347669 0.750000
#
# Coordination Sequence:
#
# PCOD8159330 Si02
#       8
#     8   8   8   8   8   8   8   4
#     4  11  25  45  70 102 136 182 238 293 362 424
#     4   9  19  41  66  96 127 171 227 278 336 416
#     4  11  24  45  72  98 136 186 236 295 361 422
#     4  10  21  40  64  94 124 174 227 271 336 424
#     4  12  22  42  68  96 135 179 231 280 352 429
#     4  11  22  37  60  95 133 167 212 276 342 408
#     4  12  27  45  67 102 145 185 237 300 356 432
#     4  12  20  38  72  92 126 178 230 274 338 432
#
# _framework density 21.848863999999999
#
# number of rings (size 3 to 8) (size 9 to 14) (size 15 to 20)
#    0.000    1.067    2.667    5.200    0.000    5.867 
#    0.000    0.000    0.000    0.000    0.000    0.000 
#    0.000    0.000    0.000    0.000    0.000    0.000 
#
# Total GULP energy -371736.878325 kJ/mol
# GULP energy per Si atom -12391.229278 kJ/mol
# Density = 2.179914 g / cm^3
# Si number density = 21.848864 Si / 1000 Ang^3
#
#
#
# Elastic Constant Matrix: (Units=GPa)
#
#
# Indices 1 2 3 4 5 6 
#
# 1 67.2631 11.2931 26.8473 0.0000 0.0000 0.0000
# 2 11.2931 98.2119 42.5807 0.0000 0.0000 0.0000
# 3 26.8473 42.5807 108.5414 0.0000 0.0000 0.0000
# 4 0.0000 0.0000 0.0000 46.3453 0.0000 0.0000
# 5 0.0000 0.0000 0.0000 0.0000 31.3152 0.0000
# 6 0.0000 0.0000 0.0000 0.0000 0.0000 30.5379
#
#
#
# Elastic Compliance Matrix: (Units=1/GPa)
#
#
# Indices 1 2 3 4 5 6 
#
# 1 0.016497 -0.000154 -0.004020 0.000000 0.000000 0.000000
# 2 -0.000154 0.012270 -0.004776 0.000000 0.000000 0.000000
# 3 -0.004020 -0.004776 0.012081 0.000000 0.000000 0.000000
# 4 0.000000 0.000000 0.000000 0.021577 0.000000 0.000000
# 5 0.000000 0.000000 0.000000 0.000000 0.031933 0.000000
# 6 0.000000 0.000000 0.000000 0.000000 0.000000 0.032746
#
#
# Mechanical properties :
#
#
# Convention : Reuss Voigt Hill
#
# Bulk Modulus (GPa) = 43.57451 48.38430 45.97940
# Shear Modulus (GPa) = 32.75371 34.52602 33.63986
#
# Velocity S-wave (km/s) = 3.87603 3.97951 3.92811
# Velocity P-wave (km/s) = 6.32601 6.58091 6.45472
#
# Compressibility (1/GPa) = 0.02294919
#
# Stress axis : x y z
#
# Youngs Moduli (GPa) = 60.61543 81.49794 82.77536
#
# Poissons Ratio (x) = 0.01255 0.33277
# Poissons Ratio (y) = 0.00933 0.39530
# Poissons Ratio (z) = 0.24368 0.38920
#
# Static dielectric constant tensor:
#      x y z
#    x 3.709510 0.000000 0.000000 
#    y 0.000000 4.146880 0.000000 
#    z 0.000000 0.000000 4.788720 
# 
# 
# High freq. dielectric constant tensor:
#      x y z
#    x 1.841230 0.000000 0.000000 
#    y 0.000000 1.861510 0.000000 
#    z 0.000000 0.000000 1.876740 
# 
# From -- ./inp_files/13281.got.cif
#   From: 2010.03.12/outbox.cif.g09.slc.cpg/sg20_7_cif.got.tgz:13281.got - 2010.04.14 01:38:04.
