data_PCOD8159253
_publ_section_title
;
Structure prediction by ZEFSAII (Michael W. Deem and Ramdas Pophale) SiO2 
 PCOD8159253
Probable space group: C 2 2 21
;
_chemical_formula_sum "Si O2"
_cell_formula_units_Z 40
_cell_length_a 8.768109
_cell_length_b 9.253771
_cell_length_c 22.809686
_cell_angle_alpha 90.000000
_cell_angle_beta 90.000000
_cell_angle_gamma 90.000000
_cell_volume 1850.733963
_symmetry_space_group_name_H-M "C 2 2 21"
_symmetry_group_IT_number 20
_symmetry_cell_setting 'orthorhombic'
loop_
_space_group_symop_operation_xyz
x,y,z
-x,-y,1/2+z
x,-y,-z
-x,y,1/2-z
1/2+x,1/2+y,z
1/2-x,1/2-y,1/2+z
1/2+x,1/2-y,-z
1/2-x,1/2+y,1/2-z
loop_
_atom_site_type_symbol
_atom_site_label
_atom_site_fract_x
_atom_site_fract_y
_atom_site_fract_z
Si Si1 0.847351 0.770415 0.428355
Si Si2 0.675930 0.651230 0.530231
Si Si3 0.827564 0.907905 0.764904
Si Si4 0.151291 0.532557 0.869007
Si Si5 0.173527 0.605722 0.678695
O O1 0.728296 0.770525 0.482831
O O2 0.889355 0.612838 0.403921
O O3 0.775097 0.873029 0.379078
O O4 0.001981 0.836851 0.451878
O O5 0.701515 0.500000 0.500000
O O6 0.783912 0.656176 0.587735
O O7 0.802633 0.737742 0.775849
O O8 0.000000 0.947620 0.750000
O O9 0.783210 0.997690 0.822470
O O10 0.722621 0.957114 0.710236
O O11 0.003695 0.597183 0.837392
#
# Coordination Sequence:
#
# PCOD8159253 Si02
#       5
#     8   8   8   8   8
#     4  10  22  38  62  90 122 161 202 251 306 362
#     4  10  21  39  61  90 123 157 201 248 300 367
#     4  11  23  39  60  87 119 159 205 254 308 366
#     4  10  22  39  59  87 121 158 203 252 304 366
#     4  11  24  41  62  90 123 163 206 255 309 363
#
# _framework density 21.613047999999999
#
# number of rings (size 3 to 8) (size 9 to 14) (size 15 to 20)
#    0.000    1.600    0.000    4.200    0.000    8.000 
#    0.000    0.000    0.000    0.000    0.000    0.000 
#    0.000    0.000    0.000    0.000    0.000    0.000 
#
# Total GULP energy -248063.070052 kJ/mol
# GULP energy per Si atom -12403.153503 kJ/mol
# Density = 2.156386 g / cm^3
# Si number density = 21.613048 Si / 1000 Ang^3
#
#
#
# Elastic Constant Matrix: (Units=GPa)
#
#
# Indices 1 2 3 4 5 6 
#
# 1 145.5911 26.7401 58.7854 0.0000 0.0000 0.0000
# 2 26.7401 40.9683 28.1819 0.0000 0.0000 0.0000
# 3 58.7854 28.1819 99.4773 0.0000 0.0000 0.0000
# 4 0.0000 0.0000 0.0000 26.9248 0.0000 0.0000
# 5 0.0000 0.0000 0.0000 0.0000 54.8102 0.0000
# 6 0.0000 0.0000 0.0000 0.0000 0.0000 30.1427
#
#
#
# Elastic Compliance Matrix: (Units=1/GPa)
#
#
# Indices 1 2 3 4 5 6 
#
# 1 0.009279 -0.002837 -0.004680 0.000000 0.000000 0.000000
# 2 -0.002837 0.031185 -0.007158 0.000000 0.000000 0.000000
# 3 -0.004680 -0.007158 0.014846 0.000000 0.000000 0.000000
# 4 0.000000 0.000000 0.000000 0.037141 0.000000 0.000000
# 5 0.000000 0.000000 0.000000 0.000000 0.018245 0.000000
# 6 0.000000 0.000000 0.000000 0.000000 0.000000 0.033175
#
#
# Mechanical properties :
#
#
# Convention : Reuss Voigt Hill
#
# Bulk Modulus (GPa) = 38.52082 57.05015 47.78548
# Shear Modulus (GPa) = 27.49154 33.86416 30.67785
#
# Velocity S-wave (km/s) = 3.57036 3.96263 3.77160
# Velocity P-wave (km/s) = 5.90409 6.88404 6.41281
#
# Compressibility (1/GPa) = 0.02595999
#
# Stress axis : x y z
#
# Youngs Moduli (GPa) = 107.76806 32.06666 67.35921
#
# Poissons Ratio (x) = 0.09099 0.31522
# Poissons Ratio (y) = 0.30579 0.48215
# Poissons Ratio (z) = 0.50431 0.22953
#
# Static dielectric constant tensor:
#      x y z
#    x 3.750000 0.000000 0.000000 
#    y 0.000000 3.805730 0.000000 
#    z 0.000000 0.000000 4.400600 
# 
# 
# High freq. dielectric constant tensor:
#      x y z
#    x 1.854510 0.000000 0.000000 
#    y 0.000000 1.830130 0.000000 
#    z 0.000000 0.000000 1.872220 
# 
# From -- ./inp_files/23180.got.cif
#   From: 2010.03.12/outbox.cif.g09.slc.cpg/sg20_12_cif.got.tgz:23180.got - 2010.04.14 01:38:04.
