data_PCOD8159685
_publ_section_title
;
Structure prediction by ZEFSAII (Michael W. Deem and Ramdas Pophale) SiO2 
 PCOD8159685
Probable space group: C 2 2 21
;
_chemical_formula_sum "Si O2"
_cell_formula_units_Z 48
_cell_length_a 22.714432
_cell_length_b 5.330269
_cell_length_c 16.711556
_cell_angle_alpha 90.000000
_cell_angle_beta 90.000000
_cell_angle_gamma 90.000000
_cell_volume 2023.335478
_symmetry_space_group_name_H-M "C 2 2 21"
_symmetry_group_IT_number 20
_symmetry_cell_setting 'orthorhombic'
loop_
_space_group_symop_operation_xyz
x,y,z
-x,-y,1/2+z
x,-y,-z
-x,y,1/2-z
1/2+x,1/2+y,z
1/2-x,1/2-y,1/2+z
1/2+x,1/2-y,-z
1/2-x,1/2+y,1/2-z
loop_
_atom_site_type_symbol
_atom_site_label
_atom_site_fract_x
_atom_site_fract_y
_atom_site_fract_z
Si Si1 0.097888 0.751854 0.342418
Si Si2 0.500000 0.480870 0.750000
Si Si3 0.826298 0.972996 0.594523
Si Si4 0.116775 0.473870 0.908862
Si Si5 0.730227 0.158360 0.292960
Si Si6 0.507013 0.871921 0.393777
Si Si7 0.437868 0.500000 0.000000
O O1 0.161545 0.696760 0.307805
O O2 0.068524 0.491450 0.367802
O O3 0.100822 0.932911 0.421168
O O4 0.057770 0.856021 0.270431
O O5 0.515762 0.320947 0.827524
O O6 0.850868 0.235216 0.632082
O O7 0.759780 0.926218 0.623348
O O8 0.828780 0.000000 0.500000
O O9 0.864998 0.741602 0.629631
O O10 0.046273 0.430223 0.903449
O O11 0.137697 0.500000 0.000000
O O12 0.741862 0.925792 0.232944
O O13 0.519215 0.732449 0.478317
#
# Coordination Sequence:
#
# PCOD8159685 Si02
#       7
#     8   4   8   8   8   8   4
#     4  11  26  48  73 108 147 198 250 312 384 457
#     4  10  26  42  70 104 144 190 242 292 386 454
#     4  10  24  45  69 105 140 195 247 303 361 441
#     4  10  22  40  71 104 142 180 235 297 367 432
#     4  12  30  51  75 105 148 200 256 317 380 451
#     4  11  24  42  72 111 149 192 239 314 378 455
#     4  10  24  44  74 114 148 192 248 314 386 454
#
# _framework density 23.723202000000001
#
# number of rings (size 3 to 8) (size 9 to 14) (size 15 to 20)
#    0.000    1.333    0.000    3.000   15.167    4.000 
#    4.500    0.000    0.000    0.000    0.000    0.000 
#    0.000    0.000    0.000    0.000    0.000    0.000 
#
# Total GULP energy -297514.728843 kJ/mol
# GULP energy per Si atom -12396.447035 kJ/mol
# Density = 2.366921 g / cm^3
# Si number density = 23.723202 Si / 1000 Ang^3
#
#
#
# Elastic Constant Matrix: (Units=GPa)
#
#
# Indices 1 2 3 4 5 6 
#
# 1 195.9983 80.1233 48.4368 0.0000 0.0000 0.0000
# 2 80.1233 170.5484 34.2658 0.0000 0.0000 0.0000
# 3 48.4368 34.2658 69.7885 0.0000 0.0000 0.0000
# 4 0.0000 0.0000 0.0000 31.9605 0.0000 0.0000
# 5 0.0000 0.0000 0.0000 0.0000 36.7651 0.0000
# 6 0.0000 0.0000 0.0000 0.0000 0.0000 37.7711
#
#
#
# Elastic Compliance Matrix: (Units=1/GPa)
#
#
# Indices 1 2 3 4 5 6 
#
# 1 0.007056 -0.002586 -0.003627 0.000000 0.000000 0.000000
# 2 -0.002586 0.007453 -0.001865 0.000000 0.000000 0.000000
# 3 -0.003627 -0.001865 0.017762 0.000000 0.000000 0.000000
# 4 0.000000 0.000000 0.000000 0.031289 0.000000 0.000000
# 5 0.000000 0.000000 0.000000 0.000000 0.027200 0.000000
# 6 0.000000 0.000000 0.000000 0.000000 0.000000 0.026475
#
#
# Mechanical properties :
#
#
# Convention : Reuss Voigt Hill
#
# Bulk Modulus (GPa) = 62.05403 84.66521 73.35962
# Shear Modulus (GPa) = 36.03307 39.53329 37.78318
#
# Velocity S-wave (km/s) = 3.90153 4.08663 3.99515
# Velocity P-wave (km/s) = 6.81984 7.61798 7.22993
#
# Compressibility (1/GPa) = 0.01611499
#
# Stress axis : x y z
#
# Youngs Moduli (GPa) = 141.73122 134.17545 56.29986
#
# Poissons Ratio (x) = 0.34697 0.20422
# Poissons Ratio (y) = 0.36651 0.10498
# Poissons Ratio (z) = 0.51410 0.25018
#
# Static dielectric constant tensor:
#      x y z
#    x 4.033120 0.000000 0.000000 
#    y 0.000000 4.748590 0.000000 
#    z 0.000000 0.000000 4.280330 
# 
# 
# High freq. dielectric constant tensor:
#      x y z
#    x 1.923000 0.000000 0.000000 
#    y 0.000000 1.959280 0.000000 
#    z 0.000000 0.000000 1.943890 
# 
# From -- ./inp_files/25599.got.cif
#   From: 2010.03.12/outbox.cif.g09.slc.cpg/sg20_13_cif.got.tgz:25599.got - 2010.04.14 01:38:04.
