data_PCOD8159551
_publ_section_title
;
Structure prediction by ZEFSAII (Michael W. Deem and Ramdas Pophale) SiO2 
 PCOD8159551
Probable space group: C 2 2 21
;
_chemical_formula_sum "Si O2"
_cell_formula_units_Z 60
_cell_length_a 27.793280
_cell_length_b 5.022733
_cell_length_c 21.408537
_cell_angle_alpha 90.000000
_cell_angle_beta 90.000000
_cell_angle_gamma 90.000000
_cell_volume 2988.593757
_symmetry_space_group_name_H-M "C 2 2 21"
_symmetry_group_IT_number 20
_symmetry_cell_setting 'orthorhombic'
loop_
_space_group_symop_operation_xyz
x,y,z
-x,-y,1/2+z
x,-y,-z
-x,y,1/2-z
1/2+x,1/2+y,z
1/2-x,1/2-y,1/2+z
1/2+x,1/2-y,-z
1/2-x,1/2+y,1/2-z
loop_
_atom_site_type_symbol
_atom_site_label
_atom_site_fract_x
_atom_site_fract_y
_atom_site_fract_z
Si Si1 0.037542 0.664826 0.197204
Si Si2 0.400038 0.339767 0.712209
Si Si3 0.046637 0.499806 0.378358
Si Si4 0.404165 0.000000 0.000000
Si Si5 0.201850 0.677022 0.802536
Si Si6 0.825852 0.129404 0.061011
Si Si7 0.601053 0.522458 0.654645
Si Si8 0.240354 0.673587 0.667032
O O1 0.065889 0.411330 0.223258
O O2 0.000000 0.762540 0.250000
O O3 0.009530 0.555412 0.135680
O O4 0.071828 0.914386 0.179037
O O5 0.352391 0.245591 0.674889
O O6 0.379473 0.433463 0.778661
O O7 0.059765 0.613146 0.447222
O O8 0.061313 0.191419 0.369963
O O9 0.077048 0.691900 0.332353
O O10 0.370144 0.789682 0.032811
O O11 0.205742 0.698025 0.727167
O O12 0.216305 0.385776 0.827211
O O13 0.237819 0.880203 0.836236
O O14 0.852982 0.929382 0.108892
O O15 0.788023 0.297204 0.101468
O O16 0.799741 0.000000 0.000000
#
# Coordination Sequence:
#
# PCOD8159551 Si02
#       8
#     8   8   8   4   8   8   8   8
#     4  12  22  33  56  88 118 153 194 239 288 337
#     4  12  21  37  57  84 119 153 193 236 292 344
#     4  11  22  36  52  82 121 150 191 229 283 347
#     4  10  24  38  58  86 124 154 190 230 304 356
#     4  10  22  39  56  86 116 159 191 240 298 345
#     4  11  22  37  59  92 120 156 192 234 304 359
#     4  11  20  34  54  82 124 152 178 235 279 352
#     4  10  22  37  60  84 119 150 197 238 291 363
#
# _framework density 20.076333999999999
#
# number of rings (size 3 to 8) (size 9 to 14) (size 15 to 20)
#    0.000    1.067    5.333    2.000    1.867    0.000 
#    0.000    0.000    0.000    0.000   10.400    0.000 
#    0.000    0.000    0.000    0.000    0.000    0.000 
#
# Total GULP energy -371806.609617 kJ/mol
# GULP energy per Si atom -12393.553654 kJ/mol
# Density = 2.003064 g / cm^3
# Si number density = 20.076334 Si / 1000 Ang^3
#
#
#
# Elastic Constant Matrix: (Units=GPa)
#
#
# Indices 1 2 3 4 5 6 
#
# 1 60.4541 -6.2906 19.4371 0.0000 0.0000 0.0000
# 2 -6.2906 62.2087 -3.7559 0.0000 0.0000 0.0000
# 3 19.4371 -3.7559 76.6960 0.0000 0.0000 0.0000
# 4 0.0000 0.0000 0.0000 18.5746 0.0000 0.0000
# 5 0.0000 0.0000 0.0000 0.0000 27.2837 0.0000
# 6 0.0000 0.0000 0.0000 0.0000 0.0000 11.2598
#
#
#
# Elastic Compliance Matrix: (Units=1/GPa)
#
#
# Indices 1 2 3 4 5 6 
#
# 1 0.018159 0.001563 -0.004526 0.000000 0.000000 0.000000
# 2 0.001563 0.016257 0.000400 0.000000 0.000000 0.000000
# 3 -0.004526 0.000400 0.014205 0.000000 0.000000 0.000000
# 4 0.000000 0.000000 0.000000 0.053837 0.000000 0.000000
# 5 0.000000 0.000000 0.000000 0.000000 0.036652 0.000000
# 6 0.000000 0.000000 0.000000 0.000000 0.000000 0.088812
#
#
# Mechanical properties :
#
#
# Convention : Reuss Voigt Hill
#
# Bulk Modulus (GPa) = 22.99047 24.23778 23.61413
# Shear Modulus (GPa) = 20.19828 24.08815 22.14322
#
# Velocity S-wave (km/s) = 3.17531 3.46761 3.32467
# Velocity P-wave (km/s) = 4.99198 5.30391 5.15031
#
# Compressibility (1/GPa) = 0.04349629
#
# Stress axis : x y z
#
# Youngs Moduli (GPa) = 55.06856 61.51151 70.39775
#
# Poissons Ratio (x) = -0.09614 0.31859
# Poissons Ratio (y) = -0.08607 -0.02816
# Poissons Ratio (z) = 0.24922 -0.02461
#
# Static dielectric constant tensor:
#      x y z
#    x 3.606060 0.000000 0.000000 
#    y 0.000000 3.698320 0.000000 
#    z 0.000000 0.000000 3.889820 
# 
# 
# High freq. dielectric constant tensor:
#      x y z
#    x 1.769410 0.000000 0.000000 
#    y 0.000000 1.794480 0.000000 
#    z 0.000000 0.000000 1.750740 
# 
# From -- ./inp_files/28039.got.cif
#   From: 2010.03.12/outbox.cif.g09.slc.cpg/sg20_15_cif.got.tgz:28039.got - 2010.04.14 01:38:04.
