data_PCOD8159944
_publ_section_title
;
Structure prediction by ZEFSAII (Michael W. Deem and Ramdas Pophale) SiO2 
 PCOD8159944
Probable space group: C 2 2 21
;
_chemical_formula_sum "Si O2"
_cell_formula_units_Z 56
_cell_length_a 15.473114
_cell_length_b 11.471860
_cell_length_c 14.419526
_cell_angle_alpha 90.000000
_cell_angle_beta 90.000000
_cell_angle_gamma 90.000000
_cell_volume 2559.543695
_symmetry_space_group_name_H-M "C 2 2 21"
_symmetry_group_IT_number 20
_symmetry_cell_setting 'orthorhombic'
loop_
_space_group_symop_operation_xyz
x,y,z
-x,-y,1/2+z
x,-y,-z
-x,y,1/2-z
1/2+x,1/2+y,z
1/2-x,1/2-y,1/2+z
1/2+x,1/2-y,-z
1/2-x,1/2+y,1/2-z
loop_
_atom_site_type_symbol
_atom_site_label
_atom_site_fract_x
_atom_site_fract_y
_atom_site_fract_z
Si Si1 0.522534 0.750590 0.147234
Si Si2 0.816828 0.894117 0.658404
Si Si3 0.445489 0.635035 0.981607
Si Si4 0.922406 0.125008 0.678143
Si Si5 0.869847 0.450332 0.402601
Si Si6 0.267384 0.733144 0.965688
Si Si7 0.208182 0.677978 0.170871
O O1 0.500000 0.713243 0.250000
O O2 0.602104 0.672415 0.116487
O O3 0.546171 0.887699 0.141941
O O4 0.449135 0.710936 0.075946
O O5 0.746200 0.864502 0.576939
O O6 0.784512 0.836598 0.754595
O O7 0.847424 0.026859 0.670761
O O8 0.531984 0.648710 0.920579
O O9 0.361966 0.690773 0.933597
O O10 0.426613 0.500000 0.000000
O O11 0.868573 0.238611 0.707553
O O12 0.000000 0.093610 0.750000
O O13 0.901631 0.500000 0.500000
O O14 0.793905 0.357765 0.413568
O O15 0.836070 0.552172 0.337099
O O16 0.250029 0.727675 0.076143
#
# Coordination Sequence:
#
# PCOD8159944 Si02
#       7
#     8   8   8   8   8   8   8
#     4  11  23  40  66  99 136 180 226 285 350 412
#     4  11  24  43  65  98 134 171 229 281 344 422
#     4  12  23  40  69 103 140 175 233 298 351 412
#     4  12  27  42  72 106 139 178 235 302 353 407
#     4   9  20  41  66  91 131 186 229 271 345 421
#     4  10  23  41  69  98 134 180 228 280 348 418
#     4  11  24  42  70  96 137 183 230 279 355 425
#
# _framework density 21.878900000000002
#
# number of rings (size 3 to 8) (size 9 to 14) (size 15 to 20)
#    0.000    1.143    1.429    6.000    8.000    0.571 
#    0.000    1.429    3.143    0.000    0.000    0.000 
#    0.000    0.000    0.000    0.000    0.000    0.000 
#
# Total GULP energy -347027.412234 kJ/mol
# GULP energy per Si atom -12393.836151 kJ/mol
# Density = 2.182910 g / cm^3
# Si number density = 21.878900 Si / 1000 Ang^3
#
#
#
# Elastic Constant Matrix: (Units=GPa)
#
#
# Indices 1 2 3 4 5 6 
#
# 1 92.0613 43.4022 29.1885 0.0000 0.0000 0.0000
# 2 43.4022 84.7216 31.5244 0.0000 0.0000 0.0000
# 3 29.1885 31.5244 103.9053 0.0000 0.0000 0.0000
# 4 0.0000 0.0000 0.0000 26.0235 0.0000 0.0000
# 5 0.0000 0.0000 0.0000 0.0000 36.4622 0.0000
# 6 0.0000 0.0000 0.0000 0.0000 0.0000 34.6866
#
#
#
# Elastic Compliance Matrix: (Units=1/GPa)
#
#
# Indices 1 2 3 4 5 6 
#
# 1 0.014710 -0.006761 -0.002081 0.000000 0.000000 0.000000
# 2 -0.006761 0.016413 -0.003080 0.000000 0.000000 0.000000
# 3 -0.002081 -0.003080 0.011143 0.000000 0.000000 0.000000
# 4 0.000000 0.000000 0.000000 0.038427 0.000000 0.000000
# 5 0.000000 0.000000 0.000000 0.000000 0.027426 0.000000
# 6 0.000000 0.000000 0.000000 0.000000 0.000000 0.028830
#
#
# Mechanical properties :
#
#
# Convention : Reuss Voigt Hill
#
# Bulk Modulus (GPa) = 54.28533 54.32427 54.30480
# Shear Modulus (GPa) = 29.95196 31.20599 30.57897
#
# Velocity S-wave (km/s) = 3.70400 3.78074 3.74257
# Velocity P-wave (km/s) = 6.56950 6.62889 6.59926
#
# Compressibility (1/GPa) = 0.01842118
#
# Stress axis : x y z
#
# Youngs Moduli (GPa) = 67.98229 60.92594 89.74056
#
# Poissons Ratio (x) = 0.41195 0.18673
# Poissons Ratio (y) = 0.45966 0.27643
# Poissons Ratio (z) = 0.14146 0.18767
#
# Static dielectric constant tensor:
#      x y z
#    x 4.114580 0.000000 0.000000 
#    y 0.000000 4.285390 0.000000 
#    z 0.000000 0.000000 3.936300 
# 
# 
# High freq. dielectric constant tensor:
#      x y z
#    x 1.858510 0.000000 0.000000 
#    y 0.000000 1.856040 0.000000 
#    z 0.000000 0.000000 1.862660 
# 
# From -- ./inp_files/20744.got.cif
#   From: 2010.03.12/outbox.cif.g09.slc.cpg/sg20_11_cif.got.tgz:20744.got - 2010.04.14 01:38:04.
