data_PCOD8159967
_publ_section_title
;
Structure prediction by ZEFSAII (Michael W. Deem and Ramdas Pophale) SiO2 
 PCOD8159967
Probable space group: C 2 2 21
;
_chemical_formula_sum "Si O2"
_cell_formula_units_Z 40
_cell_length_a 17.113585
_cell_length_b 18.980034
_cell_length_c 5.298687
_cell_angle_alpha 90.000000
_cell_angle_beta 90.000000
_cell_angle_gamma 90.000000
_cell_volume 1721.100569
_symmetry_space_group_name_H-M "C 2 2 21"
_symmetry_group_IT_number 20
_symmetry_cell_setting 'orthorhombic'
loop_
_space_group_symop_operation_xyz
x,y,z
-x,-y,1/2+z
x,-y,-z
-x,y,1/2-z
1/2+x,1/2+y,z
1/2-x,1/2-y,1/2+z
1/2+x,1/2-y,-z
1/2-x,1/2+y,1/2-z
loop_
_atom_site_type_symbol
_atom_site_label
_atom_site_fract_x
_atom_site_fract_y
_atom_site_fract_z
Si Si1 0.151235 0.284327 0.979161
Si Si2 0.454069 0.500000 0.500000
Si Si3 0.165466 0.939455 0.687670
Si Si4 0.697940 0.000000 0.500000
Si Si5 0.084407 0.573055 0.852382
Si Si6 0.165065 0.213788 0.478912
O O1 0.121094 0.365256 0.973718
O O2 0.121139 0.247547 0.236373
O O3 0.243425 0.270784 0.980190
O O4 0.121248 0.245550 0.725173
O O5 0.500000 0.475054 0.250000
O O6 0.396835 0.564494 0.417531
O O7 0.159430 0.869935 0.523930
O O8 0.137580 0.000000 0.500000
O O9 0.251543 0.956766 0.794845
O O10 0.645087 0.939659 0.374310
O O11 0.000000 0.596971 0.750000
O O12 0.074235 0.500000 0.000000
#
# Coordination Sequence:
#
# PCOD8159967 Si02
#       6
#     8   4   8   4   8   8
#     4  10  24  41  69 100 147 182 240 299 367 439
#     4  11  24  44  70 107 148 184 226 297 374 450
#     4  11  24  42  78 110 144 188 251 311 369 443
#     4  11  24  40  74 115 148 188 266 321 358 464
#     4  12  26  45  71 105 149 205 250 315 384 450
#     4  10  23  42  69 105 138 186 234 306 367 423
#
# _framework density 23.240943999999999
#
# number of rings (size 3 to 8) (size 9 to 14) (size 15 to 20)
#    0.000    1.200    2.000    3.000   16.800    0.000 
#    0.000    1.000    4.400    1.200    0.000    0.000 
#    0.000    0.000    0.000    0.000    0.000    0.000 
#
# Total GULP energy -247891.395678 kJ/mol
# GULP energy per Si atom -12394.569784 kJ/mol
# Density = 2.318805 g / cm^3
# Si number density = 23.240944 Si / 1000 Ang^3
#
#
#
# Elastic Constant Matrix: (Units=GPa)
#
#
# Indices 1 2 3 4 5 6 
#
# 1 89.7018 15.5211 46.2633 0.0000 0.0000 0.0000
# 2 15.5211 153.1774 83.2544 0.0000 0.0000 0.0000
# 3 46.2633 83.2544 190.8926 0.0000 0.0000 0.0000
# 4 0.0000 0.0000 0.0000 53.9599 0.0000 0.0000
# 5 0.0000 0.0000 0.0000 0.0000 32.6027 0.0000
# 6 0.0000 0.0000 0.0000 0.0000 0.0000 12.1419
#
#
#
# Elastic Compliance Matrix: (Units=1/GPa)
#
#
# Indices 1 2 3 4 5 6 
#
# 1 0.012771 0.000509 -0.003317 0.000000 0.000000 0.000000
# 2 0.000509 0.008577 -0.003864 0.000000 0.000000 0.000000
# 3 -0.003317 -0.003864 0.007728 0.000000 0.000000 0.000000
# 4 0.000000 0.000000 0.000000 0.018532 0.000000 0.000000
# 5 0.000000 0.000000 0.000000 0.000000 0.030672 0.000000
# 6 0.000000 0.000000 0.000000 0.000000 0.000000 0.082360
#
#
# Mechanical properties :
#
#
# Convention : Reuss Voigt Hill
#
# Bulk Modulus (GPa) = 63.56866 80.42772 71.99819
# Shear Modulus (GPa) = 27.89753 38.98976 33.44365
#
# Velocity S-wave (km/s) = 3.46838 4.10033 3.79753
# Velocity P-wave (km/s) = 6.59173 7.55633 7.09046
#
# Compressibility (1/GPa) = 0.01573102
#
# Stress axis : x y z
#
# Youngs Moduli (GPa) = 78.30429 116.59128 129.40598
#
# Poissons Ratio (x) = -0.05932 0.42923
# Poissons Ratio (y) = -0.03984 0.50002
# Poissons Ratio (z) = 0.25973 0.45051
#
# Static dielectric constant tensor:
#      x y z
#    x 4.116520 0.000000 0.000000 
#    y 0.000000 3.847060 0.000000 
#    z 0.000000 0.000000 4.655630 
# 
# 
# High freq. dielectric constant tensor:
#      x y z
#    x 1.902260 0.000000 0.000000 
#    y 0.000000 1.903060 0.000000 
#    z 0.000000 0.000000 1.939390 
# 
# From -- ./inp_files/2509.got.cif
#   From: 2010.03.12/outbox.cif.g09.slc.cpg/sg20_2_cif.got.tgz:2509.got - 2010.04.14 01:38:04.
