data_PCOD8159005
_publ_section_title
;
Structure prediction by ZEFSAII (Michael W. Deem and Ramdas Pophale) SiO2 
 PCOD8159005
Probable space group: C 2 2 21
;
_chemical_formula_sum "Si O2"
_cell_formula_units_Z 64
_cell_length_a 26.334601
_cell_length_b 18.394326
_cell_length_c 6.615804
_cell_angle_alpha 90.000000
_cell_angle_beta 90.000000
_cell_angle_gamma 90.000000
_cell_volume 3204.743329
_symmetry_space_group_name_H-M "C 2 2 21"
_symmetry_group_IT_number 20
_symmetry_cell_setting 'orthorhombic'
loop_
_space_group_symop_operation_xyz
x,y,z
-x,-y,1/2+z
x,-y,-z
-x,y,1/2-z
1/2+x,1/2+y,z
1/2-x,1/2-y,1/2+z
1/2+x,1/2-y,-z
1/2-x,1/2+y,1/2-z
loop_
_atom_site_type_symbol
_atom_site_label
_atom_site_fract_x
_atom_site_fract_y
_atom_site_fract_z
Si Si1 0.058207 0.341263 0.254847
Si Si2 0.204983 0.811371 0.787644
Si Si3 0.683417 0.789485 0.855753
Si Si4 0.134682 0.174003 0.594357
Si Si5 0.953641 0.571761 0.118216
Si Si6 0.373672 0.074222 0.438668
Si Si7 0.558899 0.327237 0.746208
Si Si8 0.860792 0.086319 0.516338
O O1 0.071496 0.363034 0.484929
O O2 0.064625 0.257197 0.194705
O O3 0.000000 0.367190 0.250000
O O4 0.092118 0.387564 0.106249
O O5 0.263182 0.790395 0.759362
O O6 0.178883 0.822268 0.571988
O O7 0.192095 0.884462 0.917452
O O8 0.183224 0.744222 0.918851
O O9 0.640699 0.747153 0.725989
O O10 0.670363 0.873355 0.867222
O O11 0.080438 0.165949 0.482588
O O12 0.139614 0.105453 0.745246
O O13 0.908790 0.545881 0.260084
O O14 0.000000 0.604384 0.250000
O O15 0.972571 0.500000 0.000000
O O16 0.345383 0.000000 0.500000
O O17 0.500000 0.352067 0.750000
O O18 0.591128 0.376088 0.902655
O O19 0.864662 0.000000 0.500000
#
# Coordination Sequence:
#
# PCOD8159005 Si02
#       8
#     8   8   8   8   8   8   8   8
#     4  11  21  38  59  84 122 167 218 263 294 369
#     4  10  21  41  69  94 121 164 214 265 327 394
#     4  11  22  41  66  94 124 166 214 267 327 384
#     4  10  20  41  69  93 127 169 208 269 318 384
#     4  12  22  37  57  82 120 175 220 248 303 363
#     4  12  24  38  54  87 129 163 205 260 316 366
#     4  10  23  41  64 100 132 169 220 269 323 386
#     4  10  23  44  66  99 130 168 219 264 330 410
#
# _framework density 19.970397999999999
#
# number of rings (size 3 to 8) (size 9 to 14) (size 15 to 20)
#    0.000    1.250    3.750    3.750    0.000    2.500 
#    4.500    0.625    0.000    0.000    0.000    0.000 
#    0.000    0.000    0.000    0.000    0.000    0.000 
#
# Total GULP energy -396572.924213 kJ/mol
# GULP energy per Si atom -12392.903882 kJ/mol
# Density = 1.992494 g / cm^3
# Si number density = 19.970398 Si / 1000 Ang^3
#
#
#
# Elastic Constant Matrix: (Units=GPa)
#
#
# Indices 1 2 3 4 5 6 
#
# 1 75.8625 30.2794 38.1487 0.0000 0.0000 0.0000
# 2 30.2794 130.9465 38.7183 0.0000 0.0000 0.0000
# 3 38.1487 38.7183 118.6825 0.0000 0.0000 0.0000
# 4 0.0000 0.0000 0.0000 48.2612 0.0000 0.0000
# 5 0.0000 0.0000 0.0000 0.0000 30.4016 0.0000
# 6 0.0000 0.0000 0.0000 0.0000 0.0000 20.4072
#
#
#
# Elastic Compliance Matrix: (Units=1/GPa)
#
#
# Indices 1 2 3 4 5 6 
#
# 1 0.016417 -0.002475 -0.004470 0.000000 0.000000 0.000000
# 2 -0.002475 0.008825 -0.002084 0.000000 0.000000 0.000000
# 3 -0.004470 -0.002084 0.010542 0.000000 0.000000 0.000000
# 4 0.000000 0.000000 0.000000 0.020721 0.000000 0.000000
# 5 0.000000 0.000000 0.000000 0.000000 0.032893 0.000000
# 6 0.000000 0.000000 0.000000 0.000000 0.000000 0.049002
#
#
# Mechanical properties :
#
#
# Convention : Reuss Voigt Hill
#
# Bulk Modulus (GPa) = 56.40612 59.97603 58.19108
# Shear Modulus (GPa) = 30.79468 34.37034 32.58251
#
# Velocity S-wave (km/s) = 3.93111 4.15307 4.04362
# Velocity P-wave (km/s) = 6.99364 7.28663 7.14164
#
# Compressibility (1/GPa) = 0.01772857
#
# Stress axis : x y z
#
# Youngs Moduli (GPa) = 60.91203 113.31443 94.85588
#
# Poissons Ratio (x) = 0.28041 0.42398
# Poissons Ratio (y) = 0.15073 0.19764
# Poissons Ratio (z) = 0.27226 0.23610
#
# Static dielectric constant tensor:
#      x y z
#    x 3.469840 0.000000 0.000000 
#    y 0.000000 3.510380 0.000000 
#    z 0.000000 0.000000 3.997260 
# 
# 
# High freq. dielectric constant tensor:
#      x y z
#    x 1.765710 0.000000 0.000000 
#    y 0.000000 1.769890 0.000000 
#    z 0.000000 0.000000 1.796630 
# 
# From -- ./inp_files/4803.got.cif
#   From: 2010.03.12/outbox.cif.g09.slc.cpg/sg20_3_cif.got.tgz:4803.got - 2010.04.14 01:38:04.
