data_PCOD8159674
_publ_section_title
;
Structure prediction by ZEFSAII (Michael W. Deem and Ramdas Pophale) SiO2 
 PCOD8159674
Probable space group: C 2 2 21
;
_chemical_formula_sum "Si O2"
_cell_formula_units_Z 44
_cell_length_a 13.836343
_cell_length_b 17.342154
_cell_length_c 8.466507
_cell_angle_alpha 90.000000
_cell_angle_beta 90.000000
_cell_angle_gamma 90.000000
_cell_volume 2031.555212
_symmetry_space_group_name_H-M "C 2 2 21"
_symmetry_group_IT_number 20
_symmetry_cell_setting 'orthorhombic'
loop_
_space_group_symop_operation_xyz
x,y,z
-x,-y,1/2+z
x,-y,-z
-x,y,1/2-z
1/2+x,1/2+y,z
1/2-x,1/2-y,1/2+z
1/2+x,1/2-y,-z
1/2-x,1/2+y,1/2-z
loop_
_atom_site_type_symbol
_atom_site_label
_atom_site_fract_x
_atom_site_fract_y
_atom_site_fract_z
Si Si1 0.298249 0.891641 0.117423
Si Si2 0.509057 0.500000 0.500000
Si Si3 0.912129 0.694962 0.645699
Si Si4 0.633828 0.367456 0.890781
Si Si5 0.692848 0.509885 0.329265
Si Si6 0.997528 0.580499 0.063350
O O1 0.316403 0.833778 0.264051
O O2 0.252651 0.969868 0.189263
O O3 0.218570 0.849408 0.013275
O O4 0.390138 0.909690 0.008207
O O5 0.443815 0.573366 0.461431
O O6 0.582051 0.478134 0.353115
O O7 0.918258 0.786569 0.635177
O O8 0.000000 0.663807 0.750000
O O9 0.929154 0.650570 0.480473
O O10 0.679889 0.401222 0.728242
O O11 0.746801 0.500000 0.500000
O O12 0.000000 0.577046 0.250000
O O13 0.040927 0.500000 0.000000
#
# Coordination Sequence:
#
# PCOD8159674 Si02
#       6
#     8   4   8   8   8   8
#     4  11  24  42  66  97 132 177 231 287 336 414
#     4  10  22  40  68 100 134 186 214 276 354 416
#     4  10  25  45  64  97 137 181 224 290 350 406
#     4  12  22  43  69  99 144 178 231 287 350 418
#     4  10  23  38  67 101 135 175 229 271 342 422
#     4  11  24  46  71  93 128 179 235 289 351 417
#
# _framework density 21.658283000000001
#
# number of rings (size 3 to 8) (size 9 to 14) (size 15 to 20)
#    0.545    0.727    1.818    4.364    0.000    6.545 
#    6.545    0.000    0.000    0.000    0.000    0.000 
#    0.000    0.000    0.000    0.000    0.000    0.000 
#
# Total GULP energy -272615.268651 kJ/mol
# GULP energy per Si atom -12391.603120 kJ/mol
# Density = 2.160899 g / cm^3
# Si number density = 21.658283 Si / 1000 Ang^3
#
#
#
# Elastic Constant Matrix: (Units=GPa)
#
#
# Indices 1 2 3 4 5 6 
#
# 1 99.5950 30.7779 46.7249 0.0000 0.0000 0.0000
# 2 30.7779 143.4428 54.4044 0.0000 0.0000 0.0000
# 3 46.7249 54.4044 152.0075 0.0000 0.0000 0.0000
# 4 0.0000 0.0000 0.0000 31.8209 0.0000 0.0000
# 5 0.0000 0.0000 0.0000 0.0000 32.9148 0.0000
# 6 0.0000 0.0000 0.0000 0.0000 0.0000 26.1696
#
#
#
# Elastic Compliance Matrix: (Units=1/GPa)
#
#
# Indices 1 2 3 4 5 6 
#
# 1 0.011956 -0.001355 -0.003190 0.000000 0.000000 0.000000
# 2 -0.001355 0.008220 -0.002525 0.000000 0.000000 0.000000
# 3 -0.003190 -0.002525 0.008463 0.000000 0.000000 0.000000
# 4 0.000000 0.000000 0.000000 0.031426 0.000000 0.000000
# 5 0.000000 0.000000 0.000000 0.000000 0.030381 0.000000
# 6 0.000000 0.000000 0.000000 0.000000 0.000000 0.038212
#
#
# Mechanical properties :
#
#
# Convention : Reuss Voigt Hill
#
# Bulk Modulus (GPa) = 68.97722 73.20663 71.09192
# Shear Modulus (GPa) = 33.86777 35.72362 34.79570
#
# Velocity S-wave (km/s) = 3.95870 4.06571 4.01256
# Velocity P-wave (km/s) = 7.26720 7.47758 7.37314
#
# Compressibility (1/GPa) = 0.01449754
#
# Stress axis : x y z
#
# Youngs Moduli (GPa) = 83.63902 121.65354 118.16108
#
# Poissons Ratio (x) = 0.16490 0.37693
# Poissons Ratio (y) = 0.11337 0.29840
# Poissons Ratio (z) = 0.26681 0.30722
#
# Static dielectric constant tensor:
#      x y z
#    x 4.024540 0.000000 0.000000 
#    y 0.000000 3.653420 0.000000 
#    z 0.000000 0.000000 4.173380 
# 
# 
# High freq. dielectric constant tensor:
#      x y z
#    x 1.859100 0.000000 0.000000 
#    y 0.000000 1.829830 0.000000 
#    z 0.000000 0.000000 1.860670 
# 
# From -- ./inp_files/8339.got.cif
#   From: 2010.03.12/outbox.cif.g09.slc.cpg/sg20_5_cif.got.tgz:8339.got - 2010.04.14 01:38:04.
