data_PCOD8159693
_publ_section_title
;
Structure prediction by ZEFSAII (Michael W. Deem and Ramdas Pophale) SiO2 
 PCOD8159693
Probable space group: C 2 2 21
;
_chemical_formula_sum "Si O2"
_cell_formula_units_Z 48
_cell_length_a 27.880964
_cell_length_b 4.947731
_cell_length_c 16.340154
_cell_angle_alpha 90.000000
_cell_angle_beta 90.000000
_cell_angle_gamma 90.000000
_cell_volume 2254.083556
_symmetry_space_group_name_H-M "C 2 2 21"
_symmetry_group_IT_number 20
_symmetry_cell_setting 'orthorhombic'
loop_
_space_group_symop_operation_xyz
x,y,z
-x,-y,1/2+z
x,-y,-z
-x,y,1/2-z
1/2+x,1/2+y,z
1/2-x,1/2-y,1/2+z
1/2+x,1/2-y,-z
1/2-x,1/2+y,1/2-z
loop_
_atom_site_type_symbol
_atom_site_label
_atom_site_fract_x
_atom_site_fract_y
_atom_site_fract_z
Si Si1 0.387411 0.351333 0.824560
Si Si2 0.695909 0.258544 0.555007
Si Si3 0.485939 0.504575 0.904982
Si Si4 0.952558 0.504582 0.594907
Si Si5 0.236227 0.281347 0.799062
Si Si6 0.629017 0.851443 0.782641
O O1 0.351456 0.375601 0.900802
O O2 0.440695 0.421394 0.852180
O O3 0.375399 0.546108 0.748933
O O4 0.383000 0.044801 0.793514
O O5 0.716546 0.500000 0.500000
O O6 0.737414 0.178431 0.619108
O O7 0.682817 0.000000 0.500000
O O8 0.503690 0.803922 0.882448
O O9 0.529658 0.303772 0.882386
O O10 0.471833 0.500000 0.000000
O O11 0.938879 0.500000 0.500000
O O12 0.905334 0.419144 0.642486
O O13 0.267028 0.528572 0.762572
O O14 0.182892 0.391376 0.816020
#
# Coordination Sequence:
#
# PCOD8159693 Si02
#       6
#     8   8   8   8   8   8
#     4  12  24  40  66  98 132 169 216 269 335 399
#     4  12  25  42  67 100 128 168 221 272 320 396
#     4  10  22  41  62  91 132 176 208 269 333 377
#     4  10  23  42  63  91 130 171 222 269 317 389
#     4  12  23  46  67  91 134 177 213 269 343 392
#     4  12  24  41  68  95 126 177 215 272 335 389
#
# _framework density 21.294685000000001
#
# number of rings (size 3 to 8) (size 9 to 14) (size 15 to 20)
#    0.000    0.667    3.333    4.500    0.000    6.667 
#    0.000    2.500    0.000    0.000    0.000    0.000 
#    0.000    0.000    0.000    0.000    0.000    0.000 
#
# Total GULP energy -297746.752343 kJ/mol
# GULP energy per Si atom -12406.114681 kJ/mol
# Density = 2.124622 g / cm^3
# Si number density = 21.294685 Si / 1000 Ang^3
#
#
#
# Elastic Constant Matrix: (Units=GPa)
#
#
# Indices 1 2 3 4 5 6 
#
# 1 122.8676 11.3254 62.5445 0.0000 0.0000 0.0000
# 2 11.3254 92.8709 28.7321 0.0000 0.0000 0.0000
# 3 62.5445 28.7321 89.3008 0.0000 0.0000 0.0000
# 4 0.0000 0.0000 0.0000 43.5881 0.0000 0.0000
# 5 0.0000 0.0000 0.0000 0.0000 29.3184 0.0000
# 6 0.0000 0.0000 0.0000 0.0000 0.0000 21.9960
#
#
#
# Elastic Compliance Matrix: (Units=1/GPa)
#
#
# Indices 1 2 3 4 5 6 
#
# 1 0.012798 0.001346 -0.009397 0.000000 0.000000 0.000000
# 2 0.001346 0.012100 -0.004836 0.000000 0.000000 0.000000
# 3 -0.009397 -0.004836 0.019335 0.000000 0.000000 0.000000
# 4 0.000000 0.000000 0.000000 0.022942 0.000000 0.000000
# 5 0.000000 0.000000 0.000000 0.000000 0.034108 0.000000
# 6 0.000000 0.000000 0.000000 0.000000 0.000000 0.045463
#
#
# Mechanical properties :
#
#
# Convention : Reuss Voigt Hill
#
# Bulk Modulus (GPa) = 54.16997 56.69371 55.43184
# Shear Modulus (GPa) = 27.98422 32.47631 30.23026
#
# Velocity S-wave (km/s) = 3.62904 3.90948 3.77187
# Velocity P-wave (km/s) = 6.56151 6.86002 6.71242
#
# Compressibility (1/GPa) = 0.01846041
#
# Stress axis : x y z
#
# Youngs Moduli (GPa) = 78.13701 82.64744 51.71877
#
# Poissons Ratio (x) = -0.11128 0.48599
# Poissons Ratio (y) = -0.10521 0.25011
# Poissons Ratio (z) = 0.73423 0.39968
#
# Static dielectric constant tensor:
#      x y z
#    x 3.716260 0.000000 0.000000 
#    y 0.000000 4.048900 0.000000 
#    z 0.000000 0.000000 3.800840 
# 
# 
# High freq. dielectric constant tensor:
#      x y z
#    x 1.837540 0.000000 0.000000 
#    y 0.000000 1.852500 0.000000 
#    z 0.000000 0.000000 1.830610 
# 
# From -- ./inp_files/22144.got.cif
#   From: 2010.03.12/outbox.cif.g09.slc.cpg/sg20_12_cif.got.tgz:22144.got - 2010.04.14 01:38:04.
