data_PCOD8159324
_publ_section_title
;
Structure prediction by ZEFSAII (Michael W. Deem and Ramdas Pophale) SiO2 
 PCOD8159324
Probable space group: C 2 2 21
;
_chemical_formula_sum "Si O2"
_cell_formula_units_Z 56
_cell_length_a 14.271376
_cell_length_b 19.302658
_cell_length_c 9.645044
_cell_angle_alpha 90.000000
_cell_angle_beta 90.000000
_cell_angle_gamma 90.000000
_cell_volume 2656.973223
_symmetry_space_group_name_H-M "C 2 2 21"
_symmetry_group_IT_number 20
_symmetry_cell_setting 'orthorhombic'
loop_
_space_group_symop_operation_xyz
x,y,z
-x,-y,1/2+z
x,-y,-z
-x,y,1/2-z
1/2+x,1/2+y,z
1/2-x,1/2-y,1/2+z
1/2+x,1/2-y,-z
1/2-x,1/2+y,1/2-z
loop_
_atom_site_type_symbol
_atom_site_label
_atom_site_fract_x
_atom_site_fract_y
_atom_site_fract_z
Si Si1 0.402737 0.820004 0.517690
Si Si2 0.101067 0.641223 0.423432
Si Si3 0.775807 0.482704 0.841438
Si Si4 0.926829 0.195159 0.357103
Si Si5 0.823462 0.632396 0.769782
Si Si6 0.927765 0.958889 0.640511
Si Si7 0.274470 0.228066 0.253868
O O1 0.488046 0.858710 0.596920
O O2 0.433336 0.740302 0.496111
O O3 0.384236 0.853180 0.367177
O O4 0.309076 0.814749 0.610403
O O5 0.143088 0.576090 0.334858
O O6 0.118050 0.637710 0.588240
O O7 0.148893 0.711904 0.366431
O O8 0.794170 0.552191 0.753201
O O9 0.675313 0.455238 0.789681
O O10 0.761647 0.500000 0.000000
O O11 0.959116 0.118659 0.397040
O O12 0.823980 0.196074 0.290156
O O13 0.000000 0.228661 0.250000
O O14 0.737387 0.688381 0.776458
O O15 0.000000 0.992088 0.750000
O O16 0.932204 0.000000 0.500000
#
# Coordination Sequence:
#
# PCOD8159324 Si02
#       7
#     8   8   8   8   8   8   8
#     4  11  23  38  63  97 127 160 220 264 305 381
#     4  11  21  42  62  89 130 171 206 259 328 378
#     4   9  20  39  67  86 125 175 210 254 324 389
#     4  10  21  40  64  88 123 169 201 256 329 374
#     4  10  21  40  66  90 121 171 221 260 313 386
#     4  10  21  41  64  91 125 167 211 259 321 386
#     4  11  22  38  62  94 126 164 206 266 318 371
#
# _framework density 21.076613999999999
#
# number of rings (size 3 to 8) (size 9 to 14) (size 15 to 20)
#    0.000    1.714    1.429    4.286    4.000    0.000 
#    7.714    9.286    0.000    0.000    0.000    0.000 
#    0.000    0.000    0.000    0.000    0.000    0.000 
#
# Total GULP energy -346946.091042 kJ/mol
# GULP energy per Si atom -12390.931823 kJ/mol
# Density = 2.102864 g / cm^3
# Si number density = 21.076614 Si / 1000 Ang^3
#
#
#
# Elastic Constant Matrix: (Units=GPa)
#
#
# Indices 1 2 3 4 5 6 
#
# 1 113.9030 41.7656 30.1301 0.0000 0.0000 0.0000
# 2 41.7656 119.7001 33.1883 0.0000 0.0000 0.0000
# 3 30.1301 33.1883 72.0644 0.0000 0.0000 0.0000
# 4 0.0000 0.0000 0.0000 26.6786 0.0000 0.0000
# 5 0.0000 0.0000 0.0000 0.0000 32.5600 0.0000
# 6 0.0000 0.0000 0.0000 0.0000 0.0000 23.2996
#
#
#
# Elastic Compliance Matrix: (Units=1/GPa)
#
#
# Indices 1 2 3 4 5 6 
#
# 1 0.010655 -0.002846 -0.003144 0.000000 0.000000 0.000000
# 2 -0.002846 0.010337 -0.003571 0.000000 0.000000 0.000000
# 3 -0.003144 -0.003571 0.016836 0.000000 0.000000 0.000000
# 4 0.000000 0.000000 0.000000 0.037483 0.000000 0.000000
# 5 0.000000 0.000000 0.000000 0.000000 0.030713 0.000000
# 6 0.000000 0.000000 0.000000 0.000000 0.000000 0.042919
#
#
# Mechanical properties :
#
#
# Convention : Reuss Voigt Hill
#
# Bulk Modulus (GPa) = 53.45922 57.31506 55.38714
# Shear Modulus (GPa) = 28.68631 29.87986 29.28309
#
# Velocity S-wave (km/s) = 3.69324 3.76929 3.73146
# Velocity P-wave (km/s) = 6.60349 6.79677 6.70083
#
# Compressibility (1/GPa) = 0.01870585
#
# Stress axis : x y z
#
# Youngs Moduli (GPa) = 93.85629 96.73761 59.39826
#
# Poissons Ratio (x) = 0.27530 0.18675
# Poissons Ratio (y) = 0.26710 0.21210
# Poissons Ratio (z) = 0.29509 0.34543
#
# Static dielectric constant tensor:
#      x y z
#    x 3.933330 0.000000 0.000000 
#    y 0.000000 4.148520 0.000000 
#    z 0.000000 0.000000 3.731890 
# 
# 
# High freq. dielectric constant tensor:
#      x y z
#    x 1.825210 0.000000 0.000000 
#    y 0.000000 1.825030 0.000000 
#    z 0.000000 0.000000 1.814360 
# 
# From -- ./inp_files/8756.got.cif
#   From: 2010.03.12/outbox.cif.g09.slc.cpg/sg20_5_cif.got.tgz:8756.got - 2010.04.14 01:38:04.
