data_PCOD8159367
_publ_section_title
;
Structure prediction by ZEFSAII (Michael W. Deem and Ramdas Pophale) SiO2 
 PCOD8159367
Probable space group: C 2 2 21
;
_chemical_formula_sum "Si O2"
_cell_formula_units_Z 52
_cell_length_a 11.106948
_cell_length_b 9.082981
_cell_length_c 25.478974
_cell_angle_alpha 90.000000
_cell_angle_beta 90.000000
_cell_angle_gamma 90.000000
_cell_volume 2570.425849
_symmetry_space_group_name_H-M "C 2 2 21"
_symmetry_group_IT_number 20
_symmetry_cell_setting 'orthorhombic'
loop_
_space_group_symop_operation_xyz
x,y,z
-x,-y,1/2+z
x,-y,-z
-x,y,1/2-z
1/2+x,1/2+y,z
1/2-x,1/2-y,1/2+z
1/2+x,1/2-y,-z
1/2-x,1/2+y,1/2-z
loop_
_atom_site_type_symbol
_atom_site_label
_atom_site_fract_x
_atom_site_fract_y
_atom_site_fract_z
Si Si1 0.937483 0.618774 0.638574
Si Si2 0.061747 0.500000 0.500000
Si Si3 0.716936 0.708112 0.217858
Si Si4 0.326502 0.179181 0.910014
Si Si5 0.170365 0.448304 0.946625
Si Si6 0.189496 0.885637 0.188797
Si Si7 0.021576 0.673576 0.309009
O O1 0.884714 0.698626 0.688856
O O2 0.837045 0.585676 0.594050
O O3 0.042975 0.720813 0.614144
O O4 0.992166 0.459390 0.652457
O O5 0.152759 0.405518 0.464514
O O6 0.969311 0.596232 0.462944
O O7 0.731194 0.770583 0.276794
O O8 0.676195 0.537771 0.220793
O O9 0.840436 0.723337 0.185131
O O10 0.245206 0.320705 0.919683
O O11 0.255103 0.082689 0.866555
O O12 0.238557 0.500000 0.000000
O O13 0.058739 0.816587 0.178276
O O14 0.000000 0.616324 0.250000
#
# Coordination Sequence:
#
# PCOD8159367 Si02
#       7
#     8   4   8   8   8   8   8
#     4  11  22  40  67  90 126 169 207 256 317 372
#     4   8  22  42  64  88 122 164 204 274 318 374
#     4  11  24  40  60  95 134 169 211 251 310 381
#     4  11  21  41  70  91 122 166 218 258 326 375
#     4   9  21  42  62  90 125 160 205 267 319 371
#     4  11  23  40  64  96 131 173 210 258 313 381
#     4  10  21  41  61  90 130 172 202 253 308 364
#
# _framework density 20.230111000000001
#
# number of rings (size 3 to 8) (size 9 to 14) (size 15 to 20)
#    0.462    1.231    3.077    1.846    0.000    2.462 
#    5.538    1.538    0.000    0.000    0.000    0.000 
#    0.000    0.000    0.000    0.000    0.000    0.000 
#
# Total GULP energy -322229.246832 kJ/mol
# GULP energy per Si atom -12393.432570 kJ/mol
# Density = 2.018407 g / cm^3
# Si number density = 20.230111 Si / 1000 Ang^3
#
#
#
# Elastic Constant Matrix: (Units=GPa)
#
#
# Indices 1 2 3 4 5 6 
#
# 1 87.9172 41.2926 21.1372 0.0000 0.0000 0.0000
# 2 41.2926 91.1569 25.1768 0.0000 0.0000 0.0000
# 3 21.1372 25.1768 76.2137 0.0000 0.0000 0.0000
# 4 0.0000 0.0000 0.0000 29.9806 0.0000 0.0000
# 5 0.0000 0.0000 0.0000 0.0000 23.4836 0.0000
# 6 0.0000 0.0000 0.0000 0.0000 0.0000 35.2226
#
#
#
# Elastic Compliance Matrix: (Units=1/GPa)
#
#
# Indices 1 2 3 4 5 6 
#
# 1 0.014740 -0.006105 -0.002071 0.000000 0.000000 0.000000
# 2 -0.006105 0.014600 -0.003130 0.000000 0.000000 0.000000
# 3 -0.002071 -0.003130 0.014729 0.000000 0.000000 0.000000
# 4 0.000000 0.000000 0.000000 0.033355 0.000000 0.000000
# 5 0.000000 0.000000 0.000000 0.000000 0.042583 0.000000
# 6 0.000000 0.000000 0.000000 0.000000 0.000000 0.028391
#
#
# Mechanical properties :
#
#
# Convention : Reuss Voigt Hill
#
# Bulk Modulus (GPa) = 46.60457 47.83344 47.21900
# Shear Modulus (GPa) = 28.06442 28.91611 28.49027
#
# Velocity S-wave (km/s) = 3.72863 3.78479 3.75682
# Velocity P-wave (km/s) = 6.45168 6.54183 6.49691
#
# Compressibility (1/GPa) = 0.02145713
#
# Stress axis : x y z
#
# Youngs Moduli (GPa) = 67.84476 68.49374 67.89155
#
# Poissons Ratio (x) = 0.41813 0.14062
# Poissons Ratio (y) = 0.41417 0.21249
# Poissons Ratio (z) = 0.14052 0.21438
#
# Static dielectric constant tensor:
#      x y z
#    x 3.745200 0.000000 0.000000 
#    y 0.000000 3.347130 0.000000 
#    z 0.000000 0.000000 3.844990 
# 
# 
# High freq. dielectric constant tensor:
#      x y z
#    x 1.788370 0.000000 0.000000 
#    y 0.000000 1.758910 0.000000 
#    z 0.000000 0.000000 1.802790 
# 
# From -- ./inp_files/30278.got.cif
#   From: 2010.03.12/outbox.cif.g09.slc.cpg/sg20_16_cif.got.tgz:30278.got - 2010.04.14 01:38:04.
