data_PCOD8159515
_publ_section_title
;
Structure prediction by ZEFSAII (Michael W. Deem and Ramdas Pophale) SiO2 
 PCOD8159515
Probable space group: C 2 2 21
;
_chemical_formula_sum "Si O2"
_cell_formula_units_Z 44
_cell_length_a 13.467277
_cell_length_b 8.593808
_cell_length_c 16.022892
_cell_angle_alpha 90.000000
_cell_angle_beta 90.000000
_cell_angle_gamma 90.000000
_cell_volume 1854.412495
_symmetry_space_group_name_H-M "C 2 2 21"
_symmetry_group_IT_number 20
_symmetry_cell_setting 'orthorhombic'
loop_
_space_group_symop_operation_xyz
x,y,z
-x,-y,1/2+z
x,-y,-z
-x,y,1/2-z
1/2+x,1/2+y,z
1/2-x,1/2-y,1/2+z
1/2+x,1/2-y,-z
1/2-x,1/2+y,1/2-z
loop_
_atom_site_type_symbol
_atom_site_label
_atom_site_fract_x
_atom_site_fract_y
_atom_site_fract_z
Si Si1 0.208787 0.000000 0.000000
Si Si2 0.699064 0.271901 0.582327
Si Si3 0.000000 0.421180 0.750000
Si Si4 0.840961 0.500000 0.500000
Si Si5 0.159742 0.104504 0.174872
Si Si6 0.989562 0.325400 0.381350
Si Si7 0.314448 0.710790 0.743451
O O1 0.277349 0.150358 0.990794
O O2 0.144703 0.978341 0.915501
O O3 0.763662 0.426372 0.566251
O O4 0.579025 0.279758 0.581347
O O5 0.730522 0.210886 0.672482
O O6 0.028528 0.522710 0.668462
O O7 0.910519 0.311019 0.721418
O O8 0.912187 0.373721 0.454879
O O9 0.067197 0.219302 0.186637
O O10 0.260251 0.211032 0.176866
O O11 0.158230 0.974058 0.249644
#
# Coordination Sequence:
#
# PCOD8159515 Si02
#       7
#     4   8   4   4   8   8   8
#     4  10  21  45  68 102 142 192 235 309 376 438
#     4  11  24  45  71 104 145 190 244 308 371 447
#     4  12  24  46  70 104 142 200 248 308 386 448
#     4  12  25  49  74 110 150 194 253 309 374 458
#     4  11  24  45  70 104 150 192 253 314 379 454
#     4  12  25  46  74 105 153 200 246 311 383 452
#     4  11  25  44  71 103 143 191 252 313 372 458
#
# _framework density 23.727193
#
# number of rings (size 3 to 8) (size 9 to 14) (size 15 to 20)
#    0.000    0.727    3.636    4.909    0.000    2.909 
#    0.000    0.000    0.000    0.000    0.000    0.000 
#    0.000    0.000    0.000    0.000    0.000    0.000 
#
# Total GULP energy -272656.426188 kJ/mol
# GULP energy per Si atom -12393.473918 kJ/mol
# Density = 2.367319 g / cm^3
# Si number density = 23.727193 Si / 1000 Ang^3
#
#
#
# Elastic Constant Matrix: (Units=GPa)
#
#
# Indices 1 2 3 4 5 6 
#
# 1 163.6134 59.3052 24.5655 0.0000 0.0000 0.0000
# 2 59.3052 115.9782 17.8286 0.0000 0.0000 0.0000
# 3 24.5655 17.8286 56.6908 0.0000 0.0000 0.0000
# 4 0.0000 0.0000 0.0000 34.5084 0.0000 0.0000
# 5 0.0000 0.0000 0.0000 0.0000 33.7131 0.0000
# 6 0.0000 0.0000 0.0000 0.0000 0.0000 42.8000
#
#
#
# Elastic Compliance Matrix: (Units=1/GPa)
#
#
# Indices 1 2 3 4 5 6 
#
# 1 0.007760 -0.003627 -0.002222 0.000000 0.000000 0.000000
# 2 -0.003627 0.010755 -0.001811 0.000000 0.000000 0.000000
# 3 -0.002222 -0.001811 0.019172 0.000000 0.000000 0.000000
# 4 0.000000 0.000000 0.000000 0.028978 0.000000 0.000000
# 5 0.000000 0.000000 0.000000 0.000000 0.029662 0.000000
# 6 0.000000 0.000000 0.000000 0.000000 0.000000 0.023364
#
#
# Mechanical properties :
#
#
# Convention : Reuss Voigt Hill
#
# Bulk Modulus (GPa) = 44.70659 59.96455 52.33557
# Shear Modulus (GPa) = 35.09576 37.84317 36.46947
#
# Velocity S-wave (km/s) = 3.85013 3.99799 3.92475
# Velocity P-wave (km/s) = 6.21671 6.82929 6.53019
#
# Compressibility (1/GPa) = 0.02236807
#
# Stress axis : x y z
#
# Youngs Moduli (GPa) = 128.86385 92.97910 52.15947
#
# Poissons Ratio (x) = 0.33719 0.11591
# Poissons Ratio (y) = 0.46733 0.09445
# Poissons Ratio (z) = 0.28636 0.16837
#
# Static dielectric constant tensor:
#      x y z
#    x 4.118450 0.000000 0.000000 
#    y 0.000000 4.639110 0.000000 
#    z 0.000000 0.000000 4.083540 
# 
# 
# High freq. dielectric constant tensor:
#      x y z
#    x 1.934840 0.000000 0.000000 
#    y 0.000000 1.947960 0.000000 
#    z 0.000000 0.000000 1.926430 
# 
# From -- ./inp_files/24768.got.cif
#   From: 2010.03.12/outbox.cif.g09.slc.cpg/sg20_13_cif.got.tgz:24768.got - 2010.04.14 01:38:04.
