data_PCOD8159200
_publ_section_title
;
Structure prediction by ZEFSAII (Michael W. Deem and Ramdas Pophale) SiO2 
 PCOD8159200
Probable space group: C 2 2 21
;
_chemical_formula_sum "Si O2"
_cell_formula_units_Z 56
_cell_length_a 13.284850
_cell_length_b 8.875129
_cell_length_c 22.447176
_cell_angle_alpha 90.000000
_cell_angle_beta 90.000000
_cell_angle_gamma 90.000000
_cell_volume 2646.628843
_symmetry_space_group_name_H-M "C 2 2 21"
_symmetry_group_IT_number 20
_symmetry_cell_setting 'orthorhombic'
loop_
_space_group_symop_operation_xyz
x,y,z
-x,-y,1/2+z
x,-y,-z
-x,y,1/2-z
1/2+x,1/2+y,z
1/2-x,1/2-y,1/2+z
1/2+x,1/2-y,-z
1/2-x,1/2+y,1/2-z
loop_
_atom_site_type_symbol
_atom_site_label
_atom_site_fract_x
_atom_site_fract_y
_atom_site_fract_z
Si Si1 0.762729 0.664196 0.025942
Si Si2 0.446401 0.427228 0.312683
Si Si3 0.855092 0.162878 0.078309
Si Si4 0.690397 0.891847 0.195491
Si Si5 0.573038 0.716444 0.105382
Si Si6 0.742106 0.222006 0.199745
Si Si7 0.124003 0.163243 0.616785
O O1 0.650732 0.684504 0.051704
O O2 0.845364 0.691105 0.078016
O O3 0.779012 0.500000 0.000000
O O4 0.781488 0.784914 0.974026
O O5 0.500000 0.461361 0.250000
O O6 0.431695 0.581124 0.347982
O O7 0.338692 0.354228 0.304345
O O8 0.514194 0.316593 0.354075
O O9 0.802620 0.206160 0.139516
O O10 0.964195 0.245099 0.075585
O O11 0.870935 0.983348 0.073797
O O12 0.608237 0.862265 0.143561
O O13 0.676667 0.775877 0.250654
O O14 0.801437 0.857797 0.171650
O O15 0.685673 0.065819 0.216606
#
# Coordination Sequence:
#
# PCOD8159200 Si02
#       7
#     8   8   8   8   8   8   8
#     4  11  23  41  63  94 126 160 213 272 312 370
#     4  11  21  40  66  95 127 171 215 264 322 396
#     4  10  23  41  63  90 124 175 210 259 319 392
#     4  10  21  38  60  91 131 168 208 272 311 386
#     4  10  24  41  65  91 125 171 221 263 324 384
#     4  11  22  38  61  94 130 167 215 258 330 373
#     4   9  21  41  63  89 125 169 214 251 324 384
#
# _framework density 21.158992999999999
#
# number of rings (size 3 to 8) (size 9 to 14) (size 15 to 20)
#    0.000    1.714    1.429    2.143    4.000    5.714 
#    2.571    2.857    0.000    0.000    0.000    0.000 
#    0.000    0.000    0.000    0.000    0.000    0.000 
#
# Total GULP energy -347182.328957 kJ/mol
# GULP energy per Si atom -12399.368891 kJ/mol
# Density = 2.111083 g / cm^3
# Si number density = 21.158993 Si / 1000 Ang^3
#
#
#
# Elastic Constant Matrix: (Units=GPa)
#
#
# Indices 1 2 3 4 5 6 
#
# 1 102.0537 21.7969 41.5336 0.0000 0.0000 0.0000
# 2 21.7969 67.4270 35.1361 0.0000 0.0000 0.0000
# 3 41.5336 35.1361 102.8052 0.0000 0.0000 0.0000
# 4 0.0000 0.0000 0.0000 38.0008 0.0000 0.0000
# 5 0.0000 0.0000 0.0000 0.0000 33.5352 0.0000
# 6 0.0000 0.0000 0.0000 0.0000 0.0000 24.2431
#
#
#
# Elastic Compliance Matrix: (Units=1/GPa)
#
#
# Indices 1 2 3 4 5 6 
#
# 1 0.011872 -0.001629 -0.004240 0.000000 0.000000 0.000000
# 2 -0.001629 0.018268 -0.005586 0.000000 0.000000 0.000000
# 3 -0.004240 -0.005586 0.013349 0.000000 0.000000 0.000000
# 4 0.000000 0.000000 0.000000 0.026315 0.000000 0.000000
# 5 0.000000 0.000000 0.000000 0.000000 0.029819 0.000000
# 6 0.000000 0.000000 0.000000 0.000000 0.000000 0.041249
#
#
# Mechanical properties :
#
#
# Convention : Reuss Voigt Hill
#
# Bulk Modulus (GPa) = 48.58776 52.13545 50.36161
# Shear Modulus (GPa) = 29.30133 30.74376 30.02255
#
# Velocity S-wave (km/s) = 3.72535 3.81594 3.77092
# Velocity P-wave (km/s) = 6.44339 6.64143 6.54316
#
# Compressibility (1/GPa) = 0.02058132
#
# Stress axis : x y z
#
# Youngs Moduli (GPa) = 84.23122 54.74075 74.91188
#
# Poissons Ratio (x) = 0.08915 0.31761
# Poissons Ratio (y) = 0.13717 0.41843
# Poissons Ratio (z) = 0.35712 0.30576
#
# Static dielectric constant tensor:
#      x y z
#    x 3.915080 0.000000 0.000000 
#    y 0.000000 3.813770 0.000000 
#    z 0.000000 0.000000 3.933360 
# 
# 
# High freq. dielectric constant tensor:
#      x y z
#    x 1.824680 0.000000 0.000000 
#    y 0.000000 1.817530 0.000000 
#    z 0.000000 0.000000 1.842760 
# 
# From -- ./inp_files/26747.got.cif
#   From: 2010.03.12/outbox.cif.g09.slc.cpg/sg20_14_cif.got.tgz:26747.got - 2010.04.14 01:38:04.
