data_PCOD8159590
_publ_section_title
;
Structure prediction by ZEFSAII (Michael W. Deem and Ramdas Pophale) SiO2 
 PCOD8159590
Probable space group: C 2 2 21
;
_chemical_formula_sum "Si O2"
_cell_formula_units_Z 40
_cell_length_a 13.262285
_cell_length_b 16.181540
_cell_length_c 8.647448
_cell_angle_alpha 90.000000
_cell_angle_beta 90.000000
_cell_angle_gamma 90.000000
_cell_volume 1855.778619
_symmetry_space_group_name_H-M "C 2 2 21"
_symmetry_group_IT_number 20
_symmetry_cell_setting 'orthorhombic'
loop_
_space_group_symop_operation_xyz
x,y,z
-x,-y,1/2+z
x,-y,-z
-x,y,1/2-z
1/2+x,1/2+y,z
1/2-x,1/2-y,1/2+z
1/2+x,1/2-y,-z
1/2-x,1/2+y,1/2-z
loop_
_atom_site_type_symbol
_atom_site_label
_atom_site_fract_x
_atom_site_fract_y
_atom_site_fract_z
Si Si1 0.716353 0.913243 0.677452
Si Si2 0.500000 0.874636 0.750000
Si Si3 0.000000 0.250000 0.008462
Si Si4 0.716353 0.413243 0.177452
Si Si5 0.672543 0.750000 0.250000
Si Si6 0.500000 0.374636 0.250000
O O1 0.596534 0.925294 0.694459
O O2 0.750000 0.906112 0.500000
O O3 0.757839 0.831972 0.768813
O O4 0.750001 0.000000 0.752451
O O5 0.465868 0.824145 0.600068
O O6 0.100262 0.230955 0.105434
O O7 0.899740 0.269045 0.105437
O O8 0.965867 0.175856 0.899931
O O9 0.757838 0.331971 0.268813
O O10 0.596533 0.425294 0.194458
#
# Coordination Sequence:
#
# PCOD8159590 Si02
#       6
#     8   4   8   8   8   4
#     4  11  25  45  70 102 141 182 231 291 344 409
#     4  11  22  42  68  99 136 186 226 283 344 419
#     4  10  22  38  72 102 134 186 234 272 354 410
#     4  11  25  45  70 102 141 182 231 291 344 409
#     4  11  22  43  66 102 142 181 228 291 336 416
#     4  11  22  42  68  99 136 186 226 283 344 419
#
# _framework density 21.554296000000001
#
# number of rings (size 3 to 8) (size 9 to 14) (size 15 to 20)
#    0.000    1.200    4.000    2.400    0.000    3.200 
#    0.000    2.000    0.000    0.000    0.000    0.000 
#    0.000    0.000    0.000    0.000    0.000    0.000 
#
# Total GULP energy -247777.295734 kJ/mol
# GULP energy per Si atom -12388.864787 kJ/mol
# Density = 2.150524 g / cm^3
# Si number density = 21.554296 Si / 1000 Ang^3
#
#
#
# Elastic Constant Matrix: (Units=GPa)
#
#
# Indices 1 2 3 4 5 6 
#
# 1 184.3171 59.9874 37.3223 0.0000 0.0000 0.0000
# 2 59.9874 157.2466 15.0286 0.0000 0.0000 0.0000
# 3 37.3223 15.0286 81.0012 0.0000 0.0000 0.0000
# 4 0.0000 0.0000 0.0000 13.5383 0.0000 0.0000
# 5 0.0000 0.0000 0.0000 0.0000 20.9797 0.0000
# 6 0.0000 0.0000 0.0000 0.0000 0.0000 17.3024
#
#
#
# Elastic Compliance Matrix: (Units=1/GPa)
#
#
# Indices 1 2 3 4 5 6 
#
# 1 0.006716 -0.002307 -0.002667 0.000000 0.000000 0.000000
# 2 -0.002307 0.007267 -0.000285 0.000000 0.000000 0.000000
# 3 -0.002667 -0.000285 0.013627 0.000000 0.000000 0.000000
# 4 0.000000 0.000000 0.000000 0.073865 0.000000 0.000000
# 5 0.000000 0.000000 0.000000 0.000000 0.047665 0.000000
# 6 0.000000 0.000000 0.000000 0.000000 0.000000 0.057795
#
#
# Mechanical properties :
#
#
# Convention : Reuss Voigt Hill
#
# Bulk Modulus (GPa) = 58.50604 71.91574 65.21089
# Shear Modulus (GPa) = 22.40634 31.04584 26.72609
#
# Velocity S-wave (km/s) = 3.22767 3.79932 3.52510
# Velocity P-wave (km/s) = 6.41038 7.25836 6.84751
#
# Compressibility (1/GPa) = 0.01709225
#
# Stress axis : x y z
#
# Youngs Moduli (GPa) = 148.89117 137.61020 73.38349
#
# Poissons Ratio (x) = 0.31751 0.19568
# Poissons Ratio (y) = 0.34354 0.02092
# Poissons Ratio (z) = 0.39702 0.03924
#
# Static dielectric constant tensor:
#      x y z
#    x 3.657520 0.000000 0.000000 
#    y 0.000000 3.982460 0.000000 
#    z 0.000000 0.000000 3.810420 
# 
# 
# High freq. dielectric constant tensor:
#      x y z
#    x 1.868360 0.000000 0.000000 
#    y 0.000000 1.833980 0.000000 
#    z 0.000000 0.000000 1.839220 
# 
# From -- ./inp_files/7086.got.cif
#   From: 2010.03.12/outbox.cif.g09.slc.cpg/sg20_4_cif.got.tgz:7086.got - 2010.04.14 01:38:04.
