data_PCOD8159968
_publ_section_title
;
Structure prediction by ZEFSAII (Michael W. Deem and Ramdas Pophale) SiO2 
 PCOD8159968
Probable space group: C 2 2 21
;
_chemical_formula_sum "Si O2"
_cell_formula_units_Z 48
_cell_length_a 30.002464
_cell_length_b 8.172808
_cell_length_c 9.192230
_cell_angle_alpha 90.000000
_cell_angle_beta 90.000000
_cell_angle_gamma 90.000000
_cell_volume 2253.975038
_symmetry_space_group_name_H-M "C 2 2 21"
_symmetry_group_IT_number 20
_symmetry_cell_setting 'orthorhombic'
loop_
_space_group_symop_operation_xyz
x,y,z
-x,-y,1/2+z
x,-y,-z
-x,y,1/2-z
1/2+x,1/2+y,z
1/2-x,1/2-y,1/2+z
1/2+x,1/2-y,-z
1/2-x,1/2+y,1/2-z
loop_
_atom_site_type_symbol
_atom_site_label
_atom_site_fract_x
_atom_site_fract_y
_atom_site_fract_z
Si Si1 0.591069 0.897499 0.276853
Si Si2 0.032122 0.000000 0.500000
Si Si3 0.670262 0.827477 0.057422
Si Si4 0.240561 0.083113 0.154632
Si Si5 0.684117 0.701226 0.756129
Si Si6 0.000000 0.781593 0.750000
Si Si7 0.099845 0.257865 0.590121
O O1 0.625253 0.850124 0.149754
O O2 0.542583 0.834456 0.231588
O O3 0.606769 0.813779 0.425039
O O4 0.588214 0.092695 0.301024
O O5 0.061875 0.120139 0.600089
O O6 0.001595 0.106473 0.393381
O O7 0.709435 0.743918 0.149628
O O8 0.661547 0.712580 0.916076
O O9 0.687988 0.000000 0.000000
O O10 0.287995 0.133222 0.222819
O O11 0.216221 0.954380 0.259019
O O12 0.250100 0.000000 0.000000
O O13 0.645906 0.675821 0.637820
#
# Coordination Sequence:
#
# PCOD8159968 Si02
#       7
#     8   4   8   8   8   4   8
#     4  10  23  44  68  95 131 175 215 268 330 401
#     4  10  24  46  66 108 126 172 216 272 328 388
#     4  11  22  42  65  97 129 166 225 270 331 380
#     4  10  25  41  63  98 135 174 224 270 329 377
#     4  11  23  41  65  95 132 179 221 274 315 390
#     4  10  24  46  70 100 136 166 218 270 328 394
#     4  10  23  42  69  93 132 173 222 257 333 391
#
# _framework density 21.29571
#
# number of rings (size 3 to 8) (size 9 to 14) (size 15 to 20)
#    0.000    1.667    1.667    1.000    7.000    3.333 
#    9.000    0.000    0.000    0.000    0.000    0.000 
#    0.000    0.000    0.000    0.000    0.000    0.000 
#
# Total GULP energy -297654.058235 kJ/mol
# GULP energy per Si atom -12402.252426 kJ/mol
# Density = 2.124724 g / cm^3
# Si number density = 21.295710 Si / 1000 Ang^3
#
#
#
# Elastic Constant Matrix: (Units=GPa)
#
#
# Indices 1 2 3 4 5 6 
#
# 1 113.4965 39.2079 78.4737 0.0000 0.0000 0.0000
# 2 39.2079 89.9083 40.4913 0.0000 0.0000 0.0000
# 3 78.4737 40.4913 86.7563 0.0000 0.0000 0.0000
# 4 0.0000 0.0000 0.0000 33.6959 0.0000 0.0000
# 5 0.0000 0.0000 0.0000 0.0000 41.4233 0.0000
# 6 0.0000 0.0000 0.0000 0.0000 0.0000 19.4514
#
#
#
# Elastic Compliance Matrix: (Units=1/GPa)
#
#
# Indices 1 2 3 4 5 6 
#
# 1 0.023573 -0.000857 -0.020923 0.000000 0.000000 0.000000
# 2 -0.000857 0.014114 -0.005812 0.000000 0.000000 0.000000
# 3 -0.020923 -0.005812 0.033164 0.000000 0.000000 0.000000
# 4 0.000000 0.000000 0.000000 0.029677 0.000000 0.000000
# 5 0.000000 0.000000 0.000000 0.000000 0.024141 0.000000
# 6 0.000000 0.000000 0.000000 0.000000 0.000000 0.051410
#
#
# Mechanical properties :
#
#
# Convention : Reuss Voigt Hill
#
# Bulk Modulus (GPa) = 63.82516 67.38966 65.60741
# Shear Modulus (GPa) = 21.14290 27.71334 24.42812
#
# Velocity S-wave (km/s) = 3.15433 3.61135 3.39055
# Velocity P-wave (km/s) = 6.58045 7.00732 6.79724
#
# Compressibility (1/GPa) = 0.01566780
#
# Stress axis : x y z
#
# Youngs Moduli (GPa) = 42.42069 70.85312 30.15286
#
# Poissons Ratio (x) = 0.06074 0.63088
# Poissons Ratio (y) = 0.03636 0.17524
# Poissons Ratio (z) = 0.88756 0.41179
#
# Static dielectric constant tensor:
#      x y z
#    x 3.671010 0.000000 0.000000 
#    y 0.000000 4.099810 0.000000 
#    z 0.000000 0.000000 3.814930 
# 
# 
# High freq. dielectric constant tensor:
#      x y z
#    x 1.826890 0.000000 0.000000 
#    y 0.000000 1.849270 0.000000 
#    z 0.000000 0.000000 1.834820 
# 
# From -- ./inp_files/11503.got.cif
#   From: 2010.03.12/outbox.cif.g09.slc.cpg/sg20_6_cif.got.tgz:11503.got - 2010.04.14 01:38:04.
