data_PCOD8159762
_publ_section_title
;
Structure prediction by ZEFSAII (Michael W. Deem and Ramdas Pophale) SiO2 
 PCOD8159762
Probable space group: C 2 2 21
;
_chemical_formula_sum "Si O2"
_cell_formula_units_Z 40
_cell_length_a 23.583146
_cell_length_b 10.299671
_cell_length_c 7.941412
_cell_angle_alpha 90.000000
_cell_angle_beta 90.000000
_cell_angle_gamma 90.000000
_cell_volume 1928.958214
_symmetry_space_group_name_H-M "C 2 2 21"
_symmetry_group_IT_number 20
_symmetry_cell_setting 'orthorhombic'
loop_
_space_group_symop_operation_xyz
x,y,z
-x,-y,1/2+z
x,-y,-z
-x,y,1/2-z
1/2+x,1/2+y,z
1/2-x,1/2-y,1/2+z
1/2+x,1/2-y,-z
1/2-x,1/2+y,1/2-z
loop_
_atom_site_type_symbol
_atom_site_label
_atom_site_fract_x
_atom_site_fract_y
_atom_site_fract_z
Si Si1 0.543349 0.123824 0.607008
Si Si2 0.166112 0.239319 0.682155
Si Si3 0.236588 0.631090 0.601420
Si Si4 0.643960 0.015800 0.804606
Si Si5 0.949681 0.124750 0.885879
O O1 0.500000 0.154792 0.750000
O O2 0.602852 0.108698 0.700362
O O3 0.542675 0.245703 0.488434
O O4 0.524107 0.000000 0.500000
O O5 0.201463 0.262600 0.508672
O O6 0.206566 0.200652 0.836840
O O7 0.136594 0.375712 0.721481
O O8 0.115952 0.131228 0.678866
O O9 0.251501 0.500000 0.500000
O O10 0.204542 0.583060 0.771189
O O11 0.629866 0.000000 0.000000
O O12 0.000000 0.118374 0.750000
O O13 0.956823 0.000000 0.000000
#
# Coordination Sequence:
#
# PCOD8159762 Si02
#       5
#     8   8   8   8   8
#     4  12  23  43  72 101 132 175 226 284 344 403
#     4  11  23  44  69  98 144 180 234 292 350 415
#     4  10  22  42  66 102 140 180 229 287 349 422
#     4  11  22  40  68 104 134 171 231 289 341 417
#     4  12  28  49  68  99 146 187 235 291 351 424
#
# _framework density 20.73658
#
# number of rings (size 3 to 8) (size 9 to 14) (size 15 to 20)
#    0.000    0.800    4.000    3.600    2.800    4.800 
#    3.600    0.000    0.000    0.000    0.000    0.000 
#    0.000    0.000    0.000    0.000    0.000    0.000 
#
# Total GULP energy -247918.623532 kJ/mol
# GULP energy per Si atom -12395.931177 kJ/mol
# Density = 2.068938 g / cm^3
# Si number density = 20.736580 Si / 1000 Ang^3
#
#
#
# Elastic Constant Matrix: (Units=GPa)
#
#
# Indices 1 2 3 4 5 6 
#
# 1 130.3186 53.5902 61.7701 0.0000 0.0000 0.0000
# 2 53.5902 113.1710 47.3072 0.0000 0.0000 0.0000
# 3 61.7701 47.3072 119.0598 0.0000 0.0000 0.0000
# 4 0.0000 0.0000 0.0000 28.7461 0.0000 0.0000
# 5 0.0000 0.0000 0.0000 0.0000 41.6099 0.0000
# 6 0.0000 0.0000 0.0000 0.0000 0.0000 35.5359
#
#
#
# Elastic Compliance Matrix: (Units=1/GPa)
#
#
# Indices 1 2 3 4 5 6 
#
# 1 0.011194 -0.003445 -0.004439 0.000000 0.000000 0.000000
# 2 -0.003445 0.011657 -0.002844 0.000000 0.000000 0.000000
# 3 -0.004439 -0.002844 0.011832 0.000000 0.000000 0.000000
# 4 0.000000 0.000000 0.000000 0.034787 0.000000 0.000000
# 5 0.000000 0.000000 0.000000 0.000000 0.024033 0.000000
# 6 0.000000 0.000000 0.000000 0.000000 0.000000 0.028141
#
#
# Mechanical properties :
#
#
# Convention : Reuss Voigt Hill
#
# Bulk Modulus (GPa) = 75.60614 76.43163 76.01888
# Shear Modulus (GPa) = 33.89625 34.50384 34.20005
#
# Velocity S-wave (km/s) = 4.04742 4.08353 4.06552
# Velocity P-wave (km/s) = 7.64078 7.69234 7.66660
#
# Compressibility (1/GPa) = 0.01322644
#
# Stress axis : x y z
#
# Youngs Moduli (GPa) = 89.33141 85.78854 84.51572
#
# Poissons Ratio (x) = 0.29557 0.37515
# Poissons Ratio (y) = 0.30778 0.24037
# Poissons Ratio (z) = 0.39652 0.24399
#
# Static dielectric constant tensor:
#      x y z
#    x 3.983350 0.000000 0.000000 
#    y 0.000000 3.661080 0.000000 
#    z 0.000000 0.000000 3.895110 
# 
# 
# High freq. dielectric constant tensor:
#      x y z
#    x 1.820860 0.000000 0.000000 
#    y 0.000000 1.810510 0.000000 
#    z 0.000000 0.000000 1.820400 
# 
# From -- ./inp_files/6097.got.cif
#   From: 2010.03.12/outbox.cif.g09.slc.cpg/sg20_4_cif.got.tgz:6097.got - 2010.04.14 01:38:04.
