data_PCOD8159099
_publ_section_title
;
Structure prediction by ZEFSAII (Michael W. Deem and Ramdas Pophale) SiO2 
 PCOD8159099
Probable space group: C 2 2 21
;
_chemical_formula_sum "Si O2"
_cell_formula_units_Z 48
_cell_length_a 21.303419
_cell_length_b 5.323544
_cell_length_c 15.166140
_cell_angle_alpha 90.000000
_cell_angle_beta 90.000000
_cell_angle_gamma 90.000000
_cell_volume 1719.987212
_symmetry_space_group_name_H-M "C 2 2 21"
_symmetry_group_IT_number 20
_symmetry_cell_setting 'orthorhombic'
loop_
_space_group_symop_operation_xyz
x,y,z
-x,-y,1/2+z
x,-y,-z
-x,y,1/2-z
1/2+x,1/2+y,z
1/2-x,1/2-y,1/2+z
1/2+x,1/2-y,-z
1/2-x,1/2+y,1/2-z
loop_
_atom_site_type_symbol
_atom_site_label
_atom_site_fract_x
_atom_site_fract_y
_atom_site_fract_z
Si Si1 0.047559 0.936937 0.594905
Si Si2 0.252088 0.246070 0.047097
Si Si3 0.397348 0.253804 0.547860
Si Si4 0.973893 0.434713 0.845575
Si Si5 0.631369 0.345841 0.766539
Si Si6 0.166984 0.654104 0.290881
O O1 0.009573 0.668965 0.587118
O O2 0.095012 0.871059 0.673632
O O3 0.079682 0.000000 0.500000
O O4 0.999758 0.167355 0.619136
O O5 0.177640 0.229877 0.048950
O O6 0.277625 0.240658 0.145852
O O7 0.275712 0.500000 0.000000
O O8 0.280660 0.000000 0.000000
O O9 0.426906 0.500000 0.500000
O O10 0.414731 0.266785 0.652829
O O11 0.419906 0.000000 0.500000
O O12 0.899153 0.375255 0.842646
O O13 0.000000 0.500998 0.750000
O O14 0.663047 0.619688 0.782627
O O15 0.681217 0.114309 0.755752
#
# Coordination Sequence:
#
# PCOD8159099 Si02
#       6
#     8   8   8   8   8   8
#     4  10  21  38  63  95 127 159 197 250 315 374
#     4  10  21  36  55  86 124 159 204 254 299 359
#     4  10  21  38  59  83 119 168 214 253 295 348
#     4  10  21  38  61  85 119 159 196 244 305 373
#     4  10  21  36  58  89 122 160 205 253 300 363
#     4  10  21  34  56  84 115 155 193 246 313 357
#
# _framework density 27.907184000000001
#
# number of rings (size 3 to 8) (size 9 to 14) (size 15 to 20)
#    0.000    2.000    0.000    3.000    0.000    9.333 
#    0.000    0.000    0.000   40.000    0.000    0.000 
#    0.000    0.000    0.000    0.000    0.000    0.000 
#
# Total GULP energy -297353.262632 kJ/mol
# GULP energy per Si atom -12389.719276 kJ/mol
# Density = 2.784367 g / cm^3
# Si number density = 27.907184 Si / 1000 Ang^3
#
#
#
# Elastic Constant Matrix: (Units=GPa)
#
#
# Indices 1 2 3 4 5 6 
#
# 1 31.7042 22.2759 7.4199 0.0000 0.0000 0.0000
# 2 22.2759 324.5023 84.9548 0.0000 0.0000 0.0000
# 3 7.4199 84.9548 176.9292 0.0000 0.0000 0.0000
# 4 0.0000 0.0000 0.0000 43.3536 0.0000 0.0000
# 5 0.0000 0.0000 0.0000 0.0000 20.8020 0.0000
# 6 0.0000 0.0000 0.0000 0.0000 0.0000 161.2581
#
#
#
# Elastic Compliance Matrix: (Units=1/GPa)
#
#
# Indices 1 2 3 4 5 6 
#
# 1 0.033158 -0.002187 -0.000340 0.000000 0.000000 0.000000
# 2 -0.002187 0.003669 -0.001670 0.000000 0.000000 0.000000
# 3 -0.000340 -0.001670 0.006468 0.000000 0.000000 0.000000
# 4 0.000000 0.000000 0.000000 0.023066 0.000000 0.000000
# 5 0.000000 0.000000 0.000000 0.000000 0.048072 0.000000
# 6 0.000000 0.000000 0.000000 0.000000 0.000000 0.006201
#
#
# Mechanical properties :
#
#
# Convention : Reuss Voigt Hill
#
# Bulk Modulus (GPa) = 28.65319 84.71522 56.68420
# Shear Modulus (GPa) = 35.54596 72.98174 54.26385
#
# Velocity S-wave (km/s) = 3.57279 5.11941 4.41436
# Velocity P-wave (km/s) = 5.22584 8.08495 6.80720
#
# Compressibility (1/GPa) = 0.03490013
#
# Stress axis : x y z
#
# Youngs Moduli (GPa) = 30.15870 272.55536 154.60446
#
# Poissons Ratio (x) = 0.59609 0.05263
# Poissons Ratio (y) = 0.06596 0.25819
# Poissons Ratio (z) = 0.01027 0.45516
#
# Static dielectric constant tensor:
#      x y z
#    x 4.927030 0.000000 0.000000 
#    y 0.000000 9.499160 0.000000 
#    z 0.000000 0.000000 4.327210 
# 
# 
# High freq. dielectric constant tensor:
#      x y z
#    x 2.113930 0.000000 0.000000 
#    y 0.000000 2.173500 0.000000 
#    z 0.000000 0.000000 2.120640 
# 
# From -- ./inp_files/22159.got.cif
#   From: 2010.03.12/outbox.cif.g09.slc.cpg/sg20_12_cif.got.tgz:22159.got - 2010.04.14 01:38:04.
