data_PCOD8159955
_publ_section_title
;
Structure prediction by ZEFSAII (Michael W. Deem and Ramdas Pophale) SiO2 
 PCOD8159955
Probable space group: C 2 2 21
;
_chemical_formula_sum "Si O2"
_cell_formula_units_Z 64
_cell_length_a 17.916757
_cell_length_b 11.744395
_cell_length_c 15.126049
_cell_angle_alpha 90.000000
_cell_angle_beta 90.000000
_cell_angle_gamma 90.000000
_cell_volume 3182.845486
_symmetry_space_group_name_H-M "C 2 2 21"
_symmetry_group_IT_number 20
_symmetry_cell_setting 'orthorhombic'
loop_
_space_group_symop_operation_xyz
x,y,z
-x,-y,1/2+z
x,-y,-z
-x,y,1/2-z
1/2+x,1/2+y,z
1/2-x,1/2-y,1/2+z
1/2+x,1/2-y,-z
1/2-x,1/2+y,1/2-z
loop_
_atom_site_type_symbol
_atom_site_label
_atom_site_fract_x
_atom_site_fract_y
_atom_site_fract_z
Si Si1 0.935616 0.680745 0.584972
Si Si2 0.166469 0.882205 0.626379
Si Si3 0.349411 0.830434 0.234035
Si Si4 0.298161 0.364517 0.172603
Si Si5 0.553140 0.761890 0.667215
Si Si6 0.069480 0.513047 0.595463
Si Si7 0.025362 0.873469 0.509077
Si Si8 0.289016 0.134201 0.500430
O O1 0.899029 0.656823 0.679253
O O2 0.873027 0.682183 0.507124
O O3 0.993307 0.578747 0.571696
O O4 0.976452 0.802599 0.579691
O O5 0.140333 0.799613 0.703970
O O6 0.109843 0.882126 0.543949
O O7 0.246156 0.833713 0.590134
O O8 0.169957 0.008194 0.665852
O O9 0.263173 0.861061 0.249993
O O10 0.377771 0.914581 0.158579
O O11 0.364073 0.276960 0.195384
O O12 0.259309 0.321443 0.082902
O O13 0.500000 0.740296 0.750000
O O14 0.552021 0.893867 0.641516
O O15 0.523928 0.687811 0.585278
O O16 0.110496 0.500000 0.500000
O O17 0.991094 0.000000 0.500000
O O18 0.293920 0.000000 0.500000
#
# Coordination Sequence:
#
# PCOD8159955 Si02
#       8
#     8   8   8   8   8   8   8   8
#     4  11  23  42  66  99 135 169 225 281 331 395
#     4  11  20  42  69  88 127 186 222 265 329 407
#     4  11  25  41  67 101 134 175 227 280 331 406
#     4  10  23  42  63  94 128 172 220 268 330 392
#     4  12  25  41  69 101 137 169 224 289 334 395
#     4  12  24  44  70  99 133 178 223 279 349 396
#     4  12  23  43  69  94 132 186 225 260 339 414
#     4   9  19  38  66  88 117 168 222 264 318 394
#
# _framework density 20.107793000000001
#
# number of rings (size 3 to 8) (size 9 to 14) (size 15 to 20)
#    0.000    1.000    5.000    1.875    1.750    2.000 
#    0.000    0.000    0.000    0.000    0.000    0.000 
#    0.000    0.000    0.000    0.000    0.000    0.000 
#
# Total GULP energy -396825.727103 kJ/mol
# GULP energy per Si atom -12400.803972 kJ/mol
# Density = 2.006203 g / cm^3
# Si number density = 20.107793 Si / 1000 Ang^3
#
#
#
# Elastic Constant Matrix: (Units=GPa)
#
#
# Indices 1 2 3 4 5 6 
#
# 1 117.0505 54.2655 38.6280 0.0000 0.0000 0.0000
# 2 54.2655 124.2594 35.4591 0.0000 0.0000 0.0000
# 3 38.6280 35.4591 82.9890 0.0000 0.0000 0.0000
# 4 0.0000 0.0000 0.0000 30.9392 0.0000 0.0000
# 5 0.0000 0.0000 0.0000 0.0000 23.0075 0.0000
# 6 0.0000 0.0000 0.0000 0.0000 0.0000 22.5096
#
#
#
# Elastic Compliance Matrix: (Units=1/GPa)
#
#
# Indices 1 2 3 4 5 6 
#
# 1 0.011628 -0.004024 -0.003693 0.000000 0.000000 0.000000
# 2 -0.004024 0.010558 -0.002638 0.000000 0.000000 0.000000
# 3 -0.003693 -0.002638 0.014896 0.000000 0.000000 0.000000
# 4 0.000000 0.000000 0.000000 0.032321 0.000000 0.000000
# 5 0.000000 0.000000 0.000000 0.000000 0.043464 0.000000
# 6 0.000000 0.000000 0.000000 0.000000 0.000000 0.044425
#
#
# Mechanical properties :
#
#
# Convention : Reuss Voigt Hill
#
# Bulk Modulus (GPa) = 61.08221 64.55603 62.81912
# Shear Modulus (GPa) = 27.25401 28.35435 27.80418
#
# Velocity S-wave (km/s) = 3.68556 3.75923 3.72258
# Velocity P-wave (km/s) = 6.96811 7.14262 7.05590
#
# Compressibility (1/GPa) = 0.01637138
#
# Stress axis : x y z
#
# Youngs Moduli (GPa) = 86.00237 94.71618 67.13308
#
# Poissons Ratio (x) = 0.38115 0.24791
# Poissons Ratio (y) = 0.34608 0.17710
# Poissons Ratio (z) = 0.31759 0.24987
#
# Static dielectric constant tensor:
#      x y z
#    x 3.961190 0.000000 0.000000 
#    y 0.000000 3.698120 0.000000 
#    z 0.000000 0.000000 3.846340 
# 
# 
# High freq. dielectric constant tensor:
#      x y z
#    x 1.787310 0.000000 0.000000 
#    y 0.000000 1.784430 0.000000 
#    z 0.000000 0.000000 1.785320 
# 
# From -- ./inp_files/21495.got.cif
#   From: 2010.03.12/outbox.cif.g09.slc.cpg/sg20_11_cif.got.tgz:21495.got - 2010.04.14 01:38:04.
