data_PCOD8159212
_publ_section_title
;
Structure prediction by ZEFSAII (Michael W. Deem and Ramdas Pophale) SiO2 
 PCOD8159212
Probable space group: C 2 2 21
;
_chemical_formula_sum "Si O2"
_cell_formula_units_Z 52
_cell_length_a 10.933565
_cell_length_b 26.277428
_cell_length_c 8.884380
_cell_angle_alpha 90.000000
_cell_angle_beta 90.000000
_cell_angle_gamma 90.000000
_cell_volume 2552.535388
_symmetry_space_group_name_H-M "C 2 2 21"
_symmetry_group_IT_number 20
_symmetry_cell_setting 'orthorhombic'
loop_
_space_group_symop_operation_xyz
x,y,z
-x,-y,1/2+z
x,-y,-z
-x,y,1/2-z
1/2+x,1/2+y,z
1/2-x,1/2-y,1/2+z
1/2+x,1/2-y,-z
1/2-x,1/2+y,1/2-z
loop_
_atom_site_type_symbol
_atom_site_label
_atom_site_fract_x
_atom_site_fract_y
_atom_site_fract_z
Si Si1 0.163073 0.948994 0.594038
Si Si2 0.229856 0.347772 0.867858
Si Si3 0.694109 0.280881 0.375297
Si Si4 0.610701 0.641757 0.854367
Si Si5 0.878090 0.945937 0.563031
Si Si6 0.390202 0.301547 0.642734
Si Si7 0.500000 0.794501 0.750000
O O1 0.254300 0.902546 0.548224
O O2 0.181961 0.951372 0.773116
O O3 0.023026 0.933894 0.563523
O O4 0.198962 0.000000 0.500000
O O5 0.301556 0.347096 0.706897
O O6 0.087949 0.331604 0.848256
O O7 0.305362 0.305459 0.960317
O O8 0.701892 0.325468 0.249313
O O9 0.819759 0.251014 0.364876
O O10 0.579800 0.242363 0.357164
O O11 0.500000 0.621295 0.750000
O O12 0.676898 0.595302 0.943551
O O13 0.559410 0.680910 0.980098
O O14 0.847527 0.000000 0.500000
O O15 0.500000 0.290941 0.750000
#
# Coordination Sequence:
#
# PCOD8159212 Si02
#       7
#     8   8   8   8   8   8   4
#     4  10  21  38  62  95 123 166 217 266 343 397
#     4  11  23  41  66  90 131 173 219 275 332 398
#     4  11  24  38  62  93 130 176 219 274 325 402
#     4  12  23  36  59  88 130 174 215 268 333 395
#     4  10  22  36  57  91 132 166 206 275 336 409
#     4  11  22  38  58  91 129 172 221 262 329 396
#     4  10  24  44  62  98 130 178 228 270 334 392
#
# _framework density 20.371901999999999
#
# number of rings (size 3 to 8) (size 9 to 14) (size 15 to 20)
#    0.000    1.231    2.308    4.615    8.615    0.000 
#    0.000    0.000    0.000    0.923    2.000    0.000 
#    0.000    0.000    0.000    0.000    0.000    0.000 
#
# Total GULP energy -322138.993760 kJ/mol
# GULP energy per Si atom -12389.961298 kJ/mol
# Density = 2.032553 g / cm^3
# Si number density = 20.371902 Si / 1000 Ang^3
#
#
#
# Elastic Constant Matrix: (Units=GPa)
#
#
# Indices 1 2 3 4 5 6 
#
# 1 70.4700 41.0514 26.9358 0.0000 0.0000 0.0000
# 2 41.0514 142.2807 44.9935 0.0000 0.0000 0.0000
# 3 26.9358 44.9935 103.8364 0.0000 0.0000 0.0000
# 4 0.0000 0.0000 0.0000 39.0572 0.0000 0.0000
# 5 0.0000 0.0000 0.0000 0.0000 22.1307 0.0000
# 6 0.0000 0.0000 0.0000 0.0000 0.0000 19.5893
#
#
#
# Elastic Compliance Matrix: (Units=1/GPa)
#
#
# Indices 1 2 3 4 5 6 
#
# 1 0.017714 -0.004239 -0.002758 0.000000 0.000000 0.000000
# 2 -0.004239 0.009159 -0.002869 0.000000 0.000000 0.000000
# 3 -0.002758 -0.002869 0.011589 0.000000 0.000000 0.000000
# 4 0.000000 0.000000 0.000000 0.025603 0.000000 0.000000
# 5 0.000000 0.000000 0.000000 0.000000 0.045186 0.000000
# 6 0.000000 0.000000 0.000000 0.000000 0.000000 0.051048
#
#
# Mechanical properties :
#
#
# Convention : Reuss Voigt Hill
#
# Bulk Modulus (GPa) = 53.39126 60.28317 56.83721
# Shear Modulus (GPa) = 26.84204 29.72919 28.28561
#
# Velocity S-wave (km/s) = 3.63382 3.82425 3.73025
# Velocity P-wave (km/s) = 6.62354 7.01109 6.82007
#
# Compressibility (1/GPa) = 0.01872966
#
# Stress axis : x y z
#
# Youngs Moduli (GPa) = 56.45267 109.18746 86.28670
#
# Poissons Ratio (x) = 0.46280 0.23802
# Poissons Ratio (y) = 0.23928 0.24756
# Poissons Ratio (z) = 0.15572 0.31326
#
# Static dielectric constant tensor:
#      x y z
#    x 3.410730 0.000000 0.000000 
#    y 0.000000 3.954840 0.000000 
#    z 0.000000 0.000000 4.049150 
# 
# 
# High freq. dielectric constant tensor:
#      x y z
#    x 1.741870 0.000000 0.000000 
#    y 0.000000 1.804120 0.000000 
#    z 0.000000 0.000000 1.815520 
# 
# From -- ./inp_files/7515.got.cif
#   From: 2010.03.12/outbox.cif.g09.slc.cpg/sg20_4_cif.got.tgz:7515.got - 2010.04.14 01:38:04.
