data_PCOD8159744
_publ_section_title
;
Structure prediction by ZEFSAII (Michael W. Deem and Ramdas Pophale) SiO2 
 PCOD8159744
Probable space group: C 2 2 21
;
_chemical_formula_sum "Si O2"
_cell_formula_units_Z 44
_cell_length_a 7.894576
_cell_length_b 22.099756
_cell_length_c 11.497699
_cell_angle_alpha 90.000000
_cell_angle_beta 90.000000
_cell_angle_gamma 90.000000
_cell_volume 2005.982887
_symmetry_space_group_name_H-M "C 2 2 21"
_symmetry_group_IT_number 20
_symmetry_cell_setting 'orthorhombic'
loop_
_space_group_symop_operation_xyz
x,y,z
-x,-y,1/2+z
x,-y,-z
-x,y,1/2-z
1/2+x,1/2+y,z
1/2-x,1/2-y,1/2+z
1/2+x,1/2-y,-z
1/2-x,1/2+y,1/2-z
loop_
_atom_site_type_symbol
_atom_site_label
_atom_site_fract_x
_atom_site_fract_y
_atom_site_fract_z
Si Si1 0.843468 0.666880 0.324495
Si Si2 0.354069 0.444818 0.167925
Si Si3 0.000000 0.604877 0.750000
Si Si4 0.956212 0.300531 0.042673
Si Si5 0.861569 0.188492 0.384670
Si Si6 0.404277 0.579556 0.088362
O O1 0.897451 0.698870 0.443944
O O2 0.723181 0.707185 0.239197
O O3 0.759791 0.603029 0.347376
O O4 0.000000 0.646059 0.250000
O O5 0.500000 0.416729 0.250000
O O6 0.419638 0.511900 0.134722
O O7 0.167234 0.437287 0.227174
O O8 0.363355 0.409549 0.047269
O O9 0.976410 0.646338 0.863381
O O10 0.979994 0.233930 0.098303
O O11 0.770853 0.306529 0.989456
O O12 0.930615 0.119578 0.379161
#
# Coordination Sequence:
#
# PCOD8159744 Si02
#       6
#     8   8   4   8   8   8
#     4  10  22  42  64 101 135 183 240 287 351 426
#     4  11  25  46  71 103 142 189 239 302 367 435
#     4  12  26  46  70 106 146 188 236 308 362 436
#     4  11  25  42  68 105 145 192 239 292 370 435
#     4  11  24  42  71 100 147 189 239 297 360 433
#     4  11  23  45  69 100 140 182 243 296 356 437
#
# _framework density 21.934383
#
# number of rings (size 3 to 8) (size 9 to 14) (size 15 to 20)
#    0.000    1.091    1.818    3.818    6.364    0.000 
#    0.000    1.818    0.000    0.000    0.000    0.000 
#    0.000    0.000    0.000    0.000    0.000    0.000 
#
# Total GULP energy -272589.079233 kJ/mol
# GULP energy per Si atom -12390.412692 kJ/mol
# Density = 2.188446 g / cm^3
# Si number density = 21.934383 Si / 1000 Ang^3
#
#
#
# Elastic Constant Matrix: (Units=GPa)
#
#
# Indices 1 2 3 4 5 6 
#
# 1 139.3904 58.8362 65.0163 0.0000 0.0000 0.0000
# 2 58.8362 81.6032 33.4144 0.0000 0.0000 0.0000
# 3 65.0163 33.4144 148.1035 0.0000 0.0000 0.0000
# 4 0.0000 0.0000 0.0000 24.5463 0.0000 0.0000
# 5 0.0000 0.0000 0.0000 0.0000 44.8189 0.0000
# 6 0.0000 0.0000 0.0000 0.0000 0.0000 -9.2856
#
#
#
# Elastic Compliance Matrix: (Units=1/GPa)
#
#
# Indices 1 2 3 4 5 6 
#
# 1 0.011833 -0.007056 -0.003603 0.000000 0.000000 0.000000
# 2 -0.007056 0.017710 -0.000898 0.000000 0.000000 0.000000
# 3 -0.003603 -0.000898 0.008536 0.000000 0.000000 0.000000
# 4 0.000000 0.000000 0.000000 0.040739 0.000000 0.000000
# 5 0.000000 0.000000 0.000000 0.000000 0.022312 0.000000
# 6 0.000000 0.000000 0.000000 0.000000 0.000000 -0.107694
#
#
# Mechanical properties :
#
#
# Convention : Reuss Voigt Hill
#
# Bulk Modulus (GPa) = 66.82201 75.95901 71.39051
# Shear Modulus (GPa) = 232.14147 26.13794 129.13970
#
# Velocity S-wave (km/s) = 10.29875 3.45576 7.68136
# Velocity P-wave (km/s) = 13.11296 7.11536 10.54936
#
# Compressibility (1/GPa) = 0.01496513
#
# Stress axis : x y z
#
# Youngs Moduli (GPa) = 84.50991 56.46591 117.14965
#
# Poissons Ratio (x) = 0.39845 0.42203
# Poissons Ratio (y) = 0.59634 0.10519
# Poissons Ratio (z) = 0.30445 0.05070
#
# Static dielectric constant tensor:
#      x y z
#    x 8.683360 0.000000 0.000000 
#    y 0.000000 3.598610 0.000000 
#    z 0.000000 0.000000 4.549230 
# 
# 
# High freq. dielectric constant tensor:
#      x y z
#    x 1.876540 0.000000 0.000000 
#    y 0.000000 1.839540 0.000000 
#    z 0.000000 0.000000 1.896430 
# 
# From -- ./inp_files/13002.got.cif
#   From: 2010.03.12/outbox.cif.g09.slc.cpg/sg20_7_cif.got.tgz:13002.got - 2010.04.14 01:38:04.
