data_PCOD8159752
_publ_section_title
;
Structure prediction by ZEFSAII (Michael W. Deem and Ramdas Pophale) SiO2 
 PCOD8159752
Probable space group: C 2 2 21
;
_chemical_formula_sum "Si O2"
_cell_formula_units_Z 32
_cell_length_a 5.054841
_cell_length_b 30.590790
_cell_length_c 8.900914
_cell_angle_alpha 90.000000
_cell_angle_beta 90.000000
_cell_angle_gamma 90.000000
_cell_volume 1376.362391
_symmetry_space_group_name_H-M "C 2 2 21"
_symmetry_group_IT_number 20
_symmetry_cell_setting 'orthorhombic'
loop_
_space_group_symop_operation_xyz
x,y,z
-x,-y,1/2+z
x,-y,-z
-x,y,1/2-z
1/2+x,1/2+y,z
1/2-x,1/2-y,1/2+z
1/2+x,1/2-y,-z
1/2-x,1/2+y,1/2-z
loop_
_atom_site_type_symbol
_atom_site_label
_atom_site_fract_x
_atom_site_fract_y
_atom_site_fract_z
Si Si1 0.909846 0.044838 0.077459
Si Si2 0.500000 0.838204 0.750000
Si Si3 0.675738 0.220199 0.996877
Si Si4 0.000000 0.339909 0.250000
Si Si5 0.615418 0.901147 0.511296
O O1 0.000000 0.038397 0.250000
O O2 0.169921 0.061158 0.991058
O O3 0.672806 0.078982 0.050183
O O4 0.819128 0.000000 0.000000
O O5 0.305025 0.809535 0.645636
O O6 0.689549 0.868546 0.647634
O O7 0.388556 0.242126 0.998339
O O8 0.701315 0.190624 0.846289
O O9 0.148035 0.372271 0.362615
#
# Coordination Sequence:
#
# PCOD8159752 Si02
#       5
#     8   4   8   4   8
#     4  12  26  45  70  99 133 175 219 273 333 394
#     4  10  22  42  65  90 128 174 210 266 321 384
#     4  11  24  41  65  95 132 172 221 269 327 385
#     4  10  26  42  69 102 134 178 224 274 333 390
#     4  11  25  44  68  97 136 174 223 267 331 397
#
# _framework density 23.249687999999999
#
# number of rings (size 3 to 8) (size 9 to 14) (size 15 to 20)
#    0.000    1.000    2.500    2.250    3.500   12.000 
#    0.000    0.000    0.000    0.000    0.000    0.000 
#    0.000    0.000    0.000    0.000    0.000    0.000 
#
# Total GULP energy -198361.166812 kJ/mol
# GULP energy per Si atom -12397.572926 kJ/mol
# Density = 2.319677 g / cm^3
# Si number density = 23.249688 Si / 1000 Ang^3
#
#
#
# Elastic Constant Matrix: (Units=GPa)
#
#
# Indices 1 2 3 4 5 6 
#
# 1 91.2859 30.6890 33.5941 0.0000 0.0000 0.0000
# 2 30.6890 129.0046 74.9475 0.0000 0.0000 0.0000
# 3 33.5941 74.9475 168.7695 0.0000 0.0000 0.0000
# 4 0.0000 0.0000 0.0000 19.1513 0.0000 0.0000
# 5 0.0000 0.0000 0.0000 0.0000 16.3687 0.0000
# 6 0.0000 0.0000 0.0000 0.0000 0.0000 -0.1373
#
#
#
# Elastic Compliance Matrix: (Units=1/GPa)
#
#
# Indices 1 2 3 4 5 6 
#
# 1 0.012195 -0.002009 -0.001535 0.000000 0.000000 0.000000
# 2 -0.002009 0.010778 -0.004386 0.000000 0.000000 0.000000
# 3 -0.001535 -0.004386 0.008179 0.000000 0.000000 0.000000
# 4 0.000000 0.000000 0.000000 0.052216 0.000000 0.000000
# 5 0.000000 0.000000 0.000000 0.000000 0.061092 0.000000
# 6 0.000000 0.000000 0.000000 0.000000 0.000000 -7.281277
#
#
# Mechanical properties :
#
#
# Convention : Reuss Voigt Hill
#
# Bulk Modulus (GPa) = 65.40135 74.16903 69.78519
# Shear Modulus (GPa) = -0.70266 23.73184 11.51459
#
# Velocity S-wave (km/s) = -0.55034 3.19836 2.22785
# Velocity P-wave (km/s) = 5.27136 6.75350 6.05793
#
# Compressibility (1/GPa) = 0.01529020
#
# Stress axis : x y z
#
# Youngs Moduli (GPa) = 82.00066 92.78188 122.26822
#
# Poissons Ratio (x) = 0.18642 0.18771
# Poissons Ratio (y) = 0.16475 0.53631
# Poissons Ratio (z) = 0.12589 0.40698
#
# Static dielectric constant tensor:
#      x y z
#    x 3.667800 0.000000 0.000000 
#    y 0.000000 4.409680 0.000000 
#    z 0.000000 0.000000 5.546030 
# 
# 
# High freq. dielectric constant tensor:
#      x y z
#    x 1.889590 0.000000 0.000000 
#    y 0.000000 1.943170 0.000000 
#    z 0.000000 0.000000 1.938240 
# 
# From -- ./inp_files/5142.got.cif
#   From: 2010.03.12/outbox.cif.g09.slc.cpg/sg20_3_cif.got.tgz:5142.got - 2010.04.14 01:38:04.
