data_PCOD8159831
_publ_section_title
;
Structure prediction by ZEFSAII (Michael W. Deem and Ramdas Pophale) SiO2 
 PCOD8159831
Probable space group: C 2 2 21
;
_chemical_formula_sum "Si O2"
_cell_formula_units_Z 48
_cell_length_a 13.246822
_cell_length_b 5.285551
_cell_length_c 30.129924
_cell_angle_alpha 90.000000
_cell_angle_beta 90.000000
_cell_angle_gamma 90.000000
_cell_volume 2109.599455
_symmetry_space_group_name_H-M "C 2 2 21"
_symmetry_group_IT_number 20
_symmetry_cell_setting 'orthorhombic'
loop_
_space_group_symop_operation_xyz
x,y,z
-x,-y,1/2+z
x,-y,-z
-x,y,1/2-z
1/2+x,1/2+y,z
1/2-x,1/2-y,1/2+z
1/2+x,1/2-y,-z
1/2-x,1/2+y,1/2-z
loop_
_atom_site_type_symbol
_atom_site_label
_atom_site_fract_x
_atom_site_fract_y
_atom_site_fract_z
Si Si1 0.500000 0.189507 0.250000
Si Si2 0.555441 0.634469 0.454579
Si Si3 0.881733 0.490639 0.331844
Si Si4 0.407431 0.000000 0.500000
Si Si5 0.756085 0.134933 0.544876
Si Si6 0.288841 0.381445 0.227627
Si Si7 0.905193 0.000573 0.612659
O O1 0.448797 0.012625 0.287230
O O2 0.411292 0.360449 0.227118
O O3 0.587445 0.500000 0.500000
O O4 0.657297 0.743504 0.433093
O O5 0.504238 0.452355 0.418155
O O6 0.473643 0.845891 0.465425
O O7 0.762934 0.449619 0.319726
O O8 0.890244 0.751757 0.358109
O O9 0.923079 0.250612 0.358612
O O10 0.341152 0.164603 0.467079
O O11 0.806611 0.952146 0.581412
O O12 0.719820 0.000000 0.500000
O O13 0.259373 0.608740 0.260568
#
# Coordination Sequence:
#
# PCOD8159831 Si02
#       7
#     4   8   8   4   8   8   8
#     4  10  24  48  78 100 138 188 240 288 360 434
#     4  12  25  41  71 100 136 196 246 282 349 423
#     4  11  26  44  72 104 141 185 230 292 363 422
#     4  12  20  44  66  94 136 178 248 290 338 408
#     4  12  25  41  70  95 135 194 234 291 352 414
#     4  10  22  43  72 103 133 176 233 279 341 425
#     4  12  26  45  66 106 150 178 231 305 347 413
#
# _framework density 22.753136999999999
#
# number of rings (size 3 to 8) (size 9 to 14) (size 15 to 20)
#    0.000    0.667    5.000    3.000    0.000    8.667 
#    0.000    0.000    0.000    0.000    0.000    0.000 
#    0.000    0.000    0.000    0.000    0.000    0.000 
#
# Total GULP energy -297521.917185 kJ/mol
# GULP energy per Si atom -12396.746549 kJ/mol
# Density = 2.270135 g / cm^3
# Si number density = 22.753137 Si / 1000 Ang^3
#
#
#
# Elastic Constant Matrix: (Units=GPa)
#
#
# Indices 1 2 3 4 5 6 
#
# 1 172.1335 42.1676 43.6824 0.0000 0.0000 0.0000
# 2 42.1676 122.4777 38.6449 0.0000 0.0000 0.0000
# 3 43.6824 38.6449 114.9999 0.0000 0.0000 0.0000
# 4 0.0000 0.0000 0.0000 45.3232 0.0000 0.0000
# 5 0.0000 0.0000 0.0000 0.0000 420.7476 0.0000
# 6 0.0000 0.0000 0.0000 0.0000 0.0000 43.6269
#
#
#
# Elastic Compliance Matrix: (Units=1/GPa)
#
#
# Indices 1 2 3 4 5 6 
#
# 1 0.006728 -0.001689 -0.001988 0.000000 0.000000 0.000000
# 2 -0.001689 0.009557 -0.002570 0.000000 0.000000 0.000000
# 3 -0.001988 -0.002570 0.010314 0.000000 0.000000 0.000000
# 4 0.000000 0.000000 0.000000 0.022064 0.000000 0.000000
# 5 0.000000 0.000000 0.000000 0.000000 0.002377 0.000000
# 6 0.000000 0.000000 0.000000 0.000000 0.000000 0.022922
#
#
# Mechanical properties :
#
#
# Convention : Reuss Voigt Hill
#
# Bulk Modulus (GPa) = 70.89534 73.17790 72.03662
# Shear Modulus (GPa) = 54.85036 120.94729 87.89883
#
# Velocity S-wave (km/s) = 4.91519 7.29875 6.22217
# Velocity P-wave (km/s) = 7.96481 10.16171 9.12959
#
# Compressibility (1/GPa) = 0.01410530
#
# Stress axis : x y z
#
# Youngs Moduli (GPa) = 148.63976 104.63337 96.95176
#
# Poissons Ratio (x) = 0.17673 0.19273
# Poissons Ratio (y) = 0.25106 0.24917
# Poissons Ratio (z) = 0.29548 0.26891
#
# Static dielectric constant tensor:
#      x y z
#    x 4.295390 0.000000 0.000000 
#    y 0.000000 4.132210 0.000000 
#    z 0.000000 0.000000 4.287500 
# 
# 
# High freq. dielectric constant tensor:
#      x y z
#    x 1.908150 0.000000 0.000000 
#    y 0.000000 1.902280 0.000000 
#    z 0.000000 0.000000 1.889080 
# 
# From -- ./inp_files/31269.got.cif
#   From: 2010.03.12/outbox.cif.g09.slc.cpg/sg20_16_cif.got.tgz:31269.got - 2010.04.14 01:38:04.
