data_PCOD8159975
_publ_section_title
;
Structure prediction by ZEFSAII (Michael W. Deem and Ramdas Pophale) SiO2 
 PCOD8159975
Probable space group: C 2 2 21
;
_chemical_formula_sum "Si O2"
_cell_formula_units_Z 64
_cell_length_a 8.993022
_cell_length_b 21.994844
_cell_length_c 14.093670
_cell_angle_alpha 90.000000
_cell_angle_beta 90.000000
_cell_angle_gamma 90.000000
_cell_volume 2787.729561
_symmetry_space_group_name_H-M "C 2 2 21"
_symmetry_group_IT_number 20
_symmetry_cell_setting 'orthorhombic'
loop_
_space_group_symop_operation_xyz
x,y,z
-x,-y,1/2+z
x,-y,-z
-x,y,1/2-z
1/2+x,1/2+y,z
1/2-x,1/2-y,1/2+z
1/2+x,1/2-y,-z
1/2-x,1/2+y,1/2-z
loop_
_atom_site_type_symbol
_atom_site_label
_atom_site_fract_x
_atom_site_fract_y
_atom_site_fract_z
Si Si1 0.638991 0.829483 0.679723
Si Si2 0.167978 0.536700 0.275965
Si Si3 0.775678 0.729926 0.793557
Si Si4 0.528257 0.218320 0.521906
Si Si5 0.034336 0.821911 0.095704
Si Si6 0.212954 0.011989 0.602016
Si Si7 0.800434 0.354279 0.367307
Si Si8 0.912654 0.050505 0.651468
O O1 0.500000 0.829333 0.750000
O O2 0.685749 0.900133 0.668392
O O3 0.773363 0.791481 0.730062
O O4 0.608425 0.802930 0.575208
O O5 0.247749 0.542636 0.173342
O O6 0.257531 0.485234 0.336335
O O7 0.000000 0.516674 0.250000
O O8 0.859574 0.734694 0.893431
O O9 0.603515 0.714521 0.815519
O O10 0.850982 0.675692 0.732308
O O11 0.440339 0.281629 0.499694
O O12 0.415126 0.164828 0.550636
O O13 0.859111 0.827279 0.107046
O O14 0.118880 0.887085 0.093503
O O15 0.288128 0.073382 0.643461
O O16 0.034001 0.013128 0.591142
O O17 0.284977 0.000000 0.500000
O O18 0.000000 0.066385 0.750000
#
# Coordination Sequence:
#
# PCOD8159975 Si02
#       8
#     8   8   8   8   8   8   8   8
#     4  11  24  42  71 100 148 197 228 298 382 435
#     4  10  23  43  71  98 141 190 237 299 369 426
#     4  12  23  44  70 104 146 186 234 298 371 447
#     4  12  26  41  69 111 143 184 245 297 366 447
#     4  11  21  40  71  99 134 184 234 285 363 428
#     4  10  23  42  71  99 136 191 249 301 362 433
#     4  11  24  44  69 101 140 185 239 301 359 439
#     4   9  20  42  68  95 131 185 241 290 350 435
#
# _framework density 22.957750999999998
#
# number of rings (size 3 to 8) (size 9 to 14) (size 15 to 20)
#    0.000    1.250    2.500    3.750    3.500    3.000 
#    4.500    4.375    0.000    0.000    0.000    0.000 
#    0.000    0.000    0.000    0.000    0.000    0.000 
#
# Total GULP energy -396502.299454 kJ/mol
# GULP energy per Si atom -12390.696858 kJ/mol
# Density = 2.290550 g / cm^3
# Si number density = 22.957751 Si / 1000 Ang^3
#
#
#
# Elastic Constant Matrix: (Units=GPa)
#
#
# Indices 1 2 3 4 5 6 
#
# 1 90.7634 60.2225 33.6746 0.0000 0.0000 0.0000
# 2 60.2225 130.2276 61.3864 0.0000 0.0000 0.0000
# 3 33.6746 61.3864 138.1526 0.0000 0.0000 0.0000
# 4 0.0000 0.0000 0.0000 31.8969 0.0000 0.0000
# 5 0.0000 0.0000 0.0000 0.0000 37.4882 0.0000
# 6 0.0000 0.0000 0.0000 0.0000 0.0000 20.6505
#
#
#
# Elastic Compliance Matrix: (Units=1/GPa)
#
#
# Indices 1 2 3 4 5 6 
#
# 1 0.015960 -0.007016 -0.000773 0.000000 0.000000 0.000000
# 2 -0.007016 0.012798 -0.003976 0.000000 0.000000 0.000000
# 3 -0.000773 -0.003976 0.009194 0.000000 0.000000 0.000000
# 4 0.000000 0.000000 0.000000 0.031351 0.000000 0.000000
# 5 0.000000 0.000000 0.000000 0.000000 0.026675 0.000000
# 6 0.000000 0.000000 0.000000 0.000000 0.000000 0.048425
#
#
# Mechanical properties :
#
#
# Convention : Reuss Voigt Hill
#
# Bulk Modulus (GPa) = 69.34480 74.41227 71.87853
# Shear Modulus (GPa) = 28.94537 31.59779 30.27158
#
# Velocity S-wave (km/s) = 3.55464 3.71394 3.63516
# Velocity P-wave (km/s) = 6.86428 7.13261 6.99973
#
# Compressibility (1/GPa) = 0.01442069
#
# Stress axis : x y z
#
# Youngs Moduli (GPa) = 62.65817 78.13848 108.77213
#
# Poissons Ratio (x) = 0.54823 0.08404
# Poissons Ratio (y) = 0.43962 0.43252
# Poissons Ratio (z) = 0.04841 0.31071
#
# Static dielectric constant tensor:
#      x y z
#    x 4.061210 0.000000 0.000000 
#    y 0.000000 4.327710 0.000000 
#    z 0.000000 0.000000 4.211500 
# 
# 
# High freq. dielectric constant tensor:
#      x y z
#    x 1.897920 0.000000 0.000000 
#    y 0.000000 1.904440 0.000000 
#    z 0.000000 0.000000 1.904260 
# 
# From -- ./inp_files/19385.got.cif
#   From: 2010.03.12/outbox.cif.g09.slc.cpg/sg20_10_cif.got.tgz:19385.got - 2010.04.14 01:38:04.
