data_PCOD8159409
_publ_section_title
;
Structure prediction by ZEFSAII (Michael W. Deem and Ramdas Pophale) SiO2 
 PCOD8159409
Probable space group: C 2 2 21
;
_chemical_formula_sum "Si O2"
_cell_formula_units_Z 40
_cell_length_a 9.925192
_cell_length_b 18.788441
_cell_length_c 9.837781
_cell_angle_alpha 90.000000
_cell_angle_beta 90.000000
_cell_angle_gamma 90.000000
_cell_volume 1834.538425
_symmetry_space_group_name_H-M "C 2 2 21"
_symmetry_group_IT_number 20
_symmetry_cell_setting 'orthorhombic'
loop_
_space_group_symop_operation_xyz
x,y,z
-x,-y,1/2+z
x,-y,-z
-x,y,1/2-z
1/2+x,1/2+y,z
1/2-x,1/2-y,1/2+z
1/2+x,1/2-y,-z
1/2-x,1/2+y,1/2-z
loop_
_atom_site_type_symbol
_atom_site_label
_atom_site_fract_x
_atom_site_fract_y
_atom_site_fract_z
Si Si1 0.496276 0.207458 0.913110
Si Si2 0.678424 0.919976 0.479108
Si Si3 0.722628 0.679252 0.484166
Si Si4 0.349216 0.428295 0.215943
Si Si5 0.345410 0.408952 0.746306
O O1 0.500000 0.208381 0.750000
O O2 0.645503 0.222454 0.970010
O O3 0.450120 0.131462 0.975262
O O4 0.400683 0.266409 0.978501
O O5 0.752586 0.906311 0.337922
O O6 0.788403 0.904382 0.594899
O O7 0.623123 0.000000 0.500000
O O8 0.695091 0.613978 0.584055
O O9 0.743982 0.644527 0.336049
O O10 0.500000 0.405686 0.250000
O O11 0.338771 0.512450 0.189431
O O12 0.500000 0.381992 0.750000
#
# Coordination Sequence:
#
# PCOD8159409 Si02
#       5
#     8   8   8   8   8
#     4  12  29  49  68 102 141 187 235 294 351 419
#     4  10  23  45  70 101 142 182 230 289 352 415
#     4  12  27  44  72  98 142 183 234 288 351 411
#     4  10  21  41  73 106 139 183 229 284 353 416
#     4  10  22  42  72 110 141 177 232 289 341 418
#
# _framework density 21.803849
#
# number of rings (size 3 to 8) (size 9 to 14) (size 15 to 20)
#    0.000    1.200    2.000    2.400    8.400    5.600 
#    0.000    0.000    0.000    0.000    0.000    0.000 
#    0.000    0.000    0.000    0.000    0.000    0.000 
#
# Total GULP energy -248068.928906 kJ/mol
# GULP energy per Si atom -12403.446445 kJ/mol
# Density = 2.175422 g / cm^3
# Si number density = 21.803849 Si / 1000 Ang^3
#
#
#
# Elastic Constant Matrix: (Units=GPa)
#
#
# Indices 1 2 3 4 5 6 
#
# 1 115.1488 37.8555 32.2727 0.0000 0.0000 0.0000
# 2 37.8555 85.5572 47.1661 0.0000 0.0000 0.0000
# 3 32.2727 47.1661 98.6265 0.0000 0.0000 0.0000
# 4 0.0000 0.0000 0.0000 16.1126 0.0000 0.0000
# 5 0.0000 0.0000 0.0000 0.0000 31.9689 0.0000
# 6 0.0000 0.0000 0.0000 0.0000 0.0000 36.0571
#
#
#
# Elastic Compliance Matrix: (Units=1/GPa)
#
#
# Indices 1 2 3 4 5 6 
#
# 1 0.010351 -0.003684 -0.001625 0.000000 0.000000 0.000000
# 2 -0.003684 0.017184 -0.007012 0.000000 0.000000 0.000000
# 3 -0.001625 -0.007012 0.014025 0.000000 0.000000 0.000000
# 4 0.000000 0.000000 0.000000 0.062063 0.000000 0.000000
# 5 0.000000 0.000000 0.000000 0.000000 0.031280 0.000000
# 6 0.000000 0.000000 0.000000 0.000000 0.000000 0.027734
#
#
# Mechanical properties :
#
#
# Convention : Reuss Voigt Hill
#
# Bulk Modulus (GPa) = 59.11454 59.32459 59.21956
# Shear Modulus (GPa) = 25.91762 28.96359 27.44061
#
# Velocity S-wave (km/s) = 3.45145 3.64864 3.55141
# Velocity P-wave (km/s) = 6.56157 6.70950 6.63595
#
# Compressibility (1/GPa) = 0.01691631
#
# Stress axis : x y z
#
# Youngs Moduli (GPa) = 96.60868 58.19413 71.30311
#
# Poissons Ratio (x) = 0.21438 0.11589
# Poissons Ratio (y) = 0.35590 0.50001
# Poissons Ratio (z) = 0.15702 0.40808
#
# Static dielectric constant tensor:
#      x y z
#    x 3.903480 0.000000 0.000000 
#    y 0.000000 4.058990 0.000000 
#    z 0.000000 0.000000 3.943160 
# 
# 
# High freq. dielectric constant tensor:
#      x y z
#    x 1.851930 0.000000 0.000000 
#    y 0.000000 1.869560 0.000000 
#    z 0.000000 0.000000 1.865420 
# 
# From -- ./inp_files/7040.got.cif
#   From: 2010.03.12/outbox.cif.g09.slc.cpg/sg20_4_cif.got.tgz:7040.got - 2010.04.14 01:38:04.
