data_PCOD8159054
_publ_section_title
;
Structure prediction by ZEFSAII (Michael W. Deem and Ramdas Pophale) SiO2 
 PCOD8159054
Probable space group: C 2 2 21
;
_chemical_formula_sum "Si O2"
_cell_formula_units_Z 48
_cell_length_a 15.328855
_cell_length_b 7.953619
_cell_length_c 17.701767
_cell_angle_alpha 90.000000
_cell_angle_beta 90.000000
_cell_angle_gamma 90.000000
_cell_volume 2158.197173
_symmetry_space_group_name_H-M "C 2 2 21"
_symmetry_group_IT_number 20
_symmetry_cell_setting 'orthorhombic'
loop_
_space_group_symop_operation_xyz
x,y,z
-x,-y,1/2+z
x,-y,-z
-x,y,1/2-z
1/2+x,1/2+y,z
1/2-x,1/2-y,1/2+z
1/2+x,1/2-y,-z
1/2-x,1/2+y,1/2-z
loop_
_atom_site_type_symbol
_atom_site_label
_atom_site_fract_x
_atom_site_fract_y
_atom_site_fract_z
Si Si1 0.466922 0.005680 0.082294
Si Si2 0.292778 0.124555 0.600956
Si Si3 0.340345 0.436545 0.313938
Si Si4 0.673210 0.165228 0.312615
Si Si5 0.947116 0.254249 0.321558
Si Si6 0.644544 0.793724 0.945601
O O1 0.407820 0.068741 0.151208
O O2 0.549892 0.128857 0.072422
O O3 0.497533 0.815902 0.104908
O O4 0.419176 0.000000 0.000000
O O5 0.199967 0.202221 0.621962
O O6 0.354666 0.146575 0.675128
O O7 0.339999 0.234610 0.534633
O O8 0.281985 0.930439 0.579544
O O9 0.354422 0.273467 0.260867
O O10 0.252094 0.536778 0.292456
O O11 0.426102 0.555802 0.312757
O O12 0.335434 0.375669 0.400660
O O13 0.000000 0.319067 0.250000
#
# Coordination Sequence:
#
# PCOD8159054 Si02
#       6
#     8   8   8   8   8   8
#     4  11  24  45  68  98 131 176 237 286 333 399
#     4   9  20  44  65  94 134 181 215 274 345 404
#     4  11  26  42  66  99 138 183 227 273 352 408
#     4  11  26  41  67 101 139 174 229 282 342 404
#     4  10  23  41  66  91 131 179 223 278 337 400
#     4  10  20  43  70  90 130 184 225 268 341 410
#
# _framework density 22.240786
#
# number of rings (size 3 to 8) (size 9 to 14) (size 15 to 20)
#    0.000    1.667    3.333    1.000   14.000    2.000 
#    0.000    0.000    0.000    0.000    0.000    0.000 
#    0.000    0.000    0.000    0.000    0.000    0.000 
#
# Total GULP energy -297350.371647 kJ/mol
# GULP energy per Si atom -12389.598819 kJ/mol
# Density = 2.219017 g / cm^3
# Si number density = 22.240786 Si / 1000 Ang^3
#
#
#
# Elastic Constant Matrix: (Units=GPa)
#
#
# Indices 1 2 3 4 5 6 
#
# 1 59.4905 26.9582 26.4671 0.0000 0.0000 0.0000
# 2 26.9582 79.1326 28.7336 0.0000 0.0000 0.0000
# 3 26.4671 28.7336 91.3005 0.0000 0.0000 0.0000
# 4 0.0000 0.0000 0.0000 39.6841 0.0000 0.0000
# 5 0.0000 0.0000 0.0000 0.0000 35.7215 0.0000
# 6 0.0000 0.0000 0.0000 0.0000 0.0000 29.9451
#
#
#
# Elastic Compliance Matrix: (Units=1/GPa)
#
#
# Indices 1 2 3 4 5 6 
#
# 1 0.021337 -0.005671 -0.004401 0.000000 0.000000 0.000000
# 2 -0.005671 0.015775 -0.003321 0.000000 0.000000 0.000000
# 3 -0.004401 -0.003321 0.013274 0.000000 0.000000 0.000000
# 4 0.000000 0.000000 0.000000 0.025199 0.000000 0.000000
# 5 0.000000 0.000000 0.000000 0.000000 0.027994 0.000000
# 6 0.000000 0.000000 0.000000 0.000000 0.000000 0.033394
#
#
# Mechanical properties :
#
#
# Convention : Reuss Voigt Hill
#
# Bulk Modulus (GPa) = 42.37129 43.80460 43.08794
# Shear Modulus (GPa) = 29.13336 30.92110 30.02723
#
# Velocity S-wave (km/s) = 3.62319 3.73270 3.67835
# Velocity P-wave (km/s) = 6.04945 6.18998 6.12012
#
# Compressibility (1/GPa) = 0.02360089
#
# Stress axis : x y z
#
# Youngs Moduli (GPa) = 46.86680 63.39276 75.33769
#
# Poissons Ratio (x) = 0.35950 0.33154
# Poissons Ratio (y) = 0.26578 0.25016
# Poissons Ratio (z) = 0.20624 0.21050
#
# Static dielectric constant tensor:
#      x y z
#    x 3.802760 0.000000 0.000000 
#    y 0.000000 3.953290 0.000000 
#    z 0.000000 0.000000 4.194670 
# 
# 
# High freq. dielectric constant tensor:
#      x y z
#    x 1.850850 0.000000 0.000000 
#    y 0.000000 1.868390 0.000000 
#    z 0.000000 0.000000 1.888130 
# 
# From -- ./inp_files/24804.got.cif
#   From: 2010.03.12/outbox.cif.g09.slc.cpg/sg20_13_cif.got.tgz:24804.got - 2010.04.14 01:38:04.
