data_PCOD8159131
_publ_section_title
;
Structure prediction by ZEFSAII (Michael W. Deem and Ramdas Pophale) SiO2 
 PCOD8159131
Probable space group: C 2 2 21
;
_chemical_formula_sum "Si O2"
_cell_formula_units_Z 60
_cell_length_a 11.278996
_cell_length_b 18.375495
_cell_length_c 14.349625
_cell_angle_alpha 90.000000
_cell_angle_beta 90.000000
_cell_angle_gamma 90.000000
_cell_volume 2974.062160
_symmetry_space_group_name_H-M "C 2 2 21"
_symmetry_group_IT_number 20
_symmetry_cell_setting 'orthorhombic'
loop_
_space_group_symop_operation_xyz
x,y,z
-x,-y,1/2+z
x,-y,-z
-x,y,1/2-z
1/2+x,1/2+y,z
1/2-x,1/2-y,1/2+z
1/2+x,1/2-y,-z
1/2-x,1/2+y,1/2-z
loop_
_atom_site_type_symbol
_atom_site_label
_atom_site_fract_x
_atom_site_fract_y
_atom_site_fract_z
Si Si1 0.517503 0.858044 0.470483
Si Si2 0.634685 0.500000 0.500000
Si Si3 0.887520 0.422888 0.310141
Si Si4 0.829080 0.574151 0.401296
Si Si5 0.180698 0.715674 0.208066
Si Si6 0.259831 0.862011 0.143319
Si Si7 0.435098 0.254244 0.117708
Si Si8 0.499418 0.408899 0.359286
O O1 0.425636 0.858666 0.383300
O O2 0.455637 0.906703 0.550845
O O3 0.642620 0.888881 0.432051
O O4 0.549815 0.779410 0.514147
O O5 0.718691 0.568718 0.472492
O O6 0.550046 0.478188 0.414055
O O7 0.840538 0.494246 0.360216
O O8 0.781811 0.395653 0.245341
O O9 0.000000 0.446472 0.250000
O O10 0.791834 0.633596 0.323964
O O11 0.269686 0.774254 0.160418
O O12 0.174555 0.719423 0.321923
O O13 0.053808 0.740815 0.173861
O O14 0.133956 0.890396 0.106609
O O15 0.416139 0.340894 0.113239
O O16 0.500000 0.425960 0.250000
#
# Coordination Sequence:
#
# PCOD8159131 Si02
#       8
#     8   4   8   8   8   8   8   8
#     4  10  21  36  61  97 123 150 213 267 314 366
#     4  12  26  40  66  92 124 178 210 260 320 392
#     4  10  21  38  63  88 129 167 197 259 336 380
#     4  11  22  38  60  97 125 160 213 265 317 383
#     4   9  19  36  61  90 117 164 212 251 313 368
#     4  10  21  42  63  90 123 170 206 262 318 383
#     4   9  18  37  64  88 120 163 208 261 301 380
#     4  11  22  44  65  87 124 170 219 247 318 390
#
# _framework density 20.174426
#
# number of rings (size 3 to 8) (size 9 to 14) (size 15 to 20)
#    0.000    1.867    4.000    0.800    5.600    0.000 
#    9.600    1.333    0.000    0.000    0.000    0.000 
#    0.000    0.000    0.000    0.000    0.000    0.000 
#
# Total GULP energy -371688.186531 kJ/mol
# GULP energy per Si atom -12389.606218 kJ/mol
# Density = 2.012851 g / cm^3
# Si number density = 20.174426 Si / 1000 Ang^3
#
#
#
# Elastic Constant Matrix: (Units=GPa)
#
#
# Indices 1 2 3 4 5 6 
#
# 1 77.6946 36.4229 43.4338 0.0000 0.0000 0.0000
# 2 36.4229 88.5763 55.0891 0.0000 0.0000 0.0000
# 3 43.4338 55.0891 103.8070 0.0000 0.0000 0.0000
# 4 0.0000 0.0000 0.0000 31.1479 0.0000 0.0000
# 5 0.0000 0.0000 0.0000 0.0000 28.4932 0.0000
# 6 0.0000 0.0000 0.0000 0.0000 0.0000 20.8984
#
#
#
# Elastic Compliance Matrix: (Units=1/GPa)
#
#
# Indices 1 2 3 4 5 6 
#
# 1 0.017697 -0.003988 -0.005288 0.000000 0.000000 0.000000
# 2 -0.003988 0.017750 -0.007751 0.000000 0.000000 0.000000
# 3 -0.005288 -0.007751 0.015959 0.000000 0.000000 0.000000
# 4 0.000000 0.000000 0.000000 0.032105 0.000000 0.000000
# 5 0.000000 0.000000 0.000000 0.000000 0.035096 0.000000
# 6 0.000000 0.000000 0.000000 0.000000 0.000000 0.047851
#
#
# Mechanical properties :
#
#
# Convention : Reuss Voigt Hill
#
# Bulk Modulus (GPa) = 57.63141 59.99661 58.81401
# Shear Modulus (GPa) = 24.23693 25.11671 24.67682
#
# Velocity S-wave (km/s) = 3.46984 3.53225 3.50118
# Velocity P-wave (km/s) = 6.68443 6.81463 6.74985
#
# Compressibility (1/GPa) = 0.01735165
#
# Stress axis : x y z
#
# Youngs Moduli (GPa) = 56.50771 56.33662 62.65926
#
# Poissons Ratio (x) = 0.22468 0.33134
# Poissons Ratio (y) = 0.22536 0.48569
# Poissons Ratio (z) = 0.29881 0.43668
#
# Static dielectric constant tensor:
#      x y z
#    x 3.688390 0.000000 0.000000 
#    y 0.000000 3.593930 0.000000 
#    z 0.000000 0.000000 4.054500 
# 
# 
# High freq. dielectric constant tensor:
#      x y z
#    x 1.777290 0.000000 0.000000 
#    y 0.000000 1.766370 0.000000 
#    z 0.000000 0.000000 1.790530 
# 
# From -- ./inp_files/20235.got.cif
#   From: 2010.03.12/outbox.cif.g09.slc.cpg/sg20_11_cif.got.tgz:20235.got - 2010.04.14 01:38:04.
