data_PCOD8159371
_publ_section_title
;
Structure prediction by ZEFSAII (Michael W. Deem and Ramdas Pophale) SiO2 
 PCOD8159371
Probable space group: C 2 2 21
;
_chemical_formula_sum "Si O2"
_cell_formula_units_Z 40
_cell_length_a 5.008612
_cell_length_b 13.203971
_cell_length_c 29.596374
_cell_angle_alpha 90.000000
_cell_angle_beta 90.000000
_cell_angle_gamma 90.000000
_cell_volume 1957.313801
_symmetry_space_group_name_H-M "C 2 2 21"
_symmetry_group_IT_number 20
_symmetry_cell_setting 'orthorhombic'
loop_
_space_group_symop_operation_xyz
x,y,z
-x,-y,1/2+z
x,-y,-z
-x,y,1/2-z
1/2+x,1/2+y,z
1/2-x,1/2-y,1/2+z
1/2+x,1/2-y,-z
1/2-x,1/2+y,1/2-z
loop_
_atom_site_type_symbol
_atom_site_label
_atom_site_fract_x
_atom_site_fract_y
_atom_site_fract_z
Si Si1 0.607302 0.684006 0.799370
Si Si2 0.609401 0.883560 0.988868
Si Si3 0.109326 0.205280 0.055491
Si Si4 0.742872 0.458966 0.780941
Si Si5 0.874994 0.777747 0.659993
O O1 0.500000 0.716993 0.750000
O O2 0.707747 0.569754 0.801665
O O3 0.355760 0.693206 0.833382
O O4 0.856105 0.754212 0.812395
O O5 0.399476 0.842528 0.952161
O O6 0.900678 0.871340 0.967407
O O7 0.582773 0.817649 0.034522
O O8 0.554203 0.000000 0.000000
O O9 0.047149 0.214523 0.108030
O O10 0.500000 0.426443 0.750000
O O11 0.758145 0.382068 0.822770
O O12 0.000000 0.454635 0.750000
#
# Coordination Sequence:
#
# PCOD8159371 Si02
#       5
#     8   8   8   8   8
#     4  11  23  39  58  83 116 157 196 234 290 347
#     4  10  21  41  63  83 120 158 186 238 301 355
#     4  10  23  38  59  93 115 147 202 237 288 365
#     4  11  23  38  57  82 113 153 197 235 283 345
#     4  12  23  38  61  87 119 151 194 252 292 336
#
# _framework density 20.436171999999999
#
# number of rings (size 3 to 8) (size 9 to 14) (size 15 to 20)
#    0.000    1.200    0.000    7.800    0.000    3.200 
#    0.000    0.000    0.000    0.000    0.000    0.000 
#    0.000    0.000    0.000    0.000    0.000    0.000 
#
# Total GULP energy -248098.661676 kJ/mol
# GULP energy per Si atom -12404.933084 kJ/mol
# Density = 2.038966 g / cm^3
# Si number density = 20.436172 Si / 1000 Ang^3
#
#
#
# Elastic Constant Matrix: (Units=GPa)
#
#
# Indices 1 2 3 4 5 6 
#
# 1 124.2240 35.5637 36.6060 0.0000 0.0000 0.0000
# 2 35.5637 122.2899 66.8945 0.0000 0.0000 0.0000
# 3 36.6060 66.8945 121.6733 0.0000 0.0000 0.0000
# 4 0.0000 0.0000 0.0000 16.7696 0.0000 0.0000
# 5 0.0000 0.0000 0.0000 0.0000 26.3646 0.0000
# 6 0.0000 0.0000 0.0000 0.0000 0.0000 28.8135
#
#
#
# Elastic Compliance Matrix: (Units=1/GPa)
#
#
# Indices 1 2 3 4 5 6 
#
# 1 0.009056 -0.001635 -0.001826 0.000000 0.000000 0.000000
# 2 -0.001635 0.011989 -0.006100 0.000000 0.000000 0.000000
# 3 -0.001826 -0.006100 0.012122 0.000000 0.000000 0.000000
# 4 0.000000 0.000000 0.000000 0.059632 0.000000 0.000000
# 5 0.000000 0.000000 0.000000 0.000000 0.037930 0.000000
# 6 0.000000 0.000000 0.000000 0.000000 0.000000 0.034706
#
#
# Mechanical properties :
#
#
# Convention : Reuss Voigt Hill
#
# Bulk Modulus (GPa) = 71.19336 71.81282 71.50309
# Shear Modulus (GPa) = 26.42186 29.66439 28.04313
#
# Velocity S-wave (km/s) = 3.59959 3.81407 3.70838
# Velocity P-wave (km/s) = 7.22417 7.39003 7.30757
#
# Compressibility (1/GPa) = 0.01404625
#
# Stress axis : x y z
#
# Youngs Moduli (GPa) = 110.42372 83.40685 82.49758
#
# Poissons Ratio (x) = 0.13637 0.15061
# Poissons Ratio (y) = 0.18054 0.50322
# Poissons Ratio (z) = 0.20160 0.50876
#
# Static dielectric constant tensor:
#      x y z
#    x 3.869720 0.000000 0.000000 
#    y 0.000000 3.691360 0.000000 
#    z 0.000000 0.000000 3.507610 
# 
# 
# High freq. dielectric constant tensor:
#      x y z
#    x 1.823120 0.000000 0.000000 
#    y 0.000000 1.803030 0.000000 
#    z 0.000000 0.000000 1.784630 
# 
# From -- ./inp_files/29693.got.cif
#   From: 2010.03.12/outbox.cif.g09.slc.cpg/sg20_15_cif.got.tgz:29693.got - 2010.04.14 01:38:04.
