data_PCOD8159133
_publ_section_title
;
Structure prediction by ZEFSAII (Michael W. Deem and Ramdas Pophale) SiO2 
 PCOD8159133
Probable space group: C 2 2 21
;
_chemical_formula_sum "Si O2"
_cell_formula_units_Z 52
_cell_length_a 26.926832
_cell_length_b 11.022656
_cell_length_c 8.585172
_cell_angle_alpha 90.000000
_cell_angle_beta 90.000000
_cell_angle_gamma 90.000000
_cell_volume 2548.123747
_symmetry_space_group_name_H-M "C 2 2 21"
_symmetry_group_IT_number 20
_symmetry_cell_setting 'orthorhombic'
loop_
_space_group_symop_operation_xyz
x,y,z
-x,-y,1/2+z
x,-y,-z
-x,y,1/2-z
1/2+x,1/2+y,z
1/2-x,1/2-y,1/2+z
1/2+x,1/2-y,-z
1/2-x,1/2+y,1/2-z
loop_
_atom_site_type_symbol
_atom_site_label
_atom_site_fract_x
_atom_site_fract_y
_atom_site_fract_z
Si Si1 0.825188 0.017909 0.177215
Si Si2 0.500000 0.304185 0.750000
Si Si3 0.519806 0.141980 0.479511
Si Si4 0.314025 0.743190 0.683198
Si Si5 0.426661 0.234708 0.307569
Si Si6 0.920827 0.991462 0.670489
Si Si7 0.244276 0.128664 0.085825
O O1 0.792297 0.115992 0.266705
O O2 0.820073 0.892653 0.264011
O O3 0.882625 0.056784 0.197804
O O4 0.808775 0.000000 0.000000
O O5 0.531184 0.216935 0.636101
O O6 0.464040 0.392799 0.653409
O O7 0.463437 0.174146 0.431296
O O8 0.562798 0.175682 0.359166
O O9 0.523318 0.000000 0.500000
O O10 0.369469 0.791154 0.640834
O O11 0.293722 0.822298 0.828437
O O12 0.277921 0.732434 0.530896
O O13 0.440686 0.375943 0.285332
O O14 0.894435 0.000000 0.500000
O O15 0.255525 0.000000 0.000000
#
# Coordination Sequence:
#
# PCOD8159133 Si02
#       7
#     8   4   8   8   8   8   8
#     4  10  21  36  62  90 123 160 200 254 319 373
#     4  12  24  34  66  92 116 162 208 254 308 372
#     4  11  24  43  60  85 125 169 212 255 307 376
#     4  10  21  39  63  88 125 167 205 258 324 372
#     4  10  22  41  63  83 126 166 200 268 316 367
#     4  11  22  37  59  93 125 151 202 257 322 368
#     4  10  21  39  62  92 128 164 205 262 311 378
#
# _framework density 20.407171999999999
#
# number of rings (size 3 to 8) (size 9 to 14) (size 15 to 20)
#    0.000    1.538    1.538    5.077    4.308    0.615 
#    0.000    3.846    0.000    0.000    0.000    0.000 
#    0.000    0.000    0.000    0.000    0.000    0.000 
#
# Total GULP energy -322239.152985 kJ/mol
# GULP energy per Si atom -12393.813576 kJ/mol
# Density = 2.036072 g / cm^3
# Si number density = 20.407172 Si / 1000 Ang^3
#
#
#
# Elastic Constant Matrix: (Units=GPa)
#
#
# Indices 1 2 3 4 5 6 
#
# 1 74.3805 35.3253 30.3121 0.0000 0.0000 0.0000
# 2 35.3253 102.2840 25.3055 0.0000 0.0000 0.0000
# 3 30.3121 25.3055 104.3685 0.0000 0.0000 0.0000
# 4 0.0000 0.0000 0.0000 33.5641 0.0000 0.0000
# 5 0.0000 0.0000 0.0000 0.0000 32.8806 0.0000
# 6 0.0000 0.0000 0.0000 0.0000 0.0000 8.8837
#
#
#
# Elastic Compliance Matrix: (Units=1/GPa)
#
#
# Indices 1 2 3 4 5 6 
#
# 1 0.017410 -0.005066 -0.003828 0.000000 0.000000 0.000000
# 2 -0.005066 0.011875 -0.001408 0.000000 0.000000 0.000000
# 3 -0.003828 -0.001408 0.011035 0.000000 0.000000 0.000000
# 4 0.000000 0.000000 0.000000 0.029794 0.000000 0.000000
# 5 0.000000 0.000000 0.000000 0.000000 0.030413 0.000000
# 6 0.000000 0.000000 0.000000 0.000000 0.000000 0.112565
#
#
# Mechanical properties :
#
#
# Convention : Reuss Voigt Hill
#
# Bulk Modulus (GPa) = 50.72100 51.43542 51.07821
# Shear Modulus (GPa) = 20.81013 27.73836 24.27425
#
# Velocity S-wave (km/s) = 3.19681 3.69079 3.45265
# Velocity P-wave (km/s) = 6.20762 6.58953 6.40143
#
# Compressibility (1/GPa) = 0.01971570
#
# Stress axis : x y z
#
# Youngs Moduli (GPa) = 57.43693 84.21369 90.62363
#
# Poissons Ratio (x) = 0.42661 0.34693
# Poissons Ratio (y) = 0.29096 0.12759
# Poissons Ratio (z) = 0.21989 0.11856
#
# Static dielectric constant tensor:
#      x y z
#    x 3.950030 0.000000 0.000000 
#    y 0.000000 3.806960 0.000000 
#    z 0.000000 0.000000 3.975550 
# 
# 
# High freq. dielectric constant tensor:
#      x y z
#    x 1.787000 0.000000 0.000000 
#    y 0.000000 1.789040 0.000000 
#    z 0.000000 0.000000 1.806740 
# 
# From -- ./inp_files/11085.got.cif
#   From: 2010.03.12/outbox.cif.g09.slc.cpg/sg20_6_cif.got.tgz:11085.got - 2010.04.14 01:38:04.
