data_PCOD8159161
_publ_section_title
;
Structure prediction by ZEFSAII (Michael W. Deem and Ramdas Pophale) SiO2 
 PCOD8159161
Probable space group: C 2 2 21
;
_chemical_formula_sum "Si O2"
_cell_formula_units_Z 64
_cell_length_a 11.500100
_cell_length_b 32.340102
_cell_length_c 7.555407
_cell_angle_alpha 90.000000
_cell_angle_beta 90.000000
_cell_angle_gamma 90.000000
_cell_volume 2809.964714
_symmetry_space_group_name_H-M "C 2 2 21"
_symmetry_group_IT_number 20
_symmetry_cell_setting 'orthorhombic'
loop_
_space_group_symop_operation_xyz
x,y,z
-x,-y,1/2+z
x,-y,-z
-x,y,1/2-z
1/2+x,1/2+y,z
1/2-x,1/2-y,1/2+z
1/2+x,1/2-y,-z
1/2-x,1/2+y,1/2-z
loop_
_atom_site_type_symbol
_atom_site_label
_atom_site_fract_x
_atom_site_fract_y
_atom_site_fract_z
Si Si1 0.123894 0.268173 0.723501
Si Si2 0.493373 0.916822 0.961199
Si Si3 0.372731 0.834931 0.071442
Si Si4 0.237064 0.544527 0.448442
Si Si5 0.859331 0.124310 0.452641
Si Si6 0.622025 0.624771 0.466429
Si Si7 0.265087 0.047819 0.462408
Si Si8 0.716538 0.803518 0.086407
O O1 0.095988 0.299831 0.567086
O O2 0.222682 0.236421 0.669647
O O3 0.000000 0.244995 0.750000
O O4 0.160626 0.292787 0.899287
O O5 0.500000 0.911558 0.750000
O O6 0.392105 0.948154 0.026152
O O7 0.612640 0.935363 0.043065
O O8 0.463185 0.872346 0.044499
O O9 0.382419 0.817948 0.273400
O O10 0.236269 0.845760 0.037438
O O11 0.285833 0.500000 0.500000
O O12 0.329381 0.577840 0.517354
O O13 0.223015 0.551574 0.243755
O O14 0.856603 0.129623 0.241808
O O15 0.988848 0.132818 0.522060
O O16 0.662961 0.578622 0.528850
O O17 0.694261 0.658998 0.568253
O O18 0.237050 0.000000 0.500000
#
# Coordination Sequence:
#
# PCOD8159161 Si02
#       8
#     8   8   8   8   8   8   8   8
#     4  12  28  49  74 103 148 182 232 303 357 429
#     4   9  19  37  64  91 130 183 229 286 356 413
#     4  11  23  44  72 101 139 182 238 287 358 423
#     4   9  18  34  58  88 125 173 231 282 347 413
#     4   9  20  40  67  91 130 188 227 291 350 418
#     4  10  22  40  65  96 136 185 237 283 359 423
#     4  10  21  37  60  92 140 182 229 297 347 418
#     4  12  27  48  70 109 139 182 238 289 357 435
#
# _framework density 22.776085999999999
#
# number of rings (size 3 to 8) (size 9 to 14) (size 15 to 20)
#    0.000    1.750    2.500    1.500    3.500    3.000 
#    0.000    1.250    0.000    0.000    0.000    0.000 
#    0.000    0.000    0.000    0.000    0.000    0.000 
#
# Total GULP energy -396678.551120 kJ/mol
# GULP energy per Si atom -12396.204723 kJ/mol
# Density = 2.272425 g / cm^3
# Si number density = 22.776086 Si / 1000 Ang^3
#
#
#
# Elastic Constant Matrix: (Units=GPa)
#
#
# Indices 1 2 3 4 5 6 
#
# 1 68.3603 5.8514 7.1103 0.0000 0.0000 0.0000
# 2 5.8514 104.0066 15.9055 0.0000 0.0000 0.0000
# 3 7.1103 15.9055 71.0835 0.0000 0.0000 0.0000
# 4 0.0000 0.0000 0.0000 36.4516 0.0000 0.0000
# 5 0.0000 0.0000 0.0000 0.0000 8.2255 0.0000
# 6 0.0000 0.0000 0.0000 0.0000 0.0000 -104.1897
#
#
#
# Elastic Compliance Matrix: (Units=1/GPa)
#
#
# Indices 1 2 3 4 5 6 
#
# 1 0.014822 -0.000629 -0.001342 0.000000 0.000000 0.000000
# 2 -0.000629 0.009982 -0.002171 0.000000 0.000000 0.000000
# 3 -0.001342 -0.002171 0.014688 0.000000 0.000000 0.000000
# 4 0.000000 0.000000 0.000000 0.027434 0.000000 0.000000
# 5 0.000000 0.000000 0.000000 0.000000 0.121574 0.000000
# 6 0.000000 0.000000 0.000000 0.000000 0.000000 -0.009598
#
#
# Mechanical properties :
#
#
# Convention : Reuss Voigt Hill
#
# Bulk Modulus (GPa) = 32.04180 33.46497 32.75339
# Shear Modulus (GPa) = 25.30535 2.40303 13.85419
#
# Velocity S-wave (km/s) = 3.33686 1.02828 2.46900
# Velocity P-wave (km/s) = 5.38004 4.01681 4.74761
#
# Compressibility (1/GPa) = 0.03120923
#
# Stress axis : x y z
#
# Youngs Moduli (GPa) = 67.46835 100.17928 68.08322
#
# Poissons Ratio (x) = 0.06298 0.09136
# Poissons Ratio (y) = 0.04241 0.14779
# Poissons Ratio (z) = 0.09054 0.21746
#
# Static dielectric constant tensor:
#      x y z
#    x 4.276480 0.000000 0.000000 
#    y 0.000000 3.479700 0.000000 
#    z 0.000000 0.000000 4.008100 
# 
# 
# High freq. dielectric constant tensor:
#      x y z
#    x 1.902530 0.000000 0.000000 
#    y 0.000000 1.898310 0.000000 
#    z 0.000000 0.000000 1.897220 
# 
# From -- ./inp_files/7694.got.cif
#   From: 2010.03.12/outbox.cif.g09.slc.cpg/sg20_4_cif.got.tgz:7694.got - 2010.04.14 01:38:04.
