data_PCOD8159942
_publ_section_title
;
Structure prediction by ZEFSAII (Michael W. Deem and Ramdas Pophale) SiO2 
 PCOD8159942
Probable space group: C 2 2 21
;
_chemical_formula_sum "Si O2"
_cell_formula_units_Z 40
_cell_length_a 17.811273
_cell_length_b 13.432404
_cell_length_c 7.888607
_cell_angle_alpha 90.000000
_cell_angle_beta 90.000000
_cell_angle_gamma 90.000000
_cell_volume 1887.335141
_symmetry_space_group_name_H-M "C 2 2 21"
_symmetry_group_IT_number 20
_symmetry_cell_setting 'orthorhombic'
loop_
_space_group_symop_operation_xyz
x,y,z
-x,-y,1/2+z
x,-y,-z
-x,y,1/2-z
1/2+x,1/2+y,z
1/2-x,1/2-y,1/2+z
1/2+x,1/2-y,-z
1/2-x,1/2+y,1/2-z
loop_
_atom_site_type_symbol
_atom_site_label
_atom_site_fract_x
_atom_site_fract_y
_atom_site_fract_z
Si Si1 0.282786 0.392824 0.691972
Si Si2 0.782955 0.127046 0.688894
Si Si3 0.933078 0.756405 0.370523
Si Si4 0.815360 0.618330 0.500847
Si Si5 0.440540 0.588418 0.380931
O O1 0.285932 0.510328 0.726891
O O2 0.253280 0.359537 0.505037
O O3 0.233216 0.341877 0.838630
O O4 0.369529 0.359772 0.710236
O O5 0.864964 0.178504 0.714234
O O6 0.722226 0.165877 0.829105
O O7 0.898324 0.661998 0.470141
O O8 0.977797 0.826565 0.503213
O O9 0.000000 0.718051 0.250000
O O10 0.822265 0.500000 0.500000
O O11 0.409408 0.500000 0.500000
O O12 0.500000 0.544213 0.250000
#
# Coordination Sequence:
#
# PCOD8159942 Si02
#       5
#     8   8   8   8   8
#     4   9  18  38  61  92 117 158 201 252 308 373
#     4   9  19  37  61  92 122 149 207 257 310 373
#     4  11  24  41  59  94 131 163 209 261 312 378
#     4  10  23  41  68  86 120 171 217 258 311 360
#     4  11  22  37  59  92 133 166 198 248 329 391
#
# _framework density 21.193902999999999
#
# number of rings (size 3 to 8) (size 9 to 14) (size 15 to 20)
#    0.000    2.000    4.000    0.600    8.400    0.800 
#    3.600    1.000    4.400    0.000    0.000    0.000 
#    0.000    0.000    0.000    0.000    0.000    0.000 
#
# Total GULP energy -247785.902859 kJ/mol
# GULP energy per Si atom -12389.295143 kJ/mol
# Density = 2.114566 g / cm^3
# Si number density = 21.193903 Si / 1000 Ang^3
#
#
#
# Elastic Constant Matrix: (Units=GPa)
#
#
# Indices 1 2 3 4 5 6 
#
# 1 97.7011 35.1593 64.7160 0.0000 0.0000 0.0000
# 2 35.1593 31.9061 39.2422 0.0000 0.0000 0.0000
# 3 64.7160 39.2422 123.0323 0.0000 0.0000 0.0000
# 4 0.0000 0.0000 0.0000 31.9284 0.0000 0.0000
# 5 0.0000 0.0000 0.0000 0.0000 44.8062 0.0000
# 6 0.0000 0.0000 0.0000 0.0000 0.0000 25.8573
#
#
#
# Elastic Compliance Matrix: (Units=1/GPa)
#
#
# Indices 1 2 3 4 5 6 
#
# 1 0.018943 -0.014183 -0.005440 0.000000 0.000000 0.000000
# 2 -0.014183 0.062194 -0.012377 0.000000 0.000000 0.000000
# 3 -0.005440 -0.012377 0.014937 0.000000 0.000000 0.000000
# 4 0.000000 0.000000 0.000000 0.031320 0.000000 0.000000
# 5 0.000000 0.000000 0.000000 0.000000 0.022318 0.000000
# 6 0.000000 0.000000 0.000000 0.000000 0.000000 0.038674
#
#
# Mechanical properties :
#
#
# Convention : Reuss Voigt Hill
#
# Bulk Modulus (GPa) = 31.17839 58.98607 45.08223
# Shear Modulus (GPa) = 19.00576 28.08651 23.54613
#
# Velocity S-wave (km/s) = 2.99784 3.64430 3.33676
# Velocity P-wave (km/s) = 5.16969 6.75277 6.01355
#
# Compressibility (1/GPa) = 0.03207350
#
# Stress axis : x y z
#
# Youngs Moduli (GPa) = 52.79008 16.07875 66.94672
#
# Poissons Ratio (x) = 0.22805 0.36421
# Poissons Ratio (y) = 0.74874 0.82858
# Poissons Ratio (z) = 0.28719 0.19900
#
# Static dielectric constant tensor:
#      x y z
#    x 3.488120 0.000000 0.000000 
#    y 0.000000 3.832060 0.000000 
#    z 0.000000 0.000000 4.172570 
# 
# 
# High freq. dielectric constant tensor:
#      x y z
#    x 1.800460 0.000000 0.000000 
#    y 0.000000 1.841560 0.000000 
#    z 0.000000 0.000000 1.829570 
# 
# From -- ./inp_files/8099.got.cif
#   From: 2010.03.12/outbox.cif.g09.slc.cpg/sg20_5_cif.got.tgz:8099.got - 2010.04.14 01:38:04.
