data_PCOD8159061
_publ_section_title
;
Structure prediction by ZEFSAII (Michael W. Deem and Ramdas Pophale) SiO2 
 PCOD8159061
Probable space group: C 2 2 21
;
_chemical_formula_sum "Si O2"
_cell_formula_units_Z 48
_cell_length_a 9.418464
_cell_length_b 28.554300
_cell_length_c 8.185344
_cell_angle_alpha 90.000000
_cell_angle_beta 90.000000
_cell_angle_gamma 90.000000
_cell_volume 2201.347152
_symmetry_space_group_name_H-M "C 2 2 21"
_symmetry_group_IT_number 20
_symmetry_cell_setting 'orthorhombic'
loop_
_space_group_symop_operation_xyz
x,y,z
-x,-y,1/2+z
x,-y,-z
-x,y,1/2-z
1/2+x,1/2+y,z
1/2-x,1/2-y,1/2+z
1/2+x,1/2-y,-z
1/2-x,1/2+y,1/2-z
loop_
_atom_site_type_symbol
_atom_site_label
_atom_site_fract_x
_atom_site_fract_y
_atom_site_fract_z
Si Si1 0.500000 0.564875 0.750000
Si Si2 0.877822 0.393506 0.478085
Si Si3 0.222552 0.479705 0.180572
Si Si4 0.431285 0.378740 0.923787
Si Si5 0.426655 0.284424 0.089306
Si Si6 0.000000 0.551498 0.250000
Si Si7 0.906588 0.712356 0.598505
O O1 0.630136 0.529244 0.769971
O O2 0.504706 0.595350 0.583376
O O3 0.855675 0.428911 0.326674
O O4 0.734820 0.390591 0.586736
O O5 0.924624 0.343249 0.414255
O O6 0.998105 0.415399 0.592603
O O7 0.134280 0.517746 0.281196
O O8 0.247005 0.500000 0.000000
O O9 0.500000 0.393692 0.750000
O O10 0.447865 0.322837 0.947444
O O11 0.500000 0.306067 0.250000
O O12 0.258993 0.273147 0.115922
O O13 0.517689 0.237522 0.054133
O O14 0.000000 0.730077 0.750000
#
# Coordination Sequence:
#
# PCOD8159061 Si02
#       7
#     4   8   8   8   8   4   8
#     4  10  20  44  71  98 132 184 221 288 336 410
#     4   9  22  42  63  94 134 173 225 278 335 413
#     4   9  20  42  66  90 138 168 226 285 337 407
#     4  10  21  43  69 101 140 176 228 278 335 409
#     4  11  23  43  68 101 140 181 225 280 344 408
#     4  10  20  44  61  90 130 178 213 292 338 404
#     4  11  24  43  68  97 138 181 228 284 339 412
#
# _framework density 21.804831
#
# number of rings (size 3 to 8) (size 9 to 14) (size 15 to 20)
#    0.000    2.000    0.833    1.500    2.333    1.333 
#   25.500    0.000    0.000    0.000    0.000    0.000 
#    0.000    0.000    0.000    0.000    0.000    0.000 
#
# Total GULP energy -297490.318862 kJ/mol
# GULP energy per Si atom -12395.429953 kJ/mol
# Density = 2.175520 g / cm^3
# Si number density = 21.804831 Si / 1000 Ang^3
#
#
#
# Elastic Constant Matrix: (Units=GPa)
#
#
# Indices 1 2 3 4 5 6 
#
# 1 141.7339 47.4856 54.0387 0.0000 0.0000 0.0000
# 2 47.4856 105.1571 24.7005 0.0000 0.0000 0.0000
# 3 54.0387 24.7005 99.7987 0.0000 0.0000 0.0000
# 4 0.0000 0.0000 0.0000 20.2724 0.0000 0.0000
# 5 0.0000 0.0000 0.0000 0.0000 39.3714 0.0000
# 6 0.0000 0.0000 0.0000 0.0000 0.0000 17.2612
#
#
#
# Elastic Compliance Matrix: (Units=1/GPa)
#
#
# Indices 1 2 3 4 5 6 
#
# 1 0.009928 -0.003419 -0.004530 0.000000 0.000000 0.000000
# 2 -0.003419 0.011274 -0.000939 0.000000 0.000000 0.000000
# 3 -0.004530 -0.000939 0.012705 0.000000 0.000000 0.000000
# 4 0.000000 0.000000 0.000000 0.049328 0.000000 0.000000
# 5 0.000000 0.000000 0.000000 0.000000 0.025399 0.000000
# 6 0.000000 0.000000 0.000000 0.000000 0.000000 0.057934
#
#
# Mechanical properties :
#
#
# Convention : Reuss Voigt Hill
#
# Bulk Modulus (GPa) = 61.98878 66.57103 64.27990
# Shear Modulus (GPa) = 26.35450 30.07865 28.21658
#
# Velocity S-wave (km/s) = 3.48034 3.71812 3.60120
# Velocity P-wave (km/s) = 6.68139 7.00209 6.84362
#
# Compressibility (1/GPa) = 0.01613195
#
# Stress axis : x y z
#
# Youngs Moduli (GPa) = 100.72536 88.69850 78.70795
#
# Poissons Ratio (x) = 0.30328 0.35651
# Poissons Ratio (y) = 0.34440 0.07390
# Poissons Ratio (z) = 0.45624 0.08328
#
# Static dielectric constant tensor:
#      x y z
#    x 3.967080 0.000000 0.000000 
#    y 0.000000 4.081610 0.000000 
#    z 0.000000 0.000000 3.745690 
# 
# 
# High freq. dielectric constant tensor:
#      x y z
#    x 1.857600 0.000000 0.000000 
#    y 0.000000 1.872710 0.000000 
#    z 0.000000 0.000000 1.839490 
# 
# From -- ./inp_files/6574.got.cif
#   From: 2010.03.12/outbox.cif.g09.slc.cpg/sg20_4_cif.got.tgz:6574.got - 2010.04.14 01:38:04.
