data_PCOD8159704
_publ_section_title
;
Structure prediction by ZEFSAII (Michael W. Deem and Ramdas Pophale) SiO2 
 PCOD8159704
Probable space group: C 2 2 21
;
_chemical_formula_sum "Si O2"
_cell_formula_units_Z 48
_cell_length_a 29.019718
_cell_length_b 8.124251
_cell_length_c 9.837667
_cell_angle_alpha 90.000000
_cell_angle_beta 90.000000
_cell_angle_gamma 90.000000
_cell_volume 2319.362538
_symmetry_space_group_name_H-M "C 2 2 21"
_symmetry_group_IT_number 20
_symmetry_cell_setting 'orthorhombic'
loop_
_space_group_symop_operation_xyz
x,y,z
-x,-y,1/2+z
x,-y,-z
-x,y,1/2-z
1/2+x,1/2+y,z
1/2-x,1/2-y,1/2+z
1/2+x,1/2-y,-z
1/2-x,1/2+y,1/2-z
loop_
_atom_site_type_symbol
_atom_site_label
_atom_site_fract_x
_atom_site_fract_y
_atom_site_fract_z
Si Si1 0.500000 0.385984 0.250000
Si Si2 0.289495 0.785836 0.136526
Si Si3 0.550498 0.500000 0.000000
Si Si4 0.141674 0.500000 0.500000
Si Si5 0.286075 0.184481 0.550483
Si Si6 0.612518 0.184836 0.035613
Si Si7 0.904218 0.762530 0.168020
Si Si8 0.151879 0.000000 0.500000
O O1 0.480864 0.503608 0.366864
O O2 0.459121 0.273164 0.190042
O O3 0.324666 0.938403 0.120596
O O4 0.272880 0.780697 0.292518
O O5 0.243799 0.807542 0.043520
O O6 0.315564 0.626606 0.078488
O O7 0.578520 0.669978 0.011144
O O8 0.106488 0.362560 0.548319
O O9 0.339865 0.222862 0.538750
O O10 0.275495 0.000000 0.500000
O O11 0.620316 0.197278 0.196413
O O12 0.594055 0.000000 0.000000
O O13 0.881044 0.932395 0.120171
#
# Coordination Sequence:
#
# PCOD8159704 Si02
#       8
#     4   8   4   4   8   8   8   4
#     4  10  22  44  68 100 128 166 222 276 334 402
#     4  11  25  39  68  94 136 178 222 277 323 391
#     4  10  23  45  70 100 132 178 216 279 345 404
#     4  10  22  41  64  98 130 178 216 265 346 392
#     4  11  25  41  62  98 137 174 229 272 323 393
#     4  10  23  43  67  95 137 177 226 274 334 399
#     4  10  22  44  68  94 135 167 220 277 335 415
#     4  10  23  42  68  98 132 176 220 268 343 394
#
# _framework density 20.695342
#
# number of rings (size 3 to 8) (size 9 to 14) (size 15 to 20)
#    0.000    1.667    0.833    2.500   11.667    0.667 
#    9.000    0.833    0.000    0.000    0.000    0.000 
#    0.000    0.000    0.000    0.000    0.000    0.000 
#
# Total GULP energy -297518.988182 kJ/mol
# GULP energy per Si atom -12396.624508 kJ/mol
# Density = 2.064824 g / cm^3
# Si number density = 20.695342 Si / 1000 Ang^3
#
#
#
# Elastic Constant Matrix: (Units=GPa)
#
#
# Indices 1 2 3 4 5 6 
#
# 1 110.5618 45.1931 58.0216 0.0000 0.0000 0.0000
# 2 45.1931 97.5929 40.0173 0.0000 0.0000 0.0000
# 3 58.0216 40.0173 155.2651 0.0000 0.0000 0.0000
# 4 0.0000 0.0000 0.0000 33.6398 0.0000 0.0000
# 5 0.0000 0.0000 0.0000 0.0000 43.6573 0.0000
# 6 0.0000 0.0000 0.0000 0.0000 0.0000 17.4491
#
#
#
# Elastic Compliance Matrix: (Units=1/GPa)
#
#
# Indices 1 2 3 4 5 6 
#
# 1 0.012755 -0.004419 -0.003627 0.000000 0.000000 0.000000
# 2 -0.004419 0.012989 -0.001696 0.000000 0.000000 0.000000
# 3 -0.003627 -0.001696 0.008233 0.000000 0.000000 0.000000
# 4 0.000000 0.000000 0.000000 0.029727 0.000000 0.000000
# 5 0.000000 0.000000 0.000000 0.000000 0.022906 0.000000
# 6 0.000000 0.000000 0.000000 0.000000 0.000000 0.057309
#
#
# Mechanical properties :
#
#
# Convention : Reuss Voigt Hill
#
# Bulk Modulus (GPa) = 69.00746 72.20932 70.60839
# Shear Modulus (GPa) = 29.72050 33.62842 31.67446
#
# Velocity S-wave (km/s) = 3.79370 4.03541 3.91642
# Velocity P-wave (km/s) = 7.25302 7.52862 7.39210
#
# Compressibility (1/GPa) = 0.01449119
#
# Stress axis : x y z
#
# Youngs Moduli (GPa) = 78.40285 76.99099 121.45768
#
# Poissons Ratio (x) = 0.34022 0.44058
# Poissons Ratio (y) = 0.34646 0.20602
# Poissons Ratio (z) = 0.28440 0.13060
#
# Static dielectric constant tensor:
#      x y z
#    x 3.841020 0.000000 0.000000 
#    y 0.000000 3.778990 0.000000 
#    z 0.000000 0.000000 3.890650 
# 
# 
# High freq. dielectric constant tensor:
#      x y z
#    x 1.814420 0.000000 0.000000 
#    y 0.000000 1.805530 0.000000 
#    z 0.000000 0.000000 1.819970 
# 
# From -- ./inp_files/11530.got.cif
#   From: 2010.03.12/outbox.cif.g09.slc.cpg/sg20_6_cif.got.tgz:11530.got - 2010.04.14 01:38:04.
