data_PCOD8159225
_publ_section_title
;
Structure prediction by ZEFSAII (Michael W. Deem and Ramdas Pophale) SiO2 
 PCOD8159225
Probable space group: C 2 2 21
;
_chemical_formula_sum "Si O2"
_cell_formula_units_Z 40
_cell_length_a 16.478477
_cell_length_b 8.838320
_cell_length_c 10.154813
_cell_angle_alpha 90.000000
_cell_angle_beta 90.000000
_cell_angle_gamma 90.000000
_cell_volume 1478.967812
_symmetry_space_group_name_H-M "C 2 2 21"
_symmetry_group_IT_number 20
_symmetry_cell_setting 'orthorhombic'
loop_
_space_group_symop_operation_xyz
x,y,z
-x,-y,1/2+z
x,-y,-z
-x,y,1/2-z
1/2+x,1/2+y,z
1/2-x,1/2-y,1/2+z
1/2+x,1/2-y,-z
1/2-x,1/2+y,1/2-z
loop_
_atom_site_type_symbol
_atom_site_label
_atom_site_fract_x
_atom_site_fract_y
_atom_site_fract_z
Si Si1 0.930622 0.850618 0.651398
Si Si2 0.122057 0.512713 0.858661
Si Si3 0.501178 0.253650 0.392751
Si Si4 0.731742 0.647215 0.245062
Si Si5 0.679452 0.180362 0.494054
O O1 0.909836 0.675498 0.684853
O O2 0.952968 0.862774 0.495349
O O3 0.848774 0.942055 0.691875
O O4 0.000000 0.905598 0.750000
O O5 0.043676 0.403885 0.863944
O O6 0.191565 0.464645 0.757336
O O7 0.164482 0.500000 0.000000
O O8 0.500000 0.338874 0.250000
O O9 0.587445 0.225495 0.459881
O O10 0.710479 0.744699 0.372066
O O11 0.761955 0.750268 0.120799
O O12 0.688820 0.000000 0.500000
#
# Coordination Sequence:
#
# PCOD8159225 Si02
#       5
#     8   8   8   8   8
#     4  11  22  40  67  99 136 172 225 288 350 404
#     4  10  21  38  65  99 134 173 222 285 338 412
#     4  11  21  38  66  98 135 172 216 283 354 400
#     4  12  25  39  66 107 139 181 228 285 354 415
#     4  12  25  43  67 105 145 185 230 296 350 413
#
# _framework density 27.045893
#
# number of rings (size 3 to 8) (size 9 to 14) (size 15 to 20)
#    0.000    0.800    4.000    6.000    0.000    0.000 
#    0.000    0.000    0.000    1.200   26.000    0.000 
#    0.000    0.000    0.000    0.000    0.000    0.000 
#
# Total GULP energy -247813.059657 kJ/mol
# GULP energy per Si atom -12390.652983 kJ/mol
# Density = 2.698433 g / cm^3
# Si number density = 27.045893 Si / 1000 Ang^3
#
#
#
# Elastic Constant Matrix: (Units=GPa)
#
#
# Indices 1 2 3 4 5 6 
#
# 1 170.7326 10.3046 62.8078 0.0000 0.0000 0.0000
# 2 10.3046 60.7186 2.6183 0.0000 0.0000 0.0000
# 3 62.8078 2.6183 228.2707 0.0000 0.0000 0.0000
# 4 0.0000 0.0000 0.0000 -65.8776 0.0000 0.0000
# 5 0.0000 0.0000 0.0000 0.0000 71.3909 0.0000
# 6 0.0000 0.0000 0.0000 0.0000 0.0000 17.6410
#
#
#
# Elastic Compliance Matrix: (Units=1/GPa)
#
#
# Indices 1 2 3 4 5 6 
#
# 1 0.006582 -0.001039 -0.001799 0.000000 0.000000 0.000000
# 2 -0.001039 0.016642 0.000095 0.000000 0.000000 0.000000
# 3 -0.001799 0.000095 0.004875 0.000000 0.000000 0.000000
# 4 0.000000 0.000000 0.000000 -0.015180 0.000000 0.000000
# 5 0.000000 0.000000 0.000000 0.000000 0.014007 0.000000
# 6 0.000000 0.000000 0.000000 0.000000 0.000000 0.056686
#
#
# Mechanical properties :
#
#
# Convention : Reuss Voigt Hill
#
# Bulk Modulus (GPa) = 44.22540 67.90925 56.06732
# Shear Modulus (GPa) = 51.74076 30.23027 40.98552
#
# Velocity S-wave (km/s) = 4.37861 3.34689 3.89705
# Velocity P-wave (km/s) = 6.47692 6.33237 6.40505
#
# Compressibility (1/GPa) = 0.02261144
#
# Stress axis : x y z
#
# Youngs Moduli (GPa) = 151.93769 60.09000 205.14251
#
# Poissons Ratio (x) = 0.06246 0.36905
# Poissons Ratio (y) = 0.15792 -0.01951
# Poissons Ratio (z) = 0.27333 -0.00571
#
# Static dielectric constant tensor:
#      x y z
#    x 5.411380 0.000000 0.000000 
#    y 0.000000 4.474610 0.000000 
#    z 0.000000 0.000000 6.397980 
# 
# 
# High freq. dielectric constant tensor:
#      x y z
#    x 2.107760 0.000000 0.000000 
#    y 0.000000 2.062040 0.000000 
#    z 0.000000 0.000000 2.126570 
# 
# From -- ./inp_files/15549.got.cif
#   From: 2010.03.12/outbox.cif.g09.slc.cpg/sg20_8_cif.got.tgz:15549.got - 2010.04.14 01:38:04.
