data_PCOD8159972
_publ_section_title
;
Structure prediction by ZEFSAII (Michael W. Deem and Ramdas Pophale) SiO2 
 PCOD8159972
Probable space group: C 2 2 21
;
_chemical_formula_sum "Si O2"
_cell_formula_units_Z 44
_cell_length_a 8.658756
_cell_length_b 10.792087
_cell_length_c 21.863696
_cell_angle_alpha 90.000000
_cell_angle_beta 90.000000
_cell_angle_gamma 90.000000
_cell_volume 2043.075987
_symmetry_space_group_name_H-M "C 2 2 21"
_symmetry_group_IT_number 20
_symmetry_cell_setting 'orthorhombic'
loop_
_space_group_symop_operation_xyz
x,y,z
-x,-y,1/2+z
x,-y,-z
-x,y,1/2-z
1/2+x,1/2+y,z
1/2-x,1/2-y,1/2+z
1/2+x,1/2-y,-z
1/2-x,1/2+y,1/2-z
loop_
_atom_site_type_symbol
_atom_site_label
_atom_site_fract_x
_atom_site_fract_y
_atom_site_fract_z
Si Si1 0.169712 0.993600 0.232119
Si Si2 0.886794 0.326234 0.926050
Si Si3 0.792808 0.068425 0.594829
Si Si4 0.766977 0.698470 0.466043
Si Si5 0.456999 0.500000 0.000000
Si Si6 0.846672 0.745368 0.211983
O O1 0.153552 0.946081 0.163294
O O2 0.240105 0.878318 0.273189
O O3 0.000000 0.035886 0.250000
O O4 0.267910 0.119993 0.237086
O O5 0.829647 0.466345 0.923962
O O6 0.886773 0.263656 0.859403
O O7 0.054427 0.336434 0.956863
O O8 0.761840 0.250926 0.965680
O O9 0.713290 0.201996 0.585219
O O10 0.939591 0.075815 0.548283
O O11 0.652614 0.583491 0.457257
O O12 0.000000 0.762925 0.250000
#
# Coordination Sequence:
#
# PCOD8159972 Si02
#       6
#     8   8   8   8   4   8
#     4  10  23  42  70  92 130 175 217 271 330 390
#     4  11  23  43  66  92 138 171 217 273 326 395
#     4  11  23  45  62  93 136 170 215 274 324 393
#     4  12  23  40  63  96 128 175 214 265 333 388
#     4  12  26  36  66  96 128 172 220 264 332 396
#     4  10  23  44  65  99 131 172 220 274 329 393
#
# _framework density 21.536154
#
# number of rings (size 3 to 8) (size 9 to 14) (size 15 to 20)
#    0.000    1.091    3.636    2.182    2.545    3.636 
#    0.000    3.636    0.000    0.000    0.000    0.000 
#    0.000    0.000    0.000    0.000    0.000    0.000 
#
# Total GULP energy -272672.454621 kJ/mol
# GULP energy per Si atom -12394.202483 kJ/mol
# Density = 2.148714 g / cm^3
# Si number density = 21.536154 Si / 1000 Ang^3
#
#
#
# Elastic Constant Matrix: (Units=GPa)
#
#
# Indices 1 2 3 4 5 6 
#
# 1 78.1220 22.0335 36.9612 0.0000 0.0000 0.0000
# 2 22.0335 82.9765 2.4558 0.0000 0.0000 0.0000
# 3 36.9612 2.4558 85.8525 0.0000 0.0000 0.0000
# 4 0.0000 0.0000 0.0000 37.3712 0.0000 0.0000
# 5 0.0000 0.0000 0.0000 0.0000 34.1429 0.0000
# 6 0.0000 0.0000 0.0000 0.0000 0.0000 16.9249
#
#
#
# Elastic Compliance Matrix: (Units=1/GPa)
#
#
# Indices 1 2 3 4 5 6 
#
# 1 0.017574 -0.004446 -0.007439 0.000000 0.000000 0.000000
# 2 -0.004446 0.013187 0.001537 0.000000 0.000000 0.000000
# 3 -0.007439 0.001537 0.014806 0.000000 0.000000 0.000000
# 4 0.000000 0.000000 0.000000 0.026759 0.000000 0.000000
# 5 0.000000 0.000000 0.000000 0.000000 0.029289 0.000000
# 6 0.000000 0.000000 0.000000 0.000000 0.000000 0.059084
#
#
# Mechanical properties :
#
#
# Convention : Reuss Voigt Hill
#
# Bulk Modulus (GPa) = 40.20744 41.09467 40.65105
# Shear Modulus (GPa) = 26.35941 30.05449 28.20695
#
# Velocity S-wave (km/s) = 3.50231 3.73974 3.62297
# Velocity P-wave (km/s) = 5.92159 6.14579 6.03473
#
# Compressibility (1/GPa) = 0.02487102
#
# Stress axis : x y z
#
# Youngs Moduli (GPa) = 56.90227 75.83331 67.53815
#
# Poissons Ratio (x) = 0.33719 0.50240
# Poissons Ratio (y) = 0.25301 -0.10381
# Poissons Ratio (z) = 0.42328 -0.11656
#
# Static dielectric constant tensor:
#      x y z
#    x 3.889700 0.000000 0.000000 
#    y 0.000000 4.494330 0.000000 
#    z 0.000000 0.000000 4.140450 
# 
# 
# High freq. dielectric constant tensor:
#      x y z
#    x 1.831260 0.000000 0.000000 
#    y 0.000000 1.874820 0.000000 
#    z 0.000000 0.000000 1.847260 
# 
# From -- ./inp_files/28657.got.cif
#   From: 2010.03.12/outbox.cif.g09.slc.cpg/sg20_15_cif.got.tgz:28657.got - 2010.04.14 01:38:04.
