data_PCOD8159356
_publ_section_title
;
Structure prediction by ZEFSAII (Michael W. Deem and Ramdas Pophale) SiO2 
 PCOD8159356
Probable space group: C 2 2 21
;
_chemical_formula_sum "Si O2"
_cell_formula_units_Z 48
_cell_length_a 8.635167
_cell_length_b 18.184385
_cell_length_c 14.996391
_cell_angle_alpha 90.000000
_cell_angle_beta 90.000000
_cell_angle_gamma 90.000000
_cell_volume 2354.811315
_symmetry_space_group_name_H-M "C 2 2 21"
_symmetry_group_IT_number 20
_symmetry_cell_setting 'orthorhombic'
loop_
_space_group_symop_operation_xyz
x,y,z
-x,-y,1/2+z
x,-y,-z
-x,y,1/2-z
1/2+x,1/2+y,z
1/2-x,1/2-y,1/2+z
1/2+x,1/2-y,-z
1/2-x,1/2+y,1/2-z
loop_
_atom_site_type_symbol
_atom_site_label
_atom_site_fract_x
_atom_site_fract_y
_atom_site_fract_z
Si Si1 0.818547 0.698332 0.590731
Si Si2 0.683085 0.970954 0.740295
Si Si3 0.682156 0.459372 0.409272
Si Si4 0.363560 0.185926 0.182589
Si Si5 0.321361 0.555751 0.578680
Si Si6 0.640693 0.805539 0.485534
O O1 0.784563 0.613031 0.602909
O O2 0.758243 0.745975 0.676042
O O3 0.736089 0.729678 0.500779
O O4 0.002814 0.708431 0.583585
O O5 0.500000 0.980105 0.750000
O O6 0.724828 0.887131 0.715128
O O7 0.774631 0.984934 0.831102
O O8 0.739420 0.028822 0.667718
O O9 0.726939 0.500000 0.500000
O O10 0.503543 0.437252 0.405298
O O11 0.500000 0.208678 0.250000
O O12 0.427616 0.168573 0.082306
O O13 0.280742 0.500000 0.500000
O O14 0.259861 0.635821 0.554149
#
# Coordination Sequence:
#
# PCOD8159356 Si02
#       6
#     8   8   8   8   8   8
#     4  10  22  40  63 100 127 177 226 274 339 399
#     4  11  23  41  67  98 131 177 225 281 343 399
#     4  11  26  40  66  98 139 180 227 277 339 411
#     4   9  22  40  68  96 134 176 224 275 343 409
#     4  11  21  42  64  95 135 176 224 282 333 406
#     4  10  21  40  69  93 134 179 220 281 339 408
#
# _framework density 20.383797999999999
#
# number of rings (size 3 to 8) (size 9 to 14) (size 15 to 20)
#    1.000    0.667    1.667    2.500    4.667    2.667 
#    0.000    0.000    0.000    0.000    0.000    0.000 
#    0.000    0.000    0.000    0.000    0.000    0.000 
#
# Total GULP energy -297562.296780 kJ/mol
# GULP energy per Si atom -12398.429032 kJ/mol
# Density = 2.033740 g / cm^3
# Si number density = 20.383798 Si / 1000 Ang^3
#
#
#
# Elastic Constant Matrix: (Units=GPa)
#
#
# Indices 1 2 3 4 5 6 
#
# 1 83.7267 22.9329 31.9099 0.0000 0.0000 0.0000
# 2 22.9329 101.9103 27.4782 0.0000 0.0000 0.0000
# 3 31.9099 27.4782 107.9603 0.0000 0.0000 0.0000
# 4 0.0000 0.0000 0.0000 51.1782 0.0000 0.0000
# 5 0.0000 0.0000 0.0000 0.0000 32.1308 0.0000
# 6 0.0000 0.0000 0.0000 0.0000 0.0000 39.7750
#
#
#
# Elastic Compliance Matrix: (Units=1/GPa)
#
#
# Indices 1 2 3 4 5 6 
#
# 1 0.013892 -0.002168 -0.003554 0.000000 0.000000 0.000000
# 2 -0.002168 0.010874 -0.002127 0.000000 0.000000 0.000000
# 3 -0.003554 -0.002127 0.010855 0.000000 0.000000 0.000000
# 4 0.000000 0.000000 0.000000 0.019540 0.000000 0.000000
# 5 0.000000 0.000000 0.000000 0.000000 0.031123 0.000000
# 6 0.000000 0.000000 0.000000 0.000000 0.000000 0.025141
#
#
# Mechanical properties :
#
#
# Convention : Reuss Voigt Hill
#
# Bulk Modulus (GPa) = 50.19468 50.91547 50.55508
# Shear Modulus (GPa) = 37.37956 38.70190 38.04073
#
# Velocity S-wave (km/s) = 4.28692 4.36209 4.32467
# Velocity P-wave (km/s) = 7.01298 7.09951 7.05638
#
# Compressibility (1/GPa) = 0.01992243
#
# Stress axis : x y z
#
# Youngs Moduli (GPa) = 71.98392 91.96390 92.12725
#
# Poissons Ratio (x) = 0.19936 0.32745
# Poissons Ratio (y) = 0.15604 0.19594
# Poissons Ratio (z) = 0.25585 0.19560
#
# Static dielectric constant tensor:
#      x y z
#    x 3.458960 0.000000 0.000000 
#    y 0.000000 3.676510 0.000000 
#    z 0.000000 0.000000 3.663940 
# 
# 
# High freq. dielectric constant tensor:
#      x y z
#    x 1.792580 0.000000 0.000000 
#    y 0.000000 1.802780 0.000000 
#    z 0.000000 0.000000 1.792350 
# 
# From -- ./inp_files/18898.got.cif
#   From: 2010.03.12/outbox.cif.g09.slc.cpg/sg20_10_cif.got.tgz:18898.got - 2010.04.14 01:38:04.
