data_PCOD8159527
_publ_section_title
;
Structure prediction by ZEFSAII (Michael W. Deem and Ramdas Pophale) SiO2 
 PCOD8159527
Probable space group: C 2 2 21
;
_chemical_formula_sum "Si O2"
_cell_formula_units_Z 52
_cell_length_a 5.599509
_cell_length_b 22.085394
_cell_length_c 21.173336
_cell_angle_alpha 90.000000
_cell_angle_beta 90.000000
_cell_angle_gamma 90.000000
_cell_volume 2618.450618
_symmetry_space_group_name_H-M "C 2 2 21"
_symmetry_group_IT_number 20
_symmetry_cell_setting 'orthorhombic'
loop_
_space_group_symop_operation_xyz
x,y,z
-x,-y,1/2+z
x,-y,-z
-x,y,1/2-z
1/2+x,1/2+y,z
1/2-x,1/2-y,1/2+z
1/2+x,1/2-y,-z
1/2-x,1/2+y,1/2-z
loop_
_atom_site_type_symbol
_atom_site_label
_atom_site_fract_x
_atom_site_fract_y
_atom_site_fract_z
Si Si1 0.677183 0.188573 0.580624
Si Si2 0.751930 0.866756 0.287408
Si Si3 0.749845 0.994415 0.714435
Si Si4 0.626414 0.105695 0.997265
Si Si5 0.440445 0.500000 0.000000
Si Si6 0.248911 0.425041 0.589668
Si Si7 0.490284 0.690902 0.460578
O O1 0.766261 0.176954 0.651528
O O2 0.546858 0.127039 0.558460
O O3 0.502735 0.246942 0.579049
O O4 0.887295 0.202186 0.530838
O O5 0.500000 0.853771 0.250000
O O6 0.756613 0.936453 0.310012
O O7 0.000000 0.852581 0.250000
O O8 0.500000 0.984926 0.750000
O O9 0.000000 0.980831 0.750000
O O10 0.730004 0.942872 0.661755
O O11 0.503175 0.069778 0.054725
O O12 0.747641 0.164292 0.028244
O O13 0.801809 0.056069 0.967522
O O14 0.583136 0.474684 0.941377
O O15 0.336128 0.355905 0.580813
#
# Coordination Sequence:
#
# PCOD8159527 Si02
#       7
#     8   8   8   8   4   8   8
#     4  11  22  40  68  89 136 166 218 273 329 385
#     4  10  25  43  65  97 127 175 224 267 323 394
#     4  10  24  43  67  93 130 177 216 268 332 395
#     4  10  22  36  61  97 126 162 205 269 335 389
#     4  10  22  34  60  98 128 154 206 272 336 388
#     4  10  23  39  60  95 128 161 219 264 324 402
#     4  10  22  39  63  98 120 172 211 268 340 386
#
# _framework density 19.859072000000001
#
# number of rings (size 3 to 8) (size 9 to 14) (size 15 to 20)
#    0.000    1.846    1.538    0.462   15.077    1.231 
#    0.000    0.769    0.000    0.000    0.000    0.000 
#    0.000    0.000    0.000    0.000    0.000    0.000 
#
# Total GULP energy -322194.194842 kJ/mol
# GULP energy per Si atom -12392.084417 kJ/mol
# Density = 1.981387 g / cm^3
# Si number density = 19.859072 Si / 1000 Ang^3
#
#
#
# Elastic Constant Matrix: (Units=GPa)
#
#
# Indices 1 2 3 4 5 6 
#
# 1 122.0987 39.2438 49.3718 0.0000 0.0000 0.0000
# 2 39.2438 104.6116 69.9580 0.0000 0.0000 0.0000
# 3 49.3718 69.9580 124.0873 0.0000 0.0000 0.0000
# 4 0.0000 0.0000 0.0000 35.9315 0.0000 0.0000
# 5 0.0000 0.0000 0.0000 0.0000 40.8237 0.0000
# 6 0.0000 0.0000 0.0000 0.0000 0.0000 96.0639
#
#
#
# Elastic Compliance Matrix: (Units=1/GPa)
#
#
# Indices 1 2 3 4 5 6 
#
# 1 0.009954 -0.001743 -0.002978 0.000000 0.000000 0.000000
# 2 -0.001743 0.015649 -0.008129 0.000000 0.000000 0.000000
# 3 -0.002978 -0.008129 0.013827 0.000000 0.000000 0.000000
# 4 0.000000 0.000000 0.000000 0.027831 0.000000 0.000000
# 5 0.000000 0.000000 0.000000 0.000000 0.024496 0.000000
# 6 0.000000 0.000000 0.000000 0.000000 0.000000 0.010410
#
#
# Mechanical properties :
#
#
# Convention : Reuss Voigt Hill
#
# Bulk Modulus (GPa) = 72.83179 74.21610 73.52395
# Shear Modulus (GPa) = 37.75169 47.37875 42.56522
#
# Velocity S-wave (km/s) = 4.36475 4.88971 4.63467
# Velocity P-wave (km/s) = 7.88387 8.32656 8.10823
#
# Compressibility (1/GPa) = 0.01373027
#
# Stress axis : x y z
#
# Youngs Moduli (GPa) = 100.45741 63.90013 72.32204
#
# Poissons Ratio (x) = 0.11136 0.21539
# Poissons Ratio (y) = 0.17506 0.58794
# Poissons Ratio (z) = 0.29918 0.51947
#
# Static dielectric constant tensor:
#      x y z
#    x 3.987480 0.000000 0.000000 
#    y 0.000000 3.687780 0.000000 
#    z 0.000000 0.000000 3.265040 
# 
# 
# High freq. dielectric constant tensor:
#      x y z
#    x 1.792850 0.000000 0.000000 
#    y 0.000000 1.781150 0.000000 
#    z 0.000000 0.000000 1.743670 
# 
# From -- ./inp_files/26110.got.cif
#   From: 2010.03.12/outbox.cif.g09.slc.cpg/sg20_14_cif.got.tgz:26110.got - 2010.04.14 01:38:04.
