data_PCOD8159249
_publ_section_title
;
Structure prediction by ZEFSAII (Michael W. Deem and Ramdas Pophale) SiO2 
 PCOD8159249
Probable space group: C 2 2 21
;
_chemical_formula_sum "Si O2"
_cell_formula_units_Z 40
_cell_length_a 14.013446
_cell_length_b 9.603905
_cell_length_c 14.346760
_cell_angle_alpha 90.000000
_cell_angle_beta 90.000000
_cell_angle_gamma 90.000000
_cell_volume 1930.841537
_symmetry_space_group_name_H-M "C 2 2 21"
_symmetry_group_IT_number 20
_symmetry_cell_setting 'orthorhombic'
loop_
_space_group_symop_operation_xyz
x,y,z
-x,-y,1/2+z
x,-y,-z
-x,y,1/2-z
1/2+x,1/2+y,z
1/2-x,1/2-y,1/2+z
1/2+x,1/2-y,-z
1/2-x,1/2+y,1/2-z
loop_
_atom_site_type_symbol
_atom_site_label
_atom_site_fract_x
_atom_site_fract_y
_atom_site_fract_z
Si Si1 0.091747 0.992582 0.809033
Si Si2 0.568328 0.012338 0.605841
Si Si3 0.397472 0.208917 0.596378
Si Si4 0.591929 0.204120 0.116693
Si Si5 0.793255 0.504731 0.727128
O O1 0.074178 0.135123 0.863641
O O2 0.180221 0.003029 0.738646
O O3 0.000000 0.951957 0.750000
O O4 0.107826 0.872611 0.885006
O O5 0.507310 0.876537 0.634851
O O6 0.605860 0.000000 0.500000
O O7 0.502195 0.148231 0.619602
O O8 0.659288 0.027714 0.671754
O O9 0.373294 0.180271 0.488787
O O10 0.318659 0.131133 0.658389
O O11 0.673594 0.142317 0.183650
#
# Coordination Sequence:
#
# PCOD8159249 Si02
#       5
#     8   8   8   8   8
#     4  12  24  38  55  85 122 156 189 236 291 339
#     4   9  19  37  63  87 111 148 196 241 284 338
#     4  10  21  39  61  87 116 149 190 239 289 343
#     4  10  21  39  61  87 116 149 190 239 289 343
#     4  11  21  39  63  84 112 156 197 235 279 343
#
# _framework density 20.716355
#
# number of rings (size 3 to 8) (size 9 to 14) (size 15 to 20)
#    0.000    1.600    0.000    8.400    0.000    1.600 
#    0.000    8.000    0.000    0.000    0.000    0.000 
#    0.000    0.000    0.000    0.000    0.000    0.000 
#
# Total GULP energy -248119.507529 kJ/mol
# GULP energy per Si atom -12405.975376 kJ/mol
# Density = 2.066920 g / cm^3
# Si number density = 20.716355 Si / 1000 Ang^3
#
#
#
# Elastic Constant Matrix: (Units=GPa)
#
#
# Indices 1 2 3 4 5 6 
#
# 1 101.9096 -6.1525 38.4065 0.0000 0.0000 0.0000
# 2 -6.1525 111.2531 7.1028 0.0000 0.0000 0.0000
# 3 38.4065 7.1028 98.9246 0.0000 0.0000 0.0000
# 4 0.0000 0.0000 0.0000 30.3570 0.0000 0.0000
# 5 0.0000 0.0000 0.0000 0.0000 16.9137 0.0000
# 6 0.0000 0.0000 0.0000 0.0000 0.0000 9.1223
#
#
#
# Elastic Compliance Matrix: (Units=1/GPa)
#
#
# Indices 1 2 3 4 5 6 
#
# 1 0.011590 0.000932 -0.004567 0.000000 0.000000 0.000000
# 2 0.000932 0.009105 -0.001016 0.000000 0.000000 0.000000
# 3 -0.004567 -0.001016 0.011955 0.000000 0.000000 0.000000
# 4 0.000000 0.000000 0.000000 0.032941 0.000000 0.000000
# 5 0.000000 0.000000 0.000000 0.000000 0.059124 0.000000
# 6 0.000000 0.000000 0.000000 0.000000 0.000000 0.109622
#
#
# Mechanical properties :
#
#
# Convention : Reuss Voigt Hill
#
# Bulk Modulus (GPa) = 42.82719 43.42232 43.12476
# Shear Modulus (GPa) = 19.88709 29.46062 24.67386
#
# Velocity S-wave (km/s) = 3.10170 3.77516 3.45488
# Velocity P-wave (km/s) = 5.79184 6.32521 6.06439
#
# Compressibility (1/GPa) = 0.02334965
#
# Stress axis : x y z
#
# Youngs Moduli (GPa) = 86.28171 109.83061 83.64984
#
# Poissons Ratio (x) = -0.10242 0.38200
# Poissons Ratio (y) = -0.08046 0.08497
# Poissons Ratio (z) = 0.39402 0.11156
#
# Static dielectric constant tensor:
#      x y z
#    x 3.477630 0.000000 0.000000 
#    y 0.000000 3.901150 0.000000 
#    z 0.000000 0.000000 3.819840 
# 
# 
# High freq. dielectric constant tensor:
#      x y z
#    x 1.788630 0.000000 0.000000 
#    y 0.000000 1.821500 0.000000 
#    z 0.000000 0.000000 1.822320 
# 
# From -- ./inp_files/18524.got.cif
#   From: 2010.03.12/outbox.cif.g09.slc.cpg/sg20_10_cif.got.tgz:18524.got - 2010.04.14 01:38:04.
