data_PCOD8159056
_publ_section_title
;
Structure prediction by ZEFSAII (Michael W. Deem and Ramdas Pophale) SiO2 
 PCOD8159056
Probable space group: C 2 2 21
;
_chemical_formula_sum "Si O2"
_cell_formula_units_Z 48
_cell_length_a 31.007625
_cell_length_b 7.436899
_cell_length_c 8.876354
_cell_angle_alpha 90.000000
_cell_angle_beta 90.000000
_cell_angle_gamma 90.000000
_cell_volume 2046.892339
_symmetry_space_group_name_H-M "C 2 2 21"
_symmetry_group_IT_number 20
_symmetry_cell_setting 'orthorhombic'
loop_
_space_group_symop_operation_xyz
x,y,z
-x,-y,1/2+z
x,-y,-z
-x,y,1/2-z
1/2+x,1/2+y,z
1/2-x,1/2-y,1/2+z
1/2+x,1/2-y,-z
1/2-x,1/2+y,1/2-z
loop_
_atom_site_type_symbol
_atom_site_label
_atom_site_fract_x
_atom_site_fract_y
_atom_site_fract_z
Si Si1 0.714760 0.524545 0.327241
Si Si2 0.927319 0.805507 0.358914
Si Si3 0.604341 0.013578 0.678004
Si Si4 0.171094 0.831043 0.088212
Si Si5 0.954157 0.804049 0.686569
Si Si6 0.807790 0.397552 0.321587
O O1 0.703991 0.500000 0.500000
O O2 0.691141 0.350754 0.254051
O O3 0.765675 0.516982 0.292391
O O4 0.694689 0.712167 0.271406
O O5 0.927356 0.644460 0.237697
O O6 0.879811 0.850350 0.414766
O O7 0.953563 0.752060 0.509569
O O8 0.947852 0.983063 0.284672
O O9 0.610273 0.000000 0.500000
O O10 0.583780 0.203770 0.722742
O O11 0.650701 0.990270 0.761378
O O12 0.186847 0.649992 0.001823
O O13 0.191545 0.000000 0.000000
O O14 0.000000 0.741633 0.750000
#
# Coordination Sequence:
#
# PCOD8159056 Si02
#       6
#     8   8   8   8   8   8
#     4  11  25  39  67 103 141 193 259 318 365 432
#     4  11  24  49  80 104 152 201 241 308 387 459
#     4  12  29  45  73 113 154 201 255 312 377 459
#     4  10  20  43  70  96 144 193 247 297 382 443
#     4  11  25  49  81 116 143 189 252 308 391 470
#     4  11  25  44  64 103 147 202 253 312 376 437
#
# _framework density 23.450184
#
# number of rings (size 3 to 8) (size 9 to 14) (size 15 to 20)
#    0.000    1.000    3.333    2.500    7.000    7.333 
#    0.000    0.000    0.000    0.000    0.000    0.000 
#    0.000    0.000    0.000    0.000    0.000    0.000 
#
# Total GULP energy -297713.286633 kJ/mol
# GULP energy per Si atom -12404.720276 kJ/mol
# Density = 2.339681 g / cm^3
# Si number density = 23.450184 Si / 1000 Ang^3
#
#
#
# Elastic Constant Matrix: (Units=GPa)
#
#
# Indices 1 2 3 4 5 6 
#
# 1 103.4096 12.6528 34.6707 0.0000 0.0000 0.0000
# 2 12.6528 94.8995 46.6083 0.0000 0.0000 0.0000
# 3 34.6707 46.6083 157.4145 0.0000 0.0000 0.0000
# 4 0.0000 0.0000 0.0000 31.4946 0.0000 0.0000
# 5 0.0000 0.0000 0.0000 0.0000 43.9587 0.0000
# 6 0.0000 0.0000 0.0000 0.0000 0.0000 37.2051
#
#
#
# Elastic Compliance Matrix: (Units=1/GPa)
#
#
# Indices 1 2 3 4 5 6 
#
# 1 0.010449 -0.000308 -0.002210 0.000000 0.000000 0.000000
# 2 -0.000308 0.012340 -0.003586 0.000000 0.000000 0.000000
# 3 -0.002210 -0.003586 0.007901 0.000000 0.000000 0.000000
# 4 0.000000 0.000000 0.000000 0.031752 0.000000 0.000000
# 5 0.000000 0.000000 0.000000 0.000000 0.022749 0.000000
# 6 0.000000 0.000000 0.000000 0.000000 0.000000 0.026878
#
#
# Mechanical properties :
#
#
# Convention : Reuss Voigt Hill
#
# Bulk Modulus (GPa) = 54.10586 60.39857 57.25221
# Shear Modulus (GPa) = 38.33290 39.98445 39.15868
#
# Velocity S-wave (km/s) = 4.04747 4.13374 4.09083
# Velocity P-wave (km/s) = 6.70563 6.97107 6.83964
#
# Compressibility (1/GPa) = 0.01848229
#
# Stress axis : x y z
#
# Youngs Moduli (GPa) = 95.70307 81.03991 126.56307
#
# Poissons Ratio (x) = 0.02493 0.27975
# Poissons Ratio (y) = 0.02944 0.45383
# Poissons Ratio (z) = 0.21154 0.29060
#
# Static dielectric constant tensor:
#      x y z
#    x 4.024630 0.000000 0.000000 
#    y 0.000000 4.430230 0.000000 
#    z 0.000000 0.000000 4.281330 
# 
# 
# High freq. dielectric constant tensor:
#      x y z
#    x 1.918850 0.000000 0.000000 
#    y 0.000000 1.954950 0.000000 
#    z 0.000000 0.000000 1.931160 
# 
# From -- ./inp_files/11447.got.cif
#   From: 2010.03.12/outbox.cif.g09.slc.cpg/sg20_6_cif.got.tgz:11447.got - 2010.04.14 01:38:04.
