data_PCOD8159700
_publ_section_title
;
Structure prediction by ZEFSAII (Michael W. Deem and Ramdas Pophale) SiO2 
 PCOD8159700
Probable space group: C 2 2 21
;
_chemical_formula_sum "Si O2"
_cell_formula_units_Z 24
_cell_length_a 8.654108
_cell_length_b 26.129212
_cell_length_c 4.880982
_cell_angle_alpha 90.000000
_cell_angle_beta 90.000000
_cell_angle_gamma 90.000000
_cell_volume 1103.712165
_symmetry_space_group_name_H-M "C 2 2 21"
_symmetry_group_IT_number 20
_symmetry_cell_setting 'orthorhombic'
loop_
_space_group_symop_operation_xyz
x,y,z
-x,-y,1/2+z
x,-y,-z
-x,y,1/2-z
1/2+x,1/2+y,z
1/2-x,1/2-y,1/2+z
1/2+x,1/2-y,-z
1/2-x,1/2+y,1/2-z
loop_
_atom_site_type_symbol
_atom_site_label
_atom_site_fract_x
_atom_site_fract_y
_atom_site_fract_z
Si Si1 0.333728 0.963375 0.255634
Si Si2 0.601892 0.618361 0.506378
Si Si3 0.823661 0.224785 0.168157
O O1 0.500000 0.933506 0.250000
O O2 0.196968 0.925431 0.338055
O O3 0.367775 0.000000 0.500000
O O4 0.286907 0.000000 0.000000
O O5 0.500000 0.642784 0.750000
O O6 0.707697 0.664714 0.395785
O O7 0.500000 0.596387 0.250000
O O8 0.708512 0.239445 0.409913
O O9 0.000000 0.233689 0.250000
#
# Coordination Sequence:
#
# PCOD8159700 Si02
#       3
#     8   8   8
#     4  10  22  41  64  92 126 163 209 263 316 376
#     4  11  23  41  64  94 129 166 214 266 318 379
#     4  11  23  42  65  94 130 169 214 265 319 379
#
# _framework density 21.744799
#
# number of rings (size 3 to 8) (size 9 to 14) (size 15 to 20)
#    0.000    1.333    0.000    7.000    0.000    4.000 
#    0.000   13.333    0.000    0.000    0.000    0.000 
#    0.000    0.000    0.000    0.000    0.000    0.000 
#
# Total GULP energy -148676.344122 kJ/mol
# GULP energy per Si atom -12389.695343 kJ/mol
# Density = 2.169531 g / cm^3
# Si number density = 21.744799 Si / 1000 Ang^3
#
#
#
# Elastic Constant Matrix: (Units=GPa)
#
#
# Indices 1 2 3 4 5 6 
#
# 1 89.1941 78.9090 53.5731 0.0000 0.0000 0.0000
# 2 78.9090 107.5853 59.9314 0.0000 0.0000 0.0000
# 3 53.5731 59.9314 166.4791 0.0000 0.0000 0.0000
# 4 0.0000 0.0000 0.0000 33.0666 0.0000 0.0000
# 5 0.0000 0.0000 0.0000 0.0000 49.1229 0.0000
# 6 0.0000 0.0000 0.0000 0.0000 0.0000 28.0097
#
#
#
# Elastic Compliance Matrix: (Units=1/GPa)
#
#
# Indices 1 2 3 4 5 6 
#
# 1 0.032655 -0.022637 -0.002359 0.000000 0.000000 0.000000
# 2 -0.022637 0.027318 -0.002550 0.000000 0.000000 0.000000
# 3 -0.002359 -0.002550 0.007684 0.000000 0.000000 0.000000
# 4 0.000000 0.000000 0.000000 0.030242 0.000000 0.000000
# 5 0.000000 0.000000 0.000000 0.000000 0.020357 0.000000
# 6 0.000000 0.000000 0.000000 0.000000 0.000000 0.035702
#
#
# Mechanical properties :
#
#
# Convention : Reuss Voigt Hill
#
# Bulk Modulus (GPa) = 79.58343 83.12061 81.35202
# Shear Modulus (GPa) = 23.44785 33.42949 28.43867
#
# Velocity S-wave (km/s) = 3.28734 3.92517 3.62033
# Velocity P-wave (km/s) = 7.14752 7.67145 7.41411
#
# Compressibility (1/GPa) = 0.01256543
#
# Stress axis : x y z
#
# Youngs Moduli (GPa) = 30.62308 36.60527 130.14109
#
# Poissons Ratio (x) = 0.82862 0.30705
# Poissons Ratio (y) = 0.69321 0.33185
# Poissons Ratio (z) = 0.07225 0.09334
#
# Static dielectric constant tensor:
#      x y z
#    x 4.183180 0.000000 0.000000 
#    y 0.000000 3.709850 0.000000 
#    z 0.000000 0.000000 4.375110 
# 
# 
# High freq. dielectric constant tensor:
#      x y z
#    x 1.851800 0.000000 0.000000 
#    y 0.000000 1.838280 0.000000 
#    z 0.000000 0.000000 1.889390 
# 
# From -- ./inp_files/303.got.cif
#   From: 2010.03.12/outbox.cif.g09.slc.cpg/sg20_1_cif.got.tgz:303.got - 2010.04.14 01:38:04.
