data_PCOD8159639
_publ_section_title
;
Structure prediction by ZEFSAII (Michael W. Deem and Ramdas Pophale) SiO2 
 PCOD8159639
Probable space group: C 2 2 21
;
_chemical_formula_sum "Si O2"
_cell_formula_units_Z 40
_cell_length_a 27.619464
_cell_length_b 9.294036
_cell_length_c 7.277891
_cell_angle_alpha 90.000000
_cell_angle_beta 90.000000
_cell_angle_gamma 90.000000
_cell_volume 1868.207638
_symmetry_space_group_name_H-M "C 2 2 21"
_symmetry_group_IT_number 20
_symmetry_cell_setting 'orthorhombic'
loop_
_space_group_symop_operation_xyz
x,y,z
-x,-y,1/2+z
x,-y,-z
-x,y,1/2-z
1/2+x,1/2+y,z
1/2-x,1/2-y,1/2+z
1/2+x,1/2-y,-z
1/2-x,1/2+y,1/2-z
loop_
_atom_site_type_symbol
_atom_site_label
_atom_site_fract_x
_atom_site_fract_y
_atom_site_fract_z
Si Si1 0.293053 0.212296 0.125201
Si Si2 0.898227 0.358004 0.315179
Si Si3 0.054418 0.646899 0.201660
Si Si4 0.207941 0.413017 0.224856
Si Si5 0.393375 0.333445 0.036179
O O1 0.252024 0.333797 0.125929
O O2 0.285590 0.087858 0.281457
O O3 0.292857 0.133516 0.933100
O O4 0.344086 0.292542 0.142013
O O5 0.933964 0.322579 0.486132
O O6 0.912428 0.513439 0.231411
O O7 0.841897 0.367270 0.376908
O O8 0.903503 0.239229 0.159421
O O9 0.065042 0.788493 0.321152
O O10 0.000000 0.602004 0.250000
O O11 0.395520 0.500000 0.000000
#
# Coordination Sequence:
#
# PCOD8159639 Si02
#       5
#     8   8   8   8   8
#     4  10  23  39  63  95 132 187 226 277 344 406
#     4  10  24  44  71 101 136 178 230 299 339 414
#     4  11  25  45  75 102 125 182 239 289 356 417
#     4  10  22  40  62  96 138 175 231 281 339 414
#     4  11  25  46  66 100 148 177 226 290 349 420
#
# _framework density 21.410896999999999
#
# number of rings (size 3 to 8) (size 9 to 14) (size 15 to 20)
#    0.000    1.600    2.000    0.600   14.000    0.800 
#    3.600    0.000    0.000    0.000    0.000    0.000 
#    0.000    0.000    0.000    0.000    0.000    0.000 
#
# Total GULP energy -247922.473729 kJ/mol
# GULP energy per Si atom -12396.123686 kJ/mol
# Density = 2.136217 g / cm^3
# Si number density = 21.410897 Si / 1000 Ang^3
#
#
#
# Elastic Constant Matrix: (Units=GPa)
#
#
# Indices 1 2 3 4 5 6 
#
# 1 119.8075 37.8368 37.7299 0.0000 0.0000 0.0000
# 2 37.8368 153.0771 38.1262 0.0000 0.0000 0.0000
# 3 37.7299 38.1262 66.0205 0.0000 0.0000 0.0000
# 4 0.0000 0.0000 0.0000 26.8258 0.0000 0.0000
# 5 0.0000 0.0000 0.0000 0.0000 42.6421 0.0000
# 6 0.0000 0.0000 0.0000 0.0000 0.0000 30.7949
#
#
#
# Elastic Compliance Matrix: (Units=1/GPa)
#
#
# Indices 1 2 3 4 5 6 
#
# 1 0.010386 -0.001272 -0.005201 0.000000 0.000000 0.000000
# 2 -0.001272 0.007786 -0.003769 0.000000 0.000000 0.000000
# 3 -0.005201 -0.003769 0.020296 0.000000 0.000000 0.000000
# 4 0.000000 0.000000 0.000000 0.037278 0.000000 0.000000
# 5 0.000000 0.000000 0.000000 0.000000 0.023451 0.000000
# 6 0.000000 0.000000 0.000000 0.000000 0.000000 0.032473
#
#
# Mechanical properties :
#
#
# Convention : Reuss Voigt Hill
#
# Bulk Modulus (GPa) = 55.60700 62.92120 59.26410
# Shear Modulus (GPa) = 31.61574 35.06670 33.34122
#
# Velocity S-wave (km/s) = 3.84685 4.05136 3.95043
# Velocity P-wave (km/s) = 6.76452 7.16491 6.96759
#
# Compressibility (1/GPa) = 0.01798335
#
# Stress axis : x y z
#
# Youngs Moduli (GPa) = 96.28031 128.43812 49.27072
#
# Poissons Ratio (x) = 0.16335 0.25627
# Poissons Ratio (y) = 0.12245 0.18572
# Poissons Ratio (z) = 0.50077 0.48414
#
# Static dielectric constant tensor:
#      x y z
#    x 4.236810 0.000000 0.000000 
#    y 0.000000 3.809550 0.000000 
#    z 0.000000 0.000000 3.865410 
# 
# 
# High freq. dielectric constant tensor:
#      x y z
#    x 1.840800 0.000000 0.000000 
#    y 0.000000 1.833320 0.000000 
#    z 0.000000 0.000000 1.847520 
# 
# From -- ./inp_files/6261.got.cif
#   From: 2010.03.12/outbox.cif.g09.slc.cpg/sg20_4_cif.got.tgz:6261.got - 2010.04.14 01:38:04.
