data_PCOD8159906
_publ_section_title
;
Structure prediction by ZEFSAII (Michael W. Deem and Ramdas Pophale) SiO2 
 PCOD8159906
Probable space group: C 2 2 21
;
_chemical_formula_sum "Si O2"
_cell_formula_units_Z 56
_cell_length_a 13.109449
_cell_length_b 13.194285
_cell_length_c 16.152154
_cell_angle_alpha 90.000000
_cell_angle_beta 90.000000
_cell_angle_gamma 90.000000
_cell_volume 2793.834949
_symmetry_space_group_name_H-M "C 2 2 21"
_symmetry_group_IT_number 20
_symmetry_cell_setting 'orthorhombic'
loop_
_space_group_symop_operation_xyz
x,y,z
-x,-y,1/2+z
x,-y,-z
-x,y,1/2-z
1/2+x,1/2+y,z
1/2-x,1/2-y,1/2+z
1/2+x,1/2-y,-z
1/2-x,1/2+y,1/2-z
loop_
_atom_site_type_symbol
_atom_site_label
_atom_site_fract_x
_atom_site_fract_y
_atom_site_fract_z
Si Si1 0.306996 0.768385 0.116228
Si Si2 0.048825 0.269841 0.091518
Si Si3 0.778720 0.346626 0.294932
Si Si4 0.692025 0.389657 0.970820
Si Si5 0.301831 0.931091 0.667799
Si Si6 0.344650 0.839398 0.840543
Si Si7 0.020987 0.409836 0.948488
O O1 0.428271 0.769781 0.105485
O O2 0.278170 0.833071 0.196555
O O3 0.249282 0.819539 0.038963
O O4 0.274940 0.650893 0.128321
O O5 0.109596 0.313339 0.171092
O O6 0.088860 0.159279 0.065474
O O7 0.076422 0.337365 0.012721
O O8 0.746417 0.462321 0.313687
O O9 0.691984 0.277211 0.337215
O O10 0.659373 0.500000 0.000000
O O11 0.766724 0.406432 0.893521
O O12 0.353959 0.886833 0.750090
O O13 0.391123 0.961408 0.605222
O O14 0.451613 0.843555 0.887673
O O15 0.962878 0.500000 0.000000
#
# Coordination Sequence:
#
# PCOD8159906 Si02
#       7
#     8   8   8   8   8   8   8
#     4  11  23  41  64  88 127 164 205 258 310 373
#     4  11  23  40  59  92 124 157 206 255 306 377
#     4  10  23  41  63  91 124 160 207 259 312 372
#     4  11  22  40  61  89 123 165 209 254 309 373
#     4  11  23  41  63  92 122 162 208 257 311 368
#     4  10  23  39  62  91 124 160 207 256 311 375
#     4  12  22  37  64  95 123 159 204 258 311 362
#
# _framework density 20.044132999999999
#
# number of rings (size 3 to 8) (size 9 to 14) (size 15 to 20)
#    0.000    1.143    4.286    2.143    2.000    1.143 
#    2.571    0.000    0.000    3.429    0.000    0.000 
#    0.000    0.000    0.000    0.000    0.000    0.000 
#
# Total GULP energy -347128.803458 kJ/mol
# GULP energy per Si atom -12397.457266 kJ/mol
# Density = 1.999851 g / cm^3
# Si number density = 20.044133 Si / 1000 Ang^3
#
#
#
# Elastic Constant Matrix: (Units=GPa)
#
#
# Indices 1 2 3 4 5 6 
#
# 1 56.4991 23.6042 19.4738 0.0000 0.0000 0.0000
# 2 23.6042 130.2704 23.1707 0.0000 0.0000 0.0000
# 3 19.4738 23.1707 87.3595 0.0000 0.0000 0.0000
# 4 0.0000 0.0000 0.0000 29.4498 0.0000 0.0000
# 5 0.0000 0.0000 0.0000 0.0000 26.4140 0.0000
# 6 0.0000 0.0000 0.0000 0.0000 0.0000 20.4669
#
#
#
# Elastic Compliance Matrix: (Units=1/GPa)
#
#
# Indices 1 2 3 4 5 6 
#
# 1 0.020235 -0.003006 -0.003713 0.000000 0.000000 0.000000
# 2 -0.003006 0.008503 -0.001585 0.000000 0.000000 0.000000
# 3 -0.003713 -0.001585 0.012695 0.000000 0.000000 0.000000
# 4 0.000000 0.000000 0.000000 0.033956 0.000000 0.000000
# 5 0.000000 0.000000 0.000000 0.000000 0.037859 0.000000
# 6 0.000000 0.000000 0.000000 0.000000 0.000000 0.048859
#
#
# Mechanical properties :
#
#
# Convention : Reuss Voigt Hill
#
# Bulk Modulus (GPa) = 40.28352 45.18073 42.73212
# Shear Modulus (GPa) = 26.73920 29.12484 27.93202
#
# Velocity S-wave (km/s) = 3.65638 3.81601 3.73705
# Velocity P-wave (km/s) = 6.16170 6.48116 6.32345
#
# Compressibility (1/GPa) = 0.02482405
#
# Stress axis : x y z
#
# Youngs Moduli (GPa) = 49.41889 117.60612 78.77005
#
# Poissons Ratio (x) = 0.35352 0.29251
# Poissons Ratio (y) = 0.14855 0.12487
# Poissons Ratio (z) = 0.18351 0.18643
#
# Static dielectric constant tensor:
#      x y z
#    x 3.386790 0.000000 0.000000 
#    y 0.000000 3.715900 0.000000 
#    z 0.000000 0.000000 3.992530 
# 
# 
# High freq. dielectric constant tensor:
#      x y z
#    x 1.760750 0.000000 0.000000 
#    y 0.000000 1.786090 0.000000 
#    z 0.000000 0.000000 1.805870 
# 
# From -- ./inp_files/20063.got.cif
#   From: 2010.03.12/outbox.cif.g09.slc.cpg/sg20_11_cif.got.tgz:20063.got - 2010.04.14 01:38:04.
