data_PCOD8159895
_publ_section_title
;
Structure prediction by ZEFSAII (Michael W. Deem and Ramdas Pophale) SiO2 
 PCOD8159895
Probable space group: C 2 2 21
;
_chemical_formula_sum "Si O2"
_cell_formula_units_Z 32
_cell_length_a 11.004244
_cell_length_b 15.893163
_cell_length_c 7.878144
_cell_angle_alpha 90.000000
_cell_angle_beta 90.000000
_cell_angle_gamma 90.000000
_cell_volume 1377.826279
_symmetry_space_group_name_H-M "C 2 2 21"
_symmetry_group_IT_number 20
_symmetry_cell_setting 'orthorhombic'
loop_
_space_group_symop_operation_xyz
x,y,z
-x,-y,1/2+z
x,-y,-z
-x,y,1/2-z
1/2+x,1/2+y,z
1/2-x,1/2-y,1/2+z
1/2+x,1/2-y,-z
1/2-x,1/2+y,1/2-z
loop_
_atom_site_type_symbol
_atom_site_label
_atom_site_fract_x
_atom_site_fract_y
_atom_site_fract_z
Si Si1 0.422056 0.149534 0.919103
Si Si2 0.230372 0.055108 0.738336
Si Si3 0.933184 0.170271 0.931641
Si Si4 0.000000 0.935861 0.750000
Si Si5 0.076056 0.500000 0.000000
O O1 0.500000 0.169164 0.750000
O O2 0.285634 0.111480 0.891419
O O3 0.405974 0.233754 0.026554
O O4 0.495049 0.082201 0.028987
O O5 0.193594 0.120966 0.589909
O O6 0.117316 0.994816 0.780105
O O7 0.343531 0.001564 0.670005
O O8 0.000000 0.161769 0.750000
O O9 0.002346 0.122663 0.083614
#
# Coordination Sequence:
#
# PCOD8159895 Si02
#       5
#     8   8   8   4   4
#     4  10  25  48  71 108 151 199 251 310 384 453
#     4  11  24  47  78 108 150 205 252 317 383 463
#     4  12  26  47  78 113 152 199 256 321 392 455
#     4  12  24  52  76 114 154 194 266 320 384 470
#     4  10  22  48  74 108 146 202 258 302 376 470
#
# _framework density 23.224988
#
# number of rings (size 3 to 8) (size 9 to 14) (size 15 to 20)
#    0.000    1.000    5.000    0.000    0.000    9.000 
#    4.500    0.000    0.000    0.000    0.000    0.000 
#    0.000    0.000    0.000    0.000    0.000    0.000 
#
# Total GULP energy -198299.569286 kJ/mol
# GULP energy per Si atom -12393.723080 kJ/mol
# Density = 2.317213 g / cm^3
# Si number density = 23.224988 Si / 1000 Ang^3
#
#
#
# Elastic Constant Matrix: (Units=GPa)
#
#
# Indices 1 2 3 4 5 6 
#
# 1 119.8680 81.2633 52.8729 0.0000 0.0000 0.0000
# 2 81.2633 204.8276 80.4877 0.0000 0.0000 0.0000
# 3 52.8729 80.4877 132.3406 0.0000 0.0000 0.0000
# 4 0.0000 0.0000 0.0000 43.5167 0.0000 0.0000
# 5 0.0000 0.0000 0.0000 0.0000 31.8919 0.0000
# 6 0.0000 0.0000 0.0000 0.0000 0.0000 31.8172
#
#
#
# Elastic Compliance Matrix: (Units=1/GPa)
#
#
# Indices 1 2 3 4 5 6 
#
# 1 0.012009 -0.003783 -0.002497 0.000000 0.000000 0.000000
# 2 -0.003783 0.007607 -0.003115 0.000000 0.000000 0.000000
# 3 -0.002497 -0.003115 0.010448 0.000000 0.000000 0.000000
# 4 0.000000 0.000000 0.000000 0.022980 0.000000 0.000000
# 5 0.000000 0.000000 0.000000 0.000000 0.031356 0.000000
# 6 0.000000 0.000000 0.000000 0.000000 0.000000 0.031430
#
#
# Mechanical properties :
#
#
# Convention : Reuss Voigt Hill
#
# Bulk Modulus (GPa) = 88.70021 98.47596 93.58809
# Shear Modulus (GPa) = 36.13305 37.60599 36.86952
#
# Velocity S-wave (km/s) = 3.94862 4.02830 3.98866
# Velocity P-wave (km/s) = 7.68527 8.00807 7.84833
#
# Compressibility (1/GPa) = 0.01127393
#
# Stress axis : x y z
#
# Youngs Moduli (GPa) = 83.27370 131.45468 95.70863
#
# Poissons Ratio (x) = 0.49731 0.23897
# Poissons Ratio (y) = 0.31504 0.29815
# Poissons Ratio (z) = 0.20792 0.40950
#
# Static dielectric constant tensor:
#      x y z
#    x 4.388720 0.000000 0.000000 
#    y 0.000000 4.402570 0.000000 
#    z 0.000000 0.000000 3.905760 
# 
# 
# High freq. dielectric constant tensor:
#      x y z
#    x 1.924180 0.000000 0.000000 
#    y 0.000000 1.931990 0.000000 
#    z 0.000000 0.000000 1.911070 
# 
# From -- ./inp_files/6828.got.cif
#   From: 2010.03.12/outbox.cif.g09.slc.cpg/sg20_4_cif.got.tgz:6828.got - 2010.04.14 01:38:04.
