data_PCOD8159294
_publ_section_title
;
Structure prediction by ZEFSAII (Michael W. Deem and Ramdas Pophale) SiO2 
 PCOD8159294
Probable space group: C 2 2 21
;
_chemical_formula_sum "Si O2"
_cell_formula_units_Z 48
_cell_length_a 5.899877
_cell_length_b 23.678628
_cell_length_c 14.213698
_cell_angle_alpha 90.000000
_cell_angle_beta 90.000000
_cell_angle_gamma 90.000000
_cell_volume 1985.667721
_symmetry_space_group_name_H-M "C 2 2 21"
_symmetry_group_IT_number 20
_symmetry_cell_setting 'orthorhombic'
loop_
_space_group_symop_operation_xyz
x,y,z
-x,-y,1/2+z
x,-y,-z
-x,y,1/2-z
1/2+x,1/2+y,z
1/2-x,1/2-y,1/2+z
1/2+x,1/2-y,-z
1/2-x,1/2+y,1/2-z
loop_
_atom_site_type_symbol
_atom_site_label
_atom_site_fract_x
_atom_site_fract_y
_atom_site_fract_z
Si Si1 0.193293 0.317673 0.066054
Si Si2 0.642283 0.268393 0.616200
Si Si3 0.489872 0.422021 0.138525
Si Si4 0.500000 0.201012 0.250000
Si Si5 0.377708 0.625672 0.332540
Si Si6 0.628023 0.091729 0.501179
Si Si7 0.726967 0.000000 0.000000
O O1 0.357707 0.363036 0.116344
O O2 0.055494 0.277430 0.139233
O O3 0.994091 0.348180 0.007394
O O4 0.323200 0.274478 0.996412
O O5 0.577050 0.329957 0.651309
O O6 0.867748 0.256100 0.678448
O O7 0.500000 0.432001 0.250000
O O8 0.749640 0.420456 0.101199
O O9 0.370424 0.475425 0.087538
O O10 0.648120 0.158438 0.311588
O O11 0.500000 0.588010 0.250000
O O12 0.334693 0.589296 0.425955
O O13 0.440721 0.048538 0.463857
#
# Coordination Sequence:
#
# PCOD8159294 Si02
#       7
#     8   8   8   4   8   8   4
#     4  11  24  40  71  99 146 199 241 289 358 428
#     4  11  22  41  63 105 141 197 250 290 350 424
#     4  11  26  52  75 108 147 185 242 307 371 445
#     4  10  22  40  60  98 148 182 250 304 336 416
#     4  10  21  39  67  99 142 182 238 300 352 420
#     4  11  22  48  71  99 140 186 234 299 370 433
#     4  10  26  46  82 102 136 184 236 308 380 448
#
# _framework density 24.17323
#
# number of rings (size 3 to 8) (size 9 to 14) (size 15 to 20)
#    0.000    1.333    3.333    1.500    0.000    2.667 
#   12.000    8.333    0.000    0.000    0.000    0.000 
#    0.000    0.000    0.000    0.000    0.000    0.000 
#
# Total GULP energy -297392.319034 kJ/mol
# GULP energy per Si atom -12391.346626 kJ/mol
# Density = 2.411821 g / cm^3
# Si number density = 24.173230 Si / 1000 Ang^3
#
#
#
# Elastic Constant Matrix: (Units=GPa)
#
#
# Indices 1 2 3 4 5 6 
#
# 1 93.7451 22.0883 38.4547 0.0000 0.0000 0.0000
# 2 22.0883 74.9060 33.4963 0.0000 0.0000 0.0000
# 3 38.4547 33.4963 138.6258 0.0000 0.0000 0.0000
# 4 0.0000 0.0000 0.0000 22.9021 0.0000 0.0000
# 5 0.0000 0.0000 0.0000 0.0000 46.9645 0.0000
# 6 0.0000 0.0000 0.0000 0.0000 0.0000 120.1467
#
#
#
# Elastic Compliance Matrix: (Units=1/GPa)
#
#
# Indices 1 2 3 4 5 6 
#
# 1 0.012403 -0.002375 -0.002867 0.000000 0.000000 0.000000
# 2 -0.002375 0.015422 -0.003068 0.000000 0.000000 0.000000
# 3 -0.002867 -0.003068 0.008750 0.000000 0.000000 0.000000
# 4 0.000000 0.000000 0.000000 0.043664 0.000000 0.000000
# 5 0.000000 0.000000 0.000000 0.000000 0.021293 0.000000
# 6 0.000000 0.000000 0.000000 0.000000 0.000000 0.008323
#
#
# Mechanical properties :
#
#
# Convention : Reuss Voigt Hill
#
# Bulk Modulus (GPa) = 50.11023 55.03950 52.57487
# Shear Modulus (GPa) = 37.55833 52.21849 44.88841
#
# Velocity S-wave (km/s) = 3.94600 4.65281 4.31391
# Velocity P-wave (km/s) = 6.44483 7.18910 6.82711
#
# Compressibility (1/GPa) = 0.01995600
#
# Stress axis : x y z
#
# Youngs Moduli (GPa) = 80.62685 64.84123 114.28498
#
# Poissons Ratio (x) = 0.15403 0.32760
# Poissons Ratio (y) = 0.19153 0.35057
# Poissons Ratio (z) = 0.23112 0.19890
#
# Static dielectric constant tensor:
#      x y z
#    x 4.678660 0.000000 0.000000 
#    y 0.000000 4.218480 0.000000 
#    z 0.000000 0.000000 2.805480 
# 
# 
# High freq. dielectric constant tensor:
#      x y z
#    x 1.980880 0.000000 0.000000 
#    y 0.000000 1.936610 0.000000 
#    z 0.000000 0.000000 1.956130 
# 
# From -- ./inp_files/17837.got.cif
#   From: 2010.03.12/outbox.cif.g09.slc.cpg/sg20_9_cif.got.tgz:17837.got - 2010.04.14 01:38:04.
