data_PCOD8159416
_publ_section_title
;
Structure prediction by ZEFSAII (Michael W. Deem and Ramdas Pophale) SiO2 
 PCOD8159416
Probable space group: C 2 2 21
;
_chemical_formula_sum "Si O2"
_cell_formula_units_Z 52
_cell_length_a 12.339697
_cell_length_b 8.237738
_cell_length_c 23.860429
_cell_angle_alpha 90.000000
_cell_angle_beta 90.000000
_cell_angle_gamma 90.000000
_cell_volume 2425.441023
_symmetry_space_group_name_H-M "C 2 2 21"
_symmetry_group_IT_number 20
_symmetry_cell_setting 'orthorhombic'
loop_
_space_group_symop_operation_xyz
x,y,z
-x,-y,1/2+z
x,-y,-z
-x,y,1/2-z
1/2+x,1/2+y,z
1/2-x,1/2-y,1/2+z
1/2+x,1/2-y,-z
1/2-x,1/2+y,1/2-z
loop_
_atom_site_type_symbol
_atom_site_label
_atom_site_fract_x
_atom_site_fract_y
_atom_site_fract_z
Si Si1 0.566360 0.814690 0.507041
Si Si2 0.437180 0.500000 0.500000
Si Si3 0.104082 0.372680 0.628081
Si Si4 0.746103 0.666609 0.706567
Si Si5 0.984229 0.636499 0.686075
Si Si6 0.744400 0.369781 0.074682
Si Si7 0.202639 0.803409 0.677666
O O1 0.502894 0.661732 0.479634
O O2 0.573220 0.769682 0.572906
O O3 0.685174 0.817197 0.479355
O O4 0.515357 0.000000 0.500000
O O5 0.368958 0.561675 0.553142
O O6 0.149250 0.265340 0.678362
O O7 0.198778 0.494140 0.611340
O O8 0.999730 0.473916 0.648992
O O9 0.862913 0.707075 0.677974
O O10 0.748775 0.690019 0.773402
O O11 0.716393 0.482461 0.698412
O O12 0.000000 0.583250 0.750000
O O13 0.074164 0.769242 0.668225
O O14 0.731539 0.222107 0.119117
#
# Coordination Sequence:
#
# PCOD8159416 Si02
#       7
#     8   4   8   8   8   8   8
#     4  10  24  46  64  98 135 166 224 277 317 394
#     4  12  24  44  72  90 130 182 218 266 348 380
#     4  10  21  42  63  92 133 160 211 276 310 387
#     4  11  22  41  65  94 126 174 206 258 338 379
#     4   9  20  39  60  88 124 162 204 256 315 379
#     4  10  22  46  62  94 134 163 219 281 309 390
#     4  10  22  40  65  93 129 163 217 267 314 396
#
# _framework density 21.439402000000001
#
# number of rings (size 3 to 8) (size 9 to 14) (size 15 to 20)
#    0.000    1.846    2.308    2.769    4.308    3.692 
#    1.385    8.462    0.000    0.000    0.000    0.000 
#    0.000    0.000    0.000    0.000    0.000    0.000 
#
# Total GULP energy -322215.715432 kJ/mol
# GULP energy per Si atom -12392.912132 kJ/mol
# Density = 2.139061 g / cm^3
# Si number density = 21.439402 Si / 1000 Ang^3
#
#
#
# Elastic Constant Matrix: (Units=GPa)
#
#
# Indices 1 2 3 4 5 6 
#
# 1 65.0208 24.5417 11.2151 0.0000 0.0000 0.0000
# 2 24.5417 84.7988 -3.9252 0.0000 0.0000 0.0000
# 3 11.2151 -3.9252 70.1975 0.0000 0.0000 0.0000
# 4 0.0000 0.0000 0.0000 17.2089 0.0000 0.0000
# 5 0.0000 0.0000 0.0000 0.0000 27.6452 0.0000
# 6 0.0000 0.0000 0.0000 0.0000 0.0000 22.6566
#
#
#
# Elastic Compliance Matrix: (Units=1/GPa)
#
#
# Indices 1 2 3 4 5 6 
#
# 1 0.017941 -0.005339 -0.003165 0.000000 0.000000 0.000000
# 2 -0.005339 0.013412 0.001603 0.000000 0.000000 0.000000
# 3 -0.003165 0.001603 0.014841 0.000000 0.000000 0.000000
# 4 0.000000 0.000000 0.000000 0.058109 0.000000 0.000000
# 5 0.000000 0.000000 0.000000 0.000000 0.036173 0.000000
# 6 0.000000 0.000000 0.000000 0.000000 0.000000 0.044137
#
#
# Mechanical properties :
#
#
# Convention : Reuss Voigt Hill
#
# Bulk Modulus (GPa) = 30.87177 31.52002 31.19589
# Shear Modulus (GPa) = 23.89930 26.04785 24.97358
#
# Velocity S-wave (km/s) = 3.34239 3.48940 3.41669
# Velocity P-wave (km/s) = 5.41537 5.56492 5.49066
#
# Compressibility (1/GPa) = 0.03239206
#
# Stress axis : x y z
#
# Youngs Moduli (GPa) = 55.73935 74.56064 67.38189
#
# Poissons Ratio (x) = 0.39806 0.21325
# Poissons Ratio (y) = 0.29758 -0.10801
# Poissons Ratio (z) = 0.17640 -0.11951
#
# Static dielectric constant tensor:
#      x y z
#    x 3.904220 0.000000 0.000000 
#    y 0.000000 3.855710 0.000000 
#    z 0.000000 0.000000 4.376540 
# 
# 
# High freq. dielectric constant tensor:
#      x y z
#    x 1.824640 0.000000 0.000000 
#    y 0.000000 1.831060 0.000000 
#    z 0.000000 0.000000 1.852860 
# 
# From -- ./inp_files/30290.got.cif
#   From: 2010.03.12/outbox.cif.g09.slc.cpg/sg20_16_cif.got.tgz:30290.got - 2010.04.14 01:38:04.
