data_PCOD8159070
_publ_section_title
;
Structure prediction by ZEFSAII (Michael W. Deem and Ramdas Pophale) SiO2 
 PCOD8159070
Probable space group: C 2 2 21
;
_chemical_formula_sum "Si O2"
_cell_formula_units_Z 60
_cell_length_a 27.910668
_cell_length_b 12.154349
_cell_length_c 9.225642
_cell_angle_alpha 90.000000
_cell_angle_beta 90.000000
_cell_angle_gamma 90.000000
_cell_volume 3129.669887
_symmetry_space_group_name_H-M "C 2 2 21"
_symmetry_group_IT_number 20
_symmetry_cell_setting 'orthorhombic'
loop_
_space_group_symop_operation_xyz
x,y,z
-x,-y,1/2+z
x,-y,-z
-x,y,1/2-z
1/2+x,1/2+y,z
1/2-x,1/2-y,1/2+z
1/2+x,1/2-y,-z
1/2-x,1/2+y,1/2-z
loop_
_atom_site_type_symbol
_atom_site_label
_atom_site_fract_x
_atom_site_fract_y
_atom_site_fract_z
Si Si1 0.826001 0.899900 0.651408
Si Si2 0.535026 0.070921 0.120454
Si Si3 0.354273 0.772948 0.825097
Si Si4 0.910414 0.000000 0.500000
Si Si5 0.949454 0.802990 0.327034
Si Si6 0.323111 0.804169 0.147003
Si Si7 0.714291 0.629299 0.851206
Si Si8 0.861750 0.497336 0.664720
O O1 0.826411 0.815916 0.782546
O O2 0.813497 0.840038 0.499538
O O3 0.878427 0.953400 0.632290
O O4 0.787871 0.998136 0.681201
O O5 0.500000 0.090342 0.250000
O O6 0.549673 0.193952 0.070577
O O7 0.580760 0.998533 0.164133
O O8 0.506992 0.000000 0.000000
O O9 0.405693 0.717196 0.787227
O O10 0.310934 0.692193 0.781408
O O11 0.344184 0.887038 0.742766
O O12 0.351637 0.797594 0.996065
O O13 0.942949 0.094841 0.566895
O O14 0.000000 0.823625 0.250000
O O15 0.268241 0.834523 0.124664
O O16 0.346149 0.894676 0.250232
O O17 0.841429 0.500000 0.500000
#
# Coordination Sequence:
#
# PCOD8159070 Si02
#       8
#     8   8   8   4   8   8   8   8
#     4  10  22  41  65  84 126 172 203 252 320 381
#     4   9  20  37  63  87 122 155 201 248 318 373
#     4  11  22  41  62  91 130 157 205 271 310 365
#     4  10  20  44  68  82 128 172 216 246 324 384
#     4  10  21  42  66  92 122 172 209 266 318 372
#     4  12  25  36  63  96 124 159 216 260 308 371
#     4  10  22  41  62  84 122 168 204 252 313 378
#     4  10  23  38  60  87 121 162 203 247 308 381
#
# _framework density 19.171351999999999
#
# number of rings (size 3 to 8) (size 9 to 14) (size 15 to 20)
#    0.000    1.867    2.667    2.000    9.333    3.733 
#    2.400    0.667    0.000    0.000    0.000    0.000 
#    0.000    0.000    0.000    0.000    0.000    0.000 
#
# Total GULP energy -371917.305604 kJ/mol
# GULP energy per Si atom -12397.243520 kJ/mol
# Density = 1.912772 g / cm^3
# Si number density = 19.171352 Si / 1000 Ang^3
#
#
#
# Elastic Constant Matrix: (Units=GPa)
#
#
# Indices 1 2 3 4 5 6 
#
# 1 82.5291 45.7777 26.0076 0.0000 0.0000 0.0000
# 2 45.7777 132.7925 75.6009 0.0000 0.0000 0.0000
# 3 26.0076 75.6009 125.2975 0.0000 0.0000 0.0000
# 4 0.0000 0.0000 0.0000 38.4077 0.0000 0.0000
# 5 0.0000 0.0000 0.0000 0.0000 18.1949 0.0000
# 6 0.0000 0.0000 0.0000 0.0000 0.0000 32.8948
#
#
#
# Elastic Compliance Matrix: (Units=1/GPa)
#
#
# Indices 1 2 3 4 5 6 
#
# 1 0.014982 -0.005170 0.000010 0.000000 0.000000 0.000000
# 2 -0.005170 0.013255 -0.006925 0.000000 0.000000 0.000000
# 3 0.000010 -0.006925 0.012157 0.000000 0.000000 0.000000
# 4 0.000000 0.000000 0.000000 0.026036 0.000000 0.000000
# 5 0.000000 0.000000 0.000000 0.000000 0.054960 0.000000
# 6 0.000000 0.000000 0.000000 0.000000 0.000000 0.030400
#
#
# Mechanical properties :
#
#
# Convention : Reuss Voigt Hill
#
# Bulk Modulus (GPa) = 61.63728 70.59905 66.11817
# Shear Modulus (GPa) = 27.56812 30.78168 29.17490
#
# Velocity S-wave (km/s) = 3.79619 4.01135 3.90525
# Velocity P-wave (km/s) = 7.17184 7.63936 7.40929
#
# Compressibility (1/GPa) = 0.01622395
#
# Stress axis : x y z
#
# Youngs Moduli (GPa) = 66.74804 75.44203 82.25665
#
# Poissons Ratio (x) = 0.39006 -0.00082
# Poissons Ratio (y) = 0.34511 0.56960
# Poissons Ratio (z) = -0.00066 0.52241
#
# Static dielectric constant tensor:
#      x y z
#    x 3.498600 0.000000 0.000000 
#    y 0.000000 3.804600 0.000000 
#    z 0.000000 0.000000 3.463480 
# 
# 
# High freq. dielectric constant tensor:
#      x y z
#    x 1.743660 0.000000 0.000000 
#    y 0.000000 1.761560 0.000000 
#    z 0.000000 0.000000 1.731850 
# 
# From -- ./inp_files/11592.got.cif
#   From: 2010.03.12/outbox.cif.g09.slc.cpg/sg20_6_cif.got.tgz:11592.got - 2010.04.14 01:38:04.
