data_PCOD8159473
_publ_section_title
;
Structure prediction by ZEFSAII (Michael W. Deem and Ramdas Pophale) SiO2 
 PCOD8159473
Probable space group: C 2 2 21
;
_chemical_formula_sum "Si O2"
_cell_formula_units_Z 40
_cell_length_a 19.630074
_cell_length_b 16.541738
_cell_length_c 4.970786
_cell_angle_alpha 90.000000
_cell_angle_beta 90.000000
_cell_angle_gamma 90.000000
_cell_volume 1614.091465
_symmetry_space_group_name_H-M "C 2 2 21"
_symmetry_group_IT_number 20
_symmetry_cell_setting 'orthorhombic'
loop_
_space_group_symop_operation_xyz
x,y,z
-x,-y,1/2+z
x,-y,-z
-x,y,1/2-z
1/2+x,1/2+y,z
1/2-x,1/2-y,1/2+z
1/2+x,1/2-y,-z
1/2-x,1/2+y,1/2-z
loop_
_atom_site_type_symbol
_atom_site_label
_atom_site_fract_x
_atom_site_fract_y
_atom_site_fract_z
Si Si1 0.288873 0.761239 0.227941
Si Si2 0.574449 0.675071 0.390870
Si Si3 0.546956 0.500000 0.500000
Si Si4 0.662284 0.087281 0.454603
Si Si5 0.926225 0.412345 0.452746
Si Si6 0.000000 0.282486 0.750000
O O1 0.260900 0.787577 0.522285
O O2 0.362184 0.716631 0.264984
O O3 0.287295 0.842764 0.045963
O O4 0.500000 0.680636 0.250000
O O5 0.592416 0.580174 0.440927
O O6 0.564231 0.725864 0.666085
O O7 0.500000 0.523607 0.750000
O O8 0.595254 0.094338 0.642879
O O9 0.697782 0.000000 0.500000
O O10 0.639553 0.097046 0.145616
O O11 0.961199 0.500000 0.500000
O O12 0.978519 0.339707 0.502324
#
# Coordination Sequence:
#
# PCOD8159473 Si02
#       6
#     8   8   4   8   8   4
#     4  12  27  46  70 102 142 183 237 298 359 435
#     4  11  25  45  75 104 144 189 243 302 363 429
#     4  10  22  42  70 108 140 176 242 310 362 422
#     4  10  21  43  64  89 132 182 222 278 337 422
#     4  10  22  36  62  97 136 171 226 279 338 411
#     4  12  22  38  70  98 138 182 232 282 360 412
#
# _framework density 24.781744
#
# number of rings (size 3 to 8) (size 9 to 14) (size 15 to 20)
#    0.000    1.200    3.000    2.400    2.800    2.400 
#    3.600    0.000    0.000    0.000    0.000    0.000 
#    0.000    0.000    0.000    0.000    0.000    0.000 
#
# Total GULP energy -247812.695269 kJ/mol
# GULP energy per Si atom -12390.634763 kJ/mol
# Density = 2.472534 g / cm^3
# Si number density = 24.781744 Si / 1000 Ang^3
#
#
#
# Elastic Constant Matrix: (Units=GPa)
#
#
# Indices 1 2 3 4 5 6 
#
# 1 85.7803 19.3253 17.2676 0.0000 0.0000 0.0000
# 2 19.3253 137.0796 -20.9044 0.0000 0.0000 0.0000
# 3 17.2676 -20.9044 72.7836 0.0000 0.0000 0.0000
# 4 0.0000 0.0000 0.0000 29.7766 0.0000 0.0000
# 5 0.0000 0.0000 0.0000 0.0000 36.4734 0.0000
# 6 0.0000 0.0000 0.0000 0.0000 0.0000 35.2611
#
#
#
# Elastic Compliance Matrix: (Units=1/GPa)
#
#
# Indices 1 2 3 4 5 6 
#
# 1 0.012956 -0.002400 -0.003763 0.000000 0.000000 0.000000
# 2 -0.002400 0.008074 0.002888 0.000000 0.000000 0.000000
# 3 -0.003763 0.002888 0.015462 0.000000 0.000000 0.000000
# 4 0.000000 0.000000 0.000000 0.033583 0.000000 0.000000
# 5 0.000000 0.000000 0.000000 0.000000 0.027417 0.000000
# 6 0.000000 0.000000 0.000000 0.000000 0.000000 0.028360
#
#
# Mechanical properties :
#
#
# Convention : Reuss Voigt Hill
#
# Bulk Modulus (GPa) = 33.39863 36.33560 34.86711
# Shear Modulus (GPa) = 35.11658 38.96589 37.04124
#
# Velocity S-wave (km/s) = 3.76844 3.96960 3.87033
# Velocity P-wave (km/s) = 5.69572 5.97532 5.83719
#
# Compressibility (1/GPa) = 0.02994135
#
# Stress axis : x y z
#
# Youngs Moduli (GPa) = 77.18434 123.85565 64.67573
#
# Poissons Ratio (x) = 0.29730 0.24339
# Poissons Ratio (y) = 0.18527 -0.18681
# Poissons Ratio (z) = 0.29046 -0.35775
#
# Static dielectric constant tensor:
#      x y z
#    x 3.921750 0.000000 0.000000 
#    y 0.000000 5.120010 0.000000 
#    z 0.000000 0.000000 3.332050 
# 
# 
# High freq. dielectric constant tensor:
#      x y z
#    x 1.936870 0.000000 0.000000 
#    y 0.000000 2.010980 0.000000 
#    z 0.000000 0.000000 2.002320 
# 
# From -- ./inp_files/3113.got.cif
#   From: 2010.03.12/outbox.cif.g09.slc.cpg/sg20_2_cif.got.tgz:3113.got - 2010.04.14 01:38:04.
