data_PCOD8159181
_publ_section_title
;
Structure prediction by ZEFSAII (Michael W. Deem and Ramdas Pophale) SiO2 
 PCOD8159181
Probable space group: C 2 2 21
;
_chemical_formula_sum "Si O2"
_cell_formula_units_Z 48
_cell_length_a 29.406790
_cell_length_b 9.073478
_cell_length_c 8.457946
_cell_angle_alpha 90.000000
_cell_angle_beta 90.000000
_cell_angle_gamma 90.000000
_cell_volume 2256.764901
_symmetry_space_group_name_H-M "C 2 2 21"
_symmetry_group_IT_number 20
_symmetry_cell_setting 'orthorhombic'
loop_
_space_group_symop_operation_xyz
x,y,z
-x,-y,1/2+z
x,-y,-z
-x,y,1/2-z
1/2+x,1/2+y,z
1/2-x,1/2-y,1/2+z
1/2+x,1/2-y,-z
1/2-x,1/2+y,1/2-z
loop_
_atom_site_type_symbol
_atom_site_label
_atom_site_fract_x
_atom_site_fract_y
_atom_site_fract_z
Si Si1 0.113820 0.183107 0.154047
Si Si2 0.468471 0.867790 0.388177
Si Si3 0.794281 0.175159 0.834288
Si Si4 0.110839 0.848305 0.215080
Si Si5 0.526936 0.356652 0.402674
Si Si6 0.792532 0.165680 0.201493
O O1 0.074195 0.295003 0.207966
O O2 0.165000 0.234601 0.199396
O O3 0.108726 0.025334 0.238620
O O4 0.103754 0.183540 0.967848
O O5 0.500000 0.934156 0.250000
O O6 0.496881 0.752143 0.492471
O O7 0.451207 0.000000 0.500000
O O8 0.841950 0.227939 0.762439
O O9 0.753652 0.268980 0.766260
O O10 0.787606 0.008349 0.778119
O O11 0.798107 0.203556 0.019317
O O12 0.072629 0.779461 0.331542
O O13 0.540850 0.500000 0.500000
O O14 0.500000 0.414219 0.250000
#
# Coordination Sequence:
#
# PCOD8159181 Si02
#       6
#     8   8   8   8   8   8
#     4  10  21  42  64  94 126 168 212 264 316 373
#     4  12  27  45  63  90 131 173 213 265 329 383
#     4  10  22  40  65  96 126 164 207 261 319 377
#     4  10  21  37  68  95 125 163 216 266 311 368
#     4  12  23  39  67  97 127 167 220 268 317 378
#     4  10  22  41  66  94 129 166 209 261 316 380
#
# _framework density 21.269383000000001
#
# number of rings (size 3 to 8) (size 9 to 14) (size 15 to 20)
#    0.000    1.333    1.667    4.000    7.000    2.000 
#    6.000    0.000    0.000    0.000    0.000    0.000 
#    0.000    0.000    0.000    0.000    0.000    0.000 
#
# Total GULP energy -297526.903793 kJ/mol
# GULP energy per Si atom -12396.954325 kJ/mol
# Density = 2.122097 g / cm^3
# Si number density = 21.269383 Si / 1000 Ang^3
#
#
#
# Elastic Constant Matrix: (Units=GPa)
#
#
# Indices 1 2 3 4 5 6 
#
# 1 175.3863 34.6131 41.6567 0.0000 0.0000 0.0000
# 2 34.6131 43.7651 21.0737 0.0000 0.0000 0.0000
# 3 41.6567 21.0737 70.8589 0.0000 0.0000 0.0000
# 4 0.0000 0.0000 0.0000 23.0376 0.0000 0.0000
# 5 0.0000 0.0000 0.0000 0.0000 47.8333 0.0000
# 6 0.0000 0.0000 0.0000 0.0000 0.0000 31.6641
#
#
#
# Elastic Compliance Matrix: (Units=1/GPa)
#
#
# Indices 1 2 3 4 5 6 
#
# 1 0.007261 -0.004303 -0.002989 0.000000 0.000000 0.000000
# 2 -0.004303 0.029219 -0.006160 0.000000 0.000000 0.000000
# 3 -0.002989 -0.006160 0.017702 0.000000 0.000000 0.000000
# 4 0.000000 0.000000 0.000000 0.043407 0.000000 0.000000
# 5 0.000000 0.000000 0.000000 0.000000 0.020906 0.000000
# 6 0.000000 0.000000 0.000000 0.000000 0.000000 0.031581
#
#
# Mechanical properties :
#
#
# Convention : Reuss Voigt Hill
#
# Bulk Modulus (GPa) = 36.66053 53.85524 45.25789
# Shear Modulus (GPa) = 26.87127 33.35145 30.11136
#
# Velocity S-wave (km/s) = 3.55826 3.96416 3.76668
# Velocity P-wave (km/s) = 5.84426 6.80648 6.34364
#
# Compressibility (1/GPa) = 0.02727729
#
# Stress axis : x y z
#
# Youngs Moduli (GPa) = 137.72508 34.22449 56.49234
#
# Poissons Ratio (x) = 0.14728 0.16884
# Poissons Ratio (y) = 0.59268 0.34799
# Poissons Ratio (z) = 0.41162 0.21082
#
# Static dielectric constant tensor:
#      x y z
#    x 4.171480 0.000000 0.000000 
#    y 0.000000 3.553450 0.000000 
#    z 0.000000 0.000000 4.016990 
# 
# 
# High freq. dielectric constant tensor:
#      x y z
#    x 1.854040 0.000000 0.000000 
#    y 0.000000 1.795860 0.000000 
#    z 0.000000 0.000000 1.849200 
# 
# From -- ./inp_files/11422.got.cif
#   From: 2010.03.12/outbox.cif.g09.slc.cpg/sg20_6_cif.got.tgz:11422.got - 2010.04.14 01:38:04.
