data_PCOD8159969
_publ_section_title
;
Structure prediction by ZEFSAII (Michael W. Deem and Ramdas Pophale) SiO2 
 PCOD8159969
Probable space group: C 2 2 21
;
_chemical_formula_sum "Si O2"
_cell_formula_units_Z 56
_cell_length_a 11.225240
_cell_length_b 15.994932
_cell_length_c 14.142193
_cell_angle_alpha 90.000000
_cell_angle_beta 90.000000
_cell_angle_gamma 90.000000
_cell_volume 2539.187626
_symmetry_space_group_name_H-M "C 2 2 21"
_symmetry_group_IT_number 20
_symmetry_cell_setting 'orthorhombic'
loop_
_space_group_symop_operation_xyz
x,y,z
-x,-y,1/2+z
x,-y,-z
-x,y,1/2-z
1/2+x,1/2+y,z
1/2-x,1/2-y,1/2+z
1/2+x,1/2-y,-z
1/2-x,1/2+y,1/2-z
loop_
_atom_site_type_symbol
_atom_site_label
_atom_site_fract_x
_atom_site_fract_y
_atom_site_fract_z
Si Si1 0.104529 0.928284 0.924360
Si Si2 0.256480 0.976961 0.205598
Si Si3 0.864198 0.827318 0.922479
Si Si4 0.131774 0.688590 0.728987
Si Si5 0.552279 0.096880 0.353120
Si Si6 0.812211 0.459805 0.596236
Si Si7 0.731523 0.773189 0.596482
O O1 0.189101 0.848676 0.944992
O O2 0.971430 0.893336 0.933561
O O3 0.130572 0.978369 0.823715
O O4 0.128923 0.000000 0.000000
O O5 0.275612 0.878641 0.183857
O O6 0.346791 0.027087 0.138704
O O7 0.291438 0.977852 0.316530
O O8 0.900789 0.754156 0.852574
O O9 0.758582 0.877508 0.872519
O O10 0.807218 0.795834 0.020608
O O11 0.194185 0.731155 0.818947
O O12 0.000000 0.649261 0.750000
O O13 0.500000 0.098450 0.250000
O O14 0.447647 0.069112 0.424093
O O15 0.604725 0.188652 0.371918
O O16 0.761336 0.500000 0.500000
#
# Coordination Sequence:
#
# PCOD8159969 Si02
#       7
#     8   8   8   8   8   8   8
#     4  11  24  47  68  99 144 189 235 288 364 438
#     4  10  23  42  69  97 133 183 235 284 358 435
#     4  12  26  41  70 101 141 185 235 296 355 427
#     4  12  23  43  71 107 142 184 240 302 365 421
#     4   9  20  41  65  93 135 181 234 290 356 418
#     4  11  23  40  67  97 136 182 240 293 351 425
#     4  11  25  43  67 106 139 184 239 300 359 422
#
# _framework density 22.054297999999999
#
# number of rings (size 3 to 8) (size 9 to 14) (size 15 to 20)
#    0.000    1.143    1.429    6.000    2.000    4.571 
#    2.571    0.000    0.000    0.000    0.000    0.000 
#    0.000    0.000    0.000    0.000    0.000    0.000 
#
# Total GULP energy -346957.928695 kJ/mol
# GULP energy per Si atom -12391.354596 kJ/mol
# Density = 2.200410 g / cm^3
# Si number density = 22.054298 Si / 1000 Ang^3
#
#
#
# Elastic Constant Matrix: (Units=GPa)
#
#
# Indices 1 2 3 4 5 6 
#
# 1 80.3862 47.6581 45.4474 0.0000 0.0000 0.0000
# 2 47.6581 110.9310 25.2909 0.0000 0.0000 0.0000
# 3 45.4474 25.2909 70.1513 0.0000 0.0000 0.0000
# 4 0.0000 0.0000 0.0000 42.7213 0.0000 0.0000
# 5 0.0000 0.0000 0.0000 0.0000 19.6008 0.0000
# 6 0.0000 0.0000 0.0000 0.0000 0.0000 42.8674
#
#
#
# Elastic Compliance Matrix: (Units=1/GPa)
#
#
# Indices 1 2 3 4 5 6 
#
# 1 0.024191 -0.007431 -0.012993 0.000000 0.000000 0.000000
# 2 -0.007431 0.012104 0.000450 0.000000 0.000000 0.000000
# 3 -0.012993 0.000450 0.022510 0.000000 0.000000 0.000000
# 4 0.000000 0.000000 0.000000 0.023408 0.000000 0.000000
# 5 0.000000 0.000000 0.000000 0.000000 0.051018 0.000000
# 6 0.000000 0.000000 0.000000 0.000000 0.000000 0.023328
#
#
# Mechanical properties :
#
#
# Convention : Reuss Voigt Hill
#
# Bulk Modulus (GPa) = 53.02765 55.36237 54.19501
# Shear Modulus (GPa) = 24.65559 30.57604 27.61582
#
# Velocity S-wave (km/s) = 3.34720 3.72748 3.54245
# Velocity P-wave (km/s) = 6.24777 6.60929 6.43107
#
# Compressibility (1/GPa) = 0.01885809
#
# Stress axis : x y z
#
# Youngs Moduli (GPa) = 41.33711 82.61473 44.42400
#
# Poissons Ratio (x) = 0.61389 0.57722
# Poissons Ratio (y) = 0.30717 -0.02000
# Poissons Ratio (z) = 0.53711 -0.03719
#
# Static dielectric constant tensor:
#      x y z
#    x 4.541710 0.000000 0.000000 
#    y 0.000000 4.151450 0.000000 
#    z 0.000000 0.000000 3.872100 
# 
# 
# High freq. dielectric constant tensor:
#      x y z
#    x 1.871960 0.000000 0.000000 
#    y 0.000000 1.878950 0.000000 
#    z 0.000000 0.000000 1.859230 
# 
# From -- ./inp_files/20047.got.cif
#   From: 2010.03.12/outbox.cif.g09.slc.cpg/sg20_11_cif.got.tgz:20047.got - 2010.04.14 01:38:04.
