data_PCOD8159927
_publ_section_title
;
Structure prediction by ZEFSAII (Michael W. Deem and Ramdas Pophale) SiO2 
 PCOD8159927
Probable space group: C 2 2 21
;
_chemical_formula_sum "Si O2"
_cell_formula_units_Z 40
_cell_length_a 19.643160
_cell_length_b 17.684463
_cell_length_c 5.079227
_cell_angle_alpha 90.000000
_cell_angle_beta 90.000000
_cell_angle_gamma 90.000000
_cell_volume 1764.415456
_symmetry_space_group_name_H-M "C 2 2 21"
_symmetry_group_IT_number 20
_symmetry_cell_setting 'orthorhombic'
loop_
_space_group_symop_operation_xyz
x,y,z
-x,-y,1/2+z
x,-y,-z
-x,y,1/2-z
1/2+x,1/2+y,z
1/2-x,1/2-y,1/2+z
1/2+x,1/2-y,-z
1/2-x,1/2+y,1/2-z
loop_
_atom_site_type_symbol
_atom_site_label
_atom_site_fract_x
_atom_site_fract_y
_atom_site_fract_z
Si Si1 0.814818 0.915055 0.970448
Si Si2 0.453812 0.647360 0.004510
Si Si3 0.954580 0.412902 0.995952
Si Si4 0.860238 0.720476 0.096703
Si Si5 0.714310 0.681900 0.951667
O O1 0.800389 0.874795 0.691230
O O2 0.896141 0.916716 0.023737
O O3 0.776738 0.868860 0.193668
O O4 0.786896 0.000000 0.000000
O O5 0.500000 0.650568 0.750000
O O6 0.415238 0.727265 0.050609
O O7 0.500000 0.627374 0.250000
O O8 0.886206 0.364999 0.940538
O O9 0.000000 0.393278 0.750000
O O10 0.931374 0.500000 0.000000
O O11 0.000000 0.391440 0.250000
O O12 0.846709 0.755618 0.393611
O O13 0.785696 0.726924 0.965193
#
# Coordination Sequence:
#
# PCOD8159927 Si02
#       5
#     8   8   8   8   8
#     4  11  25  45  65  94 134 169 215 271 322 391
#     4  11  23  38  63  95 124 168 217 260 324 384
#     4  10  23  41  63  94 130 171 216 265 327 388
#     4  11  23  43  65  94 132 168 216 276 316 381
#     4  11  25  41  67  97 126 174 220 264 330 382
#
# _framework density 22.670399
#
# number of rings (size 3 to 8) (size 9 to 14) (size 15 to 20)
#    0.000    1.200    0.000    6.600    0.000   10.400 
#    0.000    2.000    0.000    0.000    0.000    0.000 
#    0.000    0.000    0.000    0.000    0.000    0.000 
#
# Total GULP energy -247815.129183 kJ/mol
# GULP energy per Si atom -12390.756459 kJ/mol
# Density = 2.261880 g / cm^3
# Si number density = 22.670399 Si / 1000 Ang^3
#
#
#
# Elastic Constant Matrix: (Units=GPa)
#
#
# Indices 1 2 3 4 5 6 
#
# 1 67.1652 31.7045 31.4840 0.0000 0.0000 0.0000
# 2 31.7045 128.1095 56.2978 0.0000 0.0000 0.0000
# 3 31.4840 56.2978 148.6878 0.0000 0.0000 0.0000
# 4 0.0000 0.0000 0.0000 34.6712 0.0000 0.0000
# 5 0.0000 0.0000 0.0000 0.0000 34.0067 0.0000
# 6 0.0000 0.0000 0.0000 0.0000 0.0000 38.3857
#
#
#
# Elastic Compliance Matrix: (Units=1/GPa)
#
#
# Indices 1 2 3 4 5 6 
#
# 1 0.017595 -0.003260 -0.002492 0.000000 0.000000 0.000000
# 2 -0.003260 0.009968 -0.003084 0.000000 0.000000 0.000000
# 3 -0.002492 -0.003084 0.008421 0.000000 0.000000 0.000000
# 4 0.000000 0.000000 0.000000 0.028842 0.000000 0.000000
# 5 0.000000 0.000000 0.000000 0.000000 0.029406 0.000000
# 6 0.000000 0.000000 0.000000 0.000000 0.000000 0.026051
#
#
# Mechanical properties :
#
#
# Convention : Reuss Voigt Hill
#
# Bulk Modulus (GPa) = 54.60394 64.77056 59.68725
# Shear Modulus (GPa) = 34.70825 36.37779 35.54302
#
# Velocity S-wave (km/s) = 3.91704 4.01014 3.96386
# Velocity P-wave (km/s) = 6.67801 7.07631 6.88005
#
# Compressibility (1/GPa) = 0.01831370
#
# Stress axis : x y z
#
# Youngs Moduli (GPa) = 56.83358 100.32394 118.75458
#
# Poissons Ratio (x) = 0.32701 0.29588
# Poissons Ratio (y) = 0.18525 0.36623
# Poissons Ratio (z) = 0.14160 0.30939
#
# Static dielectric constant tensor:
#      x y z
#    x 4.133570 0.000000 0.000000 
#    y 0.000000 4.255560 0.000000 
#    z 0.000000 0.000000 4.365870 
# 
# 
# High freq. dielectric constant tensor:
#      x y z
#    x 1.892520 0.000000 0.000000 
#    y 0.000000 1.896060 0.000000 
#    z 0.000000 0.000000 1.906510 
# 
# From -- ./inp_files/2490.got.cif
#   From: 2010.03.12/outbox.cif.g09.slc.cpg/sg20_2_cif.got.tgz:2490.got - 2010.04.14 01:38:04.
