data_PCOD8159480
_publ_section_title
;
Structure prediction by ZEFSAII (Michael W. Deem and Ramdas Pophale) SiO2 
 PCOD8159480
Probable space group: C 2 2 21
;
_chemical_formula_sum "Si O2"
_cell_formula_units_Z 60
_cell_length_a 18.301974
_cell_length_b 8.664461
_cell_length_c 16.861705
_cell_angle_alpha 90.000000
_cell_angle_beta 90.000000
_cell_angle_gamma 90.000000
_cell_volume 2673.874209
_symmetry_space_group_name_H-M "C 2 2 21"
_symmetry_group_IT_number 20
_symmetry_cell_setting 'orthorhombic'
loop_
_space_group_symop_operation_xyz
x,y,z
-x,-y,1/2+z
x,-y,-z
-x,y,1/2-z
1/2+x,1/2+y,z
1/2-x,1/2-y,1/2+z
1/2+x,1/2-y,-z
1/2-x,1/2+y,1/2-z
loop_
_atom_site_type_symbol
_atom_site_label
_atom_site_fract_x
_atom_site_fract_y
_atom_site_fract_z
Si Si1 0.641478 0.275171 0.714649
Si Si2 0.917738 0.563643 0.226525
Si Si3 0.701373 0.654264 0.455204
Si Si4 0.594535 0.324032 0.149249
Si Si5 0.803120 0.109122 0.368156
Si Si6 0.143921 0.316885 0.996088
Si Si7 0.141344 0.378902 0.565672
Si Si8 0.000000 0.972626 0.750000
O O1 0.670044 0.343903 0.632356
O O2 0.701489 0.313375 0.781386
O O3 0.566274 0.363448 0.728117
O O4 0.630168 0.091467 0.717990
O O5 0.884607 0.685825 0.289102
O O6 0.915631 0.636795 0.137968
O O7 0.000000 0.520937 0.250000
O O8 0.722559 0.500000 0.500000
O O9 0.780670 0.734584 0.452279
O O10 0.642482 0.722293 0.516340
O O11 0.661082 0.443000 0.142608
O O12 0.580872 0.251770 0.061763
O O13 0.521696 0.413292 0.177672
O O14 0.854397 0.227245 0.419753
O O15 0.722507 0.082350 0.401885
O O16 0.129531 0.500000 0.000000
O O17 0.115033 0.500000 0.500000
#
# Coordination Sequence:
#
# PCOD8159480 Si02
#       8
#     8   8   8   8   8   8   8   4
#     4  11  23  45  68  97 134 181 221 286 338 408
#     4  12  26  43  66  96 139 179 236 276 338 415
#     4  10  23  40  70 103 135 170 225 279 346 410
#     4  11  23  42  69  93 136 176 223 284 333 406
#     4  10  23  40  72 104 134 170 226 277 354 408
#     4  10  21  43  67 104 140 167 217 283 350 409
#     4  11  23  44  67  99 137 178 219 288 348 414
#     4  10  24  44  66  92 132 176 230 268 328 404
#
# _framework density 22.439350999999998
#
# number of rings (size 3 to 8) (size 9 to 14) (size 15 to 20)
#    0.000    1.333    2.667    2.800    5.600    0.000 
#    0.000    8.667    0.000    0.000    0.000    0.000 
#    0.000    0.000    0.000    0.000    0.000    0.000 
#
# Total GULP energy -371716.907623 kJ/mol
# GULP energy per Si atom -12390.563587 kJ/mol
# Density = 2.238828 g / cm^3
# Si number density = 22.439351 Si / 1000 Ang^3
#
#
#
# Elastic Constant Matrix: (Units=GPa)
#
#
# Indices 1 2 3 4 5 6 
#
# 1 33.0312 -1.1582 25.0107 0.0000 0.0000 0.0000
# 2 -1.1582 96.5859 40.1016 0.0000 0.0000 0.0000
# 3 25.0107 40.1016 167.9902 0.0000 0.0000 0.0000
# 4 0.0000 0.0000 0.0000 40.0573 0.0000 0.0000
# 5 0.0000 0.0000 0.0000 0.0000 37.0391 0.0000
# 6 0.0000 0.0000 0.0000 0.0000 0.0000 25.7311
#
#
#
# Elastic Compliance Matrix: (Units=1/GPa)
#
#
# Indices 1 2 3 4 5 6 
#
# 1 0.034815 0.002852 -0.005864 0.000000 0.000000 0.000000
# 2 0.002852 0.011726 -0.003224 0.000000 0.000000 0.000000
# 3 -0.005864 -0.003224 0.007595 0.000000 0.000000 0.000000
# 4 0.000000 0.000000 0.000000 0.024964 0.000000 0.000000
# 5 0.000000 0.000000 0.000000 0.000000 0.026999 0.000000
# 6 0.000000 0.000000 0.000000 0.000000 0.000000 0.038863
#
#
# Mechanical properties :
#
#
# Convention : Reuss Voigt Hill
#
# Bulk Modulus (GPa) = 24.00118 47.27951 35.64035
# Shear Modulus (GPa) = 29.18480 36.14239 32.66359
#
# Velocity S-wave (km/s) = 3.61031 4.01767 3.81942
# Velocity P-wave (km/s) = 5.30079 6.52977 5.94711
#
# Compressibility (1/GPa) = 0.04166461
#
# Stress axis : x y z
#
# Youngs Moduli (GPa) = 28.72360 85.27916 131.65927
#
# Poissons Ratio (x) = -0.24323 0.77206
# Poissons Ratio (y) = -0.08193 0.42445
# Poissons Ratio (z) = 0.16844 0.27493
#
# Static dielectric constant tensor:
#      x y z
#    x 3.742900 0.000000 0.000000 
#    y 0.000000 4.196470 0.000000 
#    z 0.000000 0.000000 4.322990 
# 
# 
# High freq. dielectric constant tensor:
#      x y z
#    x 1.857240 0.000000 0.000000 
#    y 0.000000 1.903180 0.000000 
#    z 0.000000 0.000000 1.898270 
# 
# From -- ./inp_files/25282.got.cif
#   From: 2010.03.12/outbox.cif.g09.slc.cpg/sg20_13_cif.got.tgz:25282.got - 2010.04.14 01:38:04.
