data_PCOD8159320
_publ_section_title
;
Structure prediction by ZEFSAII (Michael W. Deem and Ramdas Pophale) SiO2 
 PCOD8159320
Probable space group: C 2 2 21
;
_chemical_formula_sum "Si O2"
_cell_formula_units_Z 60
_cell_length_a 24.839618
_cell_length_b 10.919582
_cell_length_c 10.241352
_cell_angle_alpha 90.000000
_cell_angle_beta 90.000000
_cell_angle_gamma 90.000000
_cell_volume 2777.846349
_symmetry_space_group_name_H-M "C 2 2 21"
_symmetry_group_IT_number 20
_symmetry_cell_setting 'orthorhombic'
loop_
_space_group_symop_operation_xyz
x,y,z
-x,-y,1/2+z
x,-y,-z
-x,y,1/2-z
1/2+x,1/2+y,z
1/2-x,1/2-y,1/2+z
1/2+x,1/2-y,-z
1/2-x,1/2+y,1/2-z
loop_
_atom_site_type_symbol
_atom_site_label
_atom_site_fract_x
_atom_site_fract_y
_atom_site_fract_z
Si Si1 0.450972 0.500000 0.500000
Si Si2 0.797135 0.765159 0.282137
Si Si3 0.646697 0.480635 0.359811
Si Si4 0.501207 0.910563 0.609541
Si Si5 0.380355 0.136108 0.467108
Si Si6 0.466877 0.350744 0.125282
Si Si7 0.750316 0.868367 0.527236
Si Si8 0.635701 0.640581 0.139699
O O1 0.490826 0.615670 0.512575
O O2 0.411527 0.459114 0.615877
O O3 0.817685 0.897521 0.235775
O O4 0.845730 0.689196 0.347434
O O5 0.750411 0.786359 0.392755
O O6 0.776211 0.696951 0.152423
O O7 0.675219 0.500000 0.500000
O O8 0.589620 0.417126 0.388336
O O9 0.643927 0.616988 0.294695
O O10 0.500000 0.979133 0.750000
O O11 0.441797 0.864888 0.575847
O O12 0.541672 0.795579 0.622575
O O13 0.524867 0.000000 0.500000
O O14 0.377989 0.219819 0.598506
O O15 0.359080 0.000000 0.500000
O O16 0.500000 0.397093 0.250000
O O17 0.812200 0.896007 0.557827
O O18 0.721695 0.000000 0.500000
#
# Coordination Sequence:
#
# PCOD8159320 Si02
#       8
#     4   8   8   8   8   8   8   8
#     4  12  18  36  66  98 126 170 214 276 324 400
#     4  11  25  44  67  99 131 171 229 282 334 406
#     4  12  25  42  65 102 142 173 216 288 342 391
#     4  10  21  40  63  90 132 183 227 269 327 403
#     4  10  22  44  69  94 130 183 224 272 334 411
#     4  11  21  36  64  97 133 170 221 273 335 392
#     4  11  24  43  70  95 129 177 221 274 349 396
#     4  11  21  42  68  93 133 172 222 270 337 406
#
# _framework density 21.599467000000001
#
# number of rings (size 3 to 8) (size 9 to 14) (size 15 to 20)
#    0.000    1.067    5.333    2.400    1.867    2.133 
#    4.800    2.000    0.000    0.000    0.000    0.000 
#    0.000    0.000    0.000    0.000    0.000    0.000 
#
# Total GULP energy -371658.913180 kJ/mol
# GULP energy per Si atom -12388.630439 kJ/mol
# Density = 2.155031 g / cm^3
# Si number density = 21.599467 Si / 1000 Ang^3
#
#
#
# Elastic Constant Matrix: (Units=GPa)
#
#
# Indices 1 2 3 4 5 6 
#
# 1 45.1084 18.4482 17.9739 0.0000 0.0000 0.0000
# 2 18.4482 113.4972 68.0516 0.0000 0.0000 0.0000
# 3 17.9739 68.0516 161.1899 0.0000 0.0000 0.0000
# 4 0.0000 0.0000 0.0000 49.3323 0.0000 0.0000
# 5 0.0000 0.0000 0.0000 0.0000 28.9507 0.0000
# 6 0.0000 0.0000 0.0000 0.0000 0.0000 18.0672
#
#
#
# Elastic Compliance Matrix: (Units=1/GPa)
#
#
# Indices 1 2 3 4 5 6 
#
# 1 0.023973 -0.003071 -0.001377 0.000000 0.000000 0.000000
# 2 -0.003071 0.012191 -0.004804 0.000000 0.000000 0.000000
# 3 -0.001377 -0.004804 0.008386 0.000000 0.000000 0.000000
# 4 0.000000 0.000000 0.000000 0.020271 0.000000 0.000000
# 5 0.000000 0.000000 0.000000 0.000000 0.034542 0.000000
# 6 0.000000 0.000000 0.000000 0.000000 0.000000 0.055349
#
#
# Mechanical properties :
#
#
# Convention : Reuss Voigt Hill
#
# Bulk Modulus (GPa) = 38.39445 58.74920 48.57182
# Shear Modulus (GPa) = 27.48818 33.62485 30.55651
#
# Velocity S-wave (km/s) = 3.57127 3.94984 3.76531
# Velocity P-wave (km/s) = 5.90081 6.93254 6.43737
#
# Compressibility (1/GPa) = 0.02604543
#
# Stress axis : x y z
#
# Youngs Moduli (GPa) = 41.71291 82.03093 119.25229
#
# Poissons Ratio (x) = 0.25195 0.16416
# Poissons Ratio (y) = 0.12811 0.57291
# Poissons Ratio (z) = 0.05742 0.39409
#
# Static dielectric constant tensor:
#      x y z
#    x 3.679210 0.000000 0.000000 
#    y 0.000000 4.058910 0.000000 
#    z 0.000000 0.000000 4.081450 
# 
# 
# High freq. dielectric constant tensor:
#      x y z
#    x 1.828710 0.000000 0.000000 
#    y 0.000000 1.844840 0.000000 
#    z 0.000000 0.000000 1.856100 
# 
# From -- ./inp_files/11154.got.cif
#   From: 2010.03.12/outbox.cif.g09.slc.cpg/sg20_6_cif.got.tgz:11154.got - 2010.04.14 01:38:04.
