data_PCOD8159520
_publ_section_title
;
Structure prediction by ZEFSAII (Michael W. Deem and Ramdas Pophale) SiO2 
 PCOD8159520
Probable space group: C 2 2 21
;
_chemical_formula_sum "Si O2"
_cell_formula_units_Z 36
_cell_length_a 14.543422
_cell_length_b 9.131635
_cell_length_c 12.632018
_cell_angle_alpha 90.000000
_cell_angle_beta 90.000000
_cell_angle_gamma 90.000000
_cell_volume 1677.597947
_symmetry_space_group_name_H-M "C 2 2 21"
_symmetry_group_IT_number 20
_symmetry_cell_setting 'orthorhombic'
loop_
_space_group_symop_operation_xyz
x,y,z
-x,-y,1/2+z
x,-y,-z
-x,y,1/2-z
1/2+x,1/2+y,z
1/2-x,1/2-y,1/2+z
1/2+x,1/2-y,-z
1/2-x,1/2+y,1/2-z
loop_
_atom_site_type_symbol
_atom_site_label
_atom_site_fract_x
_atom_site_fract_y
_atom_site_fract_z
Si Si1 0.907186 0.471383 0.200934
Si Si2 0.500000 0.451363 0.250000
Si Si3 0.177864 0.383575 0.090140
Si Si4 0.501313 0.703384 0.414402
Si Si5 0.878877 0.227904 0.886708
O O1 0.830958 0.450308 0.291984
O O2 0.930853 0.316184 0.146691
O O3 0.872592 0.595326 0.120066
O O4 0.000000 0.537434 0.250000
O O5 0.487177 0.552891 0.352302
O O6 0.588742 0.347750 0.275857
O O7 0.279274 0.322010 0.076140
O O8 0.101358 0.261352 0.071507
O O9 0.158504 0.500000 0.000000
O O10 0.546655 0.675194 0.527527
#
# Coordination Sequence:
#
# PCOD8159520 Si02
#       5
#     8   4   8   8   8
#     4  10  21  46  70  92 129 184 225 273 340 410
#     4  12  24  42  66  98 140 174 222 288 336 396
#     4  11  24  41  72  97 137 176 230 273 341 409
#     4  11  23  48  67  97 137 184 225 279 345 405
#     4  12  26  42  70 104 136 176 232 286 337 398
#
# _framework density 21.459253
#
# number of rings (size 3 to 8) (size 9 to 14) (size 15 to 20)
#    0.000    0.889    4.444    5.333    3.111    1.778 
#    0.000    2.222    0.000    0.000    0.000    0.000 
#    0.000    0.000    0.000    0.000    0.000    0.000 
#
# Total GULP energy -223170.509164 kJ/mol
# GULP energy per Si atom -12398.361620 kJ/mol
# Density = 2.141041 g / cm^3
# Si number density = 21.459253 Si / 1000 Ang^3
#
#
#
# Elastic Constant Matrix: (Units=GPa)
#
#
# Indices 1 2 3 4 5 6 
#
# 1 102.4558 30.5391 31.5241 0.0000 0.0000 0.0000
# 2 30.5391 99.4527 33.7055 0.0000 0.0000 0.0000
# 3 31.5241 33.7055 92.2955 0.0000 0.0000 0.0000
# 4 0.0000 0.0000 0.0000 40.9249 0.0000 0.0000
# 5 0.0000 0.0000 0.0000 0.0000 31.9984 0.0000
# 6 0.0000 0.0000 0.0000 0.0000 0.0000 19.8467
#
#
#
# Elastic Compliance Matrix: (Units=1/GPa)
#
#
# Indices 1 2 3 4 5 6 
#
# 1 0.011424 -0.002494 -0.002991 0.000000 0.000000 0.000000
# 2 -0.002494 0.012020 -0.003538 0.000000 0.000000 0.000000
# 3 -0.002991 -0.003538 0.013148 0.000000 0.000000 0.000000
# 4 0.000000 0.000000 0.000000 0.024435 0.000000 0.000000
# 5 0.000000 0.000000 0.000000 0.000000 0.031252 0.000000
# 6 0.000000 0.000000 0.000000 0.000000 0.000000 0.050386
#
#
# Mechanical properties :
#
#
# Convention : Reuss Voigt Hill
#
# Bulk Modulus (GPa) = 53.91914 53.97127 53.94520
# Shear Modulus (GPa) = 29.95928 31.78300 30.87114
#
# Velocity S-wave (km/s) = 3.74050 3.85266 3.79699
# Velocity P-wave (km/s) = 6.62087 6.70790 6.66452
#
# Compressibility (1/GPa) = 0.01854629
#
# Stress axis : x y z
#
# Youngs Moduli (GPa) = 87.53425 83.19546 76.05548
#
# Poissons Ratio (x) = 0.20752 0.22749
# Poissons Ratio (y) = 0.21834 0.26905
# Poissons Ratio (z) = 0.26182 0.29431
#
# Static dielectric constant tensor:
#      x y z
#    x 3.680250 0.000000 0.000000 
#    y 0.000000 3.927580 0.000000 
#    z 0.000000 0.000000 4.062800 
# 
# 
# High freq. dielectric constant tensor:
#      x y z
#    x 1.828440 0.000000 0.000000 
#    y 0.000000 1.855770 0.000000 
#    z 0.000000 0.000000 1.848280 
# 
# From -- ./inp_files/20445.got.cif
#   From: 2010.03.12/outbox.cif.g09.slc.cpg/sg20_11_cif.got.tgz:20445.got - 2010.04.14 01:38:04.
