data_PCOD8159440
_publ_section_title
;
Structure prediction by ZEFSAII (Michael W. Deem and Ramdas Pophale) SiO2 
 PCOD8159440
Probable space group: C 2 2 21
;
_chemical_formula_sum "Si O2"
_cell_formula_units_Z 52
_cell_length_a 14.600166
_cell_length_b 9.702632
_cell_length_c 18.020683
_cell_angle_alpha 90.000000
_cell_angle_beta 90.000000
_cell_angle_gamma 90.000000
_cell_volume 2552.810636
_symmetry_space_group_name_H-M "C 2 2 21"
_symmetry_group_IT_number 20
_symmetry_cell_setting 'orthorhombic'
loop_
_space_group_symop_operation_xyz
x,y,z
-x,-y,1/2+z
x,-y,-z
-x,y,1/2-z
1/2+x,1/2+y,z
1/2-x,1/2-y,1/2+z
1/2+x,1/2-y,-z
1/2-x,1/2+y,1/2-z
loop_
_atom_site_type_symbol
_atom_site_label
_atom_site_fract_x
_atom_site_fract_y
_atom_site_fract_z
Si Si1 0.191399 0.734119 0.804659
Si Si2 0.426640 0.231718 0.024597
Si Si3 0.086303 0.544110 0.610353
Si Si4 0.611520 0.626659 0.947099
Si Si5 0.727170 0.847801 0.028406
Si Si6 0.500000 0.850939 0.250000
Si Si7 0.773057 0.951657 0.317358
O O1 0.190677 0.677135 0.888340
O O2 0.259307 0.636133 0.757471
O O3 0.088154 0.740229 0.771894
O O4 0.229533 0.887687 0.797118
O O5 0.504676 0.338975 0.047355
O O6 0.334418 0.318832 0.022213
O O7 0.418756 0.112065 0.084514
O O8 0.450657 0.158932 0.946653
O O9 0.191357 0.581852 0.625741
O O10 0.023889 0.548537 0.682722
O O11 0.634159 0.588268 0.861372
O O12 0.637000 0.500000 0.000000
O O13 0.672126 0.754613 0.971330
O O14 0.705825 0.000000 0.000000
#
# Coordination Sequence:
#
# PCOD8159440 Si02
#       7
#     8   8   8   8   8   4   8
#     4  11  25  46  68 100 135 182 226 283 346 418
#     4  11  23  41  68  99 136 179 230 286 345 404
#     4  10  21  42  67  95 136 184 221 280 348 410
#     4  12  24  43  68  98 137 179 225 287 350 403
#     4  12  26  44  71 105 136 174 237 288 341 414
#     4  10  24  40  66  98 138 174 234 274 344 410
#     4  11  24  45  68  94 140 182 222 283 351 410
#
# _framework density 20.369703999999999
#
# number of rings (size 3 to 8) (size 9 to 14) (size 15 to 20)
#    0.000    0.923    4.615    1.385    6.462    1.231 
#    2.769    0.000    0.000    0.000    0.000    0.000 
#    0.000    0.000    0.000    0.000    0.000    0.000 
#
# Total GULP energy -322495.972694 kJ/mol
# GULP energy per Si atom -12403.691257 kJ/mol
# Density = 2.032334 g / cm^3
# Si number density = 20.369704 Si / 1000 Ang^3
#
#
#
# Elastic Constant Matrix: (Units=GPa)
#
#
# Indices 1 2 3 4 5 6 
#
# 1 82.3331 16.6322 2.5614 0.0000 0.0000 0.0000
# 2 16.6322 126.9067 33.0431 0.0000 0.0000 0.0000
# 3 2.5614 33.0431 88.3884 0.0000 0.0000 0.0000
# 4 0.0000 0.0000 0.0000 29.3863 0.0000 0.0000
# 5 0.0000 0.0000 0.0000 0.0000 28.3503 0.0000
# 6 0.0000 0.0000 0.0000 0.0000 0.0000 30.1203
#
#
#
# Elastic Compliance Matrix: (Units=1/GPa)
#
#
# Indices 1 2 3 4 5 6 
#
# 1 0.012482 -0.001708 0.000277 0.000000 0.000000 0.000000
# 2 -0.001708 0.008963 -0.003301 0.000000 0.000000 0.000000
# 3 0.000277 -0.003301 0.012540 0.000000 0.000000 0.000000
# 4 0.000000 0.000000 0.000000 0.034030 0.000000 0.000000
# 5 0.000000 0.000000 0.000000 0.000000 0.035273 0.000000
# 6 0.000000 0.000000 0.000000 0.000000 0.000000 0.033200
#
#
# Mechanical properties :
#
#
# Convention : Reuss Voigt Hill
#
# Bulk Modulus (GPa) = 40.78259 44.67796 42.73028
# Shear Modulus (GPa) = 32.44091 33.93081 33.18586
#
# Velocity S-wave (km/s) = 3.99508 4.08579 4.04069
# Velocity P-wave (km/s) = 6.43005 6.65127 6.54159
#
# Compressibility (1/GPa) = 0.02452026
#
# Stress axis : x y z
#
# Youngs Moduli (GPa) = 80.11414 111.56713 79.74587
#
# Poissons Ratio (x) = 0.19055 -0.02207
# Poissons Ratio (y) = 0.13683 0.26327
# Poissons Ratio (z) = -0.02217 0.36832
#
# Static dielectric constant tensor:
#      x y z
#    x 3.828250 0.000000 0.000000 
#    y 0.000000 3.629070 0.000000 
#    z 0.000000 0.000000 3.801100 
# 
# 
# High freq. dielectric constant tensor:
#      x y z
#    x 1.802530 0.000000 0.000000 
#    y 0.000000 1.797830 0.000000 
#    z 0.000000 0.000000 1.802660 
# 
# From -- ./inp_files/27524.got.cif
#   From: 2010.03.12/outbox.cif.g09.slc.cpg/sg20_14_cif.got.tgz:27524.got - 2010.04.14 01:38:04.
