data_PCOD8159346
_publ_section_title
;
Structure prediction by ZEFSAII (Michael W. Deem and Ramdas Pophale) SiO2 
 PCOD8159346
Probable space group: C 2 2 21
;
_chemical_formula_sum "Si O2"
_cell_formula_units_Z 48
_cell_length_a 9.200371
_cell_length_b 17.585278
_cell_length_c 14.229299
_cell_angle_alpha 90.000000
_cell_angle_beta 90.000000
_cell_angle_gamma 90.000000
_cell_volume 2302.173678
_symmetry_space_group_name_H-M "C 2 2 21"
_symmetry_group_IT_number 20
_symmetry_cell_setting 'orthorhombic'
loop_
_space_group_symop_operation_xyz
x,y,z
-x,-y,1/2+z
x,-y,-z
-x,y,1/2-z
1/2+x,1/2+y,z
1/2-x,1/2-y,1/2+z
1/2+x,1/2-y,-z
1/2-x,1/2+y,1/2-z
loop_
_atom_site_type_symbol
_atom_site_label
_atom_site_fract_x
_atom_site_fract_y
_atom_site_fract_z
Si Si1 0.246896 0.060643 0.920758
Si Si2 0.951384 0.571917 0.647137
Si Si3 0.879488 0.602973 0.322557
Si Si4 0.054481 0.168917 0.021261
Si Si5 0.864797 0.064344 0.304117
Si Si6 0.711003 0.175215 0.986571
O O1 0.412528 0.089222 0.922446
O O2 0.226270 0.012265 0.825628
O O3 0.133324 0.130086 0.931017
O O4 0.213134 0.000000 0.000000
O O5 0.912331 0.483420 0.648199
O O6 0.817292 0.617094 0.600049
O O7 0.000000 0.602404 0.750000
O O8 0.729421 0.614601 0.267094
O O9 0.870252 0.651014 0.417643
O O10 0.000000 0.634779 0.250000
O O11 0.080130 0.114334 0.109458
O O12 0.138870 0.246057 0.044194
O O13 0.884371 0.181612 0.001007
O O14 0.000000 0.030690 0.250000
#
# Coordination Sequence:
#
# PCOD8159346 Si02
#       6
#     8   8   8   8   8   8
#     4  10  21  40  66  93 128 167 209 265 325 380
#     4  11  23  41  68 100 128 170 216 269 321 388
#     4  11  23  42  71 101 126 174 218 273 330 387
#     4  11  27  43  65  93 133 183 211 272 331 391
#     4  11  22  42  69  98 130 162 225 275 325 385
#     4  12  26  45  64  95 137 175 223 266 330 395
#
# _framework density 20.84986
#
# number of rings (size 3 to 8) (size 9 to 14) (size 15 to 20)
#    0.000    1.000    5.000    2.500    7.000    2.000 
#    3.000    0.833    0.000    0.000    0.000    0.000 
#    0.000    0.000    0.000    0.000    0.000    0.000 
#
# Total GULP energy -297502.036610 kJ/mol
# GULP energy per Si atom -12395.918192 kJ/mol
# Density = 2.080241 g / cm^3
# Si number density = 20.849860 Si / 1000 Ang^3
#
#
#
# Elastic Constant Matrix: (Units=GPa)
#
#
# Indices 1 2 3 4 5 6 
#
# 1 136.6413 28.1580 17.8286 0.0000 0.0000 0.0000
# 2 28.1580 63.7875 15.1047 0.0000 0.0000 0.0000
# 3 17.8286 15.1047 61.9238 0.0000 0.0000 0.0000
# 4 0.0000 0.0000 0.0000 97.3519 0.0000 0.0000
# 5 0.0000 0.0000 0.0000 0.0000 41.7024 0.0000
# 6 0.0000 0.0000 0.0000 0.0000 0.0000 43.0549
#
#
#
# Elastic Compliance Matrix: (Units=1/GPa)
#
#
# Indices 1 2 3 4 5 6 
#
# 1 0.008192 -0.003245 -0.001567 0.000000 0.000000 0.000000
# 2 -0.003245 0.017924 -0.003438 0.000000 0.000000 0.000000
# 3 -0.001567 -0.003438 0.017439 0.000000 0.000000 0.000000
# 4 0.000000 0.000000 0.000000 0.010272 0.000000 0.000000
# 5 0.000000 0.000000 0.000000 0.000000 0.023979 0.000000
# 6 0.000000 0.000000 0.000000 0.000000 0.000000 0.023226
#
#
# Mechanical properties :
#
#
# Convention : Reuss Voigt Hill
#
# Bulk Modulus (GPa) = 36.96257 42.72616 39.84436
# Shear Modulus (GPa) = 39.51048 49.83925 44.67487
#
# Velocity S-wave (km/s) = 4.35788 4.89446 4.63395
# Velocity P-wave (km/s) = 6.56414 7.24416 6.91252
#
# Compressibility (1/GPa) = 0.02705440
#
# Stress axis : x y z
#
# Youngs Moduli (GPa) = 122.07648 55.79253 57.34423
#
# Poissons Ratio (x) = 0.18105 0.08985
# Poissons Ratio (y) = 0.39614 0.19713
# Poissons Ratio (z) = 0.19128 0.19180
#
# Static dielectric constant tensor:
#      x y z
#    x 3.851680 0.000000 0.000000 
#    y 0.000000 3.655600 0.000000 
#    z 0.000000 0.000000 3.996070 
# 
# 
# High freq. dielectric constant tensor:
#      x y z
#    x 1.833590 0.000000 0.000000 
#    y 0.000000 1.795640 0.000000 
#    z 0.000000 0.000000 1.822340 
# 
# From -- ./inp_files/18840.got.cif
#   From: 2010.03.12/outbox.cif.g09.slc.cpg/sg20_10_cif.got.tgz:18840.got - 2010.04.14 01:38:04.
