data_PCOD8159484
_publ_section_title
;
Structure prediction by ZEFSAII (Michael W. Deem and Ramdas Pophale) SiO2 
 PCOD8159484
Probable space group: C 2 2 21
;
_chemical_formula_sum "Si O2"
_cell_formula_units_Z 52
_cell_length_a 28.000083
_cell_length_b 10.802656
_cell_length_c 8.447008
_cell_angle_alpha 90.000000
_cell_angle_beta 90.000000
_cell_angle_gamma 90.000000
_cell_volume 2555.010980
_symmetry_space_group_name_H-M "C 2 2 21"
_symmetry_group_IT_number 20
_symmetry_cell_setting 'orthorhombic'
loop_
_space_group_symop_operation_xyz
x,y,z
-x,-y,1/2+z
x,-y,-z
-x,y,1/2-z
1/2+x,1/2+y,z
1/2-x,1/2-y,1/2+z
1/2+x,1/2-y,-z
1/2-x,1/2+y,1/2-z
loop_
_atom_site_type_symbol
_atom_site_label
_atom_site_fract_x
_atom_site_fract_y
_atom_site_fract_z
Si Si1 0.671499 0.500000 0.000000
Si Si2 0.466884 0.378310 0.903087
Si Si3 0.215872 0.854385 0.513514
Si Si4 0.631896 0.329654 0.741753
Si Si5 0.386207 0.139151 0.502933
Si Si6 0.995491 0.627895 0.560957
Si Si7 0.303813 0.734470 0.666535
O O1 0.637887 0.562383 0.130103
O O2 0.704914 0.398592 0.084335
O O3 0.500000 0.379590 0.750000
O O4 0.411153 0.376852 0.865327
O O5 0.477522 0.251410 0.000631
O O6 0.480037 0.500000 0.000000
O O7 0.178277 0.803007 0.638567
O O8 0.268418 0.830388 0.581758
O O9 0.206909 0.779864 0.351441
O O10 0.207950 0.000000 0.500000
O O11 0.622362 0.198676 0.825074
O O12 0.443144 0.137896 0.480893
O O13 0.358086 0.217477 0.366823
O O14 0.365908 0.000000 0.500000
O O15 0.019589 0.500000 0.500000
O O16 0.000000 0.625196 0.750000
#
# Coordination Sequence:
#
# PCOD8159484 Si02
#       7
#     4   8   8   8   8   8   8
#     4  10  22  40  70  94 126 184 210 272 336 390
#     4  11  24  41  65 100 133 175 226 285 332 402
#     4  12  25  45  66  96 135 173 217 276 332 406
#     4  11  22  44  65  95 140 170 223 276 339 392
#     4  10  21  43  68  94 126 174 222 273 328 396
#     4  10  21  44  65  92 134 175 222 275 337 400
#     4  11  24  42  68  96 129 170 219 266 337 396
#
# _framework density 20.352163999999998
#
# number of rings (size 3 to 8) (size 9 to 14) (size 15 to 20)
#    0.000    1.231    4.615    2.769    1.077    0.615 
#    5.538    0.000    0.000    0.000    0.000    0.000 
#    0.000    0.000    0.000    0.000    0.000    0.000 
#
# Total GULP energy -322342.954088 kJ/mol
# GULP energy per Si atom -12397.805926 kJ/mol
# Density = 2.030584 g / cm^3
# Si number density = 20.352164 Si / 1000 Ang^3
#
#
#
# Elastic Constant Matrix: (Units=GPa)
#
#
# Indices 1 2 3 4 5 6 
#
# 1 84.0089 16.6638 27.1896 0.0000 0.0000 0.0000
# 2 16.6638 136.7479 46.2797 0.0000 0.0000 0.0000
# 3 27.1896 46.2797 85.1970 0.0000 0.0000 0.0000
# 4 0.0000 0.0000 0.0000 33.0701 0.0000 0.0000
# 5 0.0000 0.0000 0.0000 0.0000 26.3909 0.0000
# 6 0.0000 0.0000 0.0000 0.0000 0.0000 38.7978
#
#
#
# Elastic Compliance Matrix: (Units=1/GPa)
#
#
# Indices 1 2 3 4 5 6 
#
# 1 0.013280 -0.000225 -0.004116 0.000000 0.000000 0.000000
# 2 -0.000225 0.008964 -0.004797 0.000000 0.000000 0.000000
# 3 -0.004116 -0.004797 0.015657 0.000000 0.000000 0.000000
# 4 0.000000 0.000000 0.000000 0.030239 0.000000 0.000000
# 5 0.000000 0.000000 0.000000 0.000000 0.037892 0.000000
# 6 0.000000 0.000000 0.000000 0.000000 0.000000 0.025775
#
#
# Mechanical properties :
#
#
# Convention : Reuss Voigt Hill
#
# Bulk Modulus (GPa) = 50.95788 54.02445 52.49116
# Shear Modulus (GPa) = 31.92348 34.03979 32.98164
#
# Velocity S-wave (km/s) = 3.96479 4.09411 4.02997
# Velocity P-wave (km/s) = 6.78615 6.99653 6.89214
#
# Compressibility (1/GPa) = 0.01962405
#
# Stress axis : x y z
#
# Youngs Moduli (GPa) = 75.29949 111.56076 63.86955
#
# Poissons Ratio (x) = 0.02514 0.26288
# Poissons Ratio (y) = 0.01697 0.30640
# Poissons Ratio (z) = 0.30992 0.53518
#
# Static dielectric constant tensor:
#      x y z
#    x 3.690230 0.000000 0.000000 
#    y 0.000000 4.179840 0.000000 
#    z 0.000000 0.000000 3.611040 
# 
# 
# High freq. dielectric constant tensor:
#      x y z
#    x 1.791190 0.000000 0.000000 
#    y 0.000000 1.814290 0.000000 
#    z 0.000000 0.000000 1.784790 
# 
# From -- ./inp_files/11102.got.cif
#   From: 2010.03.12/outbox.cif.g09.slc.cpg/sg20_6_cif.got.tgz:11102.got - 2010.04.14 01:38:04.
