data_PCOD8159038
_publ_section_title
;
Structure prediction by ZEFSAII (Michael W. Deem and Ramdas Pophale) SiO2 
 PCOD8159038
Probable space group: C 2 2 21
;
_chemical_formula_sum "Si O2"
_cell_formula_units_Z 60
_cell_length_a 21.984632
_cell_length_b 5.602776
_cell_length_c 23.812541
_cell_angle_alpha 90.000000
_cell_angle_beta 90.000000
_cell_angle_gamma 90.000000
_cell_volume 2933.108988
_symmetry_space_group_name_H-M "C 2 2 21"
_symmetry_group_IT_number 20
_symmetry_cell_setting 'orthorhombic'
loop_
_space_group_symop_operation_xyz
x,y,z
-x,-y,1/2+z
x,-y,-z
-x,y,1/2-z
1/2+x,1/2+y,z
1/2-x,1/2-y,1/2+z
1/2+x,1/2-y,-z
1/2-x,1/2+y,1/2-z
loop_
_atom_site_type_symbol
_atom_site_label
_atom_site_fract_x
_atom_site_fract_y
_atom_site_fract_z
Si Si1 0.265554 0.924432 0.175366
Si Si2 0.334289 0.798905 0.738383
Si Si3 0.776155 0.000000 0.500000
Si Si4 0.999514 0.096047 0.182586
Si Si5 0.771527 0.183653 0.912528
Si Si6 0.065011 0.593204 0.157882
Si Si7 0.637067 0.461492 0.658349
Si Si8 0.339168 0.877981 0.560195
O O1 0.200238 0.803897 0.184231
O O2 0.320002 0.766365 0.151637
O O3 0.288986 0.007125 0.236297
O O4 0.249076 0.134633 0.134195
O O5 0.394837 0.920804 0.714438
O O6 0.351646 0.599292 0.783646
O O7 0.731303 0.200890 0.474504
O O8 0.820914 0.103679 0.547948
O O9 0.028788 0.341852 0.158847
O O10 0.000000 0.099873 0.250000
O O11 0.932706 0.109399 0.155436
O O12 0.027589 0.843755 0.161056
O O13 0.841000 0.113215 0.896356
O O14 0.721614 0.975284 0.909426
O O15 0.102543 0.599876 0.099951
O O16 0.353602 0.000000 0.500000
#
# Coordination Sequence:
#
# PCOD8159038 Si02
#       8
#     8   8   4   8   8   8   8   8
#     4  11  22  36  60  93 136 166 215 272 350 401
#     4  11  22  35  60  93 130 177 217 280 331 418
#     4  10  20  42  70 100 136 160 220 286 376 416
#     4  12  27  45  66  96 140 196 236 280 333 413
#     4  10  22  37  66  98 129 169 214 280 361 412
#     4  12  27  43  70  97 135 189 244 279 347 401
#     4  11  23  40  58  91 136 174 225 277 333 416
#     4  10  24  43  72 103 131 171 226 302 354 420
#
# _framework density 20.456111
#
# number of rings (size 3 to 8) (size 9 to 14) (size 15 to 20)
#    0.000    1.067    2.667    3.600   11.200    0.000 
#    0.000    0.000    1.467    1.600    0.000    0.000 
#    0.000    0.000    0.000    0.000    0.000    0.000 
#
# Total GULP energy -371735.335766 kJ/mol
# GULP energy per Si atom -12391.177859 kJ/mol
# Density = 2.040955 g / cm^3
# Si number density = 20.456111 Si / 1000 Ang^3
#
#
#
# Elastic Constant Matrix: (Units=GPa)
#
#
# Indices 1 2 3 4 5 6 
#
# 1 137.6137 58.0225 50.9464 0.0000 0.0000 0.0000
# 2 58.0225 119.9717 34.4627 0.0000 0.0000 0.0000
# 3 50.9464 34.4627 88.7075 0.0000 0.0000 0.0000
# 4 0.0000 0.0000 0.0000 34.8112 0.0000 0.0000
# 5 0.0000 0.0000 0.0000 0.0000 36.1904 0.0000
# 6 0.0000 0.0000 0.0000 0.0000 0.0000 29.1957
#
#
#
# Elastic Compliance Matrix: (Units=1/GPa)
#
#
# Indices 1 2 3 4 5 6 
#
# 1 0.010566 -0.003790 -0.004596 0.000000 0.000000 0.000000
# 2 -0.003790 0.010742 -0.001997 0.000000 0.000000 0.000000
# 3 -0.004596 -0.001997 0.014688 0.000000 0.000000 0.000000
# 4 0.000000 0.000000 0.000000 0.028726 0.000000 0.000000
# 5 0.000000 0.000000 0.000000 0.000000 0.027632 0.000000
# 6 0.000000 0.000000 0.000000 0.000000 0.000000 0.034252
#
#
# Mechanical properties :
#
#
# Convention : Reuss Voigt Hill
#
# Bulk Modulus (GPa) = 65.65436 70.35066 68.00251
# Shear Modulus (GPa) = 32.79813 33.56355 33.18084
#
# Velocity S-wave (km/s) = 4.00852 4.05502 4.03184
# Velocity P-wave (km/s) = 7.32046 7.50933 7.41550
#
# Compressibility (1/GPa) = 0.01523128
#
# Stress axis : x y z
#
# Youngs Moduli (GPa) = 94.64160 93.09452 68.08187
#
# Poissons Ratio (x) = 0.35282 0.31290
# Poissons Ratio (y) = 0.35869 0.13593
# Poissons Ratio (z) = 0.43497 0.18586
#
# Static dielectric constant tensor:
#      x y z
#    x 3.727460 0.000000 0.000000 
#    y 0.000000 4.083630 0.000000 
#    z 0.000000 0.000000 3.708690 
# 
# 
# High freq. dielectric constant tensor:
#      x y z
#    x 1.784560 0.000000 0.000000 
#    y 0.000000 1.820620 0.000000 
#    z 0.000000 0.000000 1.796970 
# 
# From -- ./inp_files/29543.got.cif
#   From: 2010.03.12/outbox.cif.g09.slc.cpg/sg20_15_cif.got.tgz:29543.got - 2010.04.14 01:38:04.
