data_PCOD8159372
_publ_section_title
;
Structure prediction by ZEFSAII (Michael W. Deem and Ramdas Pophale) SiO2 
 PCOD8159372
Probable space group: C 2 2 21
;
_chemical_formula_sum "Si O2"
_cell_formula_units_Z 48
_cell_length_a 8.695222
_cell_length_b 29.028227
_cell_length_c 9.206454
_cell_angle_alpha 90.000000
_cell_angle_beta 90.000000
_cell_angle_gamma 90.000000
_cell_volume 2323.772312
_symmetry_space_group_name_H-M "C 2 2 21"
_symmetry_group_IT_number 20
_symmetry_cell_setting 'orthorhombic'
loop_
_space_group_symop_operation_xyz
x,y,z
-x,-y,1/2+z
x,-y,-z
-x,y,1/2-z
1/2+x,1/2+y,z
1/2-x,1/2-y,1/2+z
1/2+x,1/2-y,-z
1/2-x,1/2+y,1/2-z
loop_
_atom_site_type_symbol
_atom_site_label
_atom_site_fract_x
_atom_site_fract_y
_atom_site_fract_z
Si Si1 0.676561 0.455582 0.918509
Si Si2 0.686023 0.457697 0.594278
Si Si3 0.339543 0.877594 0.432213
Si Si4 0.399036 0.787417 0.613540
Si Si5 0.884399 0.275414 0.118017
Si Si6 0.683392 0.123265 0.603955
O O1 0.751693 0.457141 0.758388
O O2 0.495831 0.460962 0.904058
O O3 0.746513 0.500000 0.000000
O O4 0.707462 0.407989 0.004098
O O5 0.755259 0.500000 0.500000
O O6 0.734051 0.409917 0.526580
O O7 0.338700 0.828532 0.512393
O O8 0.263906 0.876697 0.272113
O O9 0.512279 0.896802 0.418477
O O10 0.500000 0.805017 0.750000
O O11 0.249842 0.759115 0.666743
O O12 0.511216 0.755265 0.513954
O O13 0.811393 0.323086 0.056805
O O14 0.000000 0.287218 0.250000
#
# Coordination Sequence:
#
# PCOD8159372 Si02
#       6
#     8   8   8   8   8   8
#     4  10  22  40  63  91 124 165 204 257 318 381
#     4  10  22  40  62  93 126 157 208 262 314 380
#     4  10  22  40  60  89 122 163 208 259 315 376
#     4  11  24  39  67  93 129 174 218 274 329 382
#     4  11  22  45  62  93 131 171 220 271 322 395
#     4  10  21  41  63  84 124 165 208 257 314 381
#
# _framework density 20.656068999999999
#
# number of rings (size 3 to 8) (size 9 to 14) (size 15 to 20)
#    0.000    1.667    3.333    2.000    4.667    4.000 
#    3.000    0.000    0.000    0.000    0.000    0.000 
#    0.000    0.000    0.000    0.000    0.000    0.000 
#
# Total GULP energy -297496.655168 kJ/mol
# GULP energy per Si atom -12395.693965 kJ/mol
# Density = 2.060905 g / cm^3
# Si number density = 20.656069 Si / 1000 Ang^3
#
#
#
# Elastic Constant Matrix: (Units=GPa)
#
#
# Indices 1 2 3 4 5 6 
#
# 1 36.3043 34.8577 28.4478 0.0000 0.0000 0.0000
# 2 34.8577 104.6691 57.1666 0.0000 0.0000 0.0000
# 3 28.4478 57.1666 149.7055 0.0000 0.0000 0.0000
# 4 0.0000 0.0000 0.0000 34.6724 0.0000 0.0000
# 5 0.0000 0.0000 0.0000 0.0000 35.3663 0.0000
# 6 0.0000 0.0000 0.0000 0.0000 0.0000 33.8526
#
#
#
# Elastic Compliance Matrix: (Units=1/GPa)
#
#
# Indices 1 2 3 4 5 6 
#
# 1 0.041756 -0.012095 -0.003316 0.000000 0.000000 0.000000
# 2 -0.012095 0.015575 -0.003649 0.000000 0.000000 0.000000
# 3 -0.003316 -0.003649 0.008703 0.000000 0.000000 0.000000
# 4 0.000000 0.000000 0.000000 0.028841 0.000000 0.000000
# 5 0.000000 0.000000 0.000000 0.000000 0.028276 0.000000
# 6 0.000000 0.000000 0.000000 0.000000 0.000000 0.029540
#
#
# Mechanical properties :
#
#
# Convention : Reuss Voigt Hill
#
# Bulk Modulus (GPa) = 35.82388 59.06922 47.44655
# Shear Modulus (GPa) = 24.98545 32.12536 28.55540
#
# Velocity S-wave (km/s) = 3.48169 3.94794 3.72213
# Velocity P-wave (km/s) = 5.79168 7.03138 6.44143
#
# Compressibility (1/GPa) = 0.02791434
#
# Stress axis : x y z
#
# Youngs Moduli (GPa) = 23.94841 64.20618 114.89768
#
# Poissons Ratio (x) = 0.77656 0.38103
# Poissons Ratio (y) = 0.28965 0.41927
# Poissons Ratio (z) = 0.07942 0.23429
#
# Static dielectric constant tensor:
#      x y z
#    x 3.604670 0.000000 0.000000 
#    y 0.000000 3.520640 0.000000 
#    z 0.000000 0.000000 4.122350 
# 
# 
# High freq. dielectric constant tensor:
#      x y z
#    x 1.789390 0.000000 0.000000 
#    y 0.000000 1.796260 0.000000 
#    z 0.000000 0.000000 1.829040 
# 
# From -- ./inp_files/6455.got.cif
#   From: 2010.03.12/outbox.cif.g09.slc.cpg/sg20_4_cif.got.tgz:6455.got - 2010.04.14 01:38:04.
