data_PCOD8159110
_publ_section_title
;
Structure prediction by ZEFSAII (Michael W. Deem and Ramdas Pophale) SiO2 
 PCOD8159110
Probable space group: C 2 2 21
;
_chemical_formula_sum "Si O2"
_cell_formula_units_Z 64
_cell_length_a 17.387366
_cell_length_b 12.027568
_cell_length_c 14.804765
_cell_angle_alpha 90.000000
_cell_angle_beta 90.000000
_cell_angle_gamma 90.000000
_cell_volume 3096.086852
_symmetry_space_group_name_H-M "C 2 2 21"
_symmetry_group_IT_number 20
_symmetry_cell_setting 'orthorhombic'
loop_
_space_group_symop_operation_xyz
x,y,z
-x,-y,1/2+z
x,-y,-z
-x,y,1/2-z
1/2+x,1/2+y,z
1/2-x,1/2-y,1/2+z
1/2+x,1/2-y,-z
1/2-x,1/2+y,1/2-z
loop_
_atom_site_type_symbol
_atom_site_label
_atom_site_fract_x
_atom_site_fract_y
_atom_site_fract_z
Si Si1 0.323790 0.216733 0.612300
Si Si2 0.662345 0.655547 0.808733
Si Si3 0.514691 0.689361 0.150262
Si Si4 0.242171 0.328974 0.928159
Si Si5 0.166003 0.327455 0.658736
Si Si6 0.593079 0.714573 0.504666
Si Si7 0.477201 0.548162 0.591092
Si Si8 0.715923 0.012045 0.778083
O O1 0.398764 0.291712 0.618456
O O2 0.315724 0.162126 0.513171
O O3 0.253329 0.298500 0.632518
O O4 0.329327 0.120309 0.687641
O O5 0.723679 0.714882 0.875179
O O6 0.634775 0.739032 0.730937
O O7 0.584728 0.623508 0.859293
O O8 0.702717 0.547362 0.765818
O O9 0.500000 0.737525 0.250000
O O10 0.496014 0.557241 0.150937
O O11 0.460136 0.753383 0.078593
O O12 0.231444 0.432748 0.862602
O O13 0.328619 0.334206 0.964258
O O14 0.112038 0.319799 0.569858
O O15 0.164301 0.450525 0.701931
O O16 0.552325 0.619490 0.564776
O O17 0.438316 0.500000 0.500000
#
# Coordination Sequence:
#
# PCOD8159110 Si02
#       8
#     8   8   8   8   8   8   8   8
#     4  10  21  41  62  88 127 163 208 260 315 381
#     4  10  21  35  66  89 128 160 205 263 316 377
#     4  11  25  37  66  90 130 163 206 261 321 385
#     4  10  21  40  65  93 123 166 210 262 310 378
#     4   9  21  39  61  93 121 157 211 263 311 373
#     4  10  23  39  60  89 135 159 203 259 320 380
#     4  10  22  38  57  95 124 160 200 252 332 385
#     4  10  21  36  67  93 117 161 220 257 310 372
#
# _framework density 20.671254999999999
#
# number of rings (size 3 to 8) (size 9 to 14) (size 15 to 20)
#    0.000    2.000    0.000    2.625    8.750    9.000 
#    0.000    0.000   11.000    0.000    0.000    0.000 
#    0.000    0.000    0.000    0.000    0.000    0.000 
#
# Total GULP energy -396771.131828 kJ/mol
# GULP energy per Si atom -12399.097870 kJ/mol
# Density = 2.062421 g / cm^3
# Si number density = 20.671255 Si / 1000 Ang^3
#
#
#
# Elastic Constant Matrix: (Units=GPa)
#
#
# Indices 1 2 3 4 5 6 
#
# 1 99.6176 23.1540 54.5287 0.0000 0.0000 0.0000
# 2 23.1540 65.2018 37.1056 0.0000 0.0000 0.0000
# 3 54.5287 37.1056 130.0386 0.0000 0.0000 0.0000
# 4 0.0000 0.0000 0.0000 25.0201 0.0000 0.0000
# 5 0.0000 0.0000 0.0000 0.0000 35.2356 0.0000
# 6 0.0000 0.0000 0.0000 0.0000 0.0000 20.0513
#
#
#
# Elastic Compliance Matrix: (Units=1/GPa)
#
#
# Indices 1 2 3 4 5 6 
#
# 1 0.013211 -0.001837 -0.005015 0.000000 0.000000 0.000000
# 2 -0.001837 0.018566 -0.004527 0.000000 0.000000 0.000000
# 3 -0.005015 -0.004527 0.011085 0.000000 0.000000 0.000000
# 4 0.000000 0.000000 0.000000 0.039968 0.000000 0.000000
# 5 0.000000 0.000000 0.000000 0.000000 0.028380 0.000000
# 6 0.000000 0.000000 0.000000 0.000000 0.000000 0.049872
#
#
# Mechanical properties :
#
#
# Convention : Reuss Voigt Hill
#
# Bulk Modulus (GPa) = 49.74654 58.27053 54.00854
# Shear Modulus (GPa) = 26.24094 28.06604 27.15349
#
# Velocity S-wave (km/s) = 3.56679 3.68874 3.62828
# Velocity P-wave (km/s) = 6.40940 6.81122 6.61337
#
# Compressibility (1/GPa) = 0.02010190
#
# Stress axis : x y z
#
# Youngs Moduli (GPa) = 75.69609 53.86250 90.21239
#
# Poissons Ratio (x) = 0.09895 0.45245
# Poissons Ratio (y) = 0.13906 0.40842
# Poissons Ratio (z) = 0.37965 0.24385
#
# Static dielectric constant tensor:
#      x y z
#    x 3.501300 0.000000 0.000000 
#    y 0.000000 3.591940 0.000000 
#    z 0.000000 0.000000 4.229730 
# 
# 
# High freq. dielectric constant tensor:
#      x y z
#    x 1.790960 0.000000 0.000000 
#    y 0.000000 1.788380 0.000000 
#    z 0.000000 0.000000 1.835040 
# 
# From -- ./inp_files/21489.got.cif
#   From: 2010.03.12/outbox.cif.g09.slc.cpg/sg20_11_cif.got.tgz:21489.got - 2010.04.14 01:38:04.
