data_PCOD8159036
_publ_section_title
;
Structure prediction by ZEFSAII (Michael W. Deem and Ramdas Pophale) SiO2 
 PCOD8159036
Probable space group: C 2 2 21
;
_chemical_formula_sum "Si O2"
_cell_formula_units_Z 60
_cell_length_a 17.565297
_cell_length_b 18.484584
_cell_length_c 7.987792
_cell_angle_alpha 90.000000
_cell_angle_beta 90.000000
_cell_angle_gamma 90.000000
_cell_volume 2593.533882
_symmetry_space_group_name_H-M "C 2 2 21"
_symmetry_group_IT_number 20
_symmetry_cell_setting 'orthorhombic'
loop_
_space_group_symop_operation_xyz
x,y,z
-x,-y,1/2+z
x,-y,-z
-x,y,1/2-z
1/2+x,1/2+y,z
1/2-x,1/2-y,1/2+z
1/2+x,1/2-y,-z
1/2-x,1/2+y,1/2-z
loop_
_atom_site_type_symbol
_atom_site_label
_atom_site_fract_x
_atom_site_fract_y
_atom_site_fract_z
Si Si1 0.510212 0.581197 0.446118
Si Si2 0.047039 0.334661 0.919484
Si Si3 0.885840 0.185908 0.490717
Si Si4 0.796866 0.600405 0.327064
Si Si5 0.155506 0.536949 0.679053
Si Si6 0.000000 0.406905 0.250000
Si Si7 0.851975 0.175921 0.102642
Si Si8 0.284878 0.826332 0.030111
O O1 0.527901 0.500000 0.500000
O O2 0.500000 0.581107 0.250000
O O3 0.432431 0.611726 0.530764
O O4 0.579631 0.635227 0.493742
O O5 0.126890 0.377603 0.925151
O O6 0.000000 0.350737 0.750000
O O7 0.063177 0.249969 0.936549
O O8 0.997767 0.358331 0.081305
O O9 0.873987 0.192504 0.292910
O O10 0.803316 0.187646 0.577585
O O11 0.794878 0.513231 0.303914
O O12 0.721448 0.624706 0.423653
O O13 0.796345 0.639198 0.149000
O O14 0.156375 0.500000 0.500000
O O15 0.187074 0.618746 0.674264
O O16 0.070655 0.538862 0.750127
O O17 0.834375 0.253611 0.022770
#
# Coordination Sequence:
#
# PCOD8159036 Si02
#       8
#     8   8   8   8   8   4   8   8
#     4  10  24  44  67  99 139 182 235 293 366 429
#     4  12  26  44  70 107 141 187 240 292 355 434
#     4  10  23  40  70  99 138 184 231 299 356 425
#     4  10  23  42  64 102 139 177 241 296 348 436
#     4  10  23  41  68 100 137 192 232 293 364 433
#     4  12  28  44  70  98 150 186 230 296 368 426
#     4  10  21  44  70  97 141 185 236 299 360 432
#     4  10  20  42  68  99 137 186 239 292 367 426
#
# _framework density 23.134457999999999
#
# number of rings (size 3 to 8) (size 9 to 14) (size 15 to 20)
#    0.000    1.600    1.333    2.400    9.333    4.267 
#    2.400    0.000    0.000    0.000    0.000    0.000 
#    0.000    0.000    0.000    0.000    0.000    0.000 
#
# Total GULP energy -372015.838743 kJ/mol
# GULP energy per Si atom -12400.527958 kJ/mol
# Density = 2.308180 g / cm^3
# Si number density = 23.134458 Si / 1000 Ang^3
#
#
#
# Elastic Constant Matrix: (Units=GPa)
#
#
# Indices 1 2 3 4 5 6 
#
# 1 113.7064 49.4777 20.3133 0.0000 0.0000 0.0000
# 2 49.4777 154.7224 7.8294 0.0000 0.0000 0.0000
# 3 20.3133 7.8294 50.9423 0.0000 0.0000 0.0000
# 4 0.0000 0.0000 0.0000 -13.7178 0.0000 0.0000
# 5 0.0000 0.0000 0.0000 0.0000 27.6494 0.0000
# 6 0.0000 0.0000 0.0000 0.0000 0.0000 44.3806
#
#
#
# Elastic Compliance Matrix: (Units=1/GPa)
#
#
# Indices 1 2 3 4 5 6 
#
# 1 0.010916 -0.003296 -0.003846 0.000000 0.000000 0.000000
# 2 -0.003296 0.007509 0.000160 0.000000 0.000000 0.000000
# 3 -0.003846 0.000160 0.021139 0.000000 0.000000 0.000000
# 4 0.000000 0.000000 0.000000 -0.072898 0.000000 0.000000
# 5 0.000000 0.000000 0.000000 0.000000 0.036167 0.000000
# 6 0.000000 0.000000 0.000000 0.000000 0.000000 0.022532
#
#
# Mechanical properties :
#
#
# Convention : Reuss Voigt Hill
#
# Bulk Modulus (GPa) = 39.06237 52.73464 45.89850
# Shear Modulus (GPa) = 104.46447 27.77915 66.12181
#
# Velocity S-wave (km/s) = 6.72706 3.46897 5.35197
# Velocity P-wave (km/s) = 8.78973 6.23613 7.62066
#
# Compressibility (1/GPa) = 0.02560009
#
# Stress axis : x y z
#
# Youngs Moduli (GPa) = 91.60916 133.17132 47.30577
#
# Poissons Ratio (x) = 0.43895 0.18195
# Poissons Ratio (y) = 0.30195 -0.00758
# Poissons Ratio (z) = 0.35234 -0.02134
#
# Static dielectric constant tensor:
#      x y z
#    x 4.614940 0.000000 0.000000 
#    y 0.000000 4.597940 0.000000 
#    z 0.000000 0.000000 3.954730 
# 
# 
# High freq. dielectric constant tensor:
#      x y z
#    x 1.923250 0.000000 0.000000 
#    y 0.000000 1.923280 0.000000 
#    z 0.000000 0.000000 1.896920 
# 
# From -- ./inp_files/9586.got.cif
#   From: 2010.03.12/outbox.cif.g09.slc.cpg/sg20_5_cif.got.tgz:9586.got - 2010.04.14 01:38:04.
