data_PCOD8159102
_publ_section_title
;
Structure prediction by ZEFSAII (Michael W. Deem and Ramdas Pophale) SiO2 
 PCOD8159102
Probable space group: C 2 2 21
;
_chemical_formula_sum "Si O2"
_cell_formula_units_Z 48
_cell_length_a 27.271843
_cell_length_b 5.221593
_cell_length_c 18.117590
_cell_angle_alpha 90.000000
_cell_angle_beta 90.000000
_cell_angle_gamma 90.000000
_cell_volume 2579.989467
_symmetry_space_group_name_H-M "C 2 2 21"
_symmetry_group_IT_number 20
_symmetry_cell_setting 'orthorhombic'
loop_
_space_group_symop_operation_xyz
x,y,z
-x,-y,1/2+z
x,-y,-z
-x,y,1/2-z
1/2+x,1/2+y,z
1/2-x,1/2-y,1/2+z
1/2+x,1/2-y,-z
1/2-x,1/2+y,1/2-z
loop_
_atom_site_type_symbol
_atom_site_label
_atom_site_fract_x
_atom_site_fract_y
_atom_site_fract_z
Si Si1 0.687505 0.880333 0.223838
Si Si2 0.472966 0.000508 0.912541
Si Si3 0.979528 0.006277 0.168008
Si Si4 0.777085 0.122146 0.663981
Si Si5 0.797134 0.745544 0.954886
Si Si6 0.383634 0.765520 0.152276
O O1 0.734915 0.881438 0.275184
O O2 0.691011 0.637176 0.168839
O O3 0.637716 0.874799 0.271306
O O4 0.686326 0.139690 0.176432
O O5 0.500827 0.244298 0.875461
O O6 0.414997 0.017714 0.891377
O O7 0.495423 0.743397 0.877794
O O8 0.480374 0.000000 0.000000
O O9 0.000000 0.990915 0.250000
O O10 0.920004 0.028378 0.170682
O O11 0.752497 0.149989 0.584140
O O12 0.839085 0.834095 0.897882
O O13 0.816729 0.500000 0.000000
O O14 0.784324 0.000000 0.000000
#
# Coordination Sequence:
#
# PCOD8159102 Si02
#       6
#     8   8   8   8   8   8
#     4   9  17  31  48  70 101 137 180 211 254 303
#     4  10  21  35  56  83 117 146 178 222 290 349
#     4  10  22  37  55  81 118 150 185 227 283 345
#     4   9  18  31  46  68 103 141 174 212 249 313
#     4  11  22  32  50  78 114 143 172 218 276 337
#     4   9  23  30  57  80 113 139 181 222 284 330
#
# _framework density 18.604725999999999
#
# number of rings (size 3 to 8) (size 9 to 14) (size 15 to 20)
#    1.000    1.333    0.000    2.500    7.000    2.667 
#    0.000    0.000    0.000    0.000    0.000   11.667 
#    0.000    0.000    0.000    0.000    0.000    0.000 
#
# Total GULP energy -297422.046868 kJ/mol
# GULP energy per Si atom -12392.585286 kJ/mol
# Density = 1.856238 g / cm^3
# Si number density = 18.604726 Si / 1000 Ang^3
#
#
#
# Elastic Constant Matrix: (Units=GPa)
#
#
# Indices 1 2 3 4 5 6 
#
# 1 20.6456 16.9306 38.7181 0.0000 0.0000 0.0000
# 2 16.9306 138.4227 50.4870 0.0000 0.0000 0.0000
# 3 38.7181 50.4870 118.4163 0.0000 0.0000 0.0000
# 4 0.0000 0.0000 0.0000 32.6531 0.0000 0.0000
# 5 0.0000 0.0000 0.0000 0.0000 23.2854 0.0000
# 6 0.0000 0.0000 0.0000 0.0000 0.0000 12.0996
#
#
#
# Elastic Compliance Matrix: (Units=1/GPa)
#
#
# Indices 1 2 3 4 5 6 
#
# 1 0.125241 -0.000453 -0.040756 0.000000 0.000000 0.000000
# 2 -0.000453 0.008556 -0.003500 0.000000 0.000000 0.000000
# 3 -0.040756 -0.003500 0.023263 0.000000 0.000000 0.000000
# 4 0.000000 0.000000 0.000000 0.030625 0.000000 0.000000
# 5 0.000000 0.000000 0.000000 0.000000 0.042945 0.000000
# 6 0.000000 0.000000 0.000000 0.000000 0.000000 0.082648
#
#
# Mechanical properties :
#
#
# Convention : Reuss Voigt Hill
#
# Bulk Modulus (GPa) = 14.78380 54.41733 34.60057
# Shear Modulus (GPa) = 11.75795 25.03088 18.39442
#
# Velocity S-wave (km/s) = 2.51666 3.67195 3.14776
# Velocity P-wave (km/s) = 4.05072 6.87680 5.64352
#
# Compressibility (1/GPa) = 0.06764161
#
# Stress axis : x y z
#
# Youngs Moduli (GPa) = 7.98458 116.87507 42.98705
#
# Poissons Ratio (x) = 0.05298 1.75200
# Poissons Ratio (y) = 0.00362 0.15044
# Poissons Ratio (z) = 0.32542 0.40903
#
# Static dielectric constant tensor:
#      x y z
#    x 2.968040 0.000000 0.000000 
#    y 0.000000 3.537700 0.000000 
#    z 0.000000 0.000000 3.308310 
# 
# 
# High freq. dielectric constant tensor:
#      x y z
#    x 1.671630 0.000000 0.000000 
#    y 0.000000 1.733560 0.000000 
#    z 0.000000 0.000000 1.712430 
# 
# From -- ./inp_files/22250.got.cif
#   From: 2010.03.12/outbox.cif.g09.slc.cpg/sg20_12_cif.got.tgz:22250.got - 2010.04.14 01:38:04.
