data_PCOD8159329
_publ_section_title
;
Structure prediction by ZEFSAII (Michael W. Deem and Ramdas Pophale) SiO2 
 PCOD8159329
Probable space group: C 2 2 21
;
_chemical_formula_sum "Si O2"
_cell_formula_units_Z 48
_cell_length_a 20.547691
_cell_length_b 8.498511
_cell_length_c 12.871430
_cell_angle_alpha 90.000000
_cell_angle_beta 90.000000
_cell_angle_gamma 90.000000
_cell_volume 2247.670606
_symmetry_space_group_name_H-M "C 2 2 21"
_symmetry_group_IT_number 20
_symmetry_cell_setting 'orthorhombic'
loop_
_space_group_symop_operation_xyz
x,y,z
-x,-y,1/2+z
x,-y,-z
-x,y,1/2-z
1/2+x,1/2+y,z
1/2-x,1/2-y,1/2+z
1/2+x,1/2-y,-z
1/2-x,1/2+y,1/2-z
loop_
_atom_site_type_symbol
_atom_site_label
_atom_site_fract_x
_atom_site_fract_y
_atom_site_fract_z
Si Si1 0.352578 0.156680 0.902122
Si Si2 0.403635 0.322343 0.517087
Si Si3 0.313001 0.205127 0.685058
Si Si4 0.499372 0.121645 0.861535
Si Si5 0.110755 0.386462 0.826488
Si Si6 0.324347 0.816825 0.874477
O O1 0.333508 0.261800 0.801954
O O2 0.426021 0.088532 0.896039
O O3 0.307244 0.000855 0.894476
O O4 0.344032 0.251128 0.010897
O O5 0.425533 0.500000 0.500000
O O6 0.348226 0.320593 0.604679
O O7 0.467529 0.228170 0.551696
O O8 0.374751 0.244168 0.413077
O O9 0.236219 0.219293 0.669729
O O10 0.335776 0.025927 0.663946
O O11 0.500000 0.211288 0.750000
O O12 0.538816 0.958174 0.844163
O O13 0.118498 0.304984 0.712843
#
# Coordination Sequence:
#
# PCOD8159329 Si02
#       6
#     8   8   8   8   8   8
#     4  10  22  40  67  98 133 176 219 278 343 398
#     4  11  25  40  68  96 131 182 227 284 337 399
#     4  10  21  40  64  93 135 176 219 274 329 409
#     4  11  19  43  71  96 130 172 231 277 345 410
#     4  10  23  40  69  99 128 183 224 278 343 412
#     4  10  22  35  64 104 132 167 224 276 326 407
#
# _framework density 21.355440999999999
#
# number of rings (size 3 to 8) (size 9 to 14) (size 15 to 20)
#    0.000    1.667    5.000    2.000    9.333    1.333 
#    0.000    2.500    7.333    0.000    0.000    0.000 
#    0.000    0.000    0.000    0.000    0.000    0.000 
#
# Total GULP energy -297417.565605 kJ/mol
# GULP energy per Si atom -12392.398567 kJ/mol
# Density = 2.130684 g / cm^3
# Si number density = 21.355441 Si / 1000 Ang^3
#
#
#
# Elastic Constant Matrix: (Units=GPa)
#
#
# Indices 1 2 3 4 5 6 
#
# 1 123.0180 28.7422 55.0288 0.0000 0.0000 0.0000
# 2 28.7422 55.1314 45.2191 0.0000 0.0000 0.0000
# 3 55.0288 45.2191 218.8279 0.0000 0.0000 0.0000
# 4 0.0000 0.0000 0.0000 12.7028 0.0000 0.0000
# 5 0.0000 0.0000 0.0000 0.0000 30.7547 0.0000
# 6 0.0000 0.0000 0.0000 0.0000 0.0000 8.7497
#
#
#
# Elastic Compliance Matrix: (Units=1/GPa)
#
#
# Indices 1 2 3 4 5 6 
#
# 1 0.009748 -0.003698 -0.001687 0.000000 0.000000 0.000000
# 2 -0.003698 0.023243 -0.003873 0.000000 0.000000 0.000000
# 3 -0.001687 -0.003873 0.005794 0.000000 0.000000 0.000000
# 4 0.000000 0.000000 0.000000 0.078723 0.000000 0.000000
# 5 0.000000 0.000000 0.000000 0.000000 0.032515 0.000000
# 6 0.000000 0.000000 0.000000 0.000000 0.000000 0.114289
#
#
# Mechanical properties :
#
#
# Convention : Reuss Voigt Hill
#
# Bulk Modulus (GPa) = 49.33704 72.77303 61.05504
# Shear Modulus (GPa) = 17.26610 28.30728 22.78669
#
# Velocity S-wave (km/s) = 2.84652 3.64473 3.27007
# Velocity P-wave (km/s) = 5.82722 7.20161 6.55056
#
# Compressibility (1/GPa) = 0.02026875
#
# Stress axis : x y z
#
# Youngs Moduli (GPa) = 102.58970 43.02344 172.58091
#
# Poissons Ratio (x) = 0.15910 0.29115
# Poissons Ratio (y) = 0.37938 0.66842
# Poissons Ratio (z) = 0.17307 0.16663
#
# Static dielectric constant tensor:
#      x y z
#    x 3.719030 0.000000 0.000000 
#    y 0.000000 3.298840 0.000000 
#    z 0.000000 0.000000 4.632740 
# 
# 
# High freq. dielectric constant tensor:
#      x y z
#    x 1.827190 0.000000 0.000000 
#    y 0.000000 1.778730 0.000000 
#    z 0.000000 0.000000 1.875120 
# 
# From -- ./inp_files/21662.got.cif
#   From: 2010.03.12/outbox.cif.g09.slc.cpg/sg20_11_cif.got.tgz:21662.got - 2010.04.14 01:38:04.
