data_PCOD8159941
_publ_section_title
;
Structure prediction by ZEFSAII (Michael W. Deem and Ramdas Pophale) SiO2 
 PCOD8159941
Probable space group: C 2 2 21
;
_chemical_formula_sum "Si O2"
_cell_formula_units_Z 32
_cell_length_a 21.371997
_cell_length_b 7.951334
_cell_length_c 7.899833
_cell_angle_alpha 90.000000
_cell_angle_beta 90.000000
_cell_angle_gamma 90.000000
_cell_volume 1342.465123
_symmetry_space_group_name_H-M "C 2 2 21"
_symmetry_group_IT_number 20
_symmetry_cell_setting 'orthorhombic'
loop_
_space_group_symop_operation_xyz
x,y,z
-x,-y,1/2+z
x,-y,-z
-x,y,1/2-z
1/2+x,1/2+y,z
1/2-x,1/2-y,1/2+z
1/2+x,1/2-y,-z
1/2-x,1/2+y,1/2-z
loop_
_atom_site_type_symbol
_atom_site_label
_atom_site_fract_x
_atom_site_fract_y
_atom_site_fract_z
Si Si1 0.290871 0.910513 0.181813
Si Si2 0.893351 0.196781 0.030452
Si Si3 0.000000 0.856103 0.750000
Si Si4 0.094707 0.000000 0.000000
Si Si5 0.835176 0.734086 0.303981
O O1 0.340556 0.759114 0.162053
O O2 0.226405 0.836463 0.253914
O O3 0.314865 0.039506 0.328902
O O4 0.280489 0.000000 0.000000
O O5 0.962124 0.248249 0.106727
O O6 0.885249 0.282234 0.848575
O O7 0.887518 0.000000 0.000000
O O8 0.947125 0.973039 0.665632
O O9 0.135558 0.169708 0.966118
#
# Coordination Sequence:
#
# PCOD8159941 Si02
#       5
#     8   8   4   4   8
#     4  10  23  41  68 109 141 182 229 297 361 421
#     4  11  22  42  67  96 136 183 233 291 347 427
#     4  12  24  42  66  98 132 192 242 284 354 422
#     4  12  22  42  68 100 134 190 238 300 344 430
#     4  11  22  41  69 104 140 181 238 293 365 418
#
# _framework density 23.836745000000001
#
# number of rings (size 3 to 8) (size 9 to 14) (size 15 to 20)
#    0.000    1.000    5.000    1.500    0.000    0.000 
#    0.000   15.000    0.000    0.000    0.000    0.000 
#    0.000    0.000    0.000    0.000    0.000    0.000 
#
# Total GULP energy -198258.985922 kJ/mol
# GULP energy per Si atom -12391.186620 kJ/mol
# Density = 2.378249 g / cm^3
# Si number density = 23.836745 Si / 1000 Ang^3
#
#
#
# Elastic Constant Matrix: (Units=GPa)
#
#
# Indices 1 2 3 4 5 6 
#
# 1 144.4580 54.5777 45.9434 0.0000 0.0000 0.0000
# 2 54.5777 97.6736 33.5414 0.0000 0.0000 0.0000
# 3 45.9434 33.5414 83.4635 0.0000 0.0000 0.0000
# 4 0.0000 0.0000 0.0000 37.5575 0.0000 0.0000
# 5 0.0000 0.0000 0.0000 0.0000 33.8791 0.0000
# 6 0.0000 0.0000 0.0000 0.0000 0.0000 23.6762
#
#
#
# Elastic Compliance Matrix: (Units=1/GPa)
#
#
# Indices 1 2 3 4 5 6 
#
# 1 0.009645 -0.004137 -0.003647 0.000000 0.000000 0.000000
# 2 -0.004137 0.013652 -0.003209 0.000000 0.000000 0.000000
# 3 -0.003647 -0.003209 0.015278 0.000000 0.000000 0.000000
# 4 0.000000 0.000000 0.000000 0.026626 0.000000 0.000000
# 5 0.000000 0.000000 0.000000 0.000000 0.029517 0.000000
# 6 0.000000 0.000000 0.000000 0.000000 0.000000 0.042236
#
#
# Mechanical properties :
#
#
# Convention : Reuss Voigt Hill
#
# Bulk Modulus (GPa) = 60.27837 65.96889 63.12363
# Shear Modulus (GPa) = 30.40064 31.79140 31.09602
#
# Velocity S-wave (km/s) = 3.57510 3.65597 3.61576
# Velocity P-wave (km/s) = 6.51036 6.74958 6.63105
#
# Compressibility (1/GPa) = 0.01658970
#
# Stress axis : x y z
#
# Youngs Moduli (GPa) = 103.67696 73.24962 65.45261
#
# Poissons Ratio (x) = 0.30306 0.23869
# Poissons Ratio (y) = 0.42894 0.21003
# Poissons Ratio (z) = 0.37808 0.23505
#
# Static dielectric constant tensor:
#      x y z
#    x 4.585890 0.000000 0.000000 
#    y 0.000000 4.351280 0.000000 
#    z 0.000000 0.000000 4.526860 
# 
# 
# High freq. dielectric constant tensor:
#      x y z
#    x 1.948690 0.000000 0.000000 
#    y 0.000000 1.923870 0.000000 
#    z 0.000000 0.000000 1.942590 
# 
# From -- ./inp_files/9810.got.cif
#   From: 2010.03.12/outbox.cif.g09.slc.cpg/sg20_5_cif.got.tgz:9810.got - 2010.04.14 01:38:04.
