data_PCOD8159824
_publ_section_title
;
Structure prediction by ZEFSAII (Michael W. Deem and Ramdas Pophale) SiO2 
 PCOD8159824
Probable space group: C 2 2 21
;
_chemical_formula_sum "Si O2"
_cell_formula_units_Z 56
_cell_length_a 23.758074
_cell_length_b 14.590576
_cell_length_c 7.776777
_cell_angle_alpha 90.000000
_cell_angle_beta 90.000000
_cell_angle_gamma 90.000000
_cell_volume 2695.772964
_symmetry_space_group_name_H-M "C 2 2 21"
_symmetry_group_IT_number 20
_symmetry_cell_setting 'orthorhombic'
loop_
_space_group_symop_operation_xyz
x,y,z
-x,-y,1/2+z
x,-y,-z
-x,y,1/2-z
1/2+x,1/2+y,z
1/2-x,1/2-y,1/2+z
1/2+x,1/2-y,-z
1/2-x,1/2+y,1/2-z
loop_
_atom_site_type_symbol
_atom_site_label
_atom_site_fract_x
_atom_site_fract_y
_atom_site_fract_z
Si Si1 0.548953 0.420982 0.868362
Si Si2 0.169522 0.092286 0.105744
Si Si3 0.955643 0.585341 0.887423
Si Si4 0.846391 0.286395 0.534492
Si Si5 0.792008 0.397464 0.822669
Si Si6 0.525240 0.760378 0.933008
Si Si7 0.832820 0.400644 0.205026
O O1 0.500000 0.460829 0.750000
O O2 0.611091 0.405431 0.781475
O O3 0.563237 0.500000 0.000000
O O4 0.524300 0.329213 0.949712
O O5 0.225343 0.100818 0.220969
O O6 0.164815 0.178202 0.976334
O O7 0.177936 0.000000 0.000000
O O8 0.899003 0.621268 0.801742
O O9 0.000000 0.547939 0.750000
O O10 0.936863 0.500000 0.000000
O O11 0.981413 0.667658 0.993449
O O12 0.817678 0.316966 0.710671
O O13 0.912873 0.305381 0.563986
O O14 0.816946 0.338794 0.371367
O O15 0.820356 0.492471 0.761398
O O16 0.802008 0.374064 0.025522
O O17 0.500000 0.731656 0.750000
#
# Coordination Sequence:
#
# PCOD8159824 Si02
#       7
#     8   8   8   8   8   8   8
#     4  10  22  43  70  95 127 166 214 273 339 391
#     4  10  23  45  68  91 132 171 213 285 334 379
#     4  12  23  36  59  91 131 175 213 258 323 390
#     4  11  25  41  67  98 127 177 223 272 323 398
#     4  11  23  43  65  94 132 173 225 266 328 391
#     4  11  23  39  62  93 133 170 218 268 324 391
#     4  11  23  42  66  91 135 177 215 275 325 381
#
# _framework density 20.773264000000001
#
# number of rings (size 3 to 8) (size 9 to 14) (size 15 to 20)
#    0.000    1.143    4.286    2.571    6.000    0.000 
#    0.000    1.429    0.000    0.000    0.000    0.000 
#    0.000    0.000    0.000    0.000    0.000    0.000 
#
# Total GULP energy -347044.586960 kJ/mol
# GULP energy per Si atom -12394.449534 kJ/mol
# Density = 2.072598 g / cm^3
# Si number density = 20.773264 Si / 1000 Ang^3
#
#
#
# Elastic Constant Matrix: (Units=GPa)
#
#
# Indices 1 2 3 4 5 6 
#
# 1 155.5227 23.9436 22.7492 0.0000 0.0000 0.0000
# 2 23.9436 92.1258 12.6104 0.0000 0.0000 0.0000
# 3 22.7492 12.6104 66.9380 0.0000 0.0000 0.0000
# 4 0.0000 0.0000 0.0000 20.1041 0.0000 0.0000
# 5 0.0000 0.0000 0.0000 0.0000 25.5746 0.0000
# 6 0.0000 0.0000 0.0000 0.0000 0.0000 19.1429
#
#
#
# Elastic Compliance Matrix: (Units=1/GPa)
#
#
# Indices 1 2 3 4 5 6 
#
# 1 0.006969 -0.001526 -0.002081 0.000000 0.000000 0.000000
# 2 -0.001526 0.011476 -0.001643 0.000000 0.000000 0.000000
# 3 -0.002081 -0.001643 0.015956 0.000000 0.000000 0.000000
# 4 0.000000 0.000000 0.000000 0.049741 0.000000 0.000000
# 5 0.000000 0.000000 0.000000 0.000000 0.039101 0.000000
# 6 0.000000 0.000000 0.000000 0.000000 0.000000 0.052239
#
#
# Mechanical properties :
#
#
# Convention : Reuss Voigt Hill
#
# Bulk Modulus (GPa) = 41.84052 48.13256 44.98654
# Shear Modulus (GPa) = 25.77969 29.98320 27.88145
#
# Velocity S-wave (km/s) = 3.52661 3.80327 3.66755
# Velocity P-wave (km/s) = 6.06365 6.51976 6.29584
#
# Compressibility (1/GPa) = 0.02390028
#
# Stress axis : x y z
#
# Youngs Moduli (GPa) = 143.48564 87.13541 62.67237
#
# Poissons Ratio (x) = 0.13301 0.13042
# Poissons Ratio (y) = 0.21903 0.10299
# Poissons Ratio (z) = 0.29859 0.14318
#
# Static dielectric constant tensor:
#      x y z
#    x 4.132080 0.000000 0.000000 
#    y 0.000000 3.608980 0.000000 
#    z 0.000000 0.000000 3.732890 
# 
# 
# High freq. dielectric constant tensor:
#      x y z
#    x 1.834560 0.000000 0.000000 
#    y 0.000000 1.821660 0.000000 
#    z 0.000000 0.000000 1.785230 
# 
# From -- ./inp_files/10219.got.cif
#   From: 2010.03.12/outbox.cif.g09.slc.cpg/sg20_6_cif.got.tgz:10219.got - 2010.04.14 01:38:04.
