data_PCOD8159105
_publ_section_title
;
Structure prediction by ZEFSAII (Michael W. Deem and Ramdas Pophale) SiO2 
 PCOD8159105
Probable space group: C 2 2 21
;
_chemical_formula_sum "Si O2"
_cell_formula_units_Z 52
_cell_length_a 10.876522
_cell_length_b 15.319056
_cell_length_c 16.369071
_cell_angle_alpha 90.000000
_cell_angle_beta 90.000000
_cell_angle_gamma 90.000000
_cell_volume 2727.382684
_symmetry_space_group_name_H-M "C 2 2 21"
_symmetry_group_IT_number 20
_symmetry_cell_setting 'orthorhombic'
loop_
_space_group_symop_operation_xyz
x,y,z
-x,-y,1/2+z
x,-y,-z
-x,y,1/2-z
1/2+x,1/2+y,z
1/2-x,1/2-y,1/2+z
1/2+x,1/2-y,-z
1/2-x,1/2+y,1/2-z
loop_
_atom_site_type_symbol
_atom_site_label
_atom_site_fract_x
_atom_site_fract_y
_atom_site_fract_z
Si Si1 0.744744 0.841011 0.796561
Si Si2 0.971336 0.653493 0.591145
Si Si3 0.886179 0.245322 0.563804
Si Si4 0.899962 0.674898 0.139185
Si Si5 0.075350 0.484348 0.827026
Si Si6 0.276378 0.897192 0.009010
Si Si7 0.000000 0.770116 0.750000
O O1 0.719449 0.789599 0.880352
O O2 0.653311 0.801248 0.727390
O O3 0.708865 0.943886 0.803569
O O4 0.885742 0.832993 0.770710
O O5 0.895388 0.700903 0.520554
O O6 0.902271 0.562082 0.609435
O O7 0.969489 0.711749 0.671984
O O8 0.108976 0.627668 0.565769
O O9 0.846088 0.145470 0.547717
O O10 0.020411 0.242677 0.606879
O O11 0.789783 0.648328 0.079320
O O12 0.996234 0.594683 0.135520
O O13 0.000000 0.523016 0.750000
O O14 0.257312 0.000000 0.000000
#
# Coordination Sequence:
#
# PCOD8159105 Si02
#       7
#     8   8   8   8   8   8   4
#     4  10  21  37  60  89 124 158 204 251 314 364
#     4  11  21  35  62  92 119 156 207 256 303 361
#     4  10  21  35  57  93 122 155 202 254 310 364
#     4   9  19  35  60  87 118 159 199 253 305 359
#     4   9  17  34  59  93 112 150 206 255 293 355
#     4  11  20  35  59  93 122 154 206 259 306 362
#     4  12  22  38  60  92 124 158 204 258 306 372
#
# _framework density 19.065898000000001
#
# number of rings (size 3 to 8) (size 9 to 14) (size 15 to 20)
#    0.000    1.846    3.846    2.308    0.000    0.000 
#    0.000    0.000    0.000   11.077    2.000    0.000 
#    0.000    0.000    0.000    0.000    0.000    0.000 
#
# Total GULP energy -322296.686671 kJ/mol
# GULP energy per Si atom -12396.026410 kJ/mol
# Density = 1.902250 g / cm^3
# Si number density = 19.065898 Si / 1000 Ang^3
#
#
#
# Elastic Constant Matrix: (Units=GPa)
#
#
# Indices 1 2 3 4 5 6 
#
# 1 103.4153 67.3257 44.9221 0.0000 0.0000 0.0000
# 2 67.3257 99.7342 45.7976 0.0000 0.0000 0.0000
# 3 44.9221 45.7976 118.8297 0.0000 0.0000 0.0000
# 4 0.0000 0.0000 0.0000 25.0375 0.0000 0.0000
# 5 0.0000 0.0000 0.0000 0.0000 27.1013 0.0000
# 6 0.0000 0.0000 0.0000 0.0000 0.0000 29.3984
#
#
#
# Elastic Compliance Matrix: (Units=1/GPa)
#
#
# Indices 1 2 3 4 5 6 
#
# 1 0.017870 -0.010888 -0.002559 0.000000 0.000000 0.000000
# 2 -0.010888 0.018816 -0.003136 0.000000 0.000000 0.000000
# 3 -0.002559 -0.003136 0.010592 0.000000 0.000000 0.000000
# 4 0.000000 0.000000 0.000000 0.039940 0.000000 0.000000
# 5 0.000000 0.000000 0.000000 0.000000 0.036899 0.000000
# 6 0.000000 0.000000 0.000000 0.000000 0.000000 0.034015
#
#
# Mechanical properties :
#
#
# Convention : Reuss Voigt Hill
#
# Bulk Modulus (GPa) = 70.86299 70.89666 70.87983
# Shear Modulus (GPa) = 25.51001 27.23634 26.37318
#
# Velocity S-wave (km/s) = 3.66183 3.78370 3.72326
# Velocity P-wave (km/s) = 7.42474 7.50695 7.46596
#
# Compressibility (1/GPa) = 0.01411174
#
# Stress axis : x y z
#
# Youngs Moduli (GPa) = 55.96107 53.14500 94.41532
#
# Poissons Ratio (x) = 0.57863 0.24163
# Poissons Ratio (y) = 0.60929 0.29609
# Poissons Ratio (z) = 0.14322 0.16666
#
# Static dielectric constant tensor:
#      x y z
#    x 3.429120 0.000000 0.000000 
#    y 0.000000 3.342900 0.000000 
#    z 0.000000 0.000000 3.775000 
# 
# 
# High freq. dielectric constant tensor:
#      x y z
#    x 1.717870 0.000000 0.000000 
#    y 0.000000 1.716830 0.000000 
#    z 0.000000 0.000000 1.763340 
# 
# From -- ./inp_files/24371.got.cif
#   From: 2010.03.12/outbox.cif.g09.slc.cpg/sg20_13_cif.got.tgz:24371.got - 2010.04.14 01:38:04.
