data_PCOD8159749
_publ_section_title
;
Structure prediction by ZEFSAII (Michael W. Deem and Ramdas Pophale) SiO2 
 PCOD8159749
Probable space group: C 2 2 21
;
_chemical_formula_sum "Si O2"
_cell_formula_units_Z 48
_cell_length_a 14.493958
_cell_length_b 4.942664
_cell_length_c 29.331524
_cell_angle_alpha 90.000000
_cell_angle_beta 90.000000
_cell_angle_gamma 90.000000
_cell_volume 2101.274138
_symmetry_space_group_name_H-M "C 2 2 21"
_symmetry_group_IT_number 20
_symmetry_cell_setting 'orthorhombic'
loop_
_space_group_symop_operation_xyz
x,y,z
-x,-y,1/2+z
x,-y,-z
-x,y,1/2-z
1/2+x,1/2+y,z
1/2-x,1/2-y,1/2+z
1/2+x,1/2-y,-z
1/2-x,1/2+y,1/2-z
loop_
_atom_site_type_symbol
_atom_site_label
_atom_site_fract_x
_atom_site_fract_y
_atom_site_fract_z
Si Si1 0.106911 0.014243 0.598128
Si Si2 0.609896 0.007552 0.654587
Si Si3 0.806433 0.585755 0.750910
Si Si4 0.110434 0.025599 0.900040
Si Si5 0.753570 0.750410 0.971022
Si Si6 0.102915 0.490621 0.157130
O O1 0.125046 0.815830 0.640569
O O2 0.161979 0.892012 0.555679
O O3 0.149586 0.300883 0.615766
O O4 0.997965 0.042513 0.586251
O O5 0.650420 0.950669 0.704278
O O6 0.503540 0.944376 0.657370
O O7 0.721472 0.391988 0.737707
O O8 0.874336 0.595408 0.708175
O O9 0.170860 0.107838 0.943396
O O10 0.145576 0.225643 0.859496
O O11 0.133157 0.729001 0.880738
O O12 0.796368 0.500000 0.000000
O O13 0.710247 0.000000 0.000000
#
# Coordination Sequence:
#
# PCOD8159749 Si02
#       6
#     8   8   8   8   8   8
#     4  10  23  43  69  96 130 177 220 272 336 404
#     4  10  22  42  64  91 132 179 220 265 324 387
#     4  12  25  36  59 102 132 172 222 272 321 378
#     4  10  23  43  69  96 130 177 220 272 336 404
#     4  12  26  44  70 104 132 172 220 288 354 410
#     4  10  22  42  64  91 132 179 220 265 324 387
#
# _framework density 22.843283
#
# number of rings (size 3 to 8) (size 9 to 14) (size 15 to 20)
#    0.000    1.333    0.000    4.500    7.000    0.667 
#    0.000    8.333    0.000    0.000    0.000    0.000 
#    0.000    0.000    0.000    0.000    0.000    0.000 
#
# Total GULP energy -297494.227406 kJ/mol
# GULP energy per Si atom -12395.592809 kJ/mol
# Density = 2.279129 g / cm^3
# Si number density = 22.843283 Si / 1000 Ang^3
#
#
#
# Elastic Constant Matrix: (Units=GPa)
#
#
# Indices 1 2 3 4 5 6 
#
# 1 63.7181 42.9432 57.7754 0.0000 0.0000 0.0000
# 2 42.9432 94.7188 21.9914 0.0000 0.0000 0.0000
# 3 57.7754 21.9914 119.0649 0.0000 0.0000 0.0000
# 4 0.0000 0.0000 0.0000 36.5161 0.0000 0.0000
# 5 0.0000 0.0000 0.0000 0.0000 16.8512 0.0000
# 6 0.0000 0.0000 0.0000 0.0000 0.0000 21.7514
#
#
#
# Elastic Compliance Matrix: (Units=1/GPa)
#
#
# Indices 1 2 3 4 5 6 
#
# 1 0.041331 -0.014713 -0.017338 0.000000 0.000000 0.000000
# 2 -0.014713 0.016268 0.004135 0.000000 0.000000 0.000000
# 3 -0.017338 0.004135 0.016048 0.000000 0.000000 0.000000
# 4 0.000000 0.000000 0.000000 0.027385 0.000000 0.000000
# 5 0.000000 0.000000 0.000000 0.000000 0.059343 0.000000
# 6 0.000000 0.000000 0.000000 0.000000 0.000000 0.045974
#
#
# Mechanical properties :
#
#
# Convention : Reuss Voigt Hill
#
# Bulk Modulus (GPa) = 56.13386 58.10243 57.11814
# Shear Modulus (GPa) = 18.64831 25.34320 21.99576
#
# Velocity S-wave (km/s) = 2.86030 3.33444 3.10643
# Velocity P-wave (km/s) = 5.96114 6.34941 6.15834
#
# Compressibility (1/GPa) = 0.01781456
#
# Stress axis : x y z
#
# Youngs Moduli (GPa) = 24.19486 61.46986 62.31196
#
# Poissons Ratio (x) = 0.90441 1.08037
# Poissons Ratio (y) = 0.35598 -0.25764
# Poissons Ratio (z) = 0.41949 -0.25416
#
# Static dielectric constant tensor:
#      x y z
#    x 4.026360 0.000000 0.000000 
#    y 0.000000 4.541900 0.000000 
#    z 0.000000 0.000000 4.114520 
# 
# 
# High freq. dielectric constant tensor:
#      x y z
#    x 1.893650 0.000000 0.000000 
#    y 0.000000 1.926340 0.000000 
#    z 0.000000 0.000000 1.900510 
# 
# From -- ./inp_files/30411.got.cif
#   From: 2010.03.12/outbox.cif.g09.slc.cpg/sg20_16_cif.got.tgz:30411.got - 2010.04.14 01:38:04.
