data_PCOD8159486
_publ_section_title
;
Structure prediction by ZEFSAII (Michael W. Deem and Ramdas Pophale) SiO2 
 PCOD8159486
Probable space group: C 2 2 21
;
_chemical_formula_sum "Si O2"
_cell_formula_units_Z 60
_cell_length_a 11.719091
_cell_length_b 19.798719
_cell_length_c 12.334973
_cell_angle_alpha 90.000000
_cell_angle_beta 90.000000
_cell_angle_gamma 90.000000
_cell_volume 2861.997313
_symmetry_space_group_name_H-M "C 2 2 21"
_symmetry_group_IT_number 20
_symmetry_cell_setting 'orthorhombic'
loop_
_space_group_symop_operation_xyz
x,y,z
-x,-y,1/2+z
x,-y,-z
-x,y,1/2-z
1/2+x,1/2+y,z
1/2-x,1/2-y,1/2+z
1/2+x,1/2-y,-z
1/2-x,1/2+y,1/2-z
loop_
_atom_site_type_symbol
_atom_site_label
_atom_site_fract_x
_atom_site_fract_y
_atom_site_fract_z
Si Si1 0.568144 0.813895 0.961920
Si Si2 0.739274 0.126732 0.614923
Si Si3 0.089944 0.433527 0.566877
Si Si4 0.871756 0.478917 0.261960
Si Si5 0.773357 0.500000 0.500000
Si Si6 0.818377 0.143628 0.019165
Si Si7 0.522991 0.320160 0.131576
Si Si8 0.917201 0.747050 0.849439
O O1 0.521843 0.886547 0.922588
O O2 0.560589 0.758790 0.866181
O O3 0.695038 0.824604 0.007111
O O4 0.493758 0.780867 0.054755
O O5 0.687100 0.105946 0.498928
O O6 0.719821 0.071325 0.708916
O O7 0.872132 0.135281 0.586261
O O8 0.687648 0.195523 0.664556
O O9 0.054137 0.500000 0.500000
O O10 0.131103 0.452138 0.689175
O O11 0.848052 0.489354 0.389918
O O12 0.000000 0.447818 0.250000
O O13 0.690497 0.437136 0.525703
O O14 0.904949 0.165550 0.927100
O O15 0.866107 0.177911 0.129450
O O16 0.500000 0.346208 0.250000
O O17 0.000000 0.752708 0.750000
#
# Coordination Sequence:
#
# PCOD8159486 Si02
#       8
#     8   8   8   8   4   8   8   8
#     4  10  22  39  68  98 132 169 217 287 334 396
#     4  10  21  43  69 103 131 177 222 277 342 407
#     4   9  21  42  69 102 137 167 225 282 345 395
#     4  11  24  40  71 103 133 178 219 292 342 400
#     4  12  28  44  64  98 146 180 234 270 342 424
#     4  11  25  44  63  96 133 176 220 277 331 405
#     4  11  24  43  65  95 135 178 225 271 335 407
#     4  10  22  41  68 100 126 169 224 278 342 400
#
# _framework density 20.964379999999998
#
# number of rings (size 3 to 8) (size 9 to 14) (size 15 to 20)
#    0.000    1.600    1.333    2.000   13.067    1.600 
#    8.400    0.667    0.000    0.000    0.000    0.000 
#    0.000    0.000    0.000    0.000    0.000    0.000 
#
# Total GULP energy -371828.374785 kJ/mol
# GULP energy per Si atom -12394.279159 kJ/mol
# Density = 2.091666 g / cm^3
# Si number density = 20.964380 Si / 1000 Ang^3
#
#
#
# Elastic Constant Matrix: (Units=GPa)
#
#
# Indices 1 2 3 4 5 6 
#
# 1 136.0104 56.9529 36.1890 0.0000 0.0000 0.0000
# 2 56.9529 131.7855 39.4593 0.0000 0.0000 0.0000
# 3 36.1890 39.4593 113.0993 0.0000 0.0000 0.0000
# 4 0.0000 0.0000 0.0000 18.6097 0.0000 0.0000
# 5 0.0000 0.0000 0.0000 0.0000 20.5303 0.0000
# 6 0.0000 0.0000 0.0000 0.0000 0.0000 26.1793
#
#
#
# Elastic Compliance Matrix: (Units=1/GPa)
#
#
# Indices 1 2 3 4 5 6 
#
# 1 0.009278 -0.003485 -0.001753 0.000000 0.000000 0.000000
# 2 -0.003485 0.009782 -0.002298 0.000000 0.000000 0.000000
# 3 -0.001753 -0.002298 0.010204 0.000000 0.000000 0.000000
# 4 0.000000 0.000000 0.000000 0.053736 0.000000 0.000000
# 5 0.000000 0.000000 0.000000 0.000000 0.048709 0.000000
# 6 0.000000 0.000000 0.000000 0.000000 0.000000 0.038198
#
#
# Mechanical properties :
#
#
# Convention : Reuss Voigt Hill
#
# Bulk Modulus (GPa) = 70.45525 71.78863 71.12194
# Shear Modulus (GPa) = 26.35617 29.61677 27.98647
#
# Velocity S-wave (km/s) = 3.54953 3.76269 3.65766
# Velocity P-wave (km/s) = 7.10486 7.29346 7.19978
#
# Compressibility (1/GPa) = 0.01419341
#
# Stress axis : x y z
#
# Youngs Moduli (GPa) = 107.78194 102.22763 97.99713
#
# Poissons Ratio (x) = 0.35624 0.17178
# Poissons Ratio (y) = 0.37559 0.22518
# Poissons Ratio (z) = 0.18893 0.23490
#
# Static dielectric constant tensor:
#      x y z
#    x 3.790200 0.000000 0.000000 
#    y 0.000000 4.220880 0.000000 
#    z 0.000000 0.000000 4.823490 
# 
# 
# High freq. dielectric constant tensor:
#      x y z
#    x 1.822040 0.000000 0.000000 
#    y 0.000000 1.823910 0.000000 
#    z 0.000000 0.000000 1.814970 
# 
# From -- ./inp_files/14366.got.cif
#   From: 2010.03.12/outbox.cif.g09.slc.cpg/sg20_8_cif.got.tgz:14366.got - 2010.04.14 01:38:04.
