data_PCOD8159875
_publ_section_title
;
Structure prediction by ZEFSAII (Michael W. Deem and Ramdas Pophale) SiO2 
 PCOD8159875
Probable space group: C 2 2 21
;
_chemical_formula_sum "Si O2"
_cell_formula_units_Z 28
_cell_length_a 5.244614
_cell_length_b 28.268541
_cell_length_c 7.385820
_cell_angle_alpha 90.000000
_cell_angle_beta 90.000000
_cell_angle_gamma 90.000000
_cell_volume 1095.003843
_symmetry_space_group_name_H-M "C 2 2 21"
_symmetry_group_IT_number 20
_symmetry_cell_setting 'orthorhombic'
loop_
_space_group_symop_operation_xyz
x,y,z
-x,-y,1/2+z
x,-y,-z
-x,y,1/2-z
1/2+x,1/2+y,z
1/2-x,1/2-y,1/2+z
1/2+x,1/2-y,-z
1/2-x,1/2+y,1/2-z
loop_
_atom_site_type_symbol
_atom_site_label
_atom_site_fract_x
_atom_site_fract_y
_atom_site_fract_z
Si Si1 0.199424 0.311866 0.390350
Si Si2 0.497036 0.054599 0.459560
Si Si3 0.002372 0.107031 0.033398
Si Si4 0.000000 0.727177 0.250000
O O1 0.453334 0.343425 0.426603
O O2 0.267372 0.260332 0.312675
O O3 0.000000 0.335614 0.250000
O O4 0.068851 0.307513 0.586530
O O5 0.500000 0.063630 0.250000
O O6 0.766106 0.073231 0.534491
O O7 0.259121 0.084190 0.540417
O O8 0.456181 0.000000 0.500000
O O9 0.000000 0.114559 0.250000
#
# Coordination Sequence:
#
# PCOD8159875 Si02
#       4
#     8   8   8   4
#     4  12  28  47  74 109 149 202 254 312 383 451
#     4  10  22  45  71 106 145 194 243 306 375 446
#     4  10  25  43  75 105 148 196 246 311 373 447
#     4  12  28  48  72 106 150 196 254 316 374 452
#
# _framework density 25.570688000000001
#
# number of rings (size 3 to 8) (size 9 to 14) (size 15 to 20)
#    0.000    1.143    2.857    0.857   14.000    1.143 
#    0.000    0.000    0.000    0.000    0.000    0.000 
#    0.000    0.000    0.000    0.000    0.000    0.000 
#
# Total GULP energy -173617.850410 kJ/mol
# GULP energy per Si atom -12401.275029 kJ/mol
# Density = 2.551249 g / cm^3
# Si number density = 25.570688 Si / 1000 Ang^3
#
#
#
# Elastic Constant Matrix: (Units=GPa)
#
#
# Indices 1 2 3 4 5 6 
#
# 1 168.6469 48.6337 44.4975 0.0000 0.0000 0.0000
# 2 48.6337 116.7855 32.7912 0.0000 0.0000 0.0000
# 3 44.4975 32.7912 116.8639 0.0000 0.0000 0.0000
# 4 0.0000 0.0000 0.0000 26.1174 0.0000 0.0000
# 5 0.0000 0.0000 0.0000 0.0000 26.2524 0.0000
# 6 0.0000 0.0000 0.0000 0.0000 0.0000 158.5768
#
#
#
# Elastic Compliance Matrix: (Units=1/GPa)
#
#
# Indices 1 2 3 4 5 6 
#
# 1 0.007165 -0.002408 -0.002053 0.000000 0.000000 0.000000
# 2 -0.002408 0.010104 -0.001918 0.000000 0.000000 0.000000
# 3 -0.002053 -0.001918 0.009877 0.000000 0.000000 0.000000
# 4 0.000000 0.000000 0.000000 0.038289 0.000000 0.000000
# 5 0.000000 0.000000 0.000000 0.000000 0.038092 0.000000
# 6 0.000000 0.000000 0.000000 0.000000 0.000000 0.006306
#
#
# Mechanical properties :
#
#
# Convention : Reuss Voigt Hill
#
# Bulk Modulus (GPa) = 69.49854 72.68233 71.09044
# Shear Modulus (GPa) = 39.25061 60.61425 49.93243
#
# Velocity S-wave (km/s) = 3.92214 4.87402 4.42375
# Velocity P-wave (km/s) = 6.91006 7.75632 7.34539
#
# Compressibility (1/GPa) = 0.01438879
#
# Stress axis : x y z
#
# Youngs Moduli (GPa) = 139.55830 98.97115 101.24659
#
# Poissons Ratio (x) = 0.23828 0.20784
# Poissons Ratio (y) = 0.33600 0.19423
# Poissons Ratio (z) = 0.28648 0.18986
#
# Static dielectric constant tensor:
#      x y z
#    x 5.003420 0.000000 0.000000 
#    y 0.000000 4.313350 0.000000 
#    z 0.000000 0.000000 4.481040 
# 
# 
# High freq. dielectric constant tensor:
#      x y z
#    x 2.032660 0.000000 0.000000 
#    y 0.000000 2.013780 0.000000 
#    z 0.000000 0.000000 2.031360 
# 
# From -- ./inp_files/5046.got.cif
#   From: 2010.03.12/outbox.cif.g09.slc.cpg/sg20_3_cif.got.tgz:5046.got - 2010.04.14 01:38:04.
