data_PCOD8159950
_publ_section_title
;
Structure prediction by ZEFSAII (Michael W. Deem and Ramdas Pophale) SiO2 
 PCOD8159950
Probable space group: C 2 2 21
;
_chemical_formula_sum "Si O2"
_cell_formula_units_Z 40
_cell_length_a 18.584569
_cell_length_b 11.705968
_cell_length_c 9.509056
_cell_angle_alpha 90.000000
_cell_angle_beta 90.000000
_cell_angle_gamma 90.000000
_cell_volume 2068.698651
_symmetry_space_group_name_H-M "C 2 2 21"
_symmetry_group_IT_number 20
_symmetry_cell_setting 'orthorhombic'
loop_
_space_group_symop_operation_xyz
x,y,z
-x,-y,1/2+z
x,-y,-z
-x,y,1/2-z
1/2+x,1/2+y,z
1/2-x,1/2-y,1/2+z
1/2+x,1/2-y,-z
1/2-x,1/2+y,1/2-z
loop_
_atom_site_type_symbol
_atom_site_label
_atom_site_fract_x
_atom_site_fract_y
_atom_site_fract_z
Si Si1 0.500000 0.375321 0.250000
Si Si2 0.152136 0.335202 0.972767
Si Si3 0.494171 0.158077 0.096063
Si Si4 0.124152 0.500000 0.500000
Si Si5 0.352286 0.577535 0.634888
Si Si6 0.289708 0.966605 0.282032
O O1 0.480609 0.293936 0.116493
O O2 0.569773 0.448316 0.205811
O O3 0.067964 0.367693 0.986094
O O4 0.159821 0.207705 0.914399
O O5 0.193841 0.417355 0.865049
O O6 0.184935 0.355491 0.128079
O O7 0.500000 0.098241 0.250000
O O8 0.426038 0.110570 0.014379
O O9 0.172826 0.528510 0.631921
O O10 0.342331 0.500000 0.500000
O O11 0.295227 0.545136 0.754932
#
# Coordination Sequence:
#
# PCOD8159950 Si02
#       6
#     4   8   8   4   8   8
#     4   8  20  44  54  80 120 168 204 248 306 352
#     4  10  23  42  58  92 124 160 208 249 323 369
#     4   9  18  34  62  81 124 160 193 261 299 366
#     4  12  18  32  60  98 116 156 210 238 328 364
#     4  11  23  41  66  86 124 164 212 261 304 374
#     4  11  23  37  63  92 127 160 196 269 313 374
#
# _framework density 19.335826999999998
#
# number of rings (size 3 to 8) (size 9 to 14) (size 15 to 20)
#    0.600    1.200    3.000    1.200    2.800    1.600 
#    3.600    4.000    0.000    0.000    0.000    0.000 
#    0.000    0.000    0.000    0.000    0.000    0.000 
#
# Total GULP energy -247885.783204 kJ/mol
# GULP energy per Si atom -12394.289160 kJ/mol
# Density = 1.929182 g / cm^3
# Si number density = 19.335827 Si / 1000 Ang^3
#
#
#
# Elastic Constant Matrix: (Units=GPa)
#
#
# Indices 1 2 3 4 5 6 
#
# 1 132.0602 26.4919 57.9800 0.0000 0.0000 0.0000
# 2 26.4919 62.9937 18.2490 0.0000 0.0000 0.0000
# 3 57.9800 18.2490 111.5992 0.0000 0.0000 0.0000
# 4 0.0000 0.0000 0.0000 19.2650 0.0000 0.0000
# 5 0.0000 0.0000 0.0000 0.0000 12.7738 0.0000
# 6 0.0000 0.0000 0.0000 0.0000 0.0000 22.4114
#
#
#
# Elastic Compliance Matrix: (Units=1/GPa)
#
#
# Indices 1 2 3 4 5 6 
#
# 1 0.010297 -0.002919 -0.004872 0.000000 0.000000 0.000000
# 2 -0.002919 0.017491 -0.001344 0.000000 0.000000 0.000000
# 3 -0.004872 -0.001344 0.011712 0.000000 0.000000 0.000000
# 4 0.000000 0.000000 0.000000 0.051908 0.000000 0.000000
# 5 0.000000 0.000000 0.000000 0.000000 0.078285 0.000000
# 6 0.000000 0.000000 0.000000 0.000000 0.000000 0.044620
#
#
# Mechanical properties :
#
#
# Convention : Reuss Voigt Hill
#
# Bulk Modulus (GPa) = 47.10290 56.89944 52.00117
# Shear Modulus (GPa) = 20.86287 24.48550 22.67419
#
# Velocity S-wave (km/s) = 3.28834 3.56241 3.42811
# Velocity P-wave (km/s) = 6.23144 6.81263 6.52850
#
# Compressibility (1/GPa) = 0.02123012
#
# Stress axis : x y z
#
# Youngs Moduli (GPa) = 97.11526 57.17087 85.38424
#
# Poissons Ratio (x) = 0.16688 0.41603
# Poissons Ratio (y) = 0.28347 0.11474
# Poissons Ratio (z) = 0.47318 0.07682
#
# Static dielectric constant tensor:
#      x y z
#    x 3.667890 0.000000 0.000000 
#    y 0.000000 3.372900 0.000000 
#    z 0.000000 0.000000 3.569980 
# 
# 
# High freq. dielectric constant tensor:
#      x y z
#    x 1.763800 0.000000 0.000000 
#    y 0.000000 1.733760 0.000000 
#    z 0.000000 0.000000 1.746500 
# 
# From -- ./inp_files/9145.got.cif
#   From: 2010.03.12/outbox.cif.g09.slc.cpg/sg20_5_cif.got.tgz:9145.got - 2010.04.14 01:38:04.
