data_PCOD8159017
_publ_section_title
;
Structure prediction by ZEFSAII (Michael W. Deem and Ramdas Pophale) SiO2 
 PCOD8159017
Probable space group: C 2 2 21
;
_chemical_formula_sum "Si O2"
_cell_formula_units_Z 64
_cell_length_a 21.881370
_cell_length_b 9.514054
_cell_length_c 14.223890
_cell_angle_alpha 90.000000
_cell_angle_beta 90.000000
_cell_angle_gamma 90.000000
_cell_volume 2961.137041
_symmetry_space_group_name_H-M "C 2 2 21"
_symmetry_group_IT_number 20
_symmetry_cell_setting 'orthorhombic'
loop_
_space_group_symop_operation_xyz
x,y,z
-x,-y,1/2+z
x,-y,-z
-x,y,1/2-z
1/2+x,1/2+y,z
1/2-x,1/2-y,1/2+z
1/2+x,1/2-y,-z
1/2-x,1/2+y,1/2-z
loop_
_atom_site_type_symbol
_atom_site_label
_atom_site_fract_x
_atom_site_fract_y
_atom_site_fract_z
Si Si1 0.432171 0.919514 0.278537
Si Si2 0.769535 0.279800 0.856766
Si Si3 0.696772 0.454814 0.221155
Si Si4 0.977465 0.673889 0.390959
Si Si5 0.555508 0.527233 0.813569
Si Si6 0.890422 0.557515 0.105832
Si Si7 0.801215 0.840373 0.471665
Si Si8 0.576767 0.280517 0.936979
O O1 0.500000 0.871794 0.250000
O O2 0.402654 0.795853 0.340848
O O3 0.433713 0.057515 0.344591
O O4 0.389909 0.934407 0.185265
O O5 0.728346 0.393760 0.799130
O O6 0.773749 0.124855 0.810245
O O7 0.837129 0.336611 0.870409
O O8 0.743492 0.250259 0.961794
O O9 0.623576 0.480325 0.232522
O O10 0.711474 0.338913 0.139335
O O11 0.961398 0.816256 0.339555
O O12 0.972656 0.688249 0.504983
O O13 0.047528 0.639320 0.372143
O O14 0.500000 0.466691 0.750000
O O15 0.554698 0.435893 0.909309
O O16 0.884876 0.500000 0.000000
O O17 0.869419 0.788132 0.487567
O O18 0.792687 0.000000 0.500000
#
# Coordination Sequence:
#
# PCOD8159017 Si02
#       8
#     8   8   8   8   8   8   8   8
#     4  10  22  38  58  94 130 165 213 269 324 396
#     4  11  24  42  68  95 127 177 222 272 328 397
#     4  11  23  45  67  96 131 175 226 275 331 402
#     4  11  21  40  63  94 130 172 215 267 333 401
#     4  12  23  39  64  97 134 175 220 277 339 400
#     4  11  23  40  64  93 133 174 214 266 343 401
#     4  10  20  42  64  91 126 169 220 261 322 402
#     4  12  21  38  65  96 127 170 220 273 330 398
#
# _framework density 21.613320000000002
#
# number of rings (size 3 to 8) (size 9 to 14) (size 15 to 20)
#    0.000    1.000    3.750    6.375    1.750    0.000 
#    0.000    1.875    0.000    0.000    0.000    0.000 
#    0.000    0.000    0.000    0.000    0.000    0.000 
#
# Total GULP energy -396593.937782 kJ/mol
# GULP energy per Si atom -12393.560556 kJ/mol
# Density = 2.156413 g / cm^3
# Si number density = 21.613320 Si / 1000 Ang^3
#
#
#
# Elastic Constant Matrix: (Units=GPa)
#
#
# Indices 1 2 3 4 5 6 
#
# 1 69.0492 5.0031 15.7647 0.0000 0.0000 0.0000
# 2 5.0031 54.8708 5.2985 0.0000 0.0000 0.0000
# 3 15.7647 5.2985 75.7383 0.0000 0.0000 0.0000
# 4 0.0000 0.0000 0.0000 47.2377 0.0000 0.0000
# 5 0.0000 0.0000 0.0000 0.0000 32.4915 0.0000
# 6 0.0000 0.0000 0.0000 0.0000 0.0000 11.2559
#
#
#
# Elastic Compliance Matrix: (Units=1/GPa)
#
#
# Indices 1 2 3 4 5 6 
#
# 1 0.015270 -0.001093 -0.003102 0.000000 0.000000 0.000000
# 2 -0.001093 0.018427 -0.001062 0.000000 0.000000 0.000000
# 3 -0.003102 -0.001062 0.013923 0.000000 0.000000 0.000000
# 4 0.000000 0.000000 0.000000 0.021170 0.000000 0.000000
# 5 0.000000 0.000000 0.000000 0.000000 0.030777 0.000000
# 6 0.000000 0.000000 0.000000 0.000000 0.000000 0.088843
#
#
# Mechanical properties :
#
#
# Convention : Reuss Voigt Hill
#
# Bulk Modulus (GPa) = 26.94894 27.97677 27.46286
# Shear Modulus (GPa) = 23.66405 29.76981 26.71693
#
# Velocity S-wave (km/s) = 3.31249 3.71534 3.51968
# Velocity P-wave (km/s) = 5.20825 5.60154 5.40847
#
# Compressibility (1/GPa) = 0.03710721
#
# Stress axis : x y z
#
# Youngs Moduli (GPa) = 65.48878 54.26884 71.82219
#
# Poissons Ratio (x) = 0.05930 0.22279
# Poissons Ratio (y) = 0.07156 0.07625
# Poissons Ratio (z) = 0.20314 0.05761
#
# Static dielectric constant tensor:
#      x y z
#    x 3.989730 0.000000 0.000000 
#    y 0.000000 3.705890 0.000000 
#    z 0.000000 0.000000 4.787230 
# 
# 
# High freq. dielectric constant tensor:
#      x y z
#    x 1.844630 0.000000 0.000000 
#    y 0.000000 1.836180 0.000000 
#    z 0.000000 0.000000 1.858850 
# 
# From -- ./inp_files/22052.got.cif
#   From: 2010.03.12/outbox.cif.g09.slc.cpg/sg20_12_cif.got.tgz:22052.got - 2010.04.14 01:38:04.
