data_PCOD8159743
_publ_section_title
;
Structure prediction by ZEFSAII (Michael W. Deem and Ramdas Pophale) SiO2 
 PCOD8159743
Probable space group: C 2 2 21
;
_chemical_formula_sum "Si O2"
_cell_formula_units_Z 44
_cell_length_a 5.427864
_cell_length_b 19.126904
_cell_length_c 19.641181
_cell_angle_alpha 90.000000
_cell_angle_beta 90.000000
_cell_angle_gamma 90.000000
_cell_volume 2039.112718
_symmetry_space_group_name_H-M "C 2 2 21"
_symmetry_group_IT_number 20
_symmetry_cell_setting 'orthorhombic'
loop_
_space_group_symop_operation_xyz
x,y,z
-x,-y,1/2+z
x,-y,-z
-x,y,1/2-z
1/2+x,1/2+y,z
1/2-x,1/2-y,1/2+z
1/2+x,1/2-y,-z
1/2-x,1/2+y,1/2-z
loop_
_atom_site_type_symbol
_atom_site_label
_atom_site_fract_x
_atom_site_fract_y
_atom_site_fract_z
Si Si1 0.250803 0.218795 0.077962
Si Si2 0.000000 0.043120 0.250000
Si Si3 0.406243 0.930407 0.105368
Si Si4 0.249990 0.000000 0.500000
Si Si5 0.906210 0.069599 0.394623
Si Si6 0.251020 0.281239 0.422042
Si Si7 0.500000 0.043152 0.750000
O O1 0.260665 0.134945 0.083787
O O2 0.499875 0.250031 0.112835
O O3 0.999888 0.250017 0.112270
O O4 0.249872 0.243320 0.999997
O O5 0.021052 0.087703 0.320076
O O6 0.750008 0.999980 0.253528
O O7 0.239207 0.865095 0.083767
O O8 0.521034 0.912271 0.179917
O O9 0.604573 0.945302 0.047051
O O10 0.250142 0.000026 0.111454
O O11 0.104531 0.945328 0.547068
#
# Coordination Sequence:
#
# PCOD8159743 Si02
#       7
#     8   4   8   4   8   8   4
#     4  10  23  39  61  94 130 169 211 270 332 387
#     4  10  22  42  63  96 137 176 212 272 348 394
#     4  11  24  40  67  99 135 172 228 277 331 401
#     4  12  22  36  72 110 128 166 236 292 318 392
#     4  11  24  40  67  99 135 172 228 277 331 401
#     4  10  23  39  61  94 130 169 211 270 332 387
#     4  10  22  42  63  96 137 176 212 272 348 394
#
# _framework density 21.578012999999999
#
# number of rings (size 3 to 8) (size 9 to 14) (size 15 to 20)
#    0.000    1.455    1.818    2.727   12.727    0.000 
#    0.000    0.909    0.000    2.182    0.000    0.000 
#    0.000    0.000    0.000    0.000    0.000    0.000 
#
# Total GULP energy -272597.931818 kJ/mol
# GULP energy per Si atom -12390.815083 kJ/mol
# Density = 2.152890 g / cm^3
# Si number density = 21.578013 Si / 1000 Ang^3
#
#
#
# Elastic Constant Matrix: (Units=GPa)
#
#
# Indices 1 2 3 4 5 6 
#
# 1 171.6095 67.3352 42.9114 0.0000 0.0000 0.0000
# 2 67.3352 139.1620 14.9441 0.0000 0.0000 0.0000
# 3 42.9114 14.9441 133.6780 0.0000 0.0000 0.0000
# 4 0.0000 0.0000 0.0000 -14.9746 0.0000 0.0000
# 5 0.0000 0.0000 0.0000 0.0000 22.1368 0.0000
# 6 0.0000 0.0000 0.0000 0.0000 0.0000 43.3658
#
#
#
# Elastic Compliance Matrix: (Units=1/GPa)
#
#
# Indices 1 2 3 4 5 6 
#
# 1 0.007729 -0.003515 -0.002088 0.000000 0.000000 0.000000
# 2 -0.003515 0.008872 0.000137 0.000000 0.000000 0.000000
# 3 -0.002088 0.000137 0.008136 0.000000 0.000000 0.000000
# 4 0.000000 0.000000 0.000000 -0.066780 0.000000 0.000000
# 5 0.000000 0.000000 0.000000 0.000000 0.045174 0.000000
# 6 0.000000 0.000000 0.000000 0.000000 0.000000 0.023060
#
#
# Mechanical properties :
#
#
# Convention : Reuss Voigt Hill
#
# Bulk Modulus (GPa) = 72.44791 77.20343 74.82567
# Shear Modulus (GPa) = 119.83381 31.38951 75.61166
#
# Velocity S-wave (km/s) = 7.46028 3.81819 5.92597
# Velocity P-wave (km/s) = 10.38534 7.43603 9.03188
#
# Compressibility (1/GPa) = 0.01380302
#
# Stress axis : x y z
#
# Youngs Moduli (GPa) = 129.38925 112.71227 122.91607
#
# Poissons Ratio (x) = 0.39622 0.25664
# Poissons Ratio (y) = 0.45485 -0.01679
# Poissons Ratio (z) = 0.27016 -0.01540
#
# Static dielectric constant tensor:
#      x y z
#    x 4.374780 0.000000 0.000000 
#    y 0.000000 3.548660 0.000000 
#    z 0.000000 0.000000 4.928150 
# 
# 
# High freq. dielectric constant tensor:
#      x y z
#    x 1.859350 0.000000 0.000000 
#    y 0.000000 1.826680 0.000000 
#    z 0.000000 0.000000 1.837550 
# 
# From -- ./inp_files/26042.got.cif
#   From: 2010.03.12/outbox.cif.g09.slc.cpg/sg20_14_cif.got.tgz:26042.got - 2010.04.14 01:38:04.
