data_PCOD8159006
_publ_section_title
;
Structure prediction by ZEFSAII (Michael W. Deem and Ramdas Pophale) SiO2 
 PCOD8159006
Probable space group: C 2 2 21
;
_chemical_formula_sum "Si O2"
_cell_formula_units_Z 40
_cell_length_a 7.763445
_cell_length_b 14.649886
_cell_length_c 15.846940
_cell_angle_alpha 90.000000
_cell_angle_beta 90.000000
_cell_angle_gamma 90.000000
_cell_volume 1802.329285
_symmetry_space_group_name_H-M "C 2 2 21"
_symmetry_group_IT_number 20
_symmetry_cell_setting 'orthorhombic'
loop_
_space_group_symop_operation_xyz
x,y,z
-x,-y,1/2+z
x,-y,-z
-x,y,1/2-z
1/2+x,1/2+y,z
1/2-x,1/2-y,1/2+z
1/2+x,1/2-y,-z
1/2-x,1/2+y,1/2-z
loop_
_atom_site_type_symbol
_atom_site_label
_atom_site_fract_x
_atom_site_fract_y
_atom_site_fract_z
Si Si1 0.875886 0.172051 0.182001
Si Si2 0.256934 0.349596 0.377185
Si Si3 0.805348 0.491505 0.267709
Si Si4 0.552289 0.391611 0.506178
Si Si5 0.400421 0.085357 0.557635
O O1 0.732562 0.248667 0.162442
O O2 0.798828 0.084701 0.229128
O O3 0.000000 0.220135 0.250000
O O4 0.987796 0.142285 0.100402
O O5 0.274718 0.427353 0.305518
O O6 0.412381 0.352894 0.442377
O O7 0.071875 0.356686 0.424694
O O8 0.799665 0.443126 0.357737
O O9 0.000000 0.518455 0.250000
O O10 0.550755 0.500000 0.500000
O O11 0.749738 0.356692 0.488854
O O12 0.458831 0.000000 0.500000
#
# Coordination Sequence:
#
# PCOD8159006 Si02
#       5
#     8   8   8   8   8
#     4  12  25  45  67 105 142 179 242 288 343 424
#     4  11  26  44  70 102 140 185 230 289 350 411
#     4  10  22  45  68  95 139 185 226 290 351 407
#     4  11  23  44  71  99 138 187 227 289 351 408
#     4  10  20  41  71  96 136 180 231 277 344 417
#
# _framework density 22.193501000000001
#
# number of rings (size 3 to 8) (size 9 to 14) (size 15 to 20)
#    0.000    1.200    4.000    3.600    2.800    1.600 
#    7.200    0.000    0.000    0.000    0.000    0.000 
#    0.000    0.000    0.000    0.000    0.000    0.000 
#
# Total GULP energy -247962.698633 kJ/mol
# GULP energy per Si atom -12398.134932 kJ/mol
# Density = 2.214299 g / cm^3
# Si number density = 22.193501 Si / 1000 Ang^3
#
#
#
# Elastic Constant Matrix: (Units=GPa)
#
#
# Indices 1 2 3 4 5 6 
#
# 1 63.9165 36.7608 29.7603 0.0000 0.0000 0.0000
# 2 36.7608 111.6400 49.3385 0.0000 0.0000 0.0000
# 3 29.7603 49.3385 136.4412 0.0000 0.0000 0.0000
# 4 0.0000 0.0000 0.0000 25.3409 0.0000 0.0000
# 5 0.0000 0.0000 0.0000 0.0000 35.9915 0.0000
# 6 0.0000 0.0000 0.0000 0.0000 0.0000 19.2667
#
#
#
# Elastic Compliance Matrix: (Units=1/GPa)
#
#
# Indices 1 2 3 4 5 6 
#
# 1 0.019913 -0.005519 -0.002347 0.000000 0.000000 0.000000
# 2 -0.005519 0.012191 -0.003205 0.000000 0.000000 0.000000
# 3 -0.002347 -0.003205 0.009000 0.000000 0.000000 0.000000
# 4 0.000000 0.000000 0.000000 0.039462 0.000000 0.000000
# 5 0.000000 0.000000 0.000000 0.000000 0.027784 0.000000
# 6 0.000000 0.000000 0.000000 0.000000 0.000000 0.051903
#
#
# Mechanical properties :
#
#
# Convention : Reuss Voigt Hill
#
# Bulk Modulus (GPa) = 52.73985 60.41301 56.57643
# Shear Modulus (GPa) = 26.49479 29.19567 27.84523
#
# Velocity S-wave (km/s) = 3.45890 3.63092 3.54596
# Velocity P-wave (km/s) = 6.30613 6.69763 6.50483
#
# Compressibility (1/GPa) = 0.01896100
#
# Stress axis : x y z
#
# Youngs Moduli (GPa) = 50.21877 82.02761 111.11143
#
# Poissons Ratio (x) = 0.45275 0.26083
# Poissons Ratio (y) = 0.27718 0.35606
# Poissons Ratio (z) = 0.11789 0.26286
#
# Static dielectric constant tensor:
#      x y z
#    x 4.104220 0.000000 0.000000 
#    y 0.000000 3.838690 0.000000 
#    z 0.000000 0.000000 4.522320 
# 
# 
# High freq. dielectric constant tensor:
#      x y z
#    x 1.867340 0.000000 0.000000 
#    y 0.000000 1.865900 0.000000 
#    z 0.000000 0.000000 1.895570 
# 
# From -- ./inp_files/18512.got.cif
#   From: 2010.03.12/outbox.cif.g09.slc.cpg/sg20_10_cif.got.tgz:18512.got - 2010.04.14 01:38:04.
