data_PCOD8159864
_publ_section_title
;
Structure prediction by ZEFSAII (Michael W. Deem and Ramdas Pophale) SiO2 
 PCOD8159864
Probable space group: C 2 2 21
;
_chemical_formula_sum "Si O2"
_cell_formula_units_Z 40
_cell_length_a 17.531840
_cell_length_b 5.429078
_cell_length_c 17.369661
_cell_angle_alpha 90.000000
_cell_angle_beta 90.000000
_cell_angle_gamma 90.000000
_cell_volume 1653.274329
_symmetry_space_group_name_H-M "C 2 2 21"
_symmetry_group_IT_number 20
_symmetry_cell_setting 'orthorhombic'
loop_
_space_group_symop_operation_xyz
x,y,z
-x,-y,1/2+z
x,-y,-z
-x,y,1/2-z
1/2+x,1/2+y,z
1/2-x,1/2-y,1/2+z
1/2+x,1/2-y,-z
1/2-x,1/2+y,1/2-z
loop_
_atom_site_type_symbol
_atom_site_label
_atom_site_fract_x
_atom_site_fract_y
_atom_site_fract_z
Si Si1 0.195425 0.021174 0.662616
Si Si2 0.569213 0.096994 0.914406
Si Si3 0.094876 0.252095 0.450937
Si Si4 0.159641 0.288824 0.803178
Si Si5 0.714215 0.411410 0.915673
O O1 0.136406 0.141513 0.725367
O O2 0.217177 0.218958 0.597186
O O3 0.156098 0.791291 0.617729
O O4 0.274432 0.993360 0.712981
O O5 0.484319 0.199350 0.906237
O O6 0.629244 0.311197 0.901424
O O7 0.584907 0.890228 0.847989
O O8 0.584026 0.000000 0.000000
O O9 0.115147 0.500000 0.500000
O O10 0.085980 0.000000 0.500000
O O11 0.215748 0.141491 0.860111
O O12 0.729642 0.500000 0.000000
#
# Coordination Sequence:
#
# PCOD8159864 Si02
#       5
#     8   8   8   8   8
#     4  11  26  43  72 114 152 201 254 330 392 455
#     4  10  22  44  75 106 142 203 257 314 371 465
#     4  11  28  48  79 111 157 202 261 326 390 459
#     4  11  23  43  74 105 152 197 255 319 385 460
#     4  11  22  40  75 105 147 198 261 311 381 456
#
# _framework density 24.194410000000001
#
# number of rings (size 3 to 8) (size 9 to 14) (size 15 to 20)
#    0.000    1.200    4.000    0.600    8.400    0.000 
#    0.000    1.000    8.800    0.000    0.000    0.000 
#    0.000    0.000    0.000    0.000    0.000    0.000 
#
# Total GULP energy -247775.273560 kJ/mol
# GULP energy per Si atom -12388.763678 kJ/mol
# Density = 2.413934 g / cm^3
# Si number density = 24.194410 Si / 1000 Ang^3
#
#
#
# Elastic Constant Matrix: (Units=GPa)
#
#
# Indices 1 2 3 4 5 6 
#
# 1 119.9944 31.0830 41.5892 0.0000 0.0000 0.0000
# 2 31.0830 101.7060 50.1086 0.0000 0.0000 0.0000
# 3 41.5892 50.1086 142.3298 0.0000 0.0000 0.0000
# 4 0.0000 0.0000 0.0000 52.2798 0.0000 0.0000
# 5 0.0000 0.0000 0.0000 0.0000 25.0859 0.0000
# 6 0.0000 0.0000 0.0000 0.0000 0.0000 35.1623
#
#
#
# Elastic Compliance Matrix: (Units=1/GPa)
#
#
# Indices 1 2 3 4 5 6 
#
# 1 0.009558 -0.001869 -0.002135 0.000000 0.000000 0.000000
# 2 -0.001869 0.012261 -0.003770 0.000000 0.000000 0.000000
# 3 -0.002135 -0.003770 0.008977 0.000000 0.000000 0.000000
# 4 0.000000 0.000000 0.000000 0.019128 0.000000 0.000000
# 5 0.000000 0.000000 0.000000 0.000000 0.039863 0.000000
# 6 0.000000 0.000000 0.000000 0.000000 0.000000 0.028440
#
#
# Mechanical properties :
#
#
# Convention : Reuss Voigt Hill
#
# Bulk Modulus (GPa) = 65.58583 67.73243 66.65913
# Shear Modulus (GPa) = 36.00806 38.58890 37.29848
#
# Velocity S-wave (km/s) = 3.86201 3.99802 3.93060
# Velocity P-wave (km/s) = 6.85956 7.02624 6.94340
#
# Compressibility (1/GPa) = 0.01524720
#
# Stress axis : x y z
#
# Youngs Moduli (GPa) = 104.62634 81.55821 111.39412
#
# Poissons Ratio (x) = 0.15246 0.23780
# Poissons Ratio (y) = 0.19558 0.42001
# Poissons Ratio (z) = 0.22335 0.30751
#
# Static dielectric constant tensor:
#      x y z
#    x 4.167230 0.000000 0.000000 
#    y 0.000000 4.551280 0.000000 
#    z 0.000000 0.000000 4.265970 
# 
# 
# High freq. dielectric constant tensor:
#      x y z
#    x 1.950470 0.000000 0.000000 
#    y 0.000000 1.972640 0.000000 
#    z 0.000000 0.000000 1.960380 
# 
# From -- ./inp_files/25095.got.cif
#   From: 2010.03.12/outbox.cif.g09.slc.cpg/sg20_13_cif.got.tgz:25095.got - 2010.04.14 01:38:04.
