data_PCOD8159050
_publ_section_title
;
Structure prediction by ZEFSAII (Michael W. Deem and Ramdas Pophale) SiO2 
 PCOD8159050
Probable space group: C 2 2 21
;
_chemical_formula_sum "Si O2"
_cell_formula_units_Z 40
_cell_length_a 14.036512
_cell_length_b 14.476449
_cell_length_c 9.656610
_cell_angle_alpha 90.000000
_cell_angle_beta 90.000000
_cell_angle_gamma 90.000000
_cell_volume 1962.212048
_symmetry_space_group_name_H-M "C 2 2 21"
_symmetry_group_IT_number 20
_symmetry_cell_setting 'orthorhombic'
loop_
_space_group_symop_operation_xyz
x,y,z
-x,-y,1/2+z
x,-y,-z
-x,y,1/2-z
1/2+x,1/2+y,z
1/2-x,1/2-y,1/2+z
1/2+x,1/2-y,-z
1/2-x,1/2+y,1/2-z
loop_
_atom_site_type_symbol
_atom_site_label
_atom_site_fract_x
_atom_site_fract_y
_atom_site_fract_z
Si Si1 0.494184 0.815617 0.543592
Si Si2 0.000000 0.774646 0.750000
Si Si3 0.155879 0.728562 0.254328
Si Si4 0.724230 0.411444 0.363841
Si Si5 0.175008 0.894538 0.672676
Si Si6 0.599710 0.000000 0.000000
O O1 0.493822 0.791036 0.382550
O O2 0.415042 0.755486 0.624949
O O3 0.597768 0.794788 0.606361
O O4 0.468687 0.923536 0.569157
O O5 0.909376 0.840952 0.753709
O O6 0.219433 0.821486 0.267443
O O7 0.224518 0.643208 0.226416
O O8 0.671433 0.384800 0.506710
O O9 0.668977 0.496394 0.289779
O O10 0.832869 0.445040 0.390692
#
# Coordination Sequence:
#
# PCOD8159050 Si02
#       6
#     8   4   8   8   8   4
#     4  11  24  40  69  98 134 173 225 274 335 388
#     4  12  24  40  66  98 132 180 222 274 324 408
#     4  11  22  43  67  97 130 174 224 276 326 397
#     4  10  20  43  67  91 132 182 206 275 334 387
#     4  10  22  41  65  92 133 176 221 268 335 394
#     4  10  20  44  64  96 136 178 212 280 334 388
#
# _framework density 20.385157
#
# number of rings (size 3 to 8) (size 9 to 14) (size 15 to 20)
#    0.000    1.600    6.000    1.200    0.000    3.200 
#    3.600    0.000    0.000    0.000    0.000    0.000 
#    0.000    0.000    0.000    0.000    0.000    0.000 
#
# Total GULP energy -247958.024282 kJ/mol
# GULP energy per Si atom -12397.901214 kJ/mol
# Density = 2.033876 g / cm^3
# Si number density = 20.385157 Si / 1000 Ang^3
#
#
#
# Elastic Constant Matrix: (Units=GPa)
#
#
# Indices 1 2 3 4 5 6 
#
# 1 100.3224 41.8563 33.7311 0.0000 0.0000 0.0000
# 2 41.8563 135.9521 46.9277 0.0000 0.0000 0.0000
# 3 33.7311 46.9277 107.8901 0.0000 0.0000 0.0000
# 4 0.0000 0.0000 0.0000 31.1975 0.0000 0.0000
# 5 0.0000 0.0000 0.0000 0.0000 10.4644 0.0000
# 6 0.0000 0.0000 0.0000 0.0000 0.0000 34.4893
#
#
#
# Elastic Compliance Matrix: (Units=1/GPa)
#
#
# Indices 1 2 3 4 5 6 
#
# 1 0.011993 -0.002822 -0.002522 0.000000 0.000000 0.000000
# 2 -0.002822 0.009319 -0.003171 0.000000 0.000000 0.000000
# 3 -0.002522 -0.003171 0.011437 0.000000 0.000000 0.000000
# 4 0.000000 0.000000 0.000000 0.032054 0.000000 0.000000
# 5 0.000000 0.000000 0.000000 0.000000 0.095562 0.000000
# 6 0.000000 0.000000 0.000000 0.000000 0.000000 0.028994
#
#
# Mechanical properties :
#
#
# Convention : Reuss Voigt Hill
#
# Bulk Modulus (GPa) = 63.61980 65.46607 64.54293
# Shear Modulus (GPa) = 23.62628 30.00687 26.81658
#
# Velocity S-wave (km/s) = 3.40809 3.84082 3.63091
# Velocity P-wave (km/s) = 6.83838 7.20094 7.02200
#
# Compressibility (1/GPa) = 0.01571838
#
# Stress axis : x y z
#
# Youngs Moduli (GPa) = 83.38051 107.30893 87.43889
#
# Poissons Ratio (x) = 0.30280 0.22054
# Poissons Ratio (y) = 0.23528 0.27728
# Poissons Ratio (z) = 0.21031 0.34029
#
# Static dielectric constant tensor:
#      x y z
#    x 3.766070 0.000000 0.000000 
#    y 0.000000 3.880320 0.000000 
#    z 0.000000 0.000000 3.511000 
# 
# 
# High freq. dielectric constant tensor:
#      x y z
#    x 1.796020 0.000000 0.000000 
#    y 0.000000 1.808170 0.000000 
#    z 0.000000 0.000000 1.774110 
# 
# From -- ./inp_files/8182.got.cif
#   From: 2010.03.12/outbox.cif.g09.slc.cpg/sg20_5_cif.got.tgz:8182.got - 2010.04.14 01:38:04.
