data_PCOD8159126
_publ_section_title
;
Structure prediction by ZEFSAII (Michael W. Deem and Ramdas Pophale) SiO2 
 PCOD8159126
Probable space group: C 2 2 21
;
_chemical_formula_sum "Si O2"
_cell_formula_units_Z 40
_cell_length_a 32.659016
_cell_length_b 12.239580
_cell_length_c 4.966463
_cell_angle_alpha 90.000000
_cell_angle_beta 90.000000
_cell_angle_gamma 90.000000
_cell_volume 1985.257362
_symmetry_space_group_name_H-M "C 2 2 21"
_symmetry_group_IT_number 20
_symmetry_cell_setting 'orthorhombic'
loop_
_space_group_symop_operation_xyz
x,y,z
-x,-y,1/2+z
x,-y,-z
-x,y,1/2-z
1/2+x,1/2+y,z
1/2-x,1/2-y,1/2+z
1/2+x,1/2-y,-z
1/2-x,1/2+y,1/2-z
loop_
_atom_site_type_symbol
_atom_site_label
_atom_site_fract_x
_atom_site_fract_y
_atom_site_fract_z
Si Si1 0.858566 0.371987 0.550366
Si Si2 0.971456 0.875766 0.000499
Si Si3 0.330731 0.567744 0.250247
Si Si4 0.609439 0.247418 0.568444
Si Si5 0.276464 0.256426 0.505472
O O1 0.860390 0.500000 0.500000
O O2 0.871492 0.334287 0.847606
O O3 0.812317 0.333238 0.491929
O O4 0.891158 0.317974 0.347781
O O5 0.935463 0.787170 0.011653
O O6 0.000000 0.853558 0.250000
O O7 0.000000 0.853306 0.750000
O O8 0.953878 0.000000 0.000000
O O9 0.351149 0.500000 0.500000
O O10 0.292707 0.629059 0.383693
O O11 0.312934 0.500000 0.000000
O O12 0.363792 0.645047 0.110925
O O13 0.260111 0.279434 0.204888
#
# Coordination Sequence:
#
# PCOD8159126 Si02
#       5
#     8   8   8   8   8
#     4  11  24  42  63  85 113 161 210 247 292 344
#     4  10  21  36  60  94 126 155 185 229 299 365
#     4  11  22  37  58  86 116 152 192 235 298 360
#     4  11  22  40  63  87 120 154 197 246 285 354
#     4  11  23  39  57  84 116 148 194 247 298 351
#
# _framework density 20.148522
#
# number of rings (size 3 to 8) (size 9 to 14) (size 15 to 20)
#    0.000    1.200    0.000    8.400    0.000    4.800 
#    0.000    2.000    0.000   12.000    0.000    0.000 
#    0.000    0.000    0.000    0.000    0.000    0.000 
#
# Total GULP energy -248002.742331 kJ/mol
# GULP energy per Si atom -12400.137117 kJ/mol
# Density = 2.010266 g / cm^3
# Si number density = 20.148522 Si / 1000 Ang^3
#
#
#
# Elastic Constant Matrix: (Units=GPa)
#
#
# Indices 1 2 3 4 5 6 
#
# 1 90.7913 35.1206 18.3806 0.0000 0.0000 0.0000
# 2 35.1206 88.9408 12.7918 0.0000 0.0000 0.0000
# 3 18.3806 12.7918 107.6938 0.0000 0.0000 0.0000
# 4 0.0000 0.0000 0.0000 45.9281 0.0000 0.0000
# 5 0.0000 0.0000 0.0000 0.0000 103.3745 0.0000
# 6 0.0000 0.0000 0.0000 0.0000 0.0000 16.4255
#
#
#
# Elastic Compliance Matrix: (Units=1/GPa)
#
#
# Indices 1 2 3 4 5 6 
#
# 1 0.013290 -0.005007 -0.001674 0.000000 0.000000 0.000000
# 2 -0.005007 0.013325 -0.000728 0.000000 0.000000 0.000000
# 3 -0.001674 -0.000728 0.009658 0.000000 0.000000 0.000000
# 4 0.000000 0.000000 0.000000 0.021773 0.000000 0.000000
# 5 0.000000 0.000000 0.000000 0.000000 0.009674 0.000000
# 6 0.000000 0.000000 0.000000 0.000000 0.000000 0.060881
#
#
# Mechanical properties :
#
#
# Convention : Reuss Voigt Hill
#
# Bulk Modulus (GPa) = 46.60854 46.66798 46.63826
# Shear Modulus (GPa) = 33.20709 47.88781 40.54745
#
# Velocity S-wave (km/s) = 4.06410 4.88047 4.49088
# Velocity P-wave (km/s) = 6.72349 7.41424 7.07730
#
# Compressibility (1/GPa) = 0.02145529
#
# Stress axis : x y z
#
# Youngs Moduli (GPa) = 75.24456 75.04473 103.54425
#
# Poissons Ratio (x) = 0.37576 0.17328
# Poissons Ratio (y) = 0.37677 0.07540
# Poissons Ratio (z) = 0.12592 0.05465
#
# Static dielectric constant tensor:
#      x y z
#    x 3.444330 0.000000 0.000000 
#    y 0.000000 3.701810 0.000000 
#    z 0.000000 0.000000 4.197600 
# 
# 
# High freq. dielectric constant tensor:
#      x y z
#    x 1.771180 0.000000 0.000000 
#    y 0.000000 1.781150 0.000000 
#    z 0.000000 0.000000 1.816370 
# 
# From -- ./inp_files/4579.got.cif
#   From: 2010.03.12/outbox.cif.g09.slc.cpg/sg20_3_cif.got.tgz:4579.got - 2010.04.14 01:38:04.
