data_PCOD8159400
_publ_section_title
;
Structure prediction by ZEFSAII (Michael W. Deem and Ramdas Pophale) SiO2 
 PCOD8159400
Probable space group: C 2 2 21
;
_chemical_formula_sum "Si O2"
_cell_formula_units_Z 60
_cell_length_a 10.806583
_cell_length_b 11.536395
_cell_length_c 21.083662
_cell_angle_alpha 90.000000
_cell_angle_beta 90.000000
_cell_angle_gamma 90.000000
_cell_volume 2628.479271
_symmetry_space_group_name_H-M "C 2 2 21"
_symmetry_group_IT_number 20
_symmetry_cell_setting 'orthorhombic'
loop_
_space_group_symop_operation_xyz
x,y,z
-x,-y,1/2+z
x,-y,-z
-x,y,1/2-z
1/2+x,1/2+y,z
1/2-x,1/2-y,1/2+z
1/2+x,1/2-y,-z
1/2-x,1/2+y,1/2-z
loop_
_atom_site_type_symbol
_atom_site_label
_atom_site_fract_x
_atom_site_fract_y
_atom_site_fract_z
Si Si1 0.741391 0.668081 0.083378
Si Si2 0.172033 0.421906 0.053791
Si Si3 0.533373 0.590498 0.443683
Si Si4 0.000000 0.777419 0.750000
Si Si5 0.249772 0.085959 0.350940
Si Si6 0.203131 0.336758 0.340404
Si Si7 0.093097 0.655293 0.529916
Si Si8 0.295620 0.434322 0.706192
O O1 0.744046 0.806986 0.075121
O O2 0.604725 0.614382 0.080341
O O3 0.790373 0.632705 0.153981
O O4 0.826587 0.609644 0.029369
O O5 0.149386 0.503407 0.115462
O O6 0.044871 0.389590 0.019791
O O7 0.246003 0.500000 0.000000
O O8 0.525292 0.500000 0.500000
O O9 0.617284 0.549840 0.383206
O O10 0.595954 0.706022 0.470923
O O11 0.907892 0.698371 0.791833
O O12 0.925361 0.864810 0.704070
O O13 0.279071 0.222185 0.361139
O O14 0.259540 0.066543 0.276251
O O15 0.145204 0.393040 0.403544
O O16 0.299958 0.428921 0.311571
#
# Coordination Sequence:
#
# PCOD8159400 Si02
#       8
#     8   8   8   4   8   8   8   8
#     4  11  24  41  66 104 138 181 237 292 368 430
#     4  11  23  41  73  94 140 187 233 301 359 429
#     4  10  21  41  69  98 130 181 229 298 355 428
#     4  10  22  48  70 104 142 194 240 294 386 418
#     4  10  22  42  66 100 132 181 243 280 363 433
#     4  10  23  41  71  98 140 182 239 293 355 432
#     4  10  23  40  62  99 136 174 229 291 354 419
#     4  11  24  40  73 100 138 190 235 295 354 444
#
# _framework density 22.826888
#
# number of rings (size 3 to 8) (size 9 to 14) (size 15 to 20)
#    0.000    1.600    0.000    6.000    9.333    0.000 
#    0.000    0.000    5.867    0.000    0.000    0.000 
#    0.000    0.000    0.000    0.000    0.000    0.000 
#
# Total GULP energy -371752.240268 kJ/mol
# GULP energy per Si atom -12391.741342 kJ/mol
# Density = 2.277493 g / cm^3
# Si number density = 22.826888 Si / 1000 Ang^3
#
#
#
# Elastic Constant Matrix: (Units=GPa)
#
#
# Indices 1 2 3 4 5 6 
#
# 1 46.4132 23.6910 37.4405 0.0000 0.0000 0.0000
# 2 23.6910 116.9182 64.6631 0.0000 0.0000 0.0000
# 3 37.4405 64.6631 187.1453 0.0000 0.0000 0.0000
# 4 0.0000 0.0000 0.0000 46.5168 0.0000 0.0000
# 5 0.0000 0.0000 0.0000 0.0000 35.1541 0.0000
# 6 0.0000 0.0000 0.0000 0.0000 0.0000 24.4371
#
#
#
# Elastic Compliance Matrix: (Units=1/GPa)
#
#
# Indices 1 2 3 4 5 6 
#
# 1 0.026525 -0.003016 -0.004265 0.000000 0.000000 0.000000
# 2 -0.003016 0.010917 -0.003168 0.000000 0.000000 0.000000
# 3 -0.004265 -0.003168 0.007291 0.000000 0.000000 0.000000
# 4 0.000000 0.000000 0.000000 0.021498 0.000000 0.000000
# 5 0.000000 0.000000 0.000000 0.000000 0.028446 0.000000
# 6 0.000000 0.000000 0.000000 0.000000 0.000000 0.040921
#
#
# Mechanical properties :
#
#
# Convention : Reuss Voigt Hill
#
# Bulk Modulus (GPa) = 41.95553 66.89620 54.42587
# Shear Modulus (GPa) = 30.40589 36.20040 33.30314
#
# Velocity S-wave (km/s) = 3.65365 3.98661 3.82376
# Velocity P-wave (km/s) = 6.01819 7.11058 6.58707
#
# Compressibility (1/GPa) = 0.02383476
#
# Stress axis : x y z
#
# Youngs Moduli (GPa) = 37.69986 91.60407 137.14799
#
# Poissons Ratio (x) = 0.27630 0.58487
# Poissons Ratio (y) = 0.11371 0.43455
# Poissons Ratio (z) = 0.16077 0.29025
#
# Static dielectric constant tensor:
#      x y z
#    x 3.831210 0.000000 0.000000 
#    y 0.000000 4.322210 0.000000 
#    z 0.000000 0.000000 4.344360 
# 
# 
# High freq. dielectric constant tensor:
#      x y z
#    x 1.862510 0.000000 0.000000 
#    y 0.000000 1.914180 0.000000 
#    z 0.000000 0.000000 1.922110 
# 
# From -- ./inp_files/27273.got.cif
#   From: 2010.03.12/outbox.cif.g09.slc.cpg/sg20_14_cif.got.tgz:27273.got - 2010.04.14 01:38:04.
