data_PCOD8159721
_publ_section_title
;
Structure prediction by ZEFSAII (Michael W. Deem and Ramdas Pophale) SiO2 
 PCOD8159721
Probable space group: C 2 2 21
;
_chemical_formula_sum "Si O2"
_cell_formula_units_Z 56
_cell_length_a 11.269852
_cell_length_b 15.170888
_cell_length_c 14.551470
_cell_angle_alpha 90.000000
_cell_angle_beta 90.000000
_cell_angle_gamma 90.000000
_cell_volume 2487.918120
_symmetry_space_group_name_H-M "C 2 2 21"
_symmetry_group_IT_number 20
_symmetry_cell_setting 'orthorhombic'
loop_
_space_group_symop_operation_xyz
x,y,z
-x,-y,1/2+z
x,-y,-z
-x,y,1/2-z
1/2+x,1/2+y,z
1/2-x,1/2-y,1/2+z
1/2+x,1/2-y,-z
1/2-x,1/2+y,1/2-z
loop_
_atom_site_type_symbol
_atom_site_label
_atom_site_fract_x
_atom_site_fract_y
_atom_site_fract_z
Si Si1 0.695240 0.430989 0.920555
Si Si2 0.420613 0.170661 0.105336
Si Si3 0.550151 0.170081 0.928105
Si Si4 0.442988 0.347009 0.911683
Si Si5 0.176541 0.846560 0.391761
Si Si6 0.458906 0.002929 0.340008
Si Si7 0.303491 0.522624 0.208562
O O1 0.793635 0.355727 0.938420
O O2 0.568152 0.388950 0.937167
O O3 0.703821 0.475441 0.818889
O O4 0.719235 0.500000 0.000000
O O5 0.394652 0.264284 0.154713
O O6 0.458108 0.089340 0.168136
O O7 0.530620 0.186421 0.036052
O O8 0.466714 0.245042 0.880654
O O9 0.683442 0.174960 0.890546
O O10 0.508460 0.067560 0.918826
O O11 0.383958 0.396149 0.825312
O O12 0.361041 0.357693 0.001848
O O13 0.142456 0.930480 0.329178
O O14 0.500000 0.948551 0.250000
O O15 0.322908 0.032257 0.341149
#
# Coordination Sequence:
#
# PCOD8159721 Si02
#       7
#     8   8   8   8   8   8   8
#     4  12  24  41  65  96 136 178 223 276 338 399
#     4  11  22  41  66  95 135 170 222 282 335 392
#     4  10  22  41  68  96 129 172 226 274 331 396
#     4  11  23  42  69  99 135 175 219 279 339 404
#     4  10  22  45  69 102 130 177 226 275 333 409
#     4  11  22  40  63  94 125 172 221 277 325 393
#     4  11  24  43  70  94 133 176 226 273 335 399
#
# _framework density 22.508778
#
# number of rings (size 3 to 8) (size 9 to 14) (size 15 to 20)
#    0.000    1.143    2.857    3.857    0.000    3.429 
#    0.000    4.286    0.000    0.000    0.000    0.000 
#    0.000    0.000    0.000    0.000    0.000    0.000 
#
# Total GULP energy -346894.875826 kJ/mol
# GULP energy per Si atom -12389.102708 kJ/mol
# Density = 2.245755 g / cm^3
# Si number density = 22.508778 Si / 1000 Ang^3
#
#
#
# Elastic Constant Matrix: (Units=GPa)
#
#
# Indices 1 2 3 4 5 6 
#
# 1 81.5019 44.5642 11.2899 0.0000 0.0000 0.0000
# 2 44.5642 167.9210 53.2473 0.0000 0.0000 0.0000
# 3 11.2899 53.2473 77.8308 0.0000 0.0000 0.0000
# 4 0.0000 0.0000 0.0000 13.2015 0.0000 0.0000
# 5 0.0000 0.0000 0.0000 0.0000 27.7774 0.0000
# 6 0.0000 0.0000 0.0000 0.0000 0.0000 41.7331
#
#
#
# Elastic Compliance Matrix: (Units=1/GPa)
#
#
# Indices 1 2 3 4 5 6 
#
# 1 0.014380 -0.004029 0.000670 0.000000 0.000000 0.000000
# 2 -0.004029 0.008734 -0.005391 0.000000 0.000000 0.000000
# 3 0.000670 -0.005391 0.016439 0.000000 0.000000 0.000000
# 4 0.000000 0.000000 0.000000 0.075749 0.000000 0.000000
# 5 0.000000 0.000000 0.000000 0.000000 0.036000 0.000000
# 6 0.000000 0.000000 0.000000 0.000000 0.000000 0.023962
#
#
# Mechanical properties :
#
#
# Convention : Reuss Voigt Hill
#
# Bulk Modulus (GPa) = 45.34252 60.60627 52.97439
# Shear Modulus (GPa) = 24.98583 31.08589 28.03586
#
# Velocity S-wave (km/s) = 3.33535 3.72029 3.53307
# Velocity P-wave (km/s) = 5.91784 6.74078 6.34267
#
# Compressibility (1/GPa) = 0.02205435
#
# Stress axis : x y z
#
# Youngs Moduli (GPa) = 69.54262 114.49841 60.83036
#
# Poissons Ratio (x) = 0.46129 -0.04078
# Poissons Ratio (y) = 0.28017 0.32792
# Poissons Ratio (z) = -0.04662 0.61723
#
# Static dielectric constant tensor:
#      x y z
#    x 4.214110 0.000000 0.000000 
#    y 0.000000 4.492630 0.000000 
#    z 0.000000 0.000000 3.835280 
# 
# 
# High freq. dielectric constant tensor:
#      x y z
#    x 1.897860 0.000000 0.000000 
#    y 0.000000 1.903140 0.000000 
#    z 0.000000 0.000000 1.865020 
# 
# From -- ./inp_files/20034.got.cif
#   From: 2010.03.12/outbox.cif.g09.slc.cpg/sg20_11_cif.got.tgz:20034.got - 2010.04.14 01:38:04.
