data_PCOD8159291
_publ_section_title
;
Structure prediction by ZEFSAII (Michael W. Deem and Ramdas Pophale) SiO2 
 PCOD8159291
Probable space group: C 2 2 21
;
_chemical_formula_sum "Si O2"
_cell_formula_units_Z 56
_cell_length_a 14.562761
_cell_length_b 13.819990
_cell_length_c 12.451304
_cell_angle_alpha 90.000000
_cell_angle_beta 90.000000
_cell_angle_gamma 90.000000
_cell_volume 2505.914721
_symmetry_space_group_name_H-M "C 2 2 21"
_symmetry_group_IT_number 20
_symmetry_cell_setting 'orthorhombic'
loop_
_space_group_symop_operation_xyz
x,y,z
-x,-y,1/2+z
x,-y,-z
-x,y,1/2-z
1/2+x,1/2+y,z
1/2-x,1/2-y,1/2+z
1/2+x,1/2-y,-z
1/2-x,1/2+y,1/2-z
loop_
_atom_site_type_symbol
_atom_site_label
_atom_site_fract_x
_atom_site_fract_y
_atom_site_fract_z
Si Si1 0.766782 0.740543 0.138005
Si Si2 0.107576 0.230528 0.983552
Si Si3 0.283667 0.605644 0.679086
Si Si4 0.436137 0.064490 0.401543
Si Si5 0.585551 0.510435 0.321425
Si Si6 0.914652 0.149773 0.992172
Si Si7 0.136978 0.541489 0.327386
O O1 0.764331 0.803711 0.245011
O O2 0.833642 0.780314 0.044960
O O3 0.795752 0.632665 0.166812
O O4 0.664403 0.744894 0.091987
O O5 0.152803 0.142263 0.917553
O O6 0.101231 0.326593 0.911576
O O7 0.005487 0.207694 0.023035
O O8 0.331563 0.518734 0.744178
O O9 0.190457 0.555871 0.632921
O O10 0.546966 0.061492 0.398546
O O11 0.392780 0.020422 0.294672
O O12 0.400025 0.000000 0.500000
O O13 0.500000 0.544916 0.250000
O O14 0.555952 0.419364 0.393876
O O15 0.620110 0.594900 0.400975
#
# Coordination Sequence:
#
# PCOD8159291 Si02
#       7
#     8   8   8   8   8   8   8
#     4  11  25  43  68 104 143 189 246 298 364 435
#     4  12  24  43  73 100 145 188 243 296 366 433
#     4  11  25  43  70 102 141 183 240 297 360 432
#     4  11  25  47  75 101 143 197 242 293 365 443
#     4  10  21  39  66  95 138 174 229 290 362 430
#     4  10  23  41  65 102 135 188 233 298 363 434
#     4  11  25  44  73 106 146 192 242 300 368 431
#
# _framework density 22.34713
#
# number of rings (size 3 to 8) (size 9 to 14) (size 15 to 20)
#    0.000    1.143    4.286    0.857    6.000    0.000 
#    0.000    0.000    3.143    0.000    0.000    0.000 
#    0.000    0.000    0.000    0.000    0.000    0.000 
#
# Total GULP energy -347313.740481 kJ/mol
# GULP energy per Si atom -12404.062160 kJ/mol
# Density = 2.229627 g / cm^3
# Si number density = 22.347130 Si / 1000 Ang^3
#
#
#
# Elastic Constant Matrix: (Units=GPa)
#
#
# Indices 1 2 3 4 5 6 
#
# 1 79.4185 27.6878 -2.8497 0.0000 0.0000 0.0000
# 2 27.6878 97.7446 12.7871 0.0000 0.0000 0.0000
# 3 -2.8497 12.7871 55.0692 0.0000 0.0000 0.0000
# 4 0.0000 0.0000 0.0000 30.5404 0.0000 0.0000
# 5 0.0000 0.0000 0.0000 0.0000 37.1139 0.0000
# 6 0.0000 0.0000 0.0000 0.0000 0.0000 44.8101
#
#
#
# Elastic Compliance Matrix: (Units=1/GPa)
#
#
# Indices 1 2 3 4 5 6 
#
# 1 0.014126 -0.004225 0.001712 0.000000 0.000000 0.000000
# 2 -0.004225 0.011815 -0.002962 0.000000 0.000000 0.000000
# 3 0.001712 -0.002962 0.018935 0.000000 0.000000 0.000000
# 4 0.000000 0.000000 0.000000 0.032744 0.000000 0.000000
# 5 0.000000 0.000000 0.000000 0.000000 0.026944 0.000000
# 6 0.000000 0.000000 0.000000 0.000000 0.000000 0.022316
#
#
# Mechanical properties :
#
#
# Convention : Reuss Voigt Hill
#
# Bulk Modulus (GPa) = 29.47613 34.16474 31.82044
# Shear Modulus (GPa) = 33.52553 35.46669 34.49611
#
# Velocity S-wave (km/s) = 3.87746 3.98814 3.93319
# Velocity P-wave (km/s) = 5.76759 6.04387 5.90735
#
# Compressibility (1/GPa) = 0.03392575
#
# Stress axis : x y z
#
# Youngs Moduli (GPa) = 70.79111 84.63686 52.81118
#
# Poissons Ratio (x) = 0.35763 -0.09042
# Poissons Ratio (y) = 0.29912 0.15643
# Poissons Ratio (z) = -0.12120 0.25071
#
# Static dielectric constant tensor:
#      x y z
#    x 3.959210 0.000000 0.000000 
#    y 0.000000 3.940370 0.000000 
#    z 0.000000 0.000000 3.879400 
# 
# 
# High freq. dielectric constant tensor:
#      x y z
#    x 1.883250 0.000000 0.000000 
#    y 0.000000 1.878960 0.000000 
#    z 0.000000 0.000000 1.879430 
# 
# From -- ./inp_files/15124.got.cif
#   From: 2010.03.12/outbox.cif.g09.slc.cpg/sg20_8_cif.got.tgz:15124.got - 2010.04.14 01:38:04.
