data_PCOD8159833
_publ_section_title
;
Structure prediction by ZEFSAII (Michael W. Deem and Ramdas Pophale) SiO2 
 PCOD8159833
Probable space group: C 2 2 21
;
_chemical_formula_sum "Si O2"
_cell_formula_units_Z 64
_cell_length_a 12.334559
_cell_length_b 13.911163
_cell_length_c 17.355009
_cell_angle_alpha 90.000000
_cell_angle_beta 90.000000
_cell_angle_gamma 90.000000
_cell_volume 2977.912339
_symmetry_space_group_name_H-M "C 2 2 21"
_symmetry_group_IT_number 20
_symmetry_cell_setting 'orthorhombic'
loop_
_space_group_symop_operation_xyz
x,y,z
-x,-y,1/2+z
x,-y,-z
-x,y,1/2-z
1/2+x,1/2+y,z
1/2-x,1/2-y,1/2+z
1/2+x,1/2-y,-z
1/2-x,1/2+y,1/2-z
loop_
_atom_site_type_symbol
_atom_site_label
_atom_site_fract_x
_atom_site_fract_y
_atom_site_fract_z
Si Si1 0.003307 0.443456 0.160410
Si Si2 0.202793 0.197186 0.253676
Si Si3 0.410719 0.686280 0.552309
Si Si4 0.573455 0.154653 0.180913
Si Si5 0.618641 0.501741 0.729527
Si Si6 0.830100 0.707353 0.593108
Si Si7 0.134809 0.079792 0.561913
Si Si8 0.272199 0.112893 0.846029
O O1 0.881760 0.438599 0.125540
O O2 0.000000 0.413650 0.250000
O O3 0.040134 0.552037 0.148118
O O4 0.085498 0.375171 0.115859
O O5 0.310649 0.142954 0.279953
O O6 0.207866 0.230208 0.165591
O O7 0.184943 0.287323 0.309477
O O8 0.112371 0.114272 0.262815
O O9 0.433685 0.772300 0.610861
O O10 0.389448 0.723150 0.466714
O O11 0.513905 0.617385 0.548274
O O12 0.305494 0.627682 0.580843
O O13 0.500000 0.194697 0.250000
O O14 0.500000 0.543417 0.750000
O O15 0.649824 0.531849 0.644353
O O16 0.708808 0.549051 0.783949
O O17 0.722797 0.664445 0.553063
O O18 0.163901 0.000000 0.500000
#
# Coordination Sequence:
#
# PCOD8159833 Si02
#       8
#     8   8   8   8   8   8   8   8
#     4  11  22  43  73 108 140 178 240 305 349 425
#     4  11  24  41  73 102 136 180 240 286 354 419
#     4  11  28  44  70 103 144 192 235 298 360 431
#     4  10  22  43  74 100 135 182 246 291 358 416
#     4  12  25  45  75 102 138 190 237 298 356 422
#     4  12  27  44  72 104 148 186 240 294 368 424
#     4  12  28  48  70 104 148 187 240 292 365 438
#     4  11  24  47  70 104 141 183 239 295 349 427
#
# _framework density 21.491565000000001
#
# number of rings (size 3 to 8) (size 9 to 14) (size 15 to 20)
#    0.000    0.750    3.750    3.000   12.250    0.000 
#    0.000    0.000    2.750    0.000    0.000    0.000 
#    0.000    0.000    0.000    0.000    0.000    0.000 
#
# Total GULP energy -396939.247763 kJ/mol
# GULP energy per Si atom -12404.351493 kJ/mol
# Density = 2.144265 g / cm^3
# Si number density = 21.491565 Si / 1000 Ang^3
#
#
#
# Elastic Constant Matrix: (Units=GPa)
#
#
# Indices 1 2 3 4 5 6 
#
# 1 114.6220 40.8852 11.3370 0.0000 0.0000 0.0000
# 2 40.8852 96.5771 18.5853 0.0000 0.0000 0.0000
# 3 11.3370 18.5853 68.0604 0.0000 0.0000 0.0000
# 4 0.0000 0.0000 0.0000 47.3318 0.0000 0.0000
# 5 0.0000 0.0000 0.0000 0.0000 20.2543 0.0000
# 6 0.0000 0.0000 0.0000 0.0000 0.0000 44.6614
#
#
#
# Elastic Compliance Matrix: (Units=1/GPa)
#
#
# Indices 1 2 3 4 5 6 
#
# 1 0.010296 -0.004252 -0.000554 0.000000 0.000000 0.000000
# 2 -0.004252 0.012685 -0.002756 0.000000 0.000000 0.000000
# 3 -0.000554 -0.002756 0.015538 0.000000 0.000000 0.000000
# 4 0.000000 0.000000 0.000000 0.021127 0.000000 0.000000
# 5 0.000000 0.000000 0.000000 0.000000 0.049372 0.000000
# 6 0.000000 0.000000 0.000000 0.000000 0.000000 0.022391
#
#
# Mechanical properties :
#
#
# Convention : Reuss Voigt Hill
#
# Bulk Modulus (GPa) = 42.74395 46.76382 44.75389
# Shear Modulus (GPa) = 32.39814 36.34631 34.37222
#
# Velocity S-wave (km/s) = 3.88684 4.11687 4.00351
# Velocity P-wave (km/s) = 6.33050 6.66367 6.49922
#
# Compressibility (1/GPa) = 0.02339512
#
# Stress axis : x y z
#
# Youngs Moduli (GPa) = 97.12692 78.83465 64.36015
#
# Poissons Ratio (x) = 0.33521 0.03565
# Poissons Ratio (y) = 0.41299 0.17735
# Poissons Ratio (z) = 0.05380 0.21723
#
# Static dielectric constant tensor:
#      x y z
#    x 4.090910 0.000000 0.000000 
#    y 0.000000 3.930980 0.000000 
#    z 0.000000 0.000000 3.773980 
# 
# 
# High freq. dielectric constant tensor:
#      x y z
#    x 1.862190 0.000000 0.000000 
#    y 0.000000 1.852440 0.000000 
#    z 0.000000 0.000000 1.834350 
# 
# From -- ./inp_files/24458.got.cif
#   From: 2010.03.12/outbox.cif.g09.slc.cpg/sg20_13_cif.got.tgz:24458.got - 2010.04.14 01:38:04.
