data_PCOD8159698
_publ_section_title
;
Structure prediction by ZEFSAII (Michael W. Deem and Ramdas Pophale) SiO2 
 PCOD8159698
Probable space group: C 2 2 21
;
_chemical_formula_sum "Si O2"
_cell_formula_units_Z 40
_cell_length_a 5.192444
_cell_length_b 23.300431
_cell_length_c 15.431817
_cell_angle_alpha 90.000000
_cell_angle_beta 90.000000
_cell_angle_gamma 90.000000
_cell_volume 1867.036638
_symmetry_space_group_name_H-M "C 2 2 21"
_symmetry_group_IT_number 20
_symmetry_cell_setting 'orthorhombic'
loop_
_space_group_symop_operation_xyz
x,y,z
-x,-y,1/2+z
x,-y,-z
-x,y,1/2-z
1/2+x,1/2+y,z
1/2-x,1/2-y,1/2+z
1/2+x,1/2-y,-z
1/2-x,1/2+y,1/2-z
loop_
_atom_site_type_symbol
_atom_site_label
_atom_site_fract_x
_atom_site_fract_y
_atom_site_fract_z
Si Si1 0.242630 0.464268 0.195124
Si Si2 0.192891 0.446838 0.942343
Si Si3 0.767252 0.743126 0.056041
Si Si4 0.436101 0.649399 0.852008
Si Si5 0.310698 0.377059 0.522679
O O1 0.500000 0.472702 0.250000
O O2 0.176312 0.525514 0.152927
O O3 0.276984 0.409766 0.129007
O O4 0.000000 0.444707 0.250000
O O5 0.411608 0.398840 0.945807
O O6 0.911999 0.423968 0.969146
O O7 0.281308 0.500000 0.000000
O O8 0.783700 0.790915 0.131947
O O9 0.747527 0.676768 0.087271
O O10 0.517090 0.757260 0.002443
O O11 0.500000 0.648698 0.750000
O O12 0.671094 0.645145 0.921821
#
# Coordination Sequence:
#
# PCOD8159698 Si02
#       5
#     8   8   8   8   8
#     4  11  25  42  64  95 134 170 217 280 331 376
#     4  12  24  40  67  94 133 173 221 257 326 396
#     4  10  22  41  63  91 129 166 212 260 323 384
#     4  10  23  41  66  98 130 163 216 279 330 379
#     4  11  23  41  66  96 129 174 217 267 316 396
#
# _framework density 21.424326000000001
#
# number of rings (size 3 to 8) (size 9 to 14) (size 15 to 20)
#    0.000    1.200    2.000    4.200    5.600    3.200 
#    0.000    3.000    0.000    4.800    0.000    0.000 
#    0.000    0.000    0.000    0.000    0.000    0.000 
#
# Total GULP energy -247785.843312 kJ/mol
# GULP energy per Si atom -12389.292166 kJ/mol
# Density = 2.137556 g / cm^3
# Si number density = 21.424326 Si / 1000 Ang^3
#
#
#
# Elastic Constant Matrix: (Units=GPa)
#
#
# Indices 1 2 3 4 5 6 
#
# 1 133.7373 39.2633 31.6312 0.0000 0.0000 0.0000
# 2 39.2633 148.5601 58.2135 0.0000 0.0000 0.0000
# 3 31.6312 58.2135 77.2357 0.0000 0.0000 0.0000
# 4 0.0000 0.0000 0.0000 44.0784 0.0000 0.0000
# 5 0.0000 0.0000 0.0000 0.0000 25.1913 0.0000
# 6 0.0000 0.0000 0.0000 0.0000 0.0000 38.6654
#
#
#
# Elastic Compliance Matrix: (Units=1/GPa)
#
#
# Indices 1 2 3 4 5 6 
#
# 1 0.008438 -0.001243 -0.002519 0.000000 0.000000 0.000000
# 2 -0.001243 0.009736 -0.006829 0.000000 0.000000 0.000000
# 3 -0.002519 -0.006829 0.019126 0.000000 0.000000 0.000000
# 4 0.000000 0.000000 0.000000 0.022687 0.000000 0.000000
# 5 0.000000 0.000000 0.000000 0.000000 0.039696 0.000000
# 6 0.000000 0.000000 0.000000 0.000000 0.000000 0.025863
#
#
# Mechanical properties :
#
#
# Convention : Reuss Voigt Hill
#
# Bulk Modulus (GPa) = 62.04156 68.63877 65.34017
# Shear Modulus (GPa) = 32.87318 36.94871 34.91094
#
# Velocity S-wave (km/s) = 3.92137 4.15735 4.04109
# Velocity P-wave (km/s) = 7.03734 7.42645 7.23451
#
# Compressibility (1/GPa) = 0.01611823
#
# Stress axis : x y z
#
# Youngs Moduli (GPa) = 118.51092 102.71468 52.28519
#
# Poissons Ratio (x) = 0.12769 0.13169
# Poissons Ratio (y) = 0.14732 0.35705
# Poissons Ratio (z) = 0.29850 0.70142
#
# Static dielectric constant tensor:
#      x y z
#    x 3.729020 0.000000 0.000000 
#    y 0.000000 4.777930 0.000000 
#    z 0.000000 0.000000 3.769070 
# 
# 
# High freq. dielectric constant tensor:
#      x y z
#    x 1.848540 0.000000 0.000000 
#    y 0.000000 1.867370 0.000000 
#    z 0.000000 0.000000 1.809020 
# 
# From -- ./inp_files/17636.got.cif
#   From: 2010.03.12/outbox.cif.g09.slc.cpg/sg20_9_cif.got.tgz:17636.got - 2010.04.14 01:38:04.
