data_PCOD8159646
_publ_section_title
;
Structure prediction by ZEFSAII (Michael W. Deem and Ramdas Pophale) SiO2 
 PCOD8159646
Probable space group: C 2 2 21
;
_chemical_formula_sum "Si O2"
_cell_formula_units_Z 40
_cell_length_a 28.340965
_cell_length_b 12.851710
_cell_length_c 5.047172
_cell_angle_alpha 90.000000
_cell_angle_beta 90.000000
_cell_angle_gamma 90.000000
_cell_volume 1838.330768
_symmetry_space_group_name_H-M "C 2 2 21"
_symmetry_group_IT_number 20
_symmetry_cell_setting 'orthorhombic'
loop_
_space_group_symop_operation_xyz
x,y,z
-x,-y,1/2+z
x,-y,-z
-x,y,1/2-z
1/2+x,1/2+y,z
1/2-x,1/2-y,1/2+z
1/2+x,1/2-y,-z
1/2-x,1/2+y,1/2-z
loop_
_atom_site_type_symbol
_atom_site_label
_atom_site_fract_x
_atom_site_fract_y
_atom_site_fract_z
Si Si1 0.000000 0.850622 0.750000
Si Si2 0.577535 0.216590 0.885113
Si Si3 0.890209 0.500000 0.500000
Si Si4 0.375710 0.303587 0.129565
Si Si5 0.721411 0.221473 0.536807
Si Si6 0.825033 0.500000 0.000000
Si Si7 0.424861 0.500000 0.000000
O O1 0.972981 0.772302 0.545018
O O2 0.958350 0.925655 0.834868
O O3 0.591505 0.243039 0.582662
O O4 0.618434 0.254970 0.080807
O O5 0.574493 0.092991 0.920614
O O6 0.857086 0.528396 0.251840
O O7 0.321765 0.295298 0.045685
O O8 0.390656 0.424478 0.165796
O O9 0.737575 0.262465 0.822626
O O10 0.707147 0.100337 0.560127
#
# Coordination Sequence:
#
# PCOD8159646 Si02
#       7
#     4   8   4   8   8   4   4
#     4  10  22  40  64 106 132 186 218 292 328 404
#     4  11  22  40  67  95 135 169 235 264 334 406
#     4  12  20  42  70  94 124 190 216 269 325 418
#     4  11  23  42  64  98 127 185 218 275 334 420
#     4  12  25  43  68 102 135 167 228 291 334 405
#     4  12  24  44  71  93 130 184 219 258 361 400
#     4  10  22  40  69  89 144 176 227 265 352 408
#
# _framework density 21.758870999999999
#
# number of rings (size 3 to 8) (size 9 to 14) (size 15 to 20)
#    0.000    0.800    4.000    3.600    0.000    6.400 
#    0.000    5.000    0.000    0.000    0.000    0.000 
#    0.000    0.000    0.000    0.000    0.000    0.000 
#
# Total GULP energy -247885.052798 kJ/mol
# GULP energy per Si atom -12394.252640 kJ/mol
# Density = 2.170935 g / cm^3
# Si number density = 21.758871 Si / 1000 Ang^3
#
#
#
# Elastic Constant Matrix: (Units=GPa)
#
#
# Indices 1 2 3 4 5 6 
#
# 1 94.7147 60.2891 3.0909 0.0000 0.0000 0.0000
# 2 60.2891 165.3647 16.1395 0.0000 0.0000 0.0000
# 3 3.0909 16.1395 75.4735 0.0000 0.0000 0.0000
# 4 0.0000 0.0000 0.0000 27.1370 0.0000 0.0000
# 5 0.0000 0.0000 0.0000 0.0000 29.7591 0.0000
# 6 0.0000 0.0000 0.0000 0.0000 0.0000 35.2598
#
#
#
# Elastic Compliance Matrix: (Units=1/GPa)
#
#
# Indices 1 2 3 4 5 6 
#
# 1 0.013769 -0.005071 0.000520 0.000000 0.000000 0.000000
# 2 -0.005071 0.008044 -0.001512 0.000000 0.000000 0.000000
# 3 0.000520 -0.001512 0.013552 0.000000 0.000000 0.000000
# 4 0.000000 0.000000 0.000000 0.036850 0.000000 0.000000
# 5 0.000000 0.000000 0.000000 0.000000 0.033603 0.000000
# 6 0.000000 0.000000 0.000000 0.000000 0.000000 0.028361
#
#
# Mechanical properties :
#
#
# Convention : Reuss Voigt Hill
#
# Bulk Modulus (GPa) = 43.03143 54.95465 48.99304
# Shear Modulus (GPa) = 32.45711 35.50008 33.97859
#
# Velocity S-wave (km/s) = 3.86641 4.04359 3.95599
# Velocity P-wave (km/s) = 6.30489 6.86381 6.59028
#
# Compressibility (1/GPa) = 0.02323883
#
# Stress axis : x y z
#
# Youngs Moduli (GPa) = 72.62876 124.32394 73.79104
#
# Poissons Ratio (x) = 0.63040 -0.03840
# Poissons Ratio (y) = 0.36827 0.11160
# Poissons Ratio (z) = -0.03780 0.18803
#
# Static dielectric constant tensor:
#      x y z
#    x 4.208880 0.000000 0.000000 
#    y 0.000000 4.439490 0.000000 
#    z 0.000000 0.000000 4.171460 
# 
# 
# High freq. dielectric constant tensor:
#      x y z
#    x 1.849320 0.000000 0.000000 
#    y 0.000000 1.874560 0.000000 
#    z 0.000000 0.000000 1.850050 
# 
# From -- ./inp_files/4124.got.cif
#   From: 2010.03.12/outbox.cif.g09.slc.cpg/sg20_3_cif.got.tgz:4124.got - 2010.04.14 01:38:04.
