data_PCOD8159786
_publ_section_title
;
Structure prediction by ZEFSAII (Michael W. Deem and Ramdas Pophale) SiO2 
 PCOD8159786
Probable space group: C 2 2 21
;
_chemical_formula_sum "Si O2"
_cell_formula_units_Z 44
_cell_length_a 8.211761
_cell_length_b 16.387896
_cell_length_c 15.612031
_cell_angle_alpha 90.000000
_cell_angle_beta 90.000000
_cell_angle_gamma 90.000000
_cell_volume 2100.965423
_symmetry_space_group_name_H-M "C 2 2 21"
_symmetry_group_IT_number 20
_symmetry_cell_setting 'orthorhombic'
loop_
_space_group_symop_operation_xyz
x,y,z
-x,-y,1/2+z
x,-y,-z
-x,y,1/2-z
1/2+x,1/2+y,z
1/2-x,1/2-y,1/2+z
1/2+x,1/2-y,-z
1/2-x,1/2+y,1/2-z
loop_
_atom_site_type_symbol
_atom_site_label
_atom_site_fract_x
_atom_site_fract_y
_atom_site_fract_z
Si Si1 0.301551 0.565211 0.393539
Si Si2 0.167505 0.556683 0.216543
Si Si3 0.936228 0.057771 0.843678
Si Si4 0.152823 0.346731 0.946667
Si Si5 0.999210 0.822034 0.010353
Si Si6 0.981698 0.500000 0.000000
O O1 0.276283 0.593371 0.294839
O O2 0.451263 0.503719 0.396852
O O3 0.346767 0.637579 0.459953
O O4 0.136460 0.517453 0.419422
O O5 0.259602 0.484488 0.165072
O O6 0.122811 0.629884 0.152309
O O7 0.000000 0.517672 0.250000
O O8 0.941069 0.139121 0.899846
O O9 0.000000 0.080708 0.750000
O O10 0.041872 0.270609 0.970229
O O11 0.342761 0.325422 0.949861
O O12 0.098827 0.420916 0.010019
#
# Coordination Sequence:
#
# PCOD8159786 Si02
#       6
#     8   8   8   8   8   4
#     4  11  22  41  75  98 139 180 239 280 355 417
#     4  11  23  42  70 105 133 184 237 288 348 422
#     4  10  22  42  70 100 136 182 225 287 351 412
#     4  12  27  42  71  98 146 181 241 287 351 408
#     4  12  25  45  66 106 139 186 232 294 345 413
#     4  12  22  42  70 102 126 190 230 290 334 428
#
# _framework density 20.942754000000001
#
# number of rings (size 3 to 8) (size 9 to 14) (size 15 to 20)
#    0.000    0.727    5.455    2.182    0.000    0.727 
#    0.000    0.000    0.000    2.182    0.000    0.000 
#    0.000    0.000    0.000    0.000    0.000    0.000 
#
# Total GULP energy -272723.571871 kJ/mol
# GULP energy per Si atom -12396.525994 kJ/mol
# Density = 2.089509 g / cm^3
# Si number density = 20.942754 Si / 1000 Ang^3
#
#
#
# Elastic Constant Matrix: (Units=GPa)
#
#
# Indices 1 2 3 4 5 6 
#
# 1 97.5149 47.4873 22.4684 0.0000 0.0000 0.0000
# 2 47.4873 142.1942 58.5597 0.0000 0.0000 0.0000
# 3 22.4684 58.5597 112.6196 0.0000 0.0000 0.0000
# 4 0.0000 0.0000 0.0000 21.5332 0.0000 0.0000
# 5 0.0000 0.0000 0.0000 0.0000 41.8194 0.0000
# 6 0.0000 0.0000 0.0000 0.0000 0.0000 34.9483
#
#
#
# Elastic Compliance Matrix: (Units=1/GPa)
#
#
# Indices 1 2 3 4 5 6 
#
# 1 0.012261 -0.003929 -0.000403 0.000000 0.000000 0.000000
# 2 -0.003929 0.010208 -0.004524 0.000000 0.000000 0.000000
# 3 -0.000403 -0.004524 0.011312 0.000000 0.000000 0.000000
# 4 0.000000 0.000000 0.000000 0.046440 0.000000 0.000000
# 5 0.000000 0.000000 0.000000 0.000000 0.023912 0.000000
# 6 0.000000 0.000000 0.000000 0.000000 0.000000 0.028614
#
#
# Mechanical properties :
#
#
# Convention : Reuss Voigt Hill
#
# Bulk Modulus (GPa) = 62.23140 67.70660 64.96900
# Shear Modulus (GPa) = 32.08934 34.58109 33.33522
#
# Velocity S-wave (km/s) = 3.91863 4.06793 3.99398
# Velocity P-wave (km/s) = 7.08899 7.37995 7.23593
#
# Compressibility (1/GPa) = 0.01606906
#
# Stress axis : x y z
#
# Youngs Moduli (GPa) = 81.56023 97.96494 88.39926
#
# Poissons Ratio (x) = 0.38486 0.03566
# Poissons Ratio (y) = 0.32041 0.39992
# Poissons Ratio (z) = 0.03290 0.44320
#
# Static dielectric constant tensor:
#      x y z
#    x 4.064150 0.000000 0.000000 
#    y 0.000000 3.509990 0.000000 
#    z 0.000000 0.000000 3.913740 
# 
# 
# High freq. dielectric constant tensor:
#      x y z
#    x 1.843190 0.000000 0.000000 
#    y 0.000000 1.786070 0.000000 
#    z 0.000000 0.000000 1.833240 
# 
# From -- ./inp_files/23387.got.cif
#   From: 2010.03.12/outbox.cif.g09.slc.cpg/sg20_12_cif.got.tgz:23387.got - 2010.04.14 01:38:04.
