data_PCOD8159841
_publ_section_title
;
Structure prediction by ZEFSAII (Michael W. Deem and Ramdas Pophale) SiO2 
 PCOD8159841
Probable space group: C 2 2 21
;
_chemical_formula_sum "Si O2"
_cell_formula_units_Z 40
_cell_length_a 23.437941
_cell_length_b 14.090866
_cell_length_c 5.023313
_cell_angle_alpha 90.000000
_cell_angle_beta 90.000000
_cell_angle_gamma 90.000000
_cell_volume 1659.003802
_symmetry_space_group_name_H-M "C 2 2 21"
_symmetry_group_IT_number 20
_symmetry_cell_setting 'orthorhombic'
loop_
_space_group_symop_operation_xyz
x,y,z
-x,-y,1/2+z
x,-y,-z
-x,y,1/2-z
1/2+x,1/2+y,z
1/2-x,1/2-y,1/2+z
1/2+x,1/2-y,-z
1/2-x,1/2+y,1/2-z
loop_
_atom_site_type_symbol
_atom_site_label
_atom_site_fract_x
_atom_site_fract_y
_atom_site_fract_z
Si Si1 0.000000 0.935709 0.750000
Si Si2 0.824985 0.234361 0.814693
Si Si3 0.562904 0.912558 0.835328
Si Si4 0.558358 0.297233 0.087968
Si Si5 0.794019 0.348161 0.311547
Si Si6 0.351160 0.000000 0.000000
O O1 0.946589 0.867548 0.665717
O O2 0.019626 0.000000 0.500000
O O3 0.884884 0.180170 0.758312
O O4 0.815371 0.323042 0.609187
O O5 0.774298 0.158360 0.777768
O O6 0.823828 0.272070 0.115111
O O7 0.500000 0.940748 0.750000
O O8 0.562014 0.813669 0.997308
O O9 0.607495 0.911364 0.589543
O O10 0.588018 0.000000 0.000000
O O11 0.500000 0.314284 0.250000
O O12 0.811598 0.455321 0.231946
#
# Coordination Sequence:
#
# PCOD8159841 Si02
#       6
#     4   8   8   8   8   4
#     4  12  28  52  72 100 138 186 252 318 372 426
#     4  10  22  44  66  96 132 183 240 285 350 431
#     4  11  23  36  61 106 148 185 227 278 351 453
#     4  11  25  43  76 104 144 193 235 302 379 428
#     4  10  23  40  66  94 137 186 231 289 344 415
#     4  12  22  38  62  96 144 178 232 282 350 430
#
# _framework density 24.110855000000001
#
# number of rings (size 3 to 8) (size 9 to 14) (size 15 to 20)
#    0.000    1.200    4.000    1.200    4.200    0.000 
#    1.800    0.000    0.000    0.000    0.000    0.000 
#    0.000    0.000    0.000    0.000    0.000    0.000 
#
# Total GULP energy -247880.942373 kJ/mol
# GULP energy per Si atom -12394.047119 kJ/mol
# Density = 2.405598 g / cm^3
# Si number density = 24.110855 Si / 1000 Ang^3
#
#
#
# Elastic Constant Matrix: (Units=GPa)
#
#
# Indices 1 2 3 4 5 6 
#
# 1 162.0953 20.1322 12.9522 0.0000 0.0000 0.0000
# 2 20.1322 118.3761 23.1387 0.0000 0.0000 0.0000
# 3 12.9522 23.1387 76.0430 0.0000 0.0000 0.0000
# 4 0.0000 0.0000 0.0000 26.1510 0.0000 0.0000
# 5 0.0000 0.0000 0.0000 0.0000 28.5047 0.0000
# 6 0.0000 0.0000 0.0000 0.0000 0.0000 29.1729
#
#
#
# Elastic Compliance Matrix: (Units=1/GPa)
#
#
# Indices 1 2 3 4 5 6 
#
# 1 0.006348 -0.000923 -0.000800 0.000000 0.000000 0.000000
# 2 -0.000923 0.009116 -0.002617 0.000000 0.000000 0.000000
# 3 -0.000800 -0.002617 0.014083 0.000000 0.000000 0.000000
# 4 0.000000 0.000000 0.000000 0.038239 0.000000 0.000000
# 5 0.000000 0.000000 0.000000 0.000000 0.035082 0.000000
# 6 0.000000 0.000000 0.000000 0.000000 0.000000 0.034278
#
#
# Mechanical properties :
#
#
# Convention : Reuss Voigt Hill
#
# Bulk Modulus (GPa) = 47.92324 52.10673 50.01499
# Shear Modulus (GPa) = 32.72625 36.78512 34.75569
#
# Velocity S-wave (km/s) = 3.68819 3.91022 3.80082
# Velocity P-wave (km/s) = 6.16898 6.48418 6.32854
#
# Compressibility (1/GPa) = 0.02086670
#
# Stress axis : x y z
#
# Youngs Moduli (GPa) = 157.53459 109.69575 71.00772
#
# Poissons Ratio (x) = 0.10126 0.05683
# Poissons Ratio (y) = 0.14543 0.18580
# Poissons Ratio (z) = 0.12608 0.28704
#
# Static dielectric constant tensor:
#      x y z
#    x 4.557090 0.000000 0.000000 
#    y 0.000000 4.231450 0.000000 
#    z 0.000000 0.000000 4.361180 
# 
# 
# High freq. dielectric constant tensor:
#      x y z
#    x 1.967490 0.000000 0.000000 
#    y 0.000000 1.937670 0.000000 
#    z 0.000000 0.000000 1.951640 
# 
# From -- ./inp_files/3668.got.cif
#   From: 2010.03.12/outbox.cif.g09.slc.cpg/sg20_2_cif.got.tgz:3668.got - 2010.04.14 01:38:04.
