data_PCOD8159318
_publ_section_title
;
Structure prediction by ZEFSAII (Michael W. Deem and Ramdas Pophale) SiO2 
 PCOD8159318
Probable space group: C 2 2 21
;
_chemical_formula_sum "Si O2"
_cell_formula_units_Z 60
_cell_length_a 9.185645
_cell_length_b 10.423785
_cell_length_c 30.510978
_cell_angle_alpha 90.000000
_cell_angle_beta 90.000000
_cell_angle_gamma 90.000000
_cell_volume 2921.401386
_symmetry_space_group_name_H-M "C 2 2 21"
_symmetry_group_IT_number 20
_symmetry_cell_setting 'orthorhombic'
loop_
_space_group_symop_operation_xyz
x,y,z
-x,-y,1/2+z
x,-y,-z
-x,y,1/2-z
1/2+x,1/2+y,z
1/2-x,1/2-y,1/2+z
1/2+x,1/2-y,-z
1/2-x,1/2+y,1/2-z
loop_
_atom_site_type_symbol
_atom_site_label
_atom_site_fract_x
_atom_site_fract_y
_atom_site_fract_z
Si Si1 0.822347 0.114576 0.939118
Si Si2 0.992986 0.610527 0.911309
Si Si3 0.468218 0.172144 0.413004
Si Si4 0.941574 0.306807 0.186448
Si Si5 0.195422 0.605144 0.769392
Si Si6 0.500000 0.311580 0.250000
Si Si7 0.330492 0.147124 0.318829
Si Si8 0.681451 0.328405 0.539846
O O1 0.926442 0.204911 0.909880
O O2 0.664281 0.128435 0.918064
O O3 0.870029 0.964389 0.938580
O O4 0.831913 0.169042 0.987883
O O5 0.948124 0.462814 0.922693
O O6 0.948187 0.634358 0.861570
O O7 0.912212 0.709920 0.942802
O O8 0.378183 0.157897 0.368530
O O9 0.351312 0.196763 0.451136
O O10 0.858811 0.408384 0.219095
O O11 0.841133 0.180109 0.185317
O O12 0.102819 0.276922 0.207499
O O13 0.369426 0.609281 0.772299
O O14 0.141917 0.492865 0.800734
O O15 0.430799 0.235376 0.289499
#
# Coordination Sequence:
#
# PCOD8159318 Si02
#       8
#     8   8   8   8   8   4   8   8
#     4  10  24  41  65  96 126 173 214 272 327 394
#     4  11  22  41  66  97 127 172 210 271 323 391
#     4  11  23  39  68  96 128 169 220 267 321 392
#     4  10  21  40  63  89 128 169 210 260 325 376
#     4  10  22  41  61  88 126 165 210 263 315 376
#     4  10  24  36  62  90 118 166 214 258 312 378
#     4  11  22  40  62  89 129 168 209 267 318 379
#     4  10  22  44  64  90 135 168 214 270 336 385
#
# _framework density 20.538087999999998
#
# number of rings (size 3 to 8) (size 9 to 14) (size 15 to 20)
#    0.000    1.600    2.667    1.600    1.867    4.800 
#    0.000    1.333    0.000    0.000    0.000    0.000 
#    0.000    0.000    0.000    0.000    0.000    0.000 
#
# Total GULP energy -371760.594622 kJ/mol
# GULP energy per Si atom -12392.019821 kJ/mol
# Density = 2.049134 g / cm^3
# Si number density = 20.538088 Si / 1000 Ang^3
#
#
#
# Elastic Constant Matrix: (Units=GPa)
#
#
# Indices 1 2 3 4 5 6 
#
# 1 103.2836 40.0725 27.1668 0.0000 0.0000 0.0000
# 2 40.0725 90.1025 23.9758 0.0000 0.0000 0.0000
# 3 27.1668 23.9758 85.2598 0.0000 0.0000 0.0000
# 4 0.0000 0.0000 0.0000 29.9322 0.0000 0.0000
# 5 0.0000 0.0000 0.0000 0.0000 34.6415 0.0000
# 6 0.0000 0.0000 0.0000 0.0000 0.0000 27.5536
#
#
#
# Elastic Compliance Matrix: (Units=1/GPa)
#
#
# Indices 1 2 3 4 5 6 
#
# 1 0.012194 -0.004744 -0.002551 0.000000 0.000000 0.000000
# 2 -0.004744 0.013842 -0.002381 0.000000 0.000000 0.000000
# 3 -0.002551 -0.002381 0.013211 0.000000 0.000000 0.000000
# 4 0.000000 0.000000 0.000000 0.033409 0.000000 0.000000
# 5 0.000000 0.000000 0.000000 0.000000 0.028867 0.000000
# 6 0.000000 0.000000 0.000000 0.000000 0.000000 0.036293
#
#
# Mechanical properties :
#
#
# Convention : Reuss Voigt Hill
#
# Bulk Modulus (GPa) = 50.26525 51.23068 50.74796
# Shear Modulus (GPa) = 30.52501 30.92083 30.72292
#
# Velocity S-wave (km/s) = 3.85939 3.88433 3.87188
# Velocity P-wave (km/s) = 6.66237 6.71683 6.68965
#
# Compressibility (1/GPa) = 0.01989446
#
# Stress axis : x y z
#
# Youngs Moduli (GPa) = 82.00863 72.24403 75.69289
#
# Poissons Ratio (x) = 0.34274 0.19311
# Poissons Ratio (y) = 0.38907 0.18021
# Poissons Ratio (z) = 0.20923 0.17200
#
# Static dielectric constant tensor:
#      x y z
#    x 3.929500 0.000000 0.000000 
#    y 0.000000 3.804960 0.000000 
#    z 0.000000 0.000000 3.818920 
# 
# 
# High freq. dielectric constant tensor:
#      x y z
#    x 1.804400 0.000000 0.000000 
#    y 0.000000 1.789410 0.000000 
#    z 0.000000 0.000000 1.819390 
# 
# From -- ./inp_files/31051.got.cif
#   From: 2010.03.12/outbox.cif.g09.slc.cpg/sg20_16_cif.got.tgz:31051.got - 2010.04.14 01:38:04.
