data_PCOD8159322
_publ_section_title
;
Structure prediction by ZEFSAII (Michael W. Deem and Ramdas Pophale) SiO2 
 PCOD8159322
Probable space group: C 2 2 21
;
_chemical_formula_sum "Si O2"
_cell_formula_units_Z 56
_cell_length_a 9.468491
_cell_length_b 20.060920
_cell_length_c 14.235525
_cell_angle_alpha 90.000000
_cell_angle_beta 90.000000
_cell_angle_gamma 90.000000
_cell_volume 2703.990149
_symmetry_space_group_name_H-M "C 2 2 21"
_symmetry_group_IT_number 20
_symmetry_cell_setting 'orthorhombic'
loop_
_space_group_symop_operation_xyz
x,y,z
-x,-y,1/2+z
x,-y,-z
-x,y,1/2-z
1/2+x,1/2+y,z
1/2-x,1/2-y,1/2+z
1/2+x,1/2-y,-z
1/2-x,1/2+y,1/2-z
loop_
_atom_site_type_symbol
_atom_site_label
_atom_site_fract_x
_atom_site_fract_y
_atom_site_fract_z
Si Si1 0.037868 0.851363 0.024346
Si Si2 0.394571 0.587801 0.334733
Si Si3 0.019507 0.699163 0.978636
Si Si4 0.214347 0.818846 0.358121
Si Si5 0.391251 0.170159 0.163907
Si Si6 0.761400 0.038051 0.593032
Si Si7 0.370003 0.145730 0.815691
O O1 0.168811 0.889787 0.070509
O O2 0.905938 0.863434 0.093054
O O3 0.017168 0.883493 0.922058
O O4 0.062686 0.772849 0.011714
O O5 0.500000 0.600674 0.250000
O O6 0.240067 0.620530 0.319823
O O7 0.366823 0.509026 0.348801
O O8 0.150688 0.667042 0.923800
O O9 0.886851 0.696004 0.905331
O O10 0.979133 0.653311 0.068899
O O11 0.174991 0.741771 0.355395
O O12 0.232666 0.839512 0.248954
O O13 0.500000 0.167309 0.250000
O O14 0.630446 0.066702 0.653623
O O15 0.708743 0.000000 0.500000
O O16 0.500000 0.160575 0.750000
#
# Coordination Sequence:
#
# PCOD8159322 Si02
#       7
#     8   8   8   8   8   8   8
#     4  10  22  38  63  93 126 169 221 263 335 388
#     4  11  25  42  65  90 134 181 225 278 328 398
#     4  10  21  40  63  96 136 165 211 274 344 408
#     4  10  23  36  66  99 133 169 206 283 337 411
#     4  11  25  39  63 102 129 179 223 272 346 397
#     4  10  23  43  65  87 126 180 224 269 326 394
#     4  10  23  40  67  97 132 171 218 271 346 398
#
# _framework density 20.710132999999999
#
# number of rings (size 3 to 8) (size 9 to 14) (size 15 to 20)
#    0.000    1.714    1.429    1.714   12.000    0.571 
#    0.000    0.000    0.000    0.000    0.000    0.000 
#    0.000    0.000    0.000    0.000    0.000    0.000 
#
# Total GULP energy -346932.024067 kJ/mol
# GULP energy per Si atom -12390.429431 kJ/mol
# Density = 2.066300 g / cm^3
# Si number density = 20.710133 Si / 1000 Ang^3
#
#
#
# Elastic Constant Matrix: (Units=GPa)
#
#
# Indices 1 2 3 4 5 6 
#
# 1 60.8249 23.5709 47.4303 0.0000 0.0000 0.0000
# 2 23.5709 75.4489 22.4590 0.0000 0.0000 0.0000
# 3 47.4303 22.4590 141.9645 0.0000 0.0000 0.0000
# 4 0.0000 0.0000 0.0000 26.7703 0.0000 0.0000
# 5 0.0000 0.0000 0.0000 0.0000 37.4446 0.0000
# 6 0.0000 0.0000 0.0000 0.0000 0.0000 24.6177
#
#
#
# Elastic Compliance Matrix: (Units=1/GPa)
#
#
# Indices 1 2 3 4 5 6 
#
# 1 0.024162 -0.005400 -0.007218 0.000000 0.000000 0.000000
# 2 -0.005400 0.015116 -0.000587 0.000000 0.000000 0.000000
# 3 -0.007218 -0.000587 0.009549 0.000000 0.000000 0.000000
# 4 0.000000 0.000000 0.000000 0.037355 0.000000 0.000000
# 5 0.000000 0.000000 0.000000 0.000000 0.026706 0.000000
# 6 0.000000 0.000000 0.000000 0.000000 0.000000 0.040621
#
#
# Mechanical properties :
#
#
# Convention : Reuss Voigt Hill
#
# Bulk Modulus (GPa) = 44.61169 51.68430 48.14799
# Shear Modulus (GPa) = 26.68225 30.08505 28.38365
#
# Velocity S-wave (km/s) = 3.59328 3.81553 3.70607
# Velocity P-wave (km/s) = 6.22923 6.66493 6.45076
#
# Compressibility (1/GPa) = 0.02241565
#
# Stress axis : x y z
#
# Youngs Moduli (GPa) = 41.38767 66.15623 104.72819
#
# Poissons Ratio (x) = 0.35722 0.75595
# Poissons Ratio (y) = 0.22348 0.06151
# Poissons Ratio (z) = 0.29874 0.03885
#
# Static dielectric constant tensor:
#      x y z
#    x 3.861120 0.000000 0.000000 
#    y 0.000000 3.620230 0.000000 
#    z 0.000000 0.000000 4.434460 
# 
# 
# High freq. dielectric constant tensor:
#      x y z
#    x 1.803980 0.000000 0.000000 
#    y 0.000000 1.789470 0.000000 
#    z 0.000000 0.000000 1.836470 
# 
# From -- ./inp_files/19180.got.cif
#   From: 2010.03.12/outbox.cif.g09.slc.cpg/sg20_10_cif.got.tgz:19180.got - 2010.04.14 01:38:04.
