data_PCOD8159279
_publ_section_title
;
Structure prediction by ZEFSAII (Michael W. Deem and Ramdas Pophale) SiO2 
 PCOD8159279
Probable space group: C 2 2 21
;
_chemical_formula_sum "Si O2"
_cell_formula_units_Z 52
_cell_length_a 11.805539
_cell_length_b 15.272755
_cell_length_c 14.176513
_cell_angle_alpha 90.000000
_cell_angle_beta 90.000000
_cell_angle_gamma 90.000000
_cell_volume 2556.069309
_symmetry_space_group_name_H-M "C 2 2 21"
_symmetry_group_IT_number 20
_symmetry_cell_setting 'orthorhombic'
loop_
_space_group_symop_operation_xyz
x,y,z
-x,-y,1/2+z
x,-y,-z
-x,y,1/2-z
1/2+x,1/2+y,z
1/2-x,1/2-y,1/2+z
1/2+x,1/2-y,-z
1/2-x,1/2+y,1/2-z
loop_
_atom_site_type_symbol
_atom_site_label
_atom_site_fract_x
_atom_site_fract_y
_atom_site_fract_z
Si Si1 0.739702 0.404191 0.668678
Si Si2 0.282187 0.869094 0.052156
Si Si3 0.870194 0.000000 0.000000
Si Si4 0.530545 0.664281 0.976970
Si Si5 0.557192 0.267103 0.656756
Si Si6 0.838029 0.553297 0.134253
Si Si7 0.470826 0.179442 0.351149
O O1 0.710531 0.474863 0.587654
O O2 0.628959 0.348888 0.694029
O O3 0.776230 0.450537 0.765180
O O4 0.838164 0.339195 0.631629
O O5 0.358312 0.794198 0.097892
O O6 0.149288 0.857699 0.074015
O O7 0.334223 0.956741 0.094410
O O8 0.283778 0.876124 0.938229
O O9 0.947536 0.918594 0.032910
O O10 0.480783 0.749439 0.924081
O O11 0.539130 0.694876 0.086295
O O12 0.500000 0.222805 0.750000
O O13 0.967695 0.584815 0.142889
O O14 0.500000 0.221083 0.250000
#
# Coordination Sequence:
#
# PCOD8159279 Si02
#       7
#     8   8   4   8   8   8   8
#     4  10  22  44  61  94 131 169 211 268 328 378
#     4  11  22  40  64  94 123 172 215 267 328 386
#     4  10  24  40  66  96 132 168 214 264 324 388
#     4  11  22  43  63  93 128 170 215 263 328 390
#     4  11  23  40  65  95 129 169 222 271 325 390
#     4  10  22  40  64  91 130 168 214 269 326 381
#     4  10  21  39  65  88 125 169 213 259 320 385
#
# _framework density 20.343737000000001
#
# number of rings (size 3 to 8) (size 9 to 14) (size 15 to 20)
#    0.000    1.538    3.077    1.846    0.000    5.538 
#    2.769    0.769    0.000    0.000    0.000    0.000 
#    0.000    0.000    0.000    0.000    0.000    0.000 
#
# Total GULP energy -322222.075161 kJ/mol
# GULP energy per Si atom -12393.156737 kJ/mol
# Density = 2.029743 g / cm^3
# Si number density = 20.343737 Si / 1000 Ang^3
#
#
#
# Elastic Constant Matrix: (Units=GPa)
#
#
# Indices 1 2 3 4 5 6 
#
# 1 87.8333 33.6745 50.1809 0.0000 0.0000 0.0000
# 2 33.6745 80.6823 53.5325 0.0000 0.0000 0.0000
# 3 50.1809 53.5325 138.7916 0.0000 0.0000 0.0000
# 4 0.0000 0.0000 0.0000 31.2569 0.0000 0.0000
# 5 0.0000 0.0000 0.0000 0.0000 33.3750 0.0000
# 6 0.0000 0.0000 0.0000 0.0000 0.0000 18.1437
#
#
#
# Elastic Compliance Matrix: (Units=1/GPa)
#
#
# Indices 1 2 3 4 5 6 
#
# 1 0.015089 -0.003599 -0.004067 0.000000 0.000000 0.000000
# 2 -0.003599 0.017515 -0.005455 0.000000 0.000000 0.000000
# 3 -0.004067 -0.005455 0.010779 0.000000 0.000000 0.000000
# 4 0.000000 0.000000 0.000000 0.031993 0.000000 0.000000
# 5 0.000000 0.000000 0.000000 0.000000 0.029963 0.000000
# 6 0.000000 0.000000 0.000000 0.000000 0.000000 0.055115
#
#
# Mechanical properties :
#
#
# Convention : Reuss Voigt Hill
#
# Bulk Modulus (GPa) = 58.33616 64.67587 61.50602
# Shear Modulus (GPa) = 25.98614 27.88308 26.93461
#
# Velocity S-wave (km/s) = 3.57789 3.70617 3.64260
# Velocity P-wave (km/s) = 6.76800 7.08342 6.92751
#
# Compressibility (1/GPa) = 0.01714203
#
# Stress axis : x y z
#
# Youngs Moduli (GPa) = 66.27463 57.09238 92.76919
#
# Poissons Ratio (x) = 0.20547 0.37732
# Poissons Ratio (y) = 0.23852 0.50601
# Poissons Ratio (z) = 0.26956 0.31141
#
# Static dielectric constant tensor:
#      x y z
#    x 3.626920 0.000000 0.000000 
#    y 0.000000 3.528570 0.000000 
#    z 0.000000 0.000000 3.837020 
# 
# 
# High freq. dielectric constant tensor:
#      x y z
#    x 1.795340 0.000000 0.000000 
#    y 0.000000 1.787740 0.000000 
#    z 0.000000 0.000000 1.805920 
# 
# From -- ./inp_files/20073.got.cif
#   From: 2010.03.12/outbox.cif.g09.slc.cpg/sg20_11_cif.got.tgz:20073.got - 2010.04.14 01:38:04.
