data_PCOD8159730
_publ_section_title
;
Structure prediction by ZEFSAII (Michael W. Deem and Ramdas Pophale) SiO2 
 PCOD8159730
Probable space group: C 2 2 21
;
_chemical_formula_sum "Si O2"
_cell_formula_units_Z 40
_cell_length_a 4.985284
_cell_length_b 13.198869
_cell_length_c 22.806120
_cell_angle_alpha 90.000000
_cell_angle_beta 90.000000
_cell_angle_gamma 90.000000
_cell_volume 1500.645215
_symmetry_space_group_name_H-M "C 2 2 21"
_symmetry_group_IT_number 20
_symmetry_cell_setting 'orthorhombic'
loop_
_space_group_symop_operation_xyz
x,y,z
-x,-y,1/2+z
x,-y,-z
-x,y,1/2-z
1/2+x,1/2+y,z
1/2-x,1/2-y,1/2+z
1/2+x,1/2-y,-z
1/2-x,1/2+y,1/2-z
loop_
_atom_site_type_symbol
_atom_site_label
_atom_site_fract_x
_atom_site_fract_y
_atom_site_fract_z
Si Si1 0.102449 0.455402 0.433020
Si Si2 0.000000 0.927470 0.750000
Si Si3 0.842417 0.758207 0.371578
Si Si4 0.413984 0.546366 0.124213
Si Si5 0.000000 0.712170 0.250000
Si Si6 0.823125 0.300836 0.974532
O O1 0.209133 0.356024 0.399456
O O2 0.317569 0.542361 0.415594
O O3 0.809227 0.480603 0.409183
O O4 0.098690 0.417190 0.502658
O O5 0.746191 0.859482 0.733248
O O6 0.946141 0.995310 0.808755
O O7 0.637948 0.665040 0.370350
O O8 0.102037 0.719829 0.407658
O O9 0.935332 0.783641 0.305552
O O10 0.013191 0.226015 0.014086
#
# Coordination Sequence:
#
# PCOD8159730 Si02
#       6
#     8   4   8   8   4   8
#     4  11  24  42  67  99 128 170 222 258 325 392
#     4  10  22  43  64  95 136 166 212 279 320 369
#     4  10  24  46  68  94 135 170 212 275 318 378
#     4  11  24  43  67  95 129 172 217 265 321 386
#     4  10  22  41  70  95 122 176 218 251 332 389
#     4  10  22  42  67  95 133 170 210 271 324 374
#
# _framework density 26.655199
#
# number of rings (size 3 to 8) (size 9 to 14) (size 15 to 20)
#    0.000    1.600    0.000    4.800    0.000   16.000 
#    0.000   14.000    0.000    0.000    0.000    0.000 
#    0.000    0.000    0.000    0.000    0.000    0.000 
#
# Total GULP energy -248040.938334 kJ/mol
# GULP energy per Si atom -12402.046917 kJ/mol
# Density = 2.659453 g / cm^3
# Si number density = 26.655199 Si / 1000 Ang^3
#
#
#
# Elastic Constant Matrix: (Units=GPa)
#
#
# Indices 1 2 3 4 5 6 
#
# 1 122.2340 3.5122 44.4673 0.0000 0.0000 0.0000
# 2 3.5122 68.6970 2.9915 0.0000 0.0000 0.0000
# 3 44.4673 2.9915 229.2046 0.0000 0.0000 0.0000
# 4 0.0000 0.0000 0.0000 30.2896 0.0000 0.0000
# 5 0.0000 0.0000 0.0000 0.0000 46.1168 0.0000
# 6 0.0000 0.0000 0.0000 0.0000 0.0000 41.6640
#
#
#
# Elastic Compliance Matrix: (Units=1/GPa)
#
#
# Indices 1 2 3 4 5 6 
#
# 1 0.008812 -0.000376 -0.001705 0.000000 0.000000 0.000000
# 2 -0.000376 0.014581 -0.000117 0.000000 0.000000 0.000000
# 3 -0.001705 -0.000117 0.004695 0.000000 0.000000 0.000000
# 4 0.000000 0.000000 0.000000 0.033015 0.000000 0.000000
# 5 0.000000 0.000000 0.000000 0.000000 0.021684 0.000000
# 6 0.000000 0.000000 0.000000 0.000000 0.000000 0.024002
#
#
# Mechanical properties :
#
#
# Convention : Reuss Voigt Hill
#
# Bulk Modulus (GPa) = 42.20900 58.00862 50.10881
# Shear Modulus (GPa) = 41.98780 48.22503 45.10641
#
# Velocity S-wave (km/s) = 3.97321 4.25810 4.11812
# Velocity P-wave (km/s) = 6.07603 6.78123 6.43829
#
# Compressibility (1/GPa) = 0.02369163
#
# Stress axis : x y z
#
# Youngs Moduli (GPa) = 113.48181 68.58230 212.98508
#
# Poissons Ratio (x) = 0.02581 0.36307
# Poissons Ratio (y) = 0.04270 0.02498
# Poissons Ratio (z) = 0.19345 0.00804
#
# Static dielectric constant tensor:
#      x y z
#    x 4.643830 0.000000 0.000000 
#    y 0.000000 5.076230 0.000000 
#    z 0.000000 0.000000 5.657060 
# 
# 
# High freq. dielectric constant tensor:
#      x y z
#    x 2.074630 0.000000 0.000000 
#    y 0.000000 2.081610 0.000000 
#    z 0.000000 0.000000 2.108620 
# 
# From -- ./inp_files/28294.got.cif
#   From: 2010.03.12/outbox.cif.g09.slc.cpg/sg20_15_cif.got.tgz:28294.got - 2010.04.14 01:38:04.
