data_PCOD8159637
_publ_section_title
;
Structure prediction by ZEFSAII (Michael W. Deem and Ramdas Pophale) SiO2 
 PCOD8159637
Probable space group: C 2 2 21
;
_chemical_formula_sum "Si O2"
_cell_formula_units_Z 48
_cell_length_a 12.550109
_cell_length_b 7.595542
_cell_length_c 23.368799
_cell_angle_alpha 90.000000
_cell_angle_beta 90.000000
_cell_angle_gamma 90.000000
_cell_volume 2227.627961
_symmetry_space_group_name_H-M "C 2 2 21"
_symmetry_group_IT_number 20
_symmetry_cell_setting 'orthorhombic'
loop_
_space_group_symop_operation_xyz
x,y,z
-x,-y,1/2+z
x,-y,-z
-x,y,1/2-z
1/2+x,1/2+y,z
1/2-x,1/2-y,1/2+z
1/2+x,1/2-y,-z
1/2-x,1/2+y,1/2-z
loop_
_atom_site_type_symbol
_atom_site_label
_atom_site_fract_x
_atom_site_fract_y
_atom_site_fract_z
Si Si1 0.562494 0.285267 0.690148
Si Si2 0.716608 0.387623 0.318593
Si Si3 0.237663 0.703002 0.438522
Si Si4 0.024305 0.186962 0.068936
Si Si5 0.071585 0.500000 0.500000
Si Si6 0.377914 0.051897 0.239824
Si Si7 0.862230 0.000000 0.000000
O O1 0.500000 0.291216 0.750000
O O2 0.628133 0.462650 0.684499
O O3 0.483946 0.266713 0.635976
O O4 0.631860 0.104089 0.692039
O O5 0.727005 0.318425 0.382117
O O6 0.827547 0.473910 0.298217
O O7 0.687177 0.223373 0.278311
O O8 0.355372 0.620583 0.442781
O O9 0.147413 0.553923 0.446003
O O10 0.214635 0.834413 0.491272
O O11 0.940195 0.032601 0.054498
O O12 0.003343 0.348553 0.025418
O O13 0.500000 0.107006 0.250000
#
# Coordination Sequence:
#
# PCOD8159637 Si02
#       7
#     8   8   8   8   4   8   4
#     4  11  23  43  68  99 136 178 217 275 336 396
#     4  12  23  42  67  96 132 176 223 266 328 397
#     4  11  22  40  65  91 124 170 209 269 332 381
#     4  11  22  42  65  94 130 167 216 271 328 390
#     4  10  24  42  66  98 126 164 224 272 326 396
#     4  11  24  42  63  94 134 172 216 265 321 391
#     4  10  22  40  62  92 126 162 218 264 326 394
#
# _framework density 21.547584000000001
#
# number of rings (size 3 to 8) (size 9 to 14) (size 15 to 20)
#    0.000    1.000    3.333    4.500    0.000    0.000 
#    0.000    0.000    0.000    0.000    0.000    0.000 
#    0.000    0.000    0.000    0.000    0.000    0.000 
#
# Total GULP energy -297496.572929 kJ/mol
# GULP energy per Si atom -12395.690539 kJ/mol
# Density = 2.149854 g / cm^3
# Si number density = 21.547584 Si / 1000 Ang^3
#
#
#
# Elastic Constant Matrix: (Units=GPa)
#
#
# Indices 1 2 3 4 5 6 
#
# 1 92.3632 17.0737 31.5218 0.0000 0.0000 0.0000
# 2 17.0737 73.9112 0.9445 0.0000 0.0000 0.0000
# 3 31.5218 0.9445 93.4718 0.0000 0.0000 0.0000
# 4 0.0000 0.0000 0.0000 31.1913 0.0000 0.0000
# 5 0.0000 0.0000 0.0000 0.0000 31.0914 0.0000
# 6 0.0000 0.0000 0.0000 0.0000 0.0000 27.6049
#
#
#
# Elastic Compliance Matrix: (Units=1/GPa)
#
#
# Indices 1 2 3 4 5 6 
#
# 1 0.012831 -0.002909 -0.004298 0.000000 0.000000 0.000000
# 2 -0.002909 0.014191 0.000838 0.000000 0.000000 0.000000
# 3 -0.004298 0.000838 0.012139 0.000000 0.000000 0.000000
# 4 0.000000 0.000000 0.000000 0.032060 0.000000 0.000000
# 5 0.000000 0.000000 0.000000 0.000000 0.032163 0.000000
# 6 0.000000 0.000000 0.000000 0.000000 0.000000 0.036225
#
#
# Mechanical properties :
#
#
# Convention : Reuss Voigt Hill
#
# Bulk Modulus (GPa) = 37.84553 39.86959 38.85756
# Shear Modulus (GPa) = 31.02569 31.99128 31.50848
#
# Velocity S-wave (km/s) = 3.79868 3.85734 3.82812
# Velocity P-wave (km/s) = 6.06974 6.19531 6.13285
#
# Compressibility (1/GPa) = 0.02642320
#
# Stress axis : x y z
#
# Youngs Moduli (GPa) = 77.93423 70.46689 82.37711
#
# Poissons Ratio (x) = 0.20500 0.35404
# Poissons Ratio (y) = 0.22672 -0.06900
# Poissons Ratio (z) = 0.33494 -0.05903
#
# Static dielectric constant tensor:
#      x y z
#    x 3.903210 0.000000 0.000000 
#    y 0.000000 4.066400 0.000000 
#    z 0.000000 0.000000 3.792120 
# 
# 
# High freq. dielectric constant tensor:
#      x y z
#    x 1.848170 0.000000 0.000000 
#    y 0.000000 1.852610 0.000000 
#    z 0.000000 0.000000 1.843610 
# 
# From -- ./inp_files/28762.got.cif
#   From: 2010.03.12/outbox.cif.g09.slc.cpg/sg20_15_cif.got.tgz:28762.got - 2010.04.14 01:38:04.
