data_PCOD8159739
_publ_section_title
;
Structure prediction by ZEFSAII (Michael W. Deem and Ramdas Pophale) SiO2 
 PCOD8159739
Probable space group: C 2 2 21
;
_chemical_formula_sum "Si O2"
_cell_formula_units_Z 40
_cell_length_a 10.525432
_cell_length_b 8.820045
_cell_length_c 21.090337
_cell_angle_alpha 90.000000
_cell_angle_beta 90.000000
_cell_angle_gamma 90.000000
_cell_volume 1957.916877
_symmetry_space_group_name_H-M "C 2 2 21"
_symmetry_group_IT_number 20
_symmetry_cell_setting 'orthorhombic'
loop_
_space_group_symop_operation_xyz
x,y,z
-x,-y,1/2+z
x,-y,-z
-x,y,1/2-z
1/2+x,1/2+y,z
1/2-x,1/2-y,1/2+z
1/2+x,1/2-y,-z
1/2-x,1/2+y,1/2-z
loop_
_atom_site_type_symbol
_atom_site_label
_atom_site_fract_x
_atom_site_fract_y
_atom_site_fract_z
Si Si1 0.272577 0.746002 0.086734
Si Si2 0.118860 0.500000 0.500000
Si Si3 0.373257 0.678565 0.786690
Si Si4 0.487722 0.248725 0.084898
Si Si5 0.867198 0.180608 0.218989
Si Si6 0.619699 0.500000 0.500000
O O1 0.364149 0.749903 0.148032
O O2 0.129384 0.753301 0.113012
O O3 0.290699 0.590269 0.048483
O O4 0.293985 0.887592 0.040628
O O5 0.030755 0.408984 0.548575
O O6 0.500000 0.730020 0.750000
O O7 0.386103 0.734147 0.858989
O O8 0.248407 0.758162 0.760392
O O9 0.355191 0.499351 0.783581
O O10 0.473111 0.386181 0.036118
O O11 0.000000 0.232272 0.250000
#
# Coordination Sequence:
#
# PCOD8159739 Si02
#       6
#     8   4   8   8   8   4
#     4  11  22  44  65  95 130 166 216 268 319 387
#     4  10  26  38  64 102 124 166 214 262 326 384
#     4  11  24  44  67  93 127 175 215 265 323 381
#     4  11  22  42  67  91 129 167 215 265 323 385
#     4  11  26  43  66  97 131 171 221 268 323 379
#     4  10  22  42  62  94 126 172 208 268 326 378
#
# _framework density 20.429877000000001
#
# number of rings (size 3 to 8) (size 9 to 14) (size 15 to 20)
#    0.000    1.200    4.000    1.200    2.800    2.400 
#   14.400    0.000    0.000    0.000    0.000    0.000 
#    0.000    0.000    0.000    0.000    0.000    0.000 
#
# Total GULP energy -248087.609352 kJ/mol
# GULP energy per Si atom -12404.380468 kJ/mol
# Density = 2.038338 g / cm^3
# Si number density = 20.429877 Si / 1000 Ang^3
#
#
#
# Elastic Constant Matrix: (Units=GPa)
#
#
# Indices 1 2 3 4 5 6 
#
# 1 143.5055 41.2958 59.3993 0.0000 0.0000 0.0000
# 2 41.2958 81.1997 29.3874 0.0000 0.0000 0.0000
# 3 59.3993 29.3874 130.0103 0.0000 0.0000 0.0000
# 4 0.0000 0.0000 0.0000 18.9545 0.0000 0.0000
# 5 0.0000 0.0000 0.0000 0.0000 39.6628 0.0000
# 6 0.0000 0.0000 0.0000 0.0000 0.0000 22.2597
#
#
#
# Elastic Compliance Matrix: (Units=1/GPa)
#
#
# Indices 1 2 3 4 5 6 
#
# 1 0.009438 -0.003528 -0.003515 0.000000 0.000000 0.000000
# 2 -0.003528 0.014731 -0.001718 0.000000 0.000000 0.000000
# 3 -0.003515 -0.001718 0.009686 0.000000 0.000000 0.000000
# 4 0.000000 0.000000 0.000000 0.052758 0.000000 0.000000
# 5 0.000000 0.000000 0.000000 0.000000 0.025213 0.000000
# 6 0.000000 0.000000 0.000000 0.000000 0.000000 0.044924
#
#
# Mechanical properties :
#
#
# Convention : Reuss Voigt Hill
#
# Bulk Modulus (GPa) = 61.22176 68.32008 64.77092
# Shear Modulus (GPa) = 27.82158 31.15092 29.48625
#
# Velocity S-wave (km/s) = 3.69427 3.90907 3.80319
# Velocity P-wave (km/s) = 6.94469 7.34086 7.14552
#
# Compressibility (1/GPa) = 0.01633406
#
# Stress axis : x y z
#
# Youngs Moduli (GPa) = 105.94958 67.88246 103.24333
#
# Poissons Ratio (x) = 0.23949 0.36288
# Poissons Ratio (y) = 0.37380 0.17737
# Poissons Ratio (z) = 0.37239 0.11662
#
# Static dielectric constant tensor:
#      x y z
#    x 3.550450 0.000000 0.000000 
#    y 0.000000 3.828010 0.000000 
#    z 0.000000 0.000000 3.855480 
# 
# 
# High freq. dielectric constant tensor:
#      x y z
#    x 1.794550 0.000000 0.000000 
#    y 0.000000 1.804720 0.000000 
#    z 0.000000 0.000000 1.815520 
# 
# From -- ./inp_files/23204.got.cif
#   From: 2010.03.12/outbox.cif.g09.slc.cpg/sg20_12_cif.got.tgz:23204.got - 2010.04.14 01:38:04.
