data_PCOD8159952
_publ_section_title
;
Structure prediction by ZEFSAII (Michael W. Deem and Ramdas Pophale) SiO2 
 PCOD8159952
Probable space group: C 2 2 21
;
_chemical_formula_sum "Si O2"
_cell_formula_units_Z 48
_cell_length_a 25.780287
_cell_length_b 5.418490
_cell_length_c 15.816959
_cell_angle_alpha 90.000000
_cell_angle_beta 90.000000
_cell_angle_gamma 90.000000
_cell_volume 2209.474598
_symmetry_space_group_name_H-M "C 2 2 21"
_symmetry_group_IT_number 20
_symmetry_cell_setting 'orthorhombic'
loop_
_space_group_symop_operation_xyz
x,y,z
-x,-y,1/2+z
x,-y,-z
-x,y,1/2-z
1/2+x,1/2+y,z
1/2-x,1/2-y,1/2+z
1/2+x,1/2-y,-z
1/2-x,1/2+y,1/2-z
loop_
_atom_site_type_symbol
_atom_site_label
_atom_site_fract_x
_atom_site_fract_y
_atom_site_fract_z
Si Si1 0.000000 0.191822 0.750000
Si Si2 0.362096 0.685809 0.574655
Si Si3 0.278670 0.000000 0.500000
Si Si4 0.464305 0.983854 0.590806
Si Si5 0.225531 0.809692 0.350911
Si Si6 0.590410 0.632823 0.202742
Si Si7 0.684951 0.187982 0.714471
O O1 0.002002 0.357680 0.834914
O O2 0.051011 0.023004 0.739540
O O3 0.351861 0.500000 0.500000
O O4 0.416183 0.819944 0.561848
O O5 0.364768 0.545932 0.664217
O O6 0.313838 0.872722 0.573263
O O7 0.243933 0.194492 0.551397
O O8 0.495509 0.000000 0.500000
O O9 0.443152 0.242885 0.627539
O O10 0.275727 0.809818 0.291952
O O11 0.192404 0.560323 0.339881
O O12 0.191954 0.059625 0.338581
O O13 0.624143 0.828315 0.256097
#
# Coordination Sequence:
#
# PCOD8159952 Si02
#       7
#     4   8   4   8   8   8   8
#     4  10  26  38  70 104 140 182 226 300 356 430
#     4  11  20  33  62 101 134 175 211 291 357 403
#     4  12  24  36  62 102 140 174 234 294 338 408
#     4  11  21  41  64 104 140 172 227 289 358 425
#     4  10  24  39  62  97 136 183 224 279 344 415
#     4  11  23  41  66 100 136 179 234 284 355 421
#     4  10  23  42  62  94 138 184 226 271 347 421
#
# _framework density 21.724620999999999
#
# number of rings (size 3 to 8) (size 9 to 14) (size 15 to 20)
#    0.000    1.333    2.500    2.500   14.000    0.000 
#    0.000    0.000    0.000    4.000    4.333    0.000 
#    0.000    0.000    0.000    0.000    0.000    0.000 
#
# Total GULP energy -297486.835389 kJ/mol
# GULP energy per Si atom -12395.284808 kJ/mol
# Density = 2.167518 g / cm^3
# Si number density = 21.724621 Si / 1000 Ang^3
#
#
#
# Elastic Constant Matrix: (Units=GPa)
#
#
# Indices 1 2 3 4 5 6 
#
# 1 74.5210 47.2016 66.1309 0.0000 0.0000 0.0000
# 2 47.2016 140.1724 56.6976 0.0000 0.0000 0.0000
# 3 66.1309 56.6976 125.0124 0.0000 0.0000 0.0000
# 4 0.0000 0.0000 0.0000 35.4535 0.0000 0.0000
# 5 0.0000 0.0000 0.0000 0.0000 21.1410 0.0000
# 6 0.0000 0.0000 0.0000 0.0000 0.0000 36.6264
#
#
#
# Elastic Compliance Matrix: (Units=1/GPa)
#
#
# Indices 1 2 3 4 5 6 
#
# 1 0.027063 -0.004069 -0.012471 0.000000 0.000000 0.000000
# 2 -0.004069 0.009349 -0.002087 0.000000 0.000000 0.000000
# 3 -0.012471 -0.002087 0.015543 0.000000 0.000000 0.000000
# 4 0.000000 0.000000 0.000000 0.028206 0.000000 0.000000
# 5 0.000000 0.000000 0.000000 0.000000 0.047302 0.000000
# 6 0.000000 0.000000 0.000000 0.000000 0.000000 0.027303
#
#
# Mechanical properties :
#
#
# Convention : Reuss Voigt Hill
#
# Bulk Modulus (GPa) = 68.02654 75.52957 71.77805
# Shear Modulus (GPa) = 25.39112 29.95588 27.67350
#
# Velocity S-wave (km/s) = 3.42244 3.71737 3.57295
# Velocity P-wave (km/s) = 6.85555 7.29845 7.08046
#
# Compressibility (1/GPa) = 0.01470015
#
# Stress axis : x y z
#
# Youngs Moduli (GPa) = 36.95077 106.96783 64.33800
#
# Poissons Ratio (x) = 0.43525 0.80234
# Poissons Ratio (y) = 0.15035 0.13430
# Poissons Ratio (z) = 0.46080 0.22329
#
# Static dielectric constant tensor:
#      x y z
#    x 3.653250 0.000000 0.000000 
#    y 0.000000 4.489720 0.000000 
#    z 0.000000 0.000000 3.897650 
# 
# 
# High freq. dielectric constant tensor:
#      x y z
#    x 1.818620 0.000000 0.000000 
#    y 0.000000 1.873250 0.000000 
#    z 0.000000 0.000000 1.839470 
# 
# From -- ./inp_files/22184.got.cif
#   From: 2010.03.12/outbox.cif.g09.slc.cpg/sg20_12_cif.got.tgz:22184.got - 2010.04.14 01:38:04.
