data_PCOD8159666
_publ_section_title
;
Structure prediction by ZEFSAII (Michael W. Deem and Ramdas Pophale) SiO2 
 PCOD8159666
Probable space group: C 2 2 21
;
_chemical_formula_sum "Si O2"
_cell_formula_units_Z 64
_cell_length_a 11.403714
_cell_length_b 8.624060
_cell_length_c 30.167467
_cell_angle_alpha 90.000000
_cell_angle_beta 90.000000
_cell_angle_gamma 90.000000
_cell_volume 2966.859175
_symmetry_space_group_name_H-M "C 2 2 21"
_symmetry_group_IT_number 20
_symmetry_cell_setting 'orthorhombic'
loop_
_space_group_symop_operation_xyz
x,y,z
-x,-y,1/2+z
x,-y,-z
-x,y,1/2-z
1/2+x,1/2+y,z
1/2-x,1/2-y,1/2+z
1/2+x,1/2-y,-z
1/2-x,1/2+y,1/2-z
loop_
_atom_site_type_symbol
_atom_site_label
_atom_site_fract_x
_atom_site_fract_y
_atom_site_fract_z
Si Si1 0.563304 0.416264 0.046331
Si Si2 0.916700 0.874363 0.886506
Si Si3 0.526527 0.686915 0.202705
Si Si4 0.503462 0.073369 0.045853
Si Si5 0.260502 0.166540 0.159653
Si Si6 0.507183 0.043413 0.300457
Si Si7 0.328201 0.989358 0.374717
Si Si8 0.198081 0.424648 0.411435
O O1 0.493281 0.531473 0.078622
O O2 0.494374 0.257655 0.041427
O O3 0.689633 0.357548 0.063482
O O4 0.577354 0.500000 0.000000
O O5 0.908762 0.692625 0.898508
O O6 0.971039 0.907518 0.838096
O O7 0.779826 0.906024 0.887130
O O8 0.500000 0.608198 0.250000
O O9 0.667499 0.673535 0.199742
O O10 0.467993 0.858498 0.200819
O O11 0.581801 0.001824 0.085041
O O12 0.367129 0.040932 0.055377
O O13 0.548237 0.000000 0.000000
O O14 0.393047 0.154300 0.178115
O O15 0.226499 0.317083 0.130434
O O16 0.245842 0.013456 0.130338
O O17 0.500000 0.104471 0.250000
O O18 0.388501 0.057840 0.329756
#
# Coordination Sequence:
#
# PCOD8159666 Si02
#       8
#     8   8   8   8   8   8   8   8
#     4  12  28  46  70 104 139 178 233 287 348 421
#     4  12  24  44  68 102 140 181 230 287 348 415
#     4  10  22  40  66 101 138 181 233 286 342 413
#     4  12  26  48  70 101 139 180 230 290 345 413
#     4  11  21  42  72  95 136 190 222 288 349 401
#     4  10  22  42  68 100 135 182 234 284 348 412
#     4  11  25  42  69 101 142 179 233 286 348 412
#     4  12  23  46  72  97 135 185 228 278 349 411
#
# _framework density 21.571635000000001
#
# number of rings (size 3 to 8) (size 9 to 14) (size 15 to 20)
#    0.000    0.750    5.000    2.625    3.500    0.500 
#    2.250    0.625    0.000    0.000    0.000    0.000 
#    0.000    0.000    0.000    0.000    0.000    0.000 
#
# Total GULP energy -396508.228111 kJ/mol
# GULP energy per Si atom -12390.882128 kJ/mol
# Density = 2.152254 g / cm^3
# Si number density = 21.571635 Si / 1000 Ang^3
#
#
#
# Elastic Constant Matrix: (Units=GPa)
#
#
# Indices 1 2 3 4 5 6 
#
# 1 105.2138 25.5777 36.3801 0.0000 0.0000 0.0000
# 2 25.5777 96.1379 33.1463 0.0000 0.0000 0.0000
# 3 36.3801 33.1463 145.4963 0.0000 0.0000 0.0000
# 4 0.0000 0.0000 0.0000 26.1735 0.0000 0.0000
# 5 0.0000 0.0000 0.0000 0.0000 28.8804 0.0000
# 6 0.0000 0.0000 0.0000 0.0000 0.0000 32.0940
#
#
#
# Elastic Compliance Matrix: (Units=1/GPa)
#
#
# Indices 1 2 3 4 5 6 
#
# 1 0.010783 -0.002104 -0.002217 0.000000 0.000000 0.000000
# 2 -0.002104 0.011699 -0.002139 0.000000 0.000000 0.000000
# 3 -0.002217 -0.002139 0.007915 0.000000 0.000000 0.000000
# 4 0.000000 0.000000 0.000000 0.038207 0.000000 0.000000
# 5 0.000000 0.000000 0.000000 0.000000 0.034626 0.000000
# 6 0.000000 0.000000 0.000000 0.000000 0.000000 0.031159
#
#
# Mechanical properties :
#
#
# Convention : Reuss Voigt Hill
#
# Bulk Modulus (GPa) = 57.22158 59.67292 58.44725
# Shear Modulus (GPa) = 32.65147 34.21250 33.43198
#
# Velocity S-wave (km/s) = 3.89476 3.98678 3.94104
# Velocity P-wave (km/s) = 6.84174 6.99394 6.91826
#
# Compressibility (1/GPa) = 0.01747592
#
# Stress axis : x y z
#
# Youngs Moduli (GPa) = 92.74275 85.47653 126.34901
#
# Poissons Ratio (x) = 0.17988 0.28007
# Poissons Ratio (y) = 0.19517 0.27027
# Poissons Ratio (z) = 0.20558 0.18284
#
# Static dielectric constant tensor:
#      x y z
#    x 4.066100 0.000000 0.000000 
#    y 0.000000 3.844430 0.000000 
#    z 0.000000 0.000000 4.119570 
# 
# 
# High freq. dielectric constant tensor:
#      x y z
#    x 1.856700 0.000000 0.000000 
#    y 0.000000 1.840310 0.000000 
#    z 0.000000 0.000000 1.854070 
# 
# From -- ./inp_files/31207.got.cif
#   From: 2010.03.12/outbox.cif.g09.slc.cpg/sg20_16_cif.got.tgz:31207.got - 2010.04.14 01:38:04.
