data_PCOD8159757
_publ_section_title
;
Structure prediction by ZEFSAII (Michael W. Deem and Ramdas Pophale) SiO2 
 PCOD8159757
Probable space group: C 2 2 21
;
_chemical_formula_sum "Si O2"
_cell_formula_units_Z 48
_cell_length_a 7.627503
_cell_length_b 32.995319
_cell_length_c 8.658526
_cell_angle_alpha 90.000000
_cell_angle_beta 90.000000
_cell_angle_gamma 90.000000
_cell_volume 2179.107643
_symmetry_space_group_name_H-M "C 2 2 21"
_symmetry_group_IT_number 20
_symmetry_cell_setting 'orthorhombic'
loop_
_space_group_symop_operation_xyz
x,y,z
-x,-y,1/2+z
x,-y,-z
-x,y,1/2-z
1/2+x,1/2+y,z
1/2-x,1/2-y,1/2+z
1/2+x,1/2-y,-z
1/2-x,1/2+y,1/2-z
loop_
_atom_site_type_symbol
_atom_site_label
_atom_site_fract_x
_atom_site_fract_y
_atom_site_fract_z
Si Si1 0.807961 0.101668 0.094095
Si Si2 0.908821 0.758716 0.414970
Si Si3 0.305646 0.402737 0.541119
Si Si4 0.815679 0.327958 0.162983
Si Si5 0.204336 0.186904 0.521754
Si Si6 0.004005 0.543559 0.066853
O O1 0.806639 0.095958 0.275316
O O2 0.767257 0.149234 0.088780
O O3 0.657520 0.074567 0.014980
O O4 0.988823 0.091182 0.001195
O O5 0.721501 0.782868 0.405769
O O6 0.874767 0.715982 0.500857
O O7 0.000000 0.749642 0.250000
O O8 0.031403 0.787436 0.520820
O O9 0.225379 0.362173 0.464572
O O10 0.179562 0.440215 0.493415
O O11 0.678657 0.330605 0.305197
O O12 0.000000 0.333655 0.250000
O O13 0.000000 0.540331 0.250000
O O14 0.048778 0.500000 0.000000
#
# Coordination Sequence:
#
# PCOD8159757 Si02
#       6
#     8   8   8   8   8   8
#     4  10  22  42  68  89 126 174 212 262 323 396
#     4  10  23  39  56  90 128 169 227 277 333 386
#     4  10  22  42  65  94 125 168 216 262 324 393
#     4  11  22  38  61  89 125 167 218 274 329 380
#     4  11  22  39  59  86 125 167 219 273 319 388
#     4  10  23  42  66  98 130 159 207 260 325 399
#
# _framework density 22.027367000000002
#
# number of rings (size 3 to 8) (size 9 to 14) (size 15 to 20)
#    0.000    1.667    1.667    2.000    0.000    8.667 
#    3.000    0.000    0.000    0.000    0.000    0.000 
#    0.000    0.000    0.000    0.000    0.000    0.000 
#
# Total GULP energy -297322.000038 kJ/mol
# GULP energy per Si atom -12388.416668 kJ/mol
# Density = 2.197723 g / cm^3
# Si number density = 22.027367 Si / 1000 Ang^3
#
#
#
# Elastic Constant Matrix: (Units=GPa)
#
#
# Indices 1 2 3 4 5 6 
#
# 1 150.8336 85.5630 19.2416 0.0000 0.0000 0.0000
# 2 85.5630 144.3157 23.7863 0.0000 0.0000 0.0000
# 3 19.2416 23.7863 23.8503 0.0000 0.0000 0.0000
# 4 0.0000 0.0000 0.0000 32.8349 0.0000 0.0000
# 5 0.0000 0.0000 0.0000 0.0000 24.1379 0.0000
# 6 0.0000 0.0000 0.0000 0.0000 0.0000 28.7154
#
#
#
# Elastic Compliance Matrix: (Units=1/GPa)
#
#
# Indices 1 2 3 4 5 6 
#
# 1 0.010124 -0.005572 -0.002610 0.000000 0.000000 0.000000
# 2 -0.005572 0.011359 -0.006833 0.000000 0.000000 0.000000
# 3 -0.002610 -0.006833 0.050849 0.000000 0.000000 0.000000
# 4 0.000000 0.000000 0.000000 0.030455 0.000000 0.000000
# 5 0.000000 0.000000 0.000000 0.000000 0.041429 0.000000
# 6 0.000000 0.000000 0.000000 0.000000 0.000000 0.034825
#
#
# Mechanical properties :
#
#
# Convention : Reuss Voigt Hill
#
# Bulk Modulus (GPa) = 23.64036 64.02016 43.83026
# Shear Modulus (GPa) = 22.40425 29.83155 26.11790
#
# Velocity S-wave (km/s) = 3.19268 3.68407 3.44714
# Velocity P-wave (km/s) = 4.93421 6.87193 5.98205
#
# Compressibility (1/GPa) = 0.04230055
#
# Stress axis : x y z
#
# Youngs Moduli (GPa) = 98.77919 88.03563 19.66597
#
# Poissons Ratio (x) = 0.49053 0.05134
# Poissons Ratio (y) = 0.55039 0.13438
# Poissons Ratio (z) = 0.25786 0.60158
#
# Static dielectric constant tensor:
#      x y z
#    x 4.616480 0.000000 0.000000 
#    y 0.000000 3.966640 0.000000 
#    z 0.000000 0.000000 3.865590 
# 
# 
# High freq. dielectric constant tensor:
#      x y z
#    x 1.886420 0.000000 0.000000 
#    y 0.000000 1.854630 0.000000 
#    z 0.000000 0.000000 1.848530 
# 
# From -- ./inp_files/6470.got.cif
#   From: 2010.03.12/outbox.cif.g09.slc.cpg/sg20_4_cif.got.tgz:6470.got - 2010.04.14 01:38:04.
