data_PCOD8159699
_publ_section_title
;
Structure prediction by ZEFSAII (Michael W. Deem and Ramdas Pophale) SiO2 
 PCOD8159699
Probable space group: C 2 2 21
;
_chemical_formula_sum "Si O2"
_cell_formula_units_Z 32
_cell_length_a 31.496954
_cell_length_b 5.146047
_cell_length_c 8.865289
_cell_angle_alpha 90.000000
_cell_angle_beta 90.000000
_cell_angle_gamma 90.000000
_cell_volume 1436.928645
_symmetry_space_group_name_H-M "C 2 2 21"
_symmetry_group_IT_number 20
_symmetry_cell_setting 'orthorhombic'
loop_
_space_group_symop_operation_xyz
x,y,z
-x,-y,1/2+z
x,-y,-z
-x,y,1/2-z
1/2+x,1/2+y,z
1/2-x,1/2-y,1/2+z
1/2+x,1/2-y,-z
1/2-x,1/2+y,1/2-z
loop_
_atom_site_type_symbol
_atom_site_label
_atom_site_fract_x
_atom_site_fract_y
_atom_site_fract_z
Si Si1 0.905428 0.016446 0.677683
Si Si2 0.818106 0.968039 0.172926
Si Si3 0.955011 0.512970 0.678485
Si Si4 0.267559 0.750624 0.397038
O O1 0.860619 0.113578 0.742492
O O2 0.938705 0.233258 0.733619
O O3 0.900249 0.000000 0.500000
O O4 0.922015 0.735972 0.733792
O O5 0.779536 0.758731 0.177706
O O6 0.800302 0.229355 0.255988
O O7 0.830926 0.000000 0.000000
O O8 0.960012 0.500000 0.500000
O O9 0.000000 0.578457 0.750000
O O10 0.273278 0.500000 0.500000
O O11 0.277341 0.000000 0.500000
#
# Coordination Sequence:
#
# PCOD8159699 Si02
#       4
#     8   8   8   8
#     4  10  23  40  61  90 125 162 200 251 317 382
#     4  11  24  41  65  96 127 167 223 269 312 375
#     4  10  22  41  64  89 119 157 200 249 313 382
#     4  11  25  44  65  91 132 180 219 269 332 383
#
# _framework density 22.26972
#
# number of rings (size 3 to 8) (size 9 to 14) (size 15 to 20)
#    0.000    1.500    0.000    4.500    0.000   13.000 
#    0.000    1.250    0.000    0.000    0.000    0.000 
#    0.000    0.000    0.000    0.000    0.000    0.000 
#
# Total GULP energy -198306.196571 kJ/mol
# GULP energy per Si atom -12394.137286 kJ/mol
# Density = 2.221903 g / cm^3
# Si number density = 22.269720 Si / 1000 Ang^3
#
#
#
# Elastic Constant Matrix: (Units=GPa)
#
#
# Indices 1 2 3 4 5 6 
#
# 1 131.0147 34.9095 40.6819 0.0000 0.0000 0.0000
# 2 34.9095 138.3432 54.9867 0.0000 0.0000 0.0000
# 3 40.6819 54.9867 65.6351 0.0000 0.0000 0.0000
# 4 0.0000 0.0000 0.0000 22.0896 0.0000 0.0000
# 5 0.0000 0.0000 0.0000 0.0000 -94.2305 0.0000
# 6 0.0000 0.0000 0.0000 0.0000 0.0000 323.2096
#
#
#
# Elastic Compliance Matrix: (Units=1/GPa)
#
#
# Indices 1 2 3 4 5 6 
#
# 1 0.009453 -0.000085 -0.005788 0.000000 0.000000 0.000000
# 2 -0.000085 0.010838 -0.009027 0.000000 0.000000 0.000000
# 3 -0.005788 -0.009027 0.026386 0.000000 0.000000 0.000000
# 4 0.000000 0.000000 0.000000 0.045270 0.000000 0.000000
# 5 0.000000 0.000000 0.000000 0.000000 -0.010612 0.000000
# 6 0.000000 0.000000 0.000000 0.000000 0.000000 0.003094
#
#
# Mechanical properties :
#
#
# Convention : Reuss Voigt Hill
#
# Bulk Modulus (GPa) = 59.25296 66.23879 62.74587
# Shear Modulus (GPa) = 41.71806 63.84140 52.77973
#
# Velocity S-wave (km/s) = 4.33287 5.36000 4.87357
# Velocity P-wave (km/s) = 7.19002 8.25316 7.73986
#
# Compressibility (1/GPa) = 0.01687679
#
# Stress axis : x y z
#
# Youngs Moduli (GPa) = 105.79182 92.27092 37.89955
#
# Poissons Ratio (x) = 0.00782 0.21936
# Poissons Ratio (y) = 0.00897 0.34211
# Poissons Ratio (z) = 0.61231 0.83292
#
# Static dielectric constant tensor:
#      x y z
#    x 3.913590 0.000000 0.000000 
#    y 0.000000 4.283620 0.000000 
#    z 0.000000 0.000000 3.519590 
# 
# 
# High freq. dielectric constant tensor:
#      x y z
#    x 1.874280 0.000000 0.000000 
#    y 0.000000 1.877170 0.000000 
#    z 0.000000 0.000000 1.882490 
# 
# From -- ./inp_files/11237.got.cif
#   From: 2010.03.12/outbox.cif.g09.slc.cpg/sg20_6_cif.got.tgz:11237.got - 2010.04.14 01:38:04.
