data_PCOD8159632
_publ_section_title
;
Structure prediction by ZEFSAII (Michael W. Deem and Ramdas Pophale) SiO2 
 PCOD8159632
Probable space group: C 2 2 21
;
_chemical_formula_sum "Si O2"
_cell_formula_units_Z 24
_cell_length_a 14.498883
_cell_length_b 9.841390
_cell_length_c 8.128343
_cell_angle_alpha 90.000000
_cell_angle_beta 90.000000
_cell_angle_gamma 90.000000
_cell_volume 1159.826452
_symmetry_space_group_name_H-M "C 2 2 21"
_symmetry_group_IT_number 20
_symmetry_cell_setting 'orthorhombic'
loop_
_space_group_symop_operation_xyz
x,y,z
-x,-y,1/2+z
x,-y,-z
-x,y,1/2-z
1/2+x,1/2+y,z
1/2-x,1/2-y,1/2+z
1/2+x,1/2-y,-z
1/2-x,1/2+y,1/2-z
loop_
_atom_site_type_symbol
_atom_site_label
_atom_site_fract_x
_atom_site_fract_y
_atom_site_fract_z
Si Si1 0.477164 0.500000 0.000000
Si Si2 0.500000 0.711701 0.250000
Si Si3 0.801279 0.890593 0.122528
Si Si4 0.168010 0.636269 0.587223
O O1 0.533820 0.382542 0.904863
O O2 0.409472 0.567765 0.860672
O O3 0.413931 0.803096 0.198114
O O4 0.754691 0.899025 0.298937
O O5 0.794884 0.739628 0.049274
O O6 0.752174 0.000000 0.000000
O O7 0.131641 0.500000 0.500000
#
# Coordination Sequence:
#
# PCOD8159632 Si02
#       4
#     4   4   8   8
#     4   8  20  40  60  86 118 170 214 236 302 380
#     4  10  22  40  60  94 130 158 208 258 322 360
#     4   9  20  39  60  91 120 170 220 238 308 380
#     4  11  22  38  64  95 129 161 206 269 315 367
#
# _framework density 20.692753
#
# number of rings (size 3 to 8) (size 9 to 14) (size 15 to 20)
#    1.000    1.333    0.000    2.000    0.000    4.000 
#    0.000    6.667    0.000    0.000    0.000    0.000 
#    0.000    0.000    0.000    0.000    0.000    0.000 
#
# Total GULP energy -148700.014901 kJ/mol
# GULP energy per Si atom -12391.667908 kJ/mol
# Density = 2.064565 g / cm^3
# Si number density = 20.692753 Si / 1000 Ang^3
#
#
#
# Elastic Constant Matrix: (Units=GPa)
#
#
# Indices 1 2 3 4 5 6 
#
# 1 58.8238 36.4026 41.4680 0.0000 0.0000 0.0000
# 2 36.4026 162.5574 55.3700 0.0000 0.0000 0.0000
# 3 41.4680 55.3700 74.2558 0.0000 0.0000 0.0000
# 4 0.0000 0.0000 0.0000 56.5126 0.0000 0.0000
# 5 0.0000 0.0000 0.0000 0.0000 34.9627 0.0000
# 6 0.0000 0.0000 0.0000 0.0000 0.0000 15.2306
#
#
#
# Elastic Compliance Matrix: (Units=1/GPa)
#
#
# Indices 1 2 3 4 5 6 
#
# 1 0.028234 -0.001276 -0.014816 0.000000 0.000000 0.000000
# 2 -0.001276 0.008304 -0.005479 0.000000 0.000000 0.000000
# 3 -0.014816 -0.005479 0.025826 0.000000 0.000000 0.000000
# 4 0.000000 0.000000 0.000000 0.017695 0.000000 0.000000
# 5 0.000000 0.000000 0.000000 0.000000 0.028602 0.000000
# 6 0.000000 0.000000 0.000000 0.000000 0.000000 0.065657
#
#
# Mechanical properties :
#
#
# Convention : Reuss Voigt Hill
#
# Bulk Modulus (GPa) = 52.02318 62.45757 57.24037
# Shear Modulus (GPa) = 22.33462 32.16761 27.25112
#
# Velocity S-wave (km/s) = 3.28890 3.94704 3.63290
# Velocity P-wave (km/s) = 6.29427 7.14290 6.73197
#
# Compressibility (1/GPa) = 0.01922220
#
# Stress axis : x y z
#
# Youngs Moduli (GPa) = 35.41830 120.42748 38.72019
#
# Poissons Ratio (x) = 0.15368 0.57366
# Poissons Ratio (y) = 0.04520 0.21215
# Poissons Ratio (z) = 0.52474 0.65984
#
# Static dielectric constant tensor:
#      x y z
#    x 3.330380 0.000000 0.000000 
#    y 0.000000 3.987760 0.000000 
#    z 0.000000 0.000000 3.551120 
# 
# 
# High freq. dielectric constant tensor:
#      x y z
#    x 1.778330 0.000000 0.000000 
#    y 0.000000 1.825380 0.000000 
#    z 0.000000 0.000000 1.805340 
# 
# From -- ./inp_files/880.got.cif
#   From: 2010.03.12/outbox.cif.g09.slc.cpg/sg20_1_cif.got.tgz:880.got - 2010.04.14 01:38:04.
