data_PCOD8159009
_publ_section_title
;
Structure prediction by ZEFSAII (Michael W. Deem and Ramdas Pophale) SiO2 
 PCOD8159009
Probable space group: C 2 2 21
;
_chemical_formula_sum "Si O2"
_cell_formula_units_Z 64
_cell_length_a 11.539397
_cell_length_b 8.423425
_cell_length_c 32.643294
_cell_angle_alpha 90.000000
_cell_angle_beta 90.000000
_cell_angle_gamma 90.000000
_cell_volume 3172.968823
_symmetry_space_group_name_H-M "C 2 2 21"
_symmetry_group_IT_number 20
_symmetry_cell_setting 'orthorhombic'
loop_
_space_group_symop_operation_xyz
x,y,z
-x,-y,1/2+z
x,-y,-z
-x,y,1/2-z
1/2+x,1/2+y,z
1/2-x,1/2-y,1/2+z
1/2+x,1/2-y,-z
1/2-x,1/2+y,1/2-z
loop_
_atom_site_type_symbol
_atom_site_label
_atom_site_fract_x
_atom_site_fract_y
_atom_site_fract_z
Si Si1 0.875955 0.428668 0.268039
Si Si2 0.474837 0.317732 0.670286
Si Si3 0.735162 0.166698 0.425581
Si Si4 0.827784 0.086149 0.631740
Si Si5 0.551322 0.843983 0.090225
Si Si6 0.218963 0.211620 0.299299
Si Si7 0.078013 0.168725 0.012177
Si Si8 0.973203 0.704575 0.428066
O O1 0.895268 0.301347 0.303736
O O2 0.792770 0.351842 0.233852
O O3 0.811566 0.582421 0.285290
O O4 0.000000 0.483747 0.250000
O O5 0.399834 0.473776 0.662144
O O6 0.516612 0.229880 0.628621
O O7 0.591643 0.366382 0.694572
O O8 0.812670 0.300961 0.403141
O O9 0.793205 0.130271 0.470046
O O10 0.609265 0.238080 0.432431
O O11 0.736198 0.009654 0.396745
O O12 0.759963 0.215175 0.657819
O O13 0.921242 0.167211 0.602321
O O14 0.542713 0.030996 0.089832
O O15 0.505460 0.760617 0.047947
O O16 0.086075 0.281655 0.972605
O O17 0.018636 0.000000 0.000000
#
# Coordination Sequence:
#
# PCOD8159009 Si02
#       8
#     8   8   8   8   8   8   8   8
#     4  10  23  41  63  91 128 155 205 246 303 371
#     4  10  21  42  61  88 126 160 196 256 299 363
#     4   9  23  41  57  85 122 162 195 260 306 350
#     4  11  23  39  62  93 124 156 212 247 303 373
#     4   9  21  39  59  91 117 153 214 248 297 372
#     4  11  23  40  65  95 119 169 194 253 308 361
#     4  10  20  42  57  87 123 155 211 253 303 365
#     4  12  21  40  63  85 119 166 201 255 311 360
#
# _framework density 20.170383000000001
#
# number of rings (size 3 to 8) (size 9 to 14) (size 15 to 20)
#    0.750    1.000    1.250    2.625    0.000    6.000 
#    4.500    0.000    0.000    0.000    0.000    0.000 
#    0.000    0.000    0.000    0.000    0.000    0.000 
#
# Total GULP energy -396695.582690 kJ/mol
# GULP energy per Si atom -12396.736959 kJ/mol
# Density = 2.012447 g / cm^3
# Si number density = 20.170383 Si / 1000 Ang^3
#
#
#
# Elastic Constant Matrix: (Units=GPa)
#
#
# Indices 1 2 3 4 5 6 
#
# 1 85.0421 31.5636 40.9670 0.0000 0.0000 0.0000
# 2 31.5636 50.0834 17.8139 0.0000 0.0000 0.0000
# 3 40.9670 17.8139 100.5072 0.0000 0.0000 0.0000
# 4 0.0000 0.0000 0.0000 41.1835 0.0000 0.0000
# 5 0.0000 0.0000 0.0000 0.0000 26.1618 0.0000
# 6 0.0000 0.0000 0.0000 0.0000 0.0000 25.4299
#
#
#
# Elastic Compliance Matrix: (Units=1/GPa)
#
#
# Indices 1 2 3 4 5 6 
#
# 1 0.017935 -0.009288 -0.005664 0.000000 0.000000 0.000000
# 2 -0.009288 0.026120 -0.000844 0.000000 0.000000 0.000000
# 3 -0.005664 -0.000844 0.012408 0.000000 0.000000 0.000000
# 4 0.000000 0.000000 0.000000 0.024282 0.000000 0.000000
# 5 0.000000 0.000000 0.000000 0.000000 0.038224 0.000000
# 6 0.000000 0.000000 0.000000 0.000000 0.000000 0.039324
#
#
# Mechanical properties :
#
#
# Convention : Reuss Voigt Hill
#
# Bulk Modulus (GPa) = 40.20739 46.25798 43.23269
# Shear Modulus (GPa) = 25.23034 28.24092 26.73563
#
# Velocity S-wave (km/s) = 3.54059 3.74587 3.64468
# Velocity P-wave (km/s) = 6.05735 6.45695 6.26034
#
# Compressibility (1/GPa) = 0.02487105
#
# Stress axis : x y z
#
# Youngs Moduli (GPa) = 55.75770 38.28422 80.59487
#
# Poissons Ratio (x) = 0.35559 0.45649
# Poissons Ratio (y) = 0.51789 0.06800
# Poissons Ratio (z) = 0.31581 0.03230
#
# Static dielectric constant tensor:
#      x y z
#    x 3.445610 0.000000 0.000000 
#    y 0.000000 3.490740 0.000000 
#    z 0.000000 0.000000 3.834900 
# 
# 
# High freq. dielectric constant tensor:
#      x y z
#    x 1.769900 0.000000 0.000000 
#    y 0.000000 1.784730 0.000000 
#    z 0.000000 0.000000 1.802850 
# 
# From -- ./inp_files/31210.got.cif
#   From: 2010.03.12/outbox.cif.g09.slc.cpg/sg20_16_cif.got.tgz:31210.got - 2010.04.14 01:38:04.
