data_PCOD8159587
_publ_section_title
;
Structure prediction by ZEFSAII (Michael W. Deem and Ramdas Pophale) SiO2 
 PCOD8159587
Probable space group: C 2 2 21
;
_chemical_formula_sum "Si O2"
_cell_formula_units_Z 60
_cell_length_a 17.900784
_cell_length_b 13.490206
_cell_length_c 11.852388
_cell_angle_alpha 90.000000
_cell_angle_beta 90.000000
_cell_angle_gamma 90.000000
_cell_volume 2862.177042
_symmetry_space_group_name_H-M "C 2 2 21"
_symmetry_group_IT_number 20
_symmetry_cell_setting 'orthorhombic'
loop_
_space_group_symop_operation_xyz
x,y,z
-x,-y,1/2+z
x,-y,-z
-x,y,1/2-z
1/2+x,1/2+y,z
1/2-x,1/2-y,1/2+z
1/2+x,1/2-y,-z
1/2-x,1/2+y,1/2-z
loop_
_atom_site_type_symbol
_atom_site_label
_atom_site_fract_x
_atom_site_fract_y
_atom_site_fract_z
Si Si1 0.768267 0.509423 0.764598
Si Si2 0.184120 0.288508 0.172602
Si Si3 0.620428 0.484202 0.375932
Si Si4 0.195318 0.000000 0.000000
Si Si5 0.548611 0.279402 0.421496
Si Si6 0.930739 0.190637 0.174031
Si Si7 0.668062 0.801068 0.730087
Si Si8 0.875853 0.207631 0.547470
O O1 0.818424 0.601134 0.723121
O O2 0.687655 0.518710 0.709784
O O3 0.753099 0.503748 0.897288
O O4 0.814742 0.412385 0.730088
O O5 0.145813 0.216713 0.263803
O O6 0.267270 0.245835 0.151077
O O7 0.141596 0.284866 0.053046
O O8 0.654948 0.500000 0.500000
O O9 0.573372 0.384620 0.371451
O O10 0.563900 0.572517 0.343404
O O11 0.141252 0.096514 0.997699
O O12 0.569711 0.258161 0.551469
O O13 0.590641 0.199609 0.341345
O O14 0.460035 0.275556 0.411150
O O15 0.000000 0.227428 0.250000
O O16 0.671822 0.732838 0.842044
#
# Coordination Sequence:
#
# PCOD8159587 Si02
#       8
#     8   8   8   4   8   8   8   8
#     4  12  26  43  69 103 134 187 236 289 345 425
#     4  12  25  44  69 102 137 187 235 294 346 434
#     4  10  22  38  67 101 140 169 220 285 358 420
#     4  12  24  40  70 108 138 174 228 296 352 426
#     4  11  25  44  68 103 139 183 228 296 366 420
#     4  11  23  42  66 100 142 184 225 286 357 434
#     4  12  26  44  70  99 145 182 237 295 357 430
#     4  12  26  44  73 103 144 183 236 292 370 427
#
# _framework density 20.963062999999998
#
# number of rings (size 3 to 8) (size 9 to 14) (size 15 to 20)
#    0.000    0.533    6.667    0.400    8.400    1.067 
#    0.000    1.333    2.933    0.000    0.000    0.000 
#    0.000    0.000    0.000    0.000    0.000    0.000 
#
# Total GULP energy -372072.436843 kJ/mol
# GULP energy per Si atom -12402.414561 kJ/mol
# Density = 2.091535 g / cm^3
# Si number density = 20.963063 Si / 1000 Ang^3
#
#
#
# Elastic Constant Matrix: (Units=GPa)
#
#
# Indices 1 2 3 4 5 6 
#
# 1 98.3506 52.7402 38.8452 0.0000 0.0000 0.0000
# 2 52.7402 102.8716 44.6823 0.0000 0.0000 0.0000
# 3 38.8452 44.6823 127.8276 0.0000 0.0000 0.0000
# 4 0.0000 0.0000 0.0000 29.9168 0.0000 0.0000
# 5 0.0000 0.0000 0.0000 0.0000 38.1711 0.0000
# 6 0.0000 0.0000 0.0000 0.0000 0.0000 29.8503
#
#
#
# Elastic Compliance Matrix: (Units=1/GPa)
#
#
# Indices 1 2 3 4 5 6 
#
# 1 0.014499 -0.006508 -0.002131 0.000000 0.000000 0.000000
# 2 -0.006508 0.014382 -0.003050 0.000000 0.000000 0.000000
# 3 -0.002131 -0.003050 0.009537 0.000000 0.000000 0.000000
# 4 0.000000 0.000000 0.000000 0.033426 0.000000 0.000000
# 5 0.000000 0.000000 0.000000 0.000000 0.026198 0.000000
# 6 0.000000 0.000000 0.000000 0.000000 0.000000 0.033500
#
#
# Mechanical properties :
#
#
# Convention : Reuss Voigt Hill
#
# Bulk Modulus (GPa) = 66.48720 66.84280 66.66500
# Shear Modulus (GPa) = 31.26310 32.43978 31.85144
#
# Velocity S-wave (km/s) = 3.86598 3.93806 3.90219
# Velocity P-wave (km/s) = 7.19117 7.25486 7.22309
#
# Compressibility (1/GPa) = 0.01504049
#
# Stress axis : x y z
#
# Youngs Moduli (GPa) = 68.96897 69.53222 104.85796
#
# Poissons Ratio (x) = 0.45250 0.22349
# Poissons Ratio (y) = 0.44883 0.31977
# Poissons Ratio (z) = 0.14700 0.21204
#
# Static dielectric constant tensor:
#      x y z
#    x 3.705200 0.000000 0.000000 
#    y 0.000000 3.882830 0.000000 
#    z 0.000000 0.000000 4.037720 
# 
# 
# High freq. dielectric constant tensor:
#      x y z
#    x 1.811800 0.000000 0.000000 
#    y 0.000000 1.807610 0.000000 
#    z 0.000000 0.000000 1.841430 
# 
# From -- ./inp_files/15888.got.cif
#   From: 2010.03.12/outbox.cif.g09.slc.cpg/sg20_8_cif.got.tgz:15888.got - 2010.04.14 01:38:04.
