data_PCOD8159314
_publ_section_title
;
Structure prediction by ZEFSAII (Michael W. Deem and Ramdas Pophale) SiO2 
 PCOD8159314
Probable space group: C 2 2 21
;
_chemical_formula_sum "Si O2"
_cell_formula_units_Z 56
_cell_length_a 8.401880
_cell_length_b 14.016880
_cell_length_c 21.790748
_cell_angle_alpha 90.000000
_cell_angle_beta 90.000000
_cell_angle_gamma 90.000000
_cell_volume 2566.255943
_symmetry_space_group_name_H-M "C 2 2 21"
_symmetry_group_IT_number 20
_symmetry_cell_setting 'orthorhombic'
loop_
_space_group_symop_operation_xyz
x,y,z
-x,-y,1/2+z
x,-y,-z
-x,y,1/2-z
1/2+x,1/2+y,z
1/2-x,1/2-y,1/2+z
1/2+x,1/2-y,-z
1/2-x,1/2+y,1/2-z
loop_
_atom_site_type_symbol
_atom_site_label
_atom_site_fract_x
_atom_site_fract_y
_atom_site_fract_z
Si Si1 0.728648 0.831097 0.387830
Si Si2 0.099014 0.974202 0.883084
Si Si3 0.745579 0.352295 0.781369
Si Si4 0.680645 0.899178 0.519265
Si Si5 0.754765 0.980947 0.841250
Si Si6 0.023607 0.335971 0.873022
Si Si7 0.578464 0.839527 0.192685
O O1 0.712782 0.831380 0.461497
O O2 0.849859 0.748868 0.367595
O O3 0.553683 0.813790 0.358823
O O4 0.803691 0.930480 0.366145
O O5 0.131953 0.902525 0.829030
O O6 0.153482 0.930932 0.948323
O O7 0.910764 0.987037 0.883060
O O8 0.738738 0.413161 0.718981
O O9 0.664965 0.249265 0.774113
O O10 0.922317 0.339115 0.809917
O O11 0.584693 0.831737 0.566378
O O12 0.595207 0.000000 0.500000
O O13 0.614783 0.936025 0.881815
O O14 0.715415 0.091594 0.831705
O O15 0.500000 0.895577 0.250000
#
# Coordination Sequence:
#
# PCOD8159314 Si02
#       7
#     8   8   8   8   8   8   8
#     4  11  23  42  65  91 125 164 207 256 308 364
#     4  10  21  40  62  90 123 160 205 254 307 366
#     4  11  23  40  62  92 127 161 204 256 309 370
#     4   9  21  42  62  85 123 164 206 258 304 358
#     4  12  23  39  63  91 124 163 203 252 311 370
#     4  11  23  39  62  91 123 162 207 254 308 368
#     4  12  24  40  63  92 125 162 205 252 310 372
#
# _framework density 21.821674000000002
#
# number of rings (size 3 to 8) (size 9 to 14) (size 15 to 20)
#    0.000    1.143    0.000    8.571    0.000    3.429 
#    0.000   12.143    0.000    0.000    0.000    0.000 
#    0.000    0.000    0.000    0.000    0.000    0.000 
#
# Total GULP energy -347045.967286 kJ/mol
# GULP energy per Si atom -12394.498832 kJ/mol
# Density = 2.177201 g / cm^3
# Si number density = 21.821674 Si / 1000 Ang^3
#
#
#
# Elastic Constant Matrix: (Units=GPa)
#
#
# Indices 1 2 3 4 5 6 
#
# 1 128.8956 38.3457 41.5125 0.0000 0.0000 0.0000
# 2 38.3457 80.7104 16.1771 0.0000 0.0000 0.0000
# 3 41.5125 16.1771 96.5762 0.0000 0.0000 0.0000
# 4 0.0000 0.0000 0.0000 31.8941 0.0000 0.0000
# 5 0.0000 0.0000 0.0000 0.0000 28.1270 0.0000
# 6 0.0000 0.0000 0.0000 0.0000 0.0000 42.5121
#
#
#
# Elastic Compliance Matrix: (Units=1/GPa)
#
#
# Indices 1 2 3 4 5 6 
#
# 1 0.010161 -0.004089 -0.003683 0.000000 0.000000 0.000000
# 2 -0.004089 0.014466 -0.000665 0.000000 0.000000 0.000000
# 3 -0.003683 -0.000665 0.012049 0.000000 0.000000 0.000000
# 4 0.000000 0.000000 0.000000 0.031354 0.000000 0.000000
# 5 0.000000 0.000000 0.000000 0.000000 0.035553 0.000000
# 6 0.000000 0.000000 0.000000 0.000000 0.000000 0.023523
#
#
# Mechanical properties :
#
#
# Convention : Reuss Voigt Hill
#
# Bulk Modulus (GPa) = 50.50167 55.36142 52.93154
# Shear Modulus (GPa) = 33.20488 34.51645 33.86066
#
# Velocity S-wave (km/s) = 3.90506 3.98144 3.94343
# Velocity P-wave (km/s) = 6.59741 6.82355 6.71143
#
# Compressibility (1/GPa) = 0.01980133
#
# Stress axis : x y z
#
# Youngs Moduli (GPa) = 98.41773 69.12670 82.99521
#
# Poissons Ratio (x) = 0.28268 0.30563
# Poissons Ratio (y) = 0.40246 0.05523
# Poissons Ratio (z) = 0.36243 0.04600
#
# Static dielectric constant tensor:
#      x y z
#    x 4.038640 0.000000 0.000000 
#    y 0.000000 3.936580 0.000000 
#    z 0.000000 0.000000 4.163230 
# 
# 
# High freq. dielectric constant tensor:
#      x y z
#    x 1.863290 0.000000 0.000000 
#    y 0.000000 1.861050 0.000000 
#    z 0.000000 0.000000 1.859280 
# 
# From -- ./inp_files/26745.got.cif
#   From: 2010.03.12/outbox.cif.g09.slc.cpg/sg20_14_cif.got.tgz:26745.got - 2010.04.14 01:38:04.
