data_PCOD8159122
_publ_section_title
;
Structure prediction by ZEFSAII (Michael W. Deem and Ramdas Pophale) SiO2 
 PCOD8159122
Probable space group: C 2 2 21
;
_chemical_formula_sum "Si O2"
_cell_formula_units_Z 64
_cell_length_a 22.680219
_cell_length_b 9.946283
_cell_length_c 15.200127
_cell_angle_alpha 90.000000
_cell_angle_beta 90.000000
_cell_angle_gamma 90.000000
_cell_volume 3428.903575
_symmetry_space_group_name_H-M "C 2 2 21"
_symmetry_group_IT_number 20
_symmetry_cell_setting 'orthorhombic'
loop_
_space_group_symop_operation_xyz
x,y,z
-x,-y,1/2+z
x,-y,-z
-x,y,1/2-z
1/2+x,1/2+y,z
1/2-x,1/2-y,1/2+z
1/2+x,1/2-y,-z
1/2-x,1/2+y,1/2-z
loop_
_atom_site_type_symbol
_atom_site_label
_atom_site_fract_x
_atom_site_fract_y
_atom_site_fract_z
Si Si1 0.654683 0.018605 0.104390
Si Si2 0.934925 0.529182 0.758698
Si Si3 0.174589 0.202520 0.810359
Si Si4 0.263215 0.520268 0.406536
Si Si5 0.940324 0.777761 0.207253
Si Si6 0.633593 0.099443 0.574034
Si Si7 0.875091 0.140972 0.958781
Si Si8 0.257644 0.314317 0.141770
O O1 0.598373 0.975660 0.164045
O O2 0.708355 0.928653 0.139028
O O3 0.672183 0.174855 0.119827
O O4 0.641549 0.000000 0.000000
O O5 0.942346 0.381920 0.798224
O O6 0.900890 0.611583 0.833951
O O7 0.000000 0.594765 0.750000
O O8 0.192703 0.056459 0.843522
O O9 0.111074 0.174145 0.770707
O O10 0.223696 0.237505 0.738018
O O11 0.292090 0.500000 0.500000
O O12 0.197519 0.459303 0.400853
O O13 0.266755 0.679459 0.399516
O O14 0.928783 0.825103 0.107452
O O15 0.000000 0.837236 0.250000
O O16 0.634491 0.248512 0.534534
O O17 0.605249 0.000000 0.500000
O O18 0.813800 0.125551 0.907891
O O19 0.892802 0.000000 0.000000
#
# Coordination Sequence:
#
# PCOD8159122 Si02
#       8
#     8   8   8   8   8   8   8   8
#     4  11  23  38  57  89 127 155 196 256 304 364
#     4  10  21  40  63  88 115 158 208 256 302 354
#     4  10  21  36  58  83 115 156 196 238 296 356
#     4  11  20  34  56  83 115 152 185 232 291 360
#     4   9  19  40  62  83 115 157 206 242 294 362
#     4  11  19  37  62  87 118 149 202 249 294 366
#     4  11  22  36  60  93 116 154 197 249 304 357
#     4  11  20  36  57  88 121 150 194 238 303 362
#
# _framework density 18.664859
#
# number of rings (size 3 to 8) (size 9 to 14) (size 15 to 20)
#    0.000    1.500    3.750    4.125    1.750    0.500 
#    6.750    1.250    0.000    0.000    0.000    0.000 
#    0.000    0.000    0.000    0.000    0.000    0.000 
#
# Total GULP energy -396597.703058 kJ/mol
# GULP energy per Si atom -12393.678221 kJ/mol
# Density = 1.862238 g / cm^3
# Si number density = 18.664859 Si / 1000 Ang^3
#
#
#
# Elastic Constant Matrix: (Units=GPa)
#
#
# Indices 1 2 3 4 5 6 
#
# 1 94.4873 28.6176 35.8151 0.0000 0.0000 0.0000
# 2 28.6176 71.1880 26.2573 0.0000 0.0000 0.0000
# 3 35.8151 26.2573 105.1501 0.0000 0.0000 0.0000
# 4 0.0000 0.0000 0.0000 30.3693 0.0000 0.0000
# 5 0.0000 0.0000 0.0000 0.0000 22.0832 0.0000
# 6 0.0000 0.0000 0.0000 0.0000 0.0000 22.9653
#
#
#
# Elastic Compliance Matrix: (Units=1/GPa)
#
#
# Indices 1 2 3 4 5 6 
#
# 1 0.013106 -0.003990 -0.003468 0.000000 0.000000 0.000000
# 2 -0.003990 0.016687 -0.002808 0.000000 0.000000 0.000000
# 3 -0.003468 -0.002808 0.011393 0.000000 0.000000 0.000000
# 4 0.000000 0.000000 0.000000 0.032928 0.000000 0.000000
# 5 0.000000 0.000000 0.000000 0.000000 0.045283 0.000000
# 6 0.000000 0.000000 0.000000 0.000000 0.000000 0.043544
#
#
# Mechanical properties :
#
#
# Convention : Reuss Voigt Hill
#
# Bulk Modulus (GPa) = 48.41506 50.24504 49.33005
# Shear Modulus (GPa) = 26.26645 27.09258 26.67951
#
# Velocity S-wave (km/s) = 3.75543 3.81403 3.78484
# Velocity P-wave (km/s) = 6.69326 6.80983 6.75180
#
# Compressibility (1/GPa) = 0.02065473
#
# Stress axis : x y z
#
# Youngs Moduli (GPa) = 76.29946 59.92736 87.77630
#
# Poissons Ratio (x) = 0.23909 0.30440
# Poissons Ratio (y) = 0.30441 0.24648
# Poissons Ratio (z) = 0.26460 0.16828
#
# Static dielectric constant tensor:
#      x y z
#    x 3.494760 0.000000 0.000000 
#    y 0.000000 3.202160 0.000000 
#    z 0.000000 0.000000 3.513940 
# 
# 
# High freq. dielectric constant tensor:
#      x y z
#    x 1.709370 0.000000 0.000000 
#    y 0.000000 1.714850 0.000000 
#    z 0.000000 0.000000 1.738120 
# 
# From -- ./inp_files/22034.got.cif
#   From: 2010.03.12/outbox.cif.g09.slc.cpg/sg20_12_cif.got.tgz:22034.got - 2010.04.14 01:38:04.
