data_PCOD8159993
_publ_section_title
;
Structure prediction by ZEFSAII (Michael W. Deem and Ramdas Pophale) SiO2 
 PCOD8159993
Probable space group: C 2 2 21
;
_chemical_formula_sum "Si O2"
_cell_formula_units_Z 40
_cell_length_a 14.944748
_cell_length_b 7.196236
_cell_length_c 16.705466
_cell_angle_alpha 90.000000
_cell_angle_beta 90.000000
_cell_angle_gamma 90.000000
_cell_volume 1796.604937
_symmetry_space_group_name_H-M "C 2 2 21"
_symmetry_group_IT_number 20
_symmetry_cell_setting 'orthorhombic'
loop_
_space_group_symop_operation_xyz
x,y,z
-x,-y,1/2+z
x,-y,-z
-x,y,1/2-z
1/2+x,1/2+y,z
1/2-x,1/2-y,1/2+z
1/2+x,1/2-y,-z
1/2-x,1/2+y,1/2-z
loop_
_atom_site_type_symbol
_atom_site_label
_atom_site_fract_x
_atom_site_fract_y
_atom_site_fract_z
Si Si1 0.821047 0.964553 0.816844
Si Si2 0.191128 0.853036 0.158158
Si Si3 0.774208 0.323084 0.918933
Si Si4 0.584398 0.695938 0.459299
Si Si5 0.891815 0.292813 0.504389
O O1 0.733005 0.837125 0.807149
O O2 0.893977 0.843775 0.865920
O O3 0.856266 0.027905 0.729333
O O4 0.796275 0.152681 0.862307
O O5 0.115146 0.794678 0.093606
O O6 0.275632 0.976568 0.124820
O O7 0.837389 0.314721 0.997410
O O8 0.670689 0.324775 0.946114
O O9 0.571716 0.500000 0.500000
O O10 0.491651 0.803801 0.469537
O O11 0.851528 0.500000 0.500000
#
# Coordination Sequence:
#
# PCOD8159993 Si02
#       5
#     8   8   8   8   8
#     4  11  23  42  70 103 141 182 230 288 364 420
#     4  12  23  42  72 102 140 188 225 295 363 410
#     4  11  22  43  70 100 136 183 235 289 351 415
#     4  10  23  43  66 103 136 181 239 288 340 421
#     4  12  24  41  70 106 138 186 249 285 341 425
#
# _framework density 22.264216000000001
#
# number of rings (size 3 to 8) (size 9 to 14) (size 15 to 20)
#    0.000    0.800    6.000    2.400    2.800    0.000 
#    0.000    9.000    0.000    7.200    0.000    0.000 
#    0.000    0.000    0.000    0.000    0.000    0.000 
#
# Total GULP energy -247869.810076 kJ/mol
# GULP energy per Si atom -12393.490504 kJ/mol
# Density = 2.221354 g / cm^3
# Si number density = 22.264216 Si / 1000 Ang^3
#
#
#
# Elastic Constant Matrix: (Units=GPa)
#
#
# Indices 1 2 3 4 5 6 
#
# 1 94.3365 12.4300 36.3566 0.0000 0.0000 0.0000
# 2 12.4300 99.2230 43.0736 0.0000 0.0000 0.0000
# 3 36.3566 43.0736 149.8463 0.0000 0.0000 0.0000
# 4 0.0000 0.0000 0.0000 45.9455 0.0000 0.0000
# 5 0.0000 0.0000 0.0000 0.0000 20.1428 0.0000
# 6 0.0000 0.0000 0.0000 0.0000 0.0000 16.4734
#
#
#
# Elastic Compliance Matrix: (Units=1/GPa)
#
#
# Indices 1 2 3 4 5 6 
#
# 1 0.011700 -0.000267 -0.002762 0.000000 0.000000 0.000000
# 2 -0.000267 0.011521 -0.003247 0.000000 0.000000 0.000000
# 3 -0.002762 -0.003247 0.008277 0.000000 0.000000 0.000000
# 4 0.000000 0.000000 0.000000 0.021765 0.000000 0.000000
# 5 0.000000 0.000000 0.000000 0.000000 0.049646 0.000000
# 6 0.000000 0.000000 0.000000 0.000000 0.000000 0.060704
#
#
# Mechanical properties :
#
#
# Convention : Reuss Voigt Hill
#
# Bulk Modulus (GPa) = 52.77982 58.56958 55.67470
# Shear Modulus (GPa) = 27.40026 33.28204 30.34115
#
# Velocity S-wave (km/s) = 3.51192 3.87055 3.69559
# Velocity P-wave (km/s) = 6.34053 6.80724 6.57803
#
# Compressibility (1/GPa) = 0.01894664
#
# Stress axis : x y z
#
# Youngs Moduli (GPa) = 85.47031 86.79557 120.81601
#
# Poissons Ratio (x) = 0.02314 0.33370
# Poissons Ratio (y) = 0.02279 0.39231
# Poissons Ratio (z) = 0.23607 0.28184
#
# Static dielectric constant tensor:
#      x y z
#    x 3.637570 0.000000 0.000000 
#    y 0.000000 4.216780 0.000000 
#    z 0.000000 0.000000 4.171240 
# 
# 
# High freq. dielectric constant tensor:
#      x y z
#    x 1.833360 0.000000 0.000000 
#    y 0.000000 1.910640 0.000000 
#    z 0.000000 0.000000 1.876030 
# 
# From -- ./inp_files/24685.got.cif
#   From: 2010.03.12/outbox.cif.g09.slc.cpg/sg20_13_cif.got.tgz:24685.got - 2010.04.14 01:38:04.
