data_PCOD8159395
_publ_section_title
;
Structure prediction by ZEFSAII (Michael W. Deem and Ramdas Pophale) SiO2 
 PCOD8159395
Probable space group: C 2 2 21
;
_chemical_formula_sum "Si O2"
_cell_formula_units_Z 32
_cell_length_a 5.122809
_cell_length_b 32.400070
_cell_length_c 8.773628
_cell_angle_alpha 90.000000
_cell_angle_beta 90.000000
_cell_angle_gamma 90.000000
_cell_volume 1456.241250
_symmetry_space_group_name_H-M "C 2 2 21"
_symmetry_group_IT_number 20
_symmetry_cell_setting 'orthorhombic'
loop_
_space_group_symop_operation_xyz
x,y,z
-x,-y,1/2+z
x,-y,-z
-x,y,1/2-z
1/2+x,1/2+y,z
1/2-x,1/2-y,1/2+z
1/2+x,1/2-y,-z
1/2-x,1/2+y,1/2-z
loop_
_atom_site_type_symbol
_atom_site_label
_atom_site_fract_x
_atom_site_fract_y
_atom_site_fract_z
Si Si1 0.244463 0.378612 0.150166
Si Si2 0.744448 0.973252 0.150289
Si Si3 0.435181 0.315327 0.919066
Si Si4 0.247303 0.273226 0.352375
O O1 0.500000 0.372329 0.250000
O O2 0.208839 0.425873 0.099034
O O3 0.000000 0.363597 0.250000
O O4 0.266932 0.350946 0.999058
O O5 0.500000 0.988278 0.250000
O O6 0.000000 0.979849 0.250000
O O7 0.766610 0.000000 0.000000
O O8 0.500000 0.331007 0.750000
O O9 0.266025 0.273197 0.916808
O O10 0.708754 0.304577 0.005633
O O11 0.500000 0.278775 0.250000
O O12 0.000000 0.285671 0.250000
#
# Coordination Sequence:
#
# PCOD8159395 Si02
#       4
#     8   8   8   8
#     4  10  24  43  63  90 129 170 202 245 315 382
#     4  10  21  41  68  98 128 163 205 249 306 373
#     4  11  24  41  64  93 122 161 219 269 307 359
#     4  11  25  43  62  87 123 168 212 263 323 372
#
# _framework density 21.974378999999999
#
# number of rings (size 3 to 8) (size 9 to 14) (size 15 to 20)
#    0.000    1.500    0.000    4.500    0.000   14.000 
#    0.000    1.250    0.000    0.000    0.000    0.000 
#    0.000    0.000    0.000    0.000    0.000    0.000 
#
# Total GULP energy -198440.995939 kJ/mol
# GULP energy per Si atom -12402.562246 kJ/mol
# Density = 2.192436 g / cm^3
# Si number density = 21.974379 Si / 1000 Ang^3
#
#
#
# Elastic Constant Matrix: (Units=GPa)
#
#
# Indices 1 2 3 4 5 6 
#
# 1 153.9826 30.1604 70.8170 0.0000 0.0000 0.0000
# 2 30.1604 117.2568 88.5752 0.0000 0.0000 0.0000
# 3 70.8170 88.5752 185.2459 0.0000 0.0000 0.0000
# 4 0.0000 0.0000 0.0000 104.9535 0.0000 0.0000
# 5 0.0000 0.0000 0.0000 0.0000 25.9161 0.0000
# 6 0.0000 0.0000 0.0000 0.0000 0.0000 62.6923
#
#
#
# Elastic Compliance Matrix: (Units=1/GPa)
#
#
# Indices 1 2 3 4 5 6 
#
# 1 0.007891 0.000390 -0.003203 0.000000 0.000000 0.000000
# 2 0.000390 0.013370 -0.006542 0.000000 0.000000 0.000000
# 3 -0.003203 -0.006542 0.009751 0.000000 0.000000 0.000000
# 4 0.000000 0.000000 0.000000 0.009528 0.000000 0.000000
# 5 0.000000 0.000000 0.000000 0.000000 0.038586 0.000000
# 6 0.000000 0.000000 0.000000 0.000000 0.000000 0.015951
#
#
# Mechanical properties :
#
#
# Convention : Reuss Voigt Hill
#
# Bulk Modulus (GPa) = 81.29134 92.84339 87.06737
# Shear Modulus (GPa) = 42.41376 56.50790 49.46083
#
# Velocity S-wave (km/s) = 4.39811 5.07653 4.74945
# Velocity P-wave (km/s) = 7.92875 8.75808 8.35372
#
# Compressibility (1/GPa) = 0.01230143
#
# Stress axis : x y z
#
# Youngs Moduli (GPa) = 126.72734 74.79679 102.55782
#
# Poissons Ratio (x) = -0.02916 0.32849
# Poissons Ratio (y) = -0.04940 0.67090
# Poissons Ratio (z) = 0.40591 0.48930
#
# Static dielectric constant tensor:
#      x y z
#    x 3.411940 0.000000 0.000000 
#    y 0.000000 4.127980 0.000000 
#    z 0.000000 0.000000 6.120380 
# 
# 
# High freq. dielectric constant tensor:
#      x y z
#    x 1.878760 0.000000 0.000000 
#    y 0.000000 1.857530 0.000000 
#    z 0.000000 0.000000 1.871460 
# 
# From -- ./inp_files/5236.got.cif
#   From: 2010.03.12/outbox.cif.g09.slc.cpg/sg20_3_cif.got.tgz:5236.got - 2010.04.14 01:38:04.
