data_PCOD8159661
_publ_section_title
;
Structure prediction by ZEFSAII (Michael W. Deem and Ramdas Pophale) SiO2 
 PCOD8159661
Probable space group: C 2 2 21
;
_chemical_formula_sum "Si O2"
_cell_formula_units_Z 40
_cell_length_a 8.638366
_cell_length_b 19.930033
_cell_length_c 10.434872
_cell_angle_alpha 90.000000
_cell_angle_beta 90.000000
_cell_angle_gamma 90.000000
_cell_volume 1796.498028
_symmetry_space_group_name_H-M "C 2 2 21"
_symmetry_group_IT_number 20
_symmetry_cell_setting 'orthorhombic'
loop_
_space_group_symop_operation_xyz
x,y,z
-x,-y,1/2+z
x,-y,-z
-x,y,1/2-z
1/2+x,1/2+y,z
1/2-x,1/2-y,1/2+z
1/2+x,1/2-y,-z
1/2-x,1/2+y,1/2-z
loop_
_atom_site_type_symbol
_atom_site_label
_atom_site_fract_x
_atom_site_fract_y
_atom_site_fract_z
Si Si1 0.404806 0.302151 0.128098
Si Si2 0.875265 0.608803 0.640016
Si Si3 0.616279 0.498416 0.642469
Si Si4 0.547020 0.161483 0.119410
Si Si5 0.613595 0.345245 0.642224
O O1 0.500000 0.328681 0.250000
O O2 0.226190 0.323155 0.152566
O O3 0.425383 0.222786 0.106307
O O4 0.464700 0.339686 0.998574
O O5 0.771247 0.542480 0.643533
O O6 0.962938 0.612194 0.502355
O O7 0.000000 0.605827 0.750000
O O8 0.540895 0.500000 0.500000
O O9 0.500000 0.527437 0.750000
O O10 0.656871 0.421855 0.677239
O O11 0.500000 0.121846 0.250000
O O12 0.720935 0.193012 0.137044
O O13 0.500000 0.314426 0.750000
#
# Coordination Sequence:
#
# PCOD8159661 Si02
#       5
#     8   8   8   8   8
#     4  10  22  40  65  94 132 175 222 267 329 399
#     4  11  25  44  67  98 136 174 224 279 332 393
#     4  11  22  46  72 101 135 174 223 275 334 407
#     4  10  23  41  61  93 134 175 220 271 322 396
#     4  10  23  41  67  94 131 172 220 276 331 397
#
# _framework density 22.265540000000001
#
# number of rings (size 3 to 8) (size 9 to 14) (size 15 to 20)
#    0.000    1.600    4.000    0.600    0.000   16.000 
#    3.600    0.000    0.000    0.000    0.000    0.000 
#    0.000    0.000    0.000    0.000    0.000    0.000 
#
# Total GULP energy -247864.779498 kJ/mol
# GULP energy per Si atom -12393.238975 kJ/mol
# Density = 2.221486 g / cm^3
# Si number density = 22.265540 Si / 1000 Ang^3
#
#
#
# Elastic Constant Matrix: (Units=GPa)
#
#
# Indices 1 2 3 4 5 6 
#
# 1 76.2010 26.8578 93.3564 0.0000 0.0000 0.0000
# 2 26.8578 76.7237 29.3195 0.0000 0.0000 0.0000
# 3 93.3564 29.3195 245.5562 0.0000 0.0000 0.0000
# 4 0.0000 0.0000 0.0000 26.4795 0.0000 0.0000
# 5 0.0000 0.0000 0.0000 0.0000 50.7008 0.0000
# 6 0.0000 0.0000 0.0000 0.0000 0.0000 27.9187
#
#
#
# Elastic Compliance Matrix: (Units=1/GPa)
#
#
# Indices 1 2 3 4 5 6 
#
# 1 0.026783 -0.005747 -0.009496 0.000000 0.000000 0.000000
# 2 -0.005747 0.014890 0.000407 0.000000 0.000000 0.000000
# 3 -0.009496 0.000407 0.007634 0.000000 0.000000 0.000000
# 4 0.000000 0.000000 0.000000 0.037765 0.000000 0.000000
# 5 0.000000 0.000000 0.000000 0.000000 0.019724 0.000000
# 6 0.000000 0.000000 0.000000 0.000000 0.000000 0.035818
#
#
# Mechanical properties :
#
#
# Convention : Reuss Voigt Hill
#
# Bulk Modulus (GPa) = 50.92956 77.50537 64.21747
# Shear Modulus (GPa) = 27.95939 37.61626 32.78783
#
# Velocity S-wave (km/s) = 3.54746 4.11474 3.84159
# Velocity P-wave (km/s) = 6.30101 7.58023 6.97003
#
# Compressibility (1/GPa) = 0.01963496
#
# Stress axis : x y z
#
# Youngs Moduli (GPa) = 37.33733 67.15937 130.99090
#
# Poissons Ratio (x) = 0.38594 1.24392
# Poissons Ratio (y) = 0.21456 -0.05330
# Poissons Ratio (z) = 0.35456 -0.02733
#
# Static dielectric constant tensor:
#      x y z
#    x 3.873040 0.000000 0.000000 
#    y 0.000000 3.783530 0.000000 
#    z 0.000000 0.000000 4.560640 
# 
# 
# High freq. dielectric constant tensor:
#      x y z
#    x 1.852840 0.000000 0.000000 
#    y 0.000000 1.857920 0.000000 
#    z 0.000000 0.000000 1.904010 
# 
# From -- ./inp_files/12889.got.cif
#   From: 2010.03.12/outbox.cif.g09.slc.cpg/sg20_7_cif.got.tgz:12889.got - 2010.04.14 01:38:04.
