data_PCOD8159600
_publ_section_title
;
Structure prediction by ZEFSAII (Michael W. Deem and Ramdas Pophale) SiO2 
 PCOD8159600
Probable space group: C 2 2 21
;
_chemical_formula_sum "Si O2"
_cell_formula_units_Z 56
_cell_length_a 13.400076
_cell_length_b 13.587884
_cell_length_c 17.580472
_cell_angle_alpha 90.000000
_cell_angle_beta 90.000000
_cell_angle_gamma 90.000000
_cell_volume 3201.029105
_symmetry_space_group_name_H-M "C 2 2 21"
_symmetry_group_IT_number 20
_symmetry_cell_setting 'orthorhombic'
loop_
_space_group_symop_operation_xyz
x,y,z
-x,-y,1/2+z
x,-y,-z
-x,y,1/2-z
1/2+x,1/2+y,z
1/2-x,1/2-y,1/2+z
1/2+x,1/2-y,-z
1/2-x,1/2+y,1/2-z
loop_
_atom_site_type_symbol
_atom_site_label
_atom_site_fract_x
_atom_site_fract_y
_atom_site_fract_z
Si Si1 0.523124 0.749883 0.454629
Si Si2 0.857137 0.096949 0.450899
Si Si3 0.613740 0.033739 0.768201
Si Si4 0.755845 0.126582 0.302903
Si Si5 0.143667 0.585040 0.938573
Si Si6 0.297756 0.750963 0.937035
Si Si7 0.895653 0.744873 0.790988
O O1 0.465014 0.647040 0.455998
O O2 0.448391 0.841729 0.453311
O O3 0.591545 0.752937 0.529293
O O4 0.593991 0.752746 0.381347
O O5 0.772805 0.171980 0.483345
O O6 0.856481 0.000000 0.500000
O O7 0.832465 0.926252 0.637862
O O8 0.500000 0.008816 0.750000
O O9 0.630547 0.032618 0.858012
O O10 0.645232 0.139034 0.734655
O O11 0.679284 0.951092 0.729171
O O12 0.697494 0.213510 0.348761
O O13 0.816526 0.172668 0.232946
O O14 0.248679 0.642874 0.941602
O O15 0.144104 0.500000 0.000000
O O16 0.000000 0.766927 0.750000
#
# Coordination Sequence:
#
# PCOD8159600 Si02
#       7
#     8   8   8   8   8   8   8
#     4  11  21  37  63  83 116 160 194 239 299 357
#     4   9  20  38  55  86 116 148 195 239 286 358
#     4  11  22  38  63  88 115 155 200 247 293 350
#     4  10  22  39  61  86 122 148 203 246 291 354
#     4  11  23  39  57  91 119 147 205 250 287 356
#     4   9  22  39  57  86 117 156 186 245 297 342
#     4  11  18  41  62  82 115 160 198 237 293 352
#
# _framework density 17.494374000000001
#
# number of rings (size 3 to 8) (size 9 to 14) (size 15 to 20)
#    0.857    0.857    5.714    0.000    6.000    1.143 
#    0.000    0.000    0.000    0.000    0.000    0.000 
#    0.000    0.000    0.000    0.000    0.000    0.000 
#
# Total GULP energy -347113.942240 kJ/mol
# GULP energy per Si atom -12396.926509 kJ/mol
# Density = 1.745456 g / cm^3
# Si number density = 17.494374 Si / 1000 Ang^3
#
#
#
# Elastic Constant Matrix: (Units=GPa)
#
#
# Indices 1 2 3 4 5 6 
#
# 1 75.1128 42.6037 42.6493 0.0000 0.0000 0.0000
# 2 42.6037 106.9490 52.7664 0.0000 0.0000 0.0000
# 3 42.6493 52.7664 69.0348 0.0000 0.0000 0.0000
# 4 0.0000 0.0000 0.0000 60.3289 0.0000 0.0000
# 5 0.0000 0.0000 0.0000 0.0000 32.7356 0.0000
# 6 0.0000 0.0000 0.0000 0.0000 0.0000 -443.5092
#
#
#
# Elastic Compliance Matrix: (Units=1/GPa)
#
#
# Indices 1 2 3 4 5 6 
#
# 1 0.021159 -0.003178 -0.010643 0.000000 0.000000 0.000000
# 2 -0.003178 0.015488 -0.009875 0.000000 0.000000 0.000000
# 3 -0.010643 -0.009875 0.028609 0.000000 0.000000 0.000000
# 4 0.000000 0.000000 0.000000 0.016576 0.000000 0.000000
# 5 0.000000 0.000000 0.000000 0.000000 0.030548 0.000000
# 6 0.000000 0.000000 0.000000 0.000000 0.000000 -0.002255
#
#
# Mechanical properties :
#
#
# Convention : Reuss Voigt Hill
#
# Bulk Modulus (GPa) = 55.97836 58.57059 57.27448
# Shear Modulus (GPa) = 30.58644 -62.55048 -15.98202
#
# Velocity S-wave (km/s) = 4.18587 -5.98600 -3.02578
# Velocity P-wave (km/s) = 7.44510 3.77147 4.53902
#
# Compressibility (1/GPa) = 0.01786404
#
# Stress axis : x y z
#
# Youngs Moduli (GPa) = 47.26170 64.56457 34.95446
#
# Poissons Ratio (x) = 0.20517 0.37202
# Poissons Ratio (y) = 0.15019 0.34518
# Poissons Ratio (z) = 0.50300 0.63759
#
# Static dielectric constant tensor:
#      x y z
#    x 3.112280 0.000000 0.000000 
#    y 0.000000 3.154190 0.000000 
#    z 0.000000 0.000000 3.402870 
# 
# 
# High freq. dielectric constant tensor:
#      x y z
#    x 1.668240 0.000000 0.000000 
#    y 0.000000 1.672260 0.000000 
#    z 0.000000 0.000000 1.674830 
# 
# From -- ./inp_files/20042.got.cif
#   From: 2010.03.12/outbox.cif.g09.slc.cpg/sg20_11_cif.got.tgz:20042.got - 2010.04.14 01:38:04.
