data_PCOD8159692
_publ_section_title
;
Structure prediction by ZEFSAII (Michael W. Deem and Ramdas Pophale) SiO2 
 PCOD8159692
Probable space group: C 2 2 21
;
_chemical_formula_sum "Si O2"
_cell_formula_units_Z 64
_cell_length_a 17.104218
_cell_length_b 12.356190
_cell_length_c 14.594748
_cell_angle_alpha 90.000000
_cell_angle_beta 90.000000
_cell_angle_gamma 90.000000
_cell_volume 3084.497351
_symmetry_space_group_name_H-M "C 2 2 21"
_symmetry_group_IT_number 20
_symmetry_cell_setting 'orthorhombic'
loop_
_space_group_symop_operation_xyz
x,y,z
-x,-y,1/2+z
x,-y,-z
-x,y,1/2-z
1/2+x,1/2+y,z
1/2-x,1/2-y,1/2+z
1/2+x,1/2-y,-z
1/2-x,1/2+y,1/2-z
loop_
_atom_site_type_symbol
_atom_site_label
_atom_site_fract_x
_atom_site_fract_y
_atom_site_fract_z
Si Si1 0.654156 0.591616 0.927334
Si Si2 0.077217 0.623727 0.513216
Si Si3 0.547289 0.713497 0.052336
Si Si4 0.412765 0.641683 0.762522
Si Si5 0.659107 0.273145 0.786731
Si Si6 0.678454 0.840824 0.658655
Si Si7 0.183996 0.415483 0.333731
Si Si8 0.439013 0.424119 0.831585
O O1 0.613225 0.576487 0.828965
O O2 0.746477 0.594000 0.908649
O O3 0.632018 0.500000 0.000000
O O4 0.615113 0.693736 0.977543
O O5 0.055688 0.500000 0.500000
O O6 0.141756 0.666911 0.441730
O O7 0.109635 0.636810 0.615688
O O8 0.997971 0.689458 0.503836
O O9 0.585915 0.750151 0.147792
O O10 0.483244 0.618759 0.076593
O O11 0.500000 0.687667 0.750000
O O12 0.358361 0.746371 0.778627
O O13 0.408093 0.549381 0.843294
O O14 0.727408 0.330858 0.845345
O O15 0.696855 0.159155 0.754605
O O16 0.632696 0.346088 0.699499
O O17 0.665218 0.961964 0.698519
O O18 0.500000 0.432562 0.750000
#
# Coordination Sequence:
#
# PCOD8159692 Si02
#       8
#     8   8   8   8   8   8   8   8
#     4  12  22  39  65  93 123 165 220 266 317 382
#     4  10  22  41  62  91 130 167 211 260 311 394
#     4  11  22  39  65  95 123 166 212 267 323 369
#     4  11  22  39  60  96 130 162 208 265 326 381
#     4  11  21  39  65  92 123 165 213 262 312 384
#     4  11  23  41  63  91 130 168 211 263 317 383
#     4  11  22  41  64  91 122 171 218 256 317 391
#     4   9  19  37  64  90 124 155 208 266 311 371
#
# _framework density 20.748923000000001
#
# number of rings (size 3 to 8) (size 9 to 14) (size 15 to 20)
#    0.000    1.250    2.500    6.375    0.000    0.000 
#    6.750    0.000    0.000    0.000    0.000    0.000 
#    0.000    0.000    0.000    0.000    0.000    0.000 
#
# Total GULP energy -396568.967462 kJ/mol
# GULP energy per Si atom -12392.780233 kJ/mol
# Density = 2.070170 g / cm^3
# Si number density = 20.748923 Si / 1000 Ang^3
#
#
#
# Elastic Constant Matrix: (Units=GPa)
#
#
# Indices 1 2 3 4 5 6 
#
# 1 93.6445 51.8537 19.0242 0.0000 0.0000 0.0000
# 2 51.8537 115.7077 43.3682 0.0000 0.0000 0.0000
# 3 19.0242 43.3682 58.8802 0.0000 0.0000 0.0000
# 4 0.0000 0.0000 0.0000 23.0461 0.0000 0.0000
# 5 0.0000 0.0000 0.0000 0.0000 30.9108 0.0000
# 6 0.0000 0.0000 0.0000 0.0000 0.0000 31.6726
#
#
#
# Elastic Compliance Matrix: (Units=1/GPa)
#
#
# Indices 1 2 3 4 5 6 
#
# 1 0.014204 -0.006417 0.000137 0.000000 0.000000 0.000000
# 2 -0.006417 0.014837 -0.008855 0.000000 0.000000 0.000000
# 3 0.000137 -0.008855 0.023461 0.000000 0.000000 0.000000
# 4 0.000000 0.000000 0.000000 0.043391 0.000000 0.000000
# 5 0.000000 0.000000 0.000000 0.000000 0.032351 0.000000
# 6 0.000000 0.000000 0.000000 0.000000 0.000000 0.031573
#
#
# Mechanical properties :
#
#
# Convention : Reuss Voigt Hill
#
# Bulk Modulus (GPa) = 44.97821 55.19163 50.08492
# Shear Modulus (GPa) = 25.31666 27.39166 26.35416
#
# Velocity S-wave (km/s) = 3.49684 3.63733 3.56778
# Velocity P-wave (km/s) = 6.16671 6.65565 6.41584
#
# Compressibility (1/GPa) = 0.02223299
#
# Stress axis : x y z
#
# Youngs Moduli (GPa) = 70.40266 67.39905 42.62307
#
# Poissons Ratio (x) = 0.43248 -0.00584
# Poissons Ratio (y) = 0.45176 0.37742
# Poissons Ratio (z) = -0.00964 0.59681
#
# Static dielectric constant tensor:
#      x y z
#    x 3.831170 0.000000 0.000000 
#    y 0.000000 3.882410 0.000000 
#    z 0.000000 0.000000 3.586590 
# 
# 
# High freq. dielectric constant tensor:
#      x y z
#    x 1.817810 0.000000 0.000000 
#    y 0.000000 1.811400 0.000000 
#    z 0.000000 0.000000 1.790610 
# 
# From -- ./inp_files/21499.got.cif
#   From: 2010.03.12/outbox.cif.g09.slc.cpg/sg20_11_cif.got.tgz:21499.got - 2010.04.14 01:38:04.
