data_PCOD8159560
_publ_section_title
;
Structure prediction by ZEFSAII (Michael W. Deem and Ramdas Pophale) SiO2 
 PCOD8159560
Probable space group: C 2 2 21
;
_chemical_formula_sum "Si O2"
_cell_formula_units_Z 52
_cell_length_a 25.216606
_cell_length_b 12.377538
_cell_length_c 7.421711
_cell_angle_alpha 90.000000
_cell_angle_beta 90.000000
_cell_angle_gamma 90.000000
_cell_volume 2316.460719
_symmetry_space_group_name_H-M "C 2 2 21"
_symmetry_group_IT_number 20
_symmetry_cell_setting 'orthorhombic'
loop_
_space_group_symop_operation_xyz
x,y,z
-x,-y,1/2+z
x,-y,-z
-x,y,1/2-z
1/2+x,1/2+y,z
1/2-x,1/2-y,1/2+z
1/2+x,1/2-y,-z
1/2-x,1/2+y,1/2-z
loop_
_atom_site_type_symbol
_atom_site_label
_atom_site_fract_x
_atom_site_fract_y
_atom_site_fract_z
Si Si1 0.431662 0.766604 0.443719
Si Si2 0.293960 0.519237 0.206182
Si Si3 0.820878 0.473730 0.192454
Si Si4 0.373891 0.332901 0.209365
Si Si5 0.101271 0.500000 0.000000
Si Si6 0.152404 0.239536 0.342503
Si Si7 0.518826 0.618459 0.554302
O O1 0.396615 0.723518 0.613263
O O2 0.405714 0.737928 0.250986
O O3 0.489582 0.710005 0.433403
O O4 0.436495 0.896591 0.463189
O O5 0.238678 0.518354 0.309926
O O6 0.335191 0.428400 0.276984
O O7 0.317660 0.636822 0.237517
O O8 0.280577 0.500000 0.000000
O O9 0.859849 0.529624 0.335175
O O10 0.817867 0.345489 0.230559
O O11 0.846875 0.500000 0.000000
O O12 0.417615 0.380128 0.066209
O O13 0.345741 0.253738 0.063246
O O14 0.497972 0.500000 0.500000
O O15 0.500000 0.649051 0.750000
#
# Coordination Sequence:
#
# PCOD8159560 Si02
#       7
#     8   8   8   8   4   8   8
#     4  10  23  38  67  88 122 164 202 250 313 365
#     4  10  22  39  58  88 127 161 201 255 309 364
#     4  11  23  39  62  89 120 165 210 251 305 367
#     4  10  22  41  60  91 127 156 198 260 305 367
#     4  10  22  46  60  88 128 162 208 262 296 370
#     4  10  23  38  61  89 121 161 203 253 311 361
#     4  10  22  37  64  94 124 157 199 255 315 372
#
# _framework density 22.448039000000001
#
# number of rings (size 3 to 8) (size 9 to 14) (size 15 to 20)
#    0.000    1.846    0.769    2.308    8.615    3.692 
#    0.000    0.000   22.000    0.000    0.000    0.000 
#    0.000    0.000    0.000    0.000    0.000    0.000 
#
# Total GULP energy -322249.106149 kJ/mol
# GULP energy per Si atom -12394.196390 kJ/mol
# Density = 2.239695 g / cm^3
# Si number density = 22.448039 Si / 1000 Ang^3
#
#
#
# Elastic Constant Matrix: (Units=GPa)
#
#
# Indices 1 2 3 4 5 6 
#
# 1 72.6723 17.0201 -13.2730 0.0000 0.0000 0.0000
# 2 17.0201 94.1303 -6.4714 0.0000 0.0000 0.0000
# 3 -13.2730 -6.4714 68.9639 0.0000 0.0000 0.0000
# 4 0.0000 0.0000 0.0000 27.2845 0.0000 0.0000
# 5 0.0000 0.0000 0.0000 0.0000 10.4482 0.0000
# 6 0.0000 0.0000 0.0000 0.0000 0.0000 -2.3602
#
#
#
# Elastic Compliance Matrix: (Units=1/GPa)
#
#
# Indices 1 2 3 4 5 6 
#
# 1 0.014824 -0.002500 0.002618 0.000000 0.000000 0.000000
# 2 -0.002500 0.011114 0.000562 0.000000 0.000000 0.000000
# 3 0.002618 0.000562 0.015057 0.000000 0.000000 0.000000
# 4 0.000000 0.000000 0.000000 0.036651 0.000000 0.000000
# 5 0.000000 0.000000 0.000000 0.000000 0.095711 0.000000
# 6 0.000000 0.000000 0.000000 0.000000 0.000000 -0.423685
#
#
# Mechanical properties :
#
#
# Convention : Reuss Voigt Hill
#
# Bulk Modulus (GPa) = 23.60991 25.59087 24.60039
# Shear Modulus (GPa) = -21.04650 22.97386 0.96368
#
# Velocity S-wave (km/s) = -3.06529 3.20257 0.65592
# Velocity P-wave (km/s) = 1.40982 5.01000 3.39945
#
# Compressibility (1/GPa) = 0.04235510
#
# Stress axis : x y z
#
# Youngs Moduli (GPa) = 67.45707 89.97422 66.41423
#
# Poissons Ratio (x) = 0.22497 -0.17390
# Poissons Ratio (y) = 0.16867 -0.03731
# Poissons Ratio (z) = -0.17663 -0.05054
#
# Static dielectric constant tensor:
#      x y z
#    x 4.210800 0.000000 0.000000 
#    y 0.000000 3.951610 0.000000 
#    z 0.000000 0.000000 4.058060 
# 
# 
# High freq. dielectric constant tensor:
#      x y z
#    x 1.867220 0.000000 0.000000 
#    y 0.000000 1.883670 0.000000 
#    z 0.000000 0.000000 1.896790 
# 
# From -- ./inp_files/7523.got.cif
#   From: 2010.03.12/outbox.cif.g09.slc.cpg/sg20_4_cif.got.tgz:7523.got - 2010.04.14 01:38:04.
