data_PCOD8159545
_publ_section_title
;
Structure prediction by ZEFSAII (Michael W. Deem and Ramdas Pophale) SiO2 
 PCOD8159545
Probable space group: C 2 2 21
;
_chemical_formula_sum "Si O2"
_cell_formula_units_Z 48
_cell_length_a 8.754226
_cell_length_b 27.834781
_cell_length_c 8.943053
_cell_angle_alpha 90.000000
_cell_angle_beta 90.000000
_cell_angle_gamma 90.000000
_cell_volume 2179.171285
_symmetry_space_group_name_H-M "C 2 2 21"
_symmetry_group_IT_number 20
_symmetry_cell_setting 'orthorhombic'
loop_
_space_group_symop_operation_xyz
x,y,z
-x,-y,1/2+z
x,-y,-z
-x,y,1/2-z
1/2+x,1/2+y,z
1/2-x,1/2-y,1/2+z
1/2+x,1/2-y,-z
1/2-x,1/2+y,1/2-z
loop_
_atom_site_type_symbol
_atom_site_label
_atom_site_fract_x
_atom_site_fract_y
_atom_site_fract_z
Si Si1 0.827021 0.585573 0.188919
Si Si2 0.500000 0.831140 0.250000
Si Si3 0.000000 0.157756 0.750000
Si Si4 0.181534 0.691145 0.252985
Si Si5 0.742134 0.095884 0.641378
Si Si6 0.752435 0.219329 0.926817
Si Si7 0.664784 0.007320 0.825046
O O1 0.751936 0.637298 0.225010
O O2 0.744663 0.540568 0.270132
O O3 0.000000 0.586472 0.250000
O O4 0.803547 0.572109 0.015387
O O5 0.386674 0.864385 0.159594
O O6 0.411119 0.798938 0.369854
O O7 0.903464 0.123375 0.640125
O O8 0.892076 0.190754 0.851859
O O9 0.233997 0.724137 0.391538
O O10 0.000000 0.689928 0.250000
O O11 0.255778 0.713738 0.104675
O O12 0.749764 0.056215 0.774696
O O13 0.500000 0.010286 0.750000
O O14 0.648849 0.000000 0.000000
#
# Coordination Sequence:
#
# PCOD8159545 Si02
#       7
#     8   4   4   8   8   8   8
#     4  10  22  39  66  99 132 168 228 286 334 397
#     4  10  22  36  70  94 126 182 230 276 330 400
#     4  10  26  44  70  96 144 182 230 276 346 414
#     4  11  25  42  68 100 141 176 230 283 346 402
#     4  11  22  43  68  96 136 178 225 277 348 404
#     4  11  25  43  68 100 141 182 233 282 342 412
#     4  11  22  37  67 103 134 173 230 290 343 402
#
# _framework density 22.026720999999998
#
# number of rings (size 3 to 8) (size 9 to 14) (size 15 to 20)
#    0.000    1.333    1.667    4.500   11.667    0.000 
#    0.000    1.667    0.000    0.000    0.000    0.000 
#    0.000    0.000    0.000    0.000    0.000    0.000 
#
# Total GULP energy -297518.983328 kJ/mol
# GULP energy per Si atom -12396.624305 kJ/mol
# Density = 2.197659 g / cm^3
# Si number density = 22.026721 Si / 1000 Ang^3
#
#
#
# Elastic Constant Matrix: (Units=GPa)
#
#
# Indices 1 2 3 4 5 6 
#
# 1 74.7153 28.1574 15.1606 0.0000 0.0000 0.0000
# 2 28.1574 146.2483 13.6381 0.0000 0.0000 0.0000
# 3 15.1606 13.6381 111.5996 0.0000 0.0000 0.0000
# 4 0.0000 0.0000 0.0000 39.9652 0.0000 0.0000
# 5 0.0000 0.0000 0.0000 0.0000 26.7341 0.0000
# 6 0.0000 0.0000 0.0000 0.0000 0.0000 -0.6803
#
#
#
# Elastic Compliance Matrix: (Units=1/GPa)
#
#
# Indices 1 2 3 4 5 6 
#
# 1 0.014734 -0.002681 -0.001674 0.000000 0.000000 0.000000
# 2 -0.002681 0.007404 -0.000541 0.000000 0.000000 0.000000
# 3 -0.001674 -0.000541 0.009254 0.000000 0.000000 0.000000
# 4 0.000000 0.000000 0.000000 0.025022 0.000000 0.000000
# 5 0.000000 0.000000 0.000000 0.000000 0.037405 0.000000
# 6 0.000000 0.000000 0.000000 0.000000 0.000000 -1.470007
#
#
# Mechanical properties :
#
#
# Convention : Reuss Voigt Hill
#
# Bulk Modulus (GPa) = 46.29269 49.60839 47.95054
# Shear Modulus (GPa) = -3.67865 31.57761 13.94948
#
# Velocity S-wave (km/s) = -1.29372 3.79040 2.51927
# Velocity P-wave (km/s) = 4.33943 6.45965 5.50262
#
# Compressibility (1/GPa) = 0.02160168
#
# Stress axis : x y z
#
# Youngs Moduli (GPa) = 67.86993 135.05817 108.06037
#
# Poissons Ratio (x) = 0.36205 0.18089
# Poissons Ratio (y) = 0.18194 0.05843
# Poissons Ratio (z) = 0.11361 0.07302
#
# Static dielectric constant tensor:
#      x y z
#    x 3.304940 0.000000 0.000000 
#    y 0.000000 4.887660 0.000000 
#    z 0.000000 0.000000 4.798690 
# 
# 
# High freq. dielectric constant tensor:
#      x y z
#    x 1.831270 0.000000 0.000000 
#    y 0.000000 1.894610 0.000000 
#    z 0.000000 0.000000 1.869740 
# 
# From -- ./inp_files/6566.got.cif
#   From: 2010.03.12/outbox.cif.g09.slc.cpg/sg20_4_cif.got.tgz:6566.got - 2010.04.14 01:38:04.
