data_PCOD8159214
_publ_section_title
;
Structure prediction by ZEFSAII (Michael W. Deem and Ramdas Pophale) SiO2 
 PCOD8159214
Probable space group: C 2 2 21
;
_chemical_formula_sum "Si O2"
_cell_formula_units_Z 40
_cell_length_a 9.395603
_cell_length_b 22.760054
_cell_length_c 8.768473
_cell_angle_alpha 90.000000
_cell_angle_beta 90.000000
_cell_angle_gamma 90.000000
_cell_volume 1875.089125
_symmetry_space_group_name_H-M "C 2 2 21"
_symmetry_group_IT_number 20
_symmetry_cell_setting 'orthorhombic'
loop_
_space_group_symop_operation_xyz
x,y,z
-x,-y,1/2+z
x,-y,-z
-x,y,1/2-z
1/2+x,1/2+y,z
1/2-x,1/2-y,1/2+z
1/2+x,1/2-y,-z
1/2-x,1/2+y,1/2-z
loop_
_atom_site_type_symbol
_atom_site_label
_atom_site_fract_x
_atom_site_fract_y
_atom_site_fract_z
Si Si1 0.347707 0.214105 0.492883
Si Si2 0.037052 0.186256 0.427996
Si Si3 0.481545 0.441702 0.571465
Si Si4 0.153046 0.565713 0.499894
Si Si5 0.500000 0.861637 0.750000
Si Si6 0.000000 0.359308 0.250000
O O1 0.178326 0.220878 0.478732
O O2 0.408409 0.280360 0.486735
O O3 0.394651 0.178200 0.346134
O O4 0.399966 0.182072 0.646858
O O5 0.000000 0.187471 0.250000
O O6 0.056063 0.118768 0.483111
O O7 0.555179 0.500000 0.500000
O O8 0.500000 0.449250 0.750000
O O9 0.322067 0.437066 0.509988
O O10 0.088804 0.500000 0.500000
O O11 0.103538 0.599768 0.650836
O O12 0.100259 0.597979 0.350184
#
# Coordination Sequence:
#
# PCOD8159214 Si02
#       6
#     8   8   8   8   4   4
#     4  11  25  41  68  97 136 174 217 278 327 399
#     4  11  25  43  66  97 135 174 217 270 332 392
#     4  10  23  43  65  92 131 173 221 273 327 391
#     4  10  21  40  65  93 132 176 220 271 323 392
#     4  10  21  38  62  98 133 174 220 266 338 384
#     4  10  23  42  64  98 133 168 226 266 332 392
#
# _framework density 21.332318000000001
#
# number of rings (size 3 to 8) (size 9 to 14) (size 15 to 20)
#    0.000    1.600    1.000    3.000    8.400    3.200 
#    1.800    5.000    0.000    0.000    0.000    0.000 
#    0.000    0.000    0.000    0.000    0.000    0.000 
#
# Total GULP energy -248000.394055 kJ/mol
# GULP energy per Si atom -12400.019703 kJ/mol
# Density = 2.128377 g / cm^3
# Si number density = 21.332318 Si / 1000 Ang^3
#
#
#
# Elastic Constant Matrix: (Units=GPa)
#
#
# Indices 1 2 3 4 5 6 
#
# 1 102.4276 38.8499 30.5778 0.0000 0.0000 0.0000
# 2 38.8499 170.4377 48.8533 0.0000 0.0000 0.0000
# 3 30.5778 48.8533 105.7772 0.0000 0.0000 0.0000
# 4 0.0000 0.0000 0.0000 -22.4563 0.0000 0.0000
# 5 0.0000 0.0000 0.0000 0.0000 29.5910 0.0000
# 6 0.0000 0.0000 0.0000 0.0000 0.0000 34.7288
#
#
#
# Elastic Compliance Matrix: (Units=1/GPa)
#
#
# Indices 1 2 3 4 5 6 
#
# 1 0.011179 -0.001869 -0.002368 0.000000 0.000000 0.000000
# 2 -0.001869 0.007075 -0.002727 0.000000 0.000000 0.000000
# 3 -0.002368 -0.002727 0.011398 0.000000 0.000000 0.000000
# 4 0.000000 0.000000 0.000000 -0.044531 0.000000 0.000000
# 5 0.000000 0.000000 0.000000 0.000000 0.033794 0.000000
# 6 0.000000 0.000000 0.000000 0.000000 0.000000 0.028795
#
#
# Mechanical properties :
#
#
# Convention : Reuss Voigt Hill
#
# Bulk Modulus (GPa) = 63.60337 68.35606 65.97972
# Shear Modulus (GPa) = 74.76049 25.73014 50.24531
#
# Velocity S-wave (km/s) = 5.92636 3.47675 4.85847
# Velocity P-wave (km/s) = 8.75838 6.94478 7.90377
#
# Compressibility (1/GPa) = 0.01572244
#
# Stress axis : x y z
#
# Youngs Moduli (GPa) = 89.45336 141.34137 87.73457
#
# Poissons Ratio (x) = 0.26422 0.20778
# Poissons Ratio (y) = 0.16722 0.23927
# Poissons Ratio (z) = 0.21185 0.38547
#
# Static dielectric constant tensor:
#      x y z
#    x 3.698290 0.000000 0.000000 
#    y 0.000000 4.528620 0.000000 
#    z 0.000000 0.000000 3.864900 
# 
# 
# High freq. dielectric constant tensor:
#      x y z
#    x 1.828300 0.000000 0.000000 
#    y 0.000000 1.862870 0.000000 
#    z 0.000000 0.000000 1.837130 
# 
# From -- ./inp_files/6150.got.cif
#   From: 2010.03.12/outbox.cif.g09.slc.cpg/sg20_4_cif.got.tgz:6150.got - 2010.04.14 01:38:04.
