data_PCOD8159982
_publ_section_title
;
Structure prediction by ZEFSAII (Michael W. Deem and Ramdas Pophale) SiO2 
 PCOD8159982
Probable space group: C 2 2 21
;
_chemical_formula_sum "Si O2"
_cell_formula_units_Z 52
_cell_length_a 17.281841
_cell_length_b 16.865506
_cell_length_c 9.002039
_cell_angle_alpha 90.000000
_cell_angle_beta 90.000000
_cell_angle_gamma 90.000000
_cell_volume 2623.797239
_symmetry_space_group_name_H-M "C 2 2 21"
_symmetry_group_IT_number 20
_symmetry_cell_setting 'orthorhombic'
loop_
_space_group_symop_operation_xyz
x,y,z
-x,-y,1/2+z
x,-y,-z
-x,y,1/2-z
1/2+x,1/2+y,z
1/2-x,1/2-y,1/2+z
1/2+x,1/2-y,-z
1/2-x,1/2+y,1/2-z
loop_
_atom_site_type_symbol
_atom_site_label
_atom_site_fract_x
_atom_site_fract_y
_atom_site_fract_z
Si Si1 0.164438 0.454337 0.764419
Si Si2 0.723520 0.500000 0.000000
Si Si3 0.329050 0.329692 0.513006
Si Si4 0.224430 0.764125 0.284817
Si Si5 0.036122 0.265166 0.098198
Si Si6 0.327208 0.885725 0.424741
Si Si7 0.930627 0.681274 0.144723
O O1 0.228585 0.476094 0.644774
O O2 0.142230 0.534604 0.847189
O O3 0.094337 0.410086 0.677852
O O4 0.189453 0.394428 0.897954
O O5 0.672336 0.577765 0.968931
O O6 0.284733 0.306436 0.668037
O O7 0.282253 0.275952 0.392865
O O8 0.420849 0.309152 0.518418
O O9 0.249376 0.849214 0.353827
O O10 0.140011 0.741662 0.343662
O O11 0.103772 0.328036 0.115346
O O12 0.000000 0.233745 0.250000
O O13 0.964564 0.308563 0.018797
O O14 0.000000 0.708462 0.250000
#
# Coordination Sequence:
#
# PCOD8159982 Si02
#       7
#     8   4   8   8   8   8   8
#     4  11  23  40  60  96 132 169 207 269 334 391
#     4  12  24  40  70  98 130 170 224 282 328 388
#     4  11  24  42  66  97 131 173 231 277 327 400
#     4  11  22  40  67  92 126 176 223 273 317 402
#     4  11  26  42  64  95 130 178 218 268 331 405
#     4  10  23  43  61  92 133 169 223 264 326 403
#     4  12  22  41  62  92 130 168 207 264 332 393
#
# _framework density 19.818604000000001
#
# number of rings (size 3 to 8) (size 9 to 14) (size 15 to 20)
#    0.000    0.923    6.154    0.923    6.462    0.615 
#    0.000    0.000    3.385    0.000    0.000    0.000 
#    0.000    0.000    0.000    0.000    0.000    0.000 
#
# Total GULP energy -322133.235564 kJ/mol
# GULP energy per Si atom -12389.739829 kJ/mol
# Density = 1.977350 g / cm^3
# Si number density = 19.818604 Si / 1000 Ang^3
#
#
#
# Elastic Constant Matrix: (Units=GPa)
#
#
# Indices 1 2 3 4 5 6 
#
# 1 105.4351 61.8545 39.5159 0.0000 0.0000 0.0000
# 2 61.8545 122.3754 37.5052 0.0000 0.0000 0.0000
# 3 39.5159 37.5052 101.7899 0.0000 0.0000 0.0000
# 4 0.0000 0.0000 0.0000 22.5670 0.0000 0.0000
# 5 0.0000 0.0000 0.0000 0.0000 30.4883 0.0000
# 6 0.0000 0.0000 0.0000 0.0000 0.0000 -12.8728
#
#
#
# Elastic Compliance Matrix: (Units=1/GPa)
#
#
# Indices 1 2 3 4 5 6 
#
# 1 0.014391 -0.006270 -0.003277 0.000000 0.000000 0.000000
# 2 -0.006270 0.011943 -0.001967 0.000000 0.000000 0.000000
# 3 -0.003277 -0.001967 0.011821 0.000000 0.000000 0.000000
# 4 0.000000 0.000000 0.000000 0.044312 0.000000 0.000000
# 5 0.000000 0.000000 0.000000 0.000000 0.032799 0.000000
# 6 0.000000 0.000000 0.000000 0.000000 0.000000 -0.077683
#
#
# Mechanical properties :
#
#
# Convention : Reuss Voigt Hill
#
# Bulk Modulus (GPa) = 66.09756 67.48350 66.79053
# Shear Modulus (GPa) = 76.15937 20.75150 48.45544
#
# Velocity S-wave (km/s) = 6.20578 3.23936 4.95000
# Velocity P-wave (km/s) = 9.20720 6.93655 8.15133
#
# Compressibility (1/GPa) = 0.01512915
#
# Stress axis : x y z
#
# Youngs Moduli (GPa) = 69.48989 83.72937 84.59687
#
# Poissons Ratio (x) = 0.52494 0.27718
# Poissons Ratio (y) = 0.43567 0.16637
# Poissons Ratio (z) = 0.22768 0.16467
#
# Static dielectric constant tensor:
#      x y z
#    x 3.685990 0.000000 0.000000 
#    y 0.000000 4.108830 0.000000 
#    z 0.000000 0.000000 4.011070 
# 
# 
# High freq. dielectric constant tensor:
#      x y z
#    x 1.752080 0.000000 0.000000 
#    y 0.000000 1.773520 0.000000 
#    z 0.000000 0.000000 1.786790 
# 
# From -- ./inp_files/9533.got.cif
#   From: 2010.03.12/outbox.cif.g09.slc.cpg/sg20_5_cif.got.tgz:9533.got - 2010.04.14 01:38:04.
