data_PCOD8159312
_publ_section_title
;
Structure prediction by ZEFSAII (Michael W. Deem and Ramdas Pophale) SiO2 
 PCOD8159312
Probable space group: C 2 2 21
;
_chemical_formula_sum "Si O2"
_cell_formula_units_Z 48
_cell_length_a 8.679352
_cell_length_b 17.545721
_cell_length_c 15.269302
_cell_angle_alpha 90.000000
_cell_angle_beta 90.000000
_cell_angle_gamma 90.000000
_cell_volume 2325.293116
_symmetry_space_group_name_H-M "C 2 2 21"
_symmetry_group_IT_number 20
_symmetry_cell_setting 'orthorhombic'
loop_
_space_group_symop_operation_xyz
x,y,z
-x,-y,1/2+z
x,-y,-z
-x,y,1/2-z
1/2+x,1/2+y,z
1/2-x,1/2-y,1/2+z
1/2+x,1/2-y,-z
1/2-x,1/2+y,1/2-z
loop_
_atom_site_type_symbol
_atom_site_label
_atom_site_fract_x
_atom_site_fract_y
_atom_site_fract_z
Si Si1 0.098664 0.939005 0.337514
Si Si2 0.689180 0.727305 0.909063
Si Si3 0.793507 0.952663 0.417584
Si Si4 0.336066 0.282295 0.080074
Si Si5 0.679758 0.298002 0.764605
Si Si6 0.821851 0.538414 0.241791
O O1 0.175135 0.867217 0.383753
O O2 0.241300 0.996076 0.323683
O O3 0.000000 0.916051 0.250000
O O4 0.972103 0.976138 0.401861
O O5 0.723555 0.638341 0.927895
O O6 0.510021 0.747849 0.916463
O O7 0.736393 0.750403 0.811241
O O8 0.779541 0.778147 0.979798
O O9 0.687624 0.980190 0.338464
O O10 0.732672 0.000000 0.500000
O O11 0.223796 0.232494 0.139998
O O12 0.500000 0.289532 0.750000
O O13 0.724443 0.385736 0.768285
O O14 0.000000 0.559409 0.250000
#
# Coordination Sequence:
#
# PCOD8159312 Si02
#       6
#     8   8   8   8   8   8
#     4   9  20  39  62  86 119 162 202 241 300 367
#     4  11  24  39  63  95 125 162 207 252 305 367
#     4  10  21  40  62  87 121 160 199 244 300 362
#     4  11  22  40  62  91 127 161 202 255 305 363
#     4  12  24  41  63  88 124 166 208 255 308 363
#     4  11  23  39  62  89 119 157 202 253 306 364
#
# _framework density 20.642558999999999
#
# number of rings (size 3 to 8) (size 9 to 14) (size 15 to 20)
#    0.000    1.333    0.000    8.000    0.000    8.000 
#    0.000    0.833    0.000    0.000    0.000    0.000 
#    0.000    0.000    0.000    0.000    0.000    0.000 
#
# Total GULP energy -297590.658750 kJ/mol
# GULP energy per Si atom -12399.610781 kJ/mol
# Density = 2.059558 g / cm^3
# Si number density = 20.642559 Si / 1000 Ang^3
#
#
#
# Elastic Constant Matrix: (Units=GPa)
#
#
# Indices 1 2 3 4 5 6 
#
# 1 94.2105 1.2053 -9.3576 0.0000 0.0000 0.0000
# 2 1.2053 54.7872 1.2770 0.0000 0.0000 0.0000
# 3 -9.3576 1.2770 49.3447 0.0000 0.0000 0.0000
# 4 0.0000 0.0000 0.0000 34.8712 0.0000 0.0000
# 5 0.0000 0.0000 0.0000 0.0000 30.4467 0.0000
# 6 0.0000 0.0000 0.0000 0.0000 0.0000 31.4251
#
#
#
# Elastic Compliance Matrix: (Units=1/GPa)
#
#
# Indices 1 2 3 4 5 6 
#
# 1 0.010823 -0.000286 0.002060 0.000000 0.000000 0.000000
# 2 -0.000286 0.018271 -0.000527 0.000000 0.000000 0.000000
# 3 0.002060 -0.000527 0.020670 0.000000 0.000000 0.000000
# 4 0.000000 0.000000 0.000000 0.028677 0.000000 0.000000
# 5 0.000000 0.000000 0.000000 0.000000 0.032844 0.000000
# 6 0.000000 0.000000 0.000000 0.000000 0.000000 0.031822
#
#
# Mechanical properties :
#
#
# Convention : Reuss Voigt Hill
#
# Bulk Modulus (GPa) = 19.13626 20.51022 19.82324
# Shear Modulus (GPa) = 31.63908 33.02977 32.33443
#
# Velocity S-wave (km/s) = 3.91923 4.00444 3.96207
# Velocity P-wave (km/s) = 5.45627 5.59805 5.52762
#
# Compressibility (1/GPa) = 0.05225682
#
# Stress axis : x y z
#
# Youngs Moduli (GPa) = 92.39767 54.73153 48.37963
#
# Poissons Ratio (x) = 0.01566 -0.09965
# Poissons Ratio (y) = 0.02644 0.02550
# Poissons Ratio (z) = -0.19032 0.02885
#
# Static dielectric constant tensor:
#      x y z
#    x 3.818920 0.000000 0.000000 
#    y 0.000000 3.765390 0.000000 
#    z 0.000000 0.000000 3.906470 
# 
# 
# High freq. dielectric constant tensor:
#      x y z
#    x 1.810380 0.000000 0.000000 
#    y 0.000000 1.812120 0.000000 
#    z 0.000000 0.000000 1.811320 
# 
# From -- ./inp_files/18892.got.cif
#   From: 2010.03.12/outbox.cif.g09.slc.cpg/sg20_10_cif.got.tgz:18892.got - 2010.04.14 01:38:04.
