data_PCOD8159340
_publ_section_title
;
Structure prediction by ZEFSAII (Michael W. Deem and Ramdas Pophale) SiO2 
 PCOD8159340
Probable space group: C 2 2 21
;
_chemical_formula_sum "Si O2"
_cell_formula_units_Z 40
_cell_length_a 14.178299
_cell_length_b 16.763890
_cell_length_c 7.555997
_cell_angle_alpha 90.000000
_cell_angle_beta 90.000000
_cell_angle_gamma 90.000000
_cell_volume 1795.935396
_symmetry_space_group_name_H-M "C 2 2 21"
_symmetry_group_IT_number 20
_symmetry_cell_setting 'orthorhombic'
loop_
_space_group_symop_operation_xyz
x,y,z
-x,-y,1/2+z
x,-y,-z
-x,y,1/2-z
1/2+x,1/2+y,z
1/2-x,1/2-y,1/2+z
1/2+x,1/2-y,-z
1/2-x,1/2+y,1/2-z
loop_
_atom_site_type_symbol
_atom_site_label
_atom_site_fract_x
_atom_site_fract_y
_atom_site_fract_z
Si Si1 0.039154 0.277728 0.556633
Si Si2 0.373979 0.327634 0.541639
Si Si3 0.698079 0.052137 0.835440
Si Si4 0.000000 0.599507 0.750000
Si Si5 0.685530 0.500000 0.000000
Si Si6 0.731870 0.275821 0.305685
O O1 0.030667 0.349734 0.420433
O O2 0.148564 0.254500 0.565815
O O3 0.000000 0.302974 0.750000
O O4 0.980954 0.202260 0.478024
O O5 0.379632 0.423519 0.544131
O O6 0.310398 0.291075 0.385780
O O7 0.317215 0.289873 0.708743
O O8 0.586561 0.043067 0.802972
O O9 0.750164 0.018932 0.665301
O O10 0.723300 0.143096 0.881685
O O11 0.730880 0.000000 0.000000
#
# Coordination Sequence:
#
# PCOD8159340 Si02
#       6
#     8   8   8   4   4   8
#     4  10  22  39  68  94 125 166 213 266 311 373
#     4  10  21  40  65  93 126 168 213 264 317 378
#     4  11  26  42  63  92 133 169 210 262 322 377
#     4  12  24  42  62 102 122 166 224 250 314 392
#     4  10  24  42  64  94 132 166 208 270 324 368
#     4  10  21  41  64  91 125 166 216 258 314 380
#
# _framework density 22.272516
#
# number of rings (size 3 to 8) (size 9 to 14) (size 15 to 20)
#    0.000    1.600    2.000    2.400    4.200    1.600 
#    1.800    0.000    2.200    0.000    0.000    0.000 
#    0.000    0.000    0.000    0.000    0.000    0.000 
#
# Total GULP energy -248018.200298 kJ/mol
# GULP energy per Si atom -12400.910015 kJ/mol
# Density = 2.222182 g / cm^3
# Si number density = 22.272516 Si / 1000 Ang^3
#
#
#
# Elastic Constant Matrix: (Units=GPa)
#
#
# Indices 1 2 3 4 5 6 
#
# 1 73.7597 -7.8123 -5.7485 0.0000 0.0000 0.0000
# 2 -7.8123 87.1546 18.7586 0.0000 0.0000 0.0000
# 3 -5.7485 18.7586 64.3644 0.0000 0.0000 0.0000
# 4 0.0000 0.0000 0.0000 28.2633 0.0000 0.0000
# 5 0.0000 0.0000 0.0000 0.0000 17.6221 0.0000
# 6 0.0000 0.0000 0.0000 0.0000 0.0000 50.7962
#
#
#
# Elastic Compliance Matrix: (Units=1/GPa)
#
#
# Indices 1 2 3 4 5 6 
#
# 1 0.013739 0.001032 0.000926 0.000000 0.000000 0.000000
# 2 0.001032 0.012319 -0.003498 0.000000 0.000000 0.000000
# 3 0.000926 -0.003498 0.016639 0.000000 0.000000 0.000000
# 4 0.000000 0.000000 0.000000 0.035382 0.000000 0.000000
# 5 0.000000 0.000000 0.000000 0.000000 0.056747 0.000000
# 6 0.000000 0.000000 0.000000 0.000000 0.000000 0.019686
#
#
# Mechanical properties :
#
#
# Convention : Reuss Voigt Hill
#
# Bulk Modulus (GPa) = 25.24132 26.18603 25.71367
# Shear Modulus (GPa) = 29.27439 34.00837 31.64138
#
# Velocity S-wave (km/s) = 3.62936 3.91182 3.77324
# Velocity P-wave (km/s) = 5.37778 5.67325 5.52749
#
# Compressibility (1/GPa) = 0.03961758
#
# Stress axis : x y z
#
# Youngs Moduli (GPa) = 72.78524 81.17331 60.10049
#
# Poissons Ratio (x) = -0.08378 -0.05567
# Poissons Ratio (y) = -0.07513 0.21024
# Poissons Ratio (z) = -0.06742 0.28396
#
# Static dielectric constant tensor:
#      x y z
#    x 4.200670 0.000000 0.000000 
#    y 0.000000 4.025570 0.000000 
#    z 0.000000 0.000000 4.028380 
# 
# 
# High freq. dielectric constant tensor:
#      x y z
#    x 1.882630 0.000000 0.000000 
#    y 0.000000 1.864960 0.000000 
#    z 0.000000 0.000000 1.890610 
# 
# From -- ./inp_files/8149.got.cif
#   From: 2010.03.12/outbox.cif.g09.slc.cpg/sg20_5_cif.got.tgz:8149.got - 2010.04.14 01:38:04.
