data_PCOD8159141
_publ_section_title
;
Structure prediction by ZEFSAII (Michael W. Deem and Ramdas Pophale) SiO2 
 PCOD8159141
Probable space group: C 2 2 21
;
_chemical_formula_sum "Si O2"
_cell_formula_units_Z 64
_cell_length_a 9.039064
_cell_length_b 20.130345
_cell_length_c 19.861718
_cell_angle_alpha 90.000000
_cell_angle_beta 90.000000
_cell_angle_gamma 90.000000
_cell_volume 3614.027816
_symmetry_space_group_name_H-M "C 2 2 21"
_symmetry_group_IT_number 20
_symmetry_cell_setting 'orthorhombic'
loop_
_space_group_symop_operation_xyz
x,y,z
-x,-y,1/2+z
x,-y,-z
-x,y,1/2-z
1/2+x,1/2+y,z
1/2-x,1/2-y,1/2+z
1/2+x,1/2-y,-z
1/2-x,1/2+y,1/2-z
loop_
_atom_site_type_symbol
_atom_site_label
_atom_site_fract_x
_atom_site_fract_y
_atom_site_fract_z
Si Si1 0.425081 0.091085 0.942150
Si Si2 0.576673 0.831209 0.680174
Si Si3 0.424035 0.224524 0.567513
Si Si4 0.425082 0.591085 0.557850
Si Si5 0.575348 0.947422 0.589666
Si Si6 0.075348 0.052579 0.089666
Si Si7 0.076673 0.831209 0.819826
Si Si8 0.075964 0.224524 0.567513
O O1 0.512930 0.152792 0.910882
O O2 0.250000 0.104894 0.938935
O O3 0.468655 0.024628 0.899968
O O4 0.482354 0.080746 0.018468
O O5 0.500000 0.814991 0.750000
O O6 0.515528 0.901443 0.650323
O O7 0.750000 0.835191 0.693204
O O8 0.536051 0.773531 0.628084
O O9 0.463948 0.273531 0.628084
O O10 0.250000 0.220856 0.554824
O O11 0.500000 0.250000 0.500000
O O12 0.468655 0.524628 0.600032
O O13 0.482354 0.580746 0.481533
O O14 0.512930 0.652792 0.589118
O O15 0.750000 0.941405 0.585530
O O16 0.015528 0.098557 0.150323
O O17 0.000000 0.814990 0.750000
#
# Coordination Sequence:
#
# PCOD8159141 Si02
#       8
#     8   8   8   8   8   8   8   8
#     4   9  16  31  56  80 104 135 172 215 265 316
#     4  10  21  37  54  76 106 143 182 219 264 322
#     4  11  21  34  54  80 110 140 178 226 270 317
#     4   9  16  31  56  80 104 135 172 215 265 316
#     4   8  15  31  54  77 103 137 172 210 260 320
#     4   8  15  31  54  77 103 137 172 210 260 320
#     4  10  21  37  54  76 106 143 182 219 264 322
#     4  11  21  34  54  80 110 140 178 226 270 317
#
# _framework density 17.708773000000001
#
# number of rings (size 3 to 8) (size 9 to 14) (size 15 to 20)
#    0.000    2.500    2.500    2.250    0.000    2.000 
#    0.000    5.000    0.000    6.000    0.000    0.000 
#    0.000    0.000    0.000    0.000    0.000    0.000 
#
# Total GULP energy -396668.320302 kJ/mol
# GULP energy per Si atom -12395.885009 kJ/mol
# Density = 1.766847 g / cm^3
# Si number density = 17.708773 Si / 1000 Ang^3
#
#
#
# Elastic Constant Matrix: (Units=GPa)
#
#
# Indices 1 2 3 4 5 6 
#
# 1 52.1041 58.1144 50.0043 0.0000 0.0000 0.0000
# 2 58.1144 170.6061 73.3191 0.0000 0.0000 0.0000
# 3 50.0043 73.3191 114.2853 0.0000 0.0000 0.0000
# 4 0.0000 0.0000 0.0000 23.2016 0.0000 0.0000
# 5 0.0000 0.0000 0.0000 0.0000 24.3319 0.0000
# 6 0.0000 0.0000 0.0000 0.0000 0.0000 31.2812
#
#
#
# Elastic Compliance Matrix: (Units=1/GPa)
#
#
# Indices 1 2 3 4 5 6 
#
# 1 0.040420 -0.008516 -0.012222 0.000000 0.000000 0.000000
# 2 -0.008516 0.009887 -0.002617 0.000000 0.000000 0.000000
# 3 -0.012222 -0.002617 0.015776 0.000000 0.000000 0.000000
# 4 0.000000 0.000000 0.000000 0.043100 0.000000 0.000000
# 5 0.000000 0.000000 0.000000 0.000000 0.041098 0.000000
# 6 0.000000 0.000000 0.000000 0.000000 0.000000 0.031968
#
#
# Mechanical properties :
#
#
# Convention : Reuss Voigt Hill
#
# Bulk Modulus (GPa) = 51.61596 77.76344 64.68970
# Shear Modulus (GPa) = 21.23882 26.13345 23.68614
#
# Velocity S-wave (km/s) = 3.46690 3.84570 3.66120
# Velocity P-wave (km/s) = 6.72579 7.98291 7.38116
#
# Compressibility (1/GPa) = 0.01937385
#
# Stress axis : x y z
#
# Youngs Moduli (GPa) = 24.74013 101.14406 63.38572
#
# Poissons Ratio (x) = 0.86135 0.77470
# Poissons Ratio (y) = 0.21069 0.16587
# Poissons Ratio (z) = 0.30237 0.26467
#
# Static dielectric constant tensor:
#      x y z
#    x 3.023240 0.000000 0.000000 
#    y 0.000000 3.761210 0.000000 
#    z 0.000000 0.000000 3.232070 
# 
# 
# High freq. dielectric constant tensor:
#      x y z
#    x 1.659290 0.000000 0.000000 
#    y 0.000000 1.706130 0.000000 
#    z 0.000000 0.000000 1.657350 
# 
# From -- ./inp_files/23913.got.cif
#   From: 2010.03.12/outbox.cif.g09.slc.cpg/sg20_12_cif.got.tgz:23913.got - 2010.04.14 01:38:04.
