data_PCOD8159900
_publ_section_title
;
Structure prediction by ZEFSAII (Michael W. Deem and Ramdas Pophale) SiO2 
 PCOD8159900
Probable space group: C 2 2 21
;
_chemical_formula_sum "Si O2"
_cell_formula_units_Z 48
_cell_length_a 12.230748
_cell_length_b 7.759490
_cell_length_c 27.570552
_cell_angle_alpha 90.000000
_cell_angle_beta 90.000000
_cell_angle_gamma 90.000000
_cell_volume 2616.565780
_symmetry_space_group_name_H-M "C 2 2 21"
_symmetry_group_IT_number 20
_symmetry_cell_setting 'orthorhombic'
loop_
_space_group_symop_operation_xyz
x,y,z
-x,-y,1/2+z
x,-y,-z
-x,y,1/2-z
1/2+x,1/2+y,z
1/2-x,1/2-y,1/2+z
1/2+x,1/2-y,-z
1/2-x,1/2+y,1/2-z
loop_
_atom_site_type_symbol
_atom_site_label
_atom_site_fract_x
_atom_site_fract_y
_atom_site_fract_z
Si Si1 0.093330 0.233021 0.619635
Si Si2 0.228089 0.803150 0.806980
Si Si3 0.115823 0.439983 0.265320
Si Si4 0.422301 0.425157 0.612635
Si Si5 0.068989 0.391186 0.370744
Si Si6 0.718560 0.041460 0.444690
O O1 0.184828 0.194960 0.660866
O O2 0.026110 0.408653 0.633759
O O3 0.159446 0.276081 0.569508
O O4 0.014198 0.071649 0.614700
O O5 0.144027 0.685747 0.778634
O O6 0.293341 0.912707 0.767233
O O7 0.158486 0.932610 0.841143
O O8 0.110390 0.338309 0.316946
O O9 0.000000 0.522097 0.250000
O O10 0.476051 0.236293 0.610374
O O11 0.349139 0.449505 0.564392
O O12 0.168174 0.390645 0.410004
O O13 0.693922 0.000000 0.500000
#
# Coordination Sequence:
#
# PCOD8159900 Si02
#       6
#     8   8   8   8   8   8
#     4   8  21  40  58  88 118 153 193 245 297 349
#     4  10  23  36  54  90 118 155 203 241 285 356
#     4  11  21  37  55  84 121 157 196 241 290 344
#     4  11  19  41  64  83 120 161 191 241 307 350
#     4   9  21  40  59  86 122 152 198 249 288 355
#     4   9  21  43  61  89 122 145 203 256 289 364
#
# _framework density 18.344656000000001
#
# number of rings (size 3 to 8) (size 9 to 14) (size 15 to 20)
#    1.000    1.333    3.333    0.000    2.333    4.000 
#    6.000    0.000    0.000    0.000    0.000    0.000 
#    0.000    0.000    0.000    0.000    0.000    0.000 
#
# Total GULP energy -297318.449300 kJ/mol
# GULP energy per Si atom -12388.268721 kJ/mol
# Density = 1.830290 g / cm^3
# Si number density = 18.344656 Si / 1000 Ang^3
#
#
#
# Elastic Constant Matrix: (Units=GPa)
#
#
# Indices 1 2 3 4 5 6 
#
# 1 105.9881 42.7181 32.4670 0.0000 0.0000 0.0000
# 2 42.7181 61.0577 19.0257 0.0000 0.0000 0.0000
# 3 32.4670 19.0257 95.4938 0.0000 0.0000 0.0000
# 4 0.0000 0.0000 0.0000 13.3256 0.0000 0.0000
# 5 0.0000 0.0000 0.0000 0.0000 23.7445 0.0000
# 6 0.0000 0.0000 0.0000 0.0000 0.0000 40.0091
#
#
#
# Elastic Compliance Matrix: (Units=1/GPa)
#
#
# Indices 1 2 3 4 5 6 
#
# 1 0.013888 -0.008791 -0.002970 0.000000 0.000000 0.000000
# 2 -0.008791 0.023027 -0.001599 0.000000 0.000000 0.000000
# 3 -0.002970 -0.001599 0.011800 0.000000 0.000000 0.000000
# 4 0.000000 0.000000 0.000000 0.075044 0.000000 0.000000
# 5 0.000000 0.000000 0.000000 0.000000 0.042115 0.000000
# 6 0.000000 0.000000 0.000000 0.000000 0.000000 0.024994
#
#
# Mechanical properties :
#
#
# Convention : Reuss Voigt Hill
#
# Bulk Modulus (GPa) = 45.46562 50.10681 47.78621
# Shear Modulus (GPa) = 22.23013 26.63776 24.43395
#
# Velocity S-wave (km/s) = 3.48487 3.81474 3.65353
# Velocity P-wave (km/s) = 6.40550 6.83933 6.62596
#
# Compressibility (1/GPa) = 0.02199464
#
# Stress axis : x y z
#
# Youngs Moduli (GPa) = 72.00399 43.42789 84.74351
#
# Poissons Ratio (x) = 0.38178 0.25172
# Poissons Ratio (y) = 0.63299 0.13549
# Poissons Ratio (z) = 0.21388 0.06943
#
# Static dielectric constant tensor:
#      x y z
#    x 3.421500 0.000000 0.000000 
#    y 0.000000 3.038510 0.000000 
#    z 0.000000 0.000000 3.277980 
# 
# 
# High freq. dielectric constant tensor:
#      x y z
#    x 1.717220 0.000000 0.000000 
#    y 0.000000 1.677400 0.000000 
#    z 0.000000 0.000000 1.706190 
# 
# From -- ./inp_files/30082.got.cif
#   From: 2010.03.12/outbox.cif.g09.slc.cpg/sg20_16_cif.got.tgz:30082.got - 2010.04.14 01:38:04.
