data_PCOD8159224
_publ_section_title
;
Structure prediction by ZEFSAII (Michael W. Deem and Ramdas Pophale) SiO2 
 PCOD8159224
Probable space group: C 2 2 21
;
_chemical_formula_sum "Si O2"
_cell_formula_units_Z 48
_cell_length_a 8.330116
_cell_length_b 28.991718
_cell_length_c 8.886605
_cell_angle_alpha 90.000000
_cell_angle_beta 90.000000
_cell_angle_gamma 90.000000
_cell_volume 2146.153977
_symmetry_space_group_name_H-M "C 2 2 21"
_symmetry_group_IT_number 20
_symmetry_cell_setting 'orthorhombic'
loop_
_space_group_symop_operation_xyz
x,y,z
-x,-y,1/2+z
x,-y,-z
-x,y,1/2-z
1/2+x,1/2+y,z
1/2-x,1/2-y,1/2+z
1/2+x,1/2-y,-z
1/2-x,1/2+y,1/2-z
loop_
_atom_site_type_symbol
_atom_site_label
_atom_site_fract_x
_atom_site_fract_y
_atom_site_fract_z
Si Si1 0.339550 0.980856 0.334522
Si Si2 0.897945 0.853450 0.595957
Si Si3 0.668395 0.778351 0.450012
Si Si4 0.311375 0.922069 0.747631
Si Si5 0.681638 0.798714 0.112934
Si Si6 0.816121 0.107822 0.934406
O O1 0.500000 0.963016 0.250000
O O2 0.208085 0.939646 0.341077
O O3 0.387997 0.000000 0.500000
O O4 0.260457 0.023824 0.244480
O O5 0.802325 0.808435 0.538486
O O6 0.769747 0.894554 0.617098
O O7 0.000000 0.842830 0.750000
O O8 0.002167 0.874248 0.457137
O O9 0.691653 0.773984 0.272586
O O10 0.487587 0.795857 0.476176
O O11 0.684067 0.725695 0.509076
O O12 0.500000 0.918199 0.750000
O O13 0.254905 0.897789 0.598062
O O14 0.717382 0.851980 0.146995
#
# Coordination Sequence:
#
# PCOD8159224 Si02
#       6
#     8   8   8   8   8   8
#     4   9  19  37  66  95 129 171 219 270 320 387
#     4  10  22  40  69  95 134 170 222 271 329 394
#     4  11  26  44  70  98 132 172 221 273 330 399
#     4   9  18  37  67  95 125 173 224 265 324 386
#     4  11  26  44  67  99 133 172 219 272 333 396
#     4  10  21  38  65  92 135 172 212 275 325 388
#
# _framework density 22.365590999999998
#
# number of rings (size 3 to 8) (size 9 to 14) (size 15 to 20)
#    0.000    2.000    0.000    2.000    9.333    2.667 
#    0.000    0.000   29.333    0.000    0.000    0.000 
#    0.000    0.000    0.000    0.000    0.000    0.000 
#
# Total GULP energy -297454.599368 kJ/mol
# GULP energy per Si atom -12393.941640 kJ/mol
# Density = 2.231469 g / cm^3
# Si number density = 22.365591 Si / 1000 Ang^3
#
#
#
# Elastic Constant Matrix: (Units=GPa)
#
#
# Indices 1 2 3 4 5 6 
#
# 1 96.0239 42.7509 29.0326 0.0000 0.0000 0.0000
# 2 42.7509 116.4687 22.6956 0.0000 0.0000 0.0000
# 3 29.0326 22.6956 33.0531 0.0000 0.0000 0.0000
# 4 0.0000 0.0000 0.0000 36.9701 0.0000 0.0000
# 5 0.0000 0.0000 0.0000 0.0000 33.0624 0.0000
# 6 0.0000 0.0000 0.0000 0.0000 0.0000 34.1746
#
#
#
# Elastic Compliance Matrix: (Units=1/GPa)
#
#
# Indices 1 2 3 4 5 6 
#
# 1 0.015299 -0.003460 -0.011062 0.000000 0.000000 0.000000
# 2 -0.003460 0.010695 -0.004304 0.000000 0.000000 0.000000
# 3 -0.011062 -0.004304 0.042927 0.000000 0.000000 0.000000
# 4 0.000000 0.000000 0.000000 0.027049 0.000000 0.000000
# 5 0.000000 0.000000 0.000000 0.000000 0.030246 0.000000
# 6 0.000000 0.000000 0.000000 0.000000 0.000000 0.029261
#
#
# Mechanical properties :
#
#
# Convention : Reuss Voigt Hill
#
# Bulk Modulus (GPa) = 31.98253 48.27821 40.13037
# Shear Modulus (GPa) = 24.56366 30.91254 27.73810
#
# Velocity S-wave (km/s) = 3.31762 3.72176 3.52549
# Velocity P-wave (km/s) = 5.38576 6.33257 5.87826
#
# Compressibility (1/GPa) = 0.03126707
#
# Stress axis : x y z
#
# Youngs Moduli (GPa) = 65.36278 93.50340 23.29557
#
# Poissons Ratio (x) = 0.32353 0.25771
# Poissons Ratio (y) = 0.22616 0.10027
# Poissons Ratio (z) = 0.72307 0.40247
#
# Static dielectric constant tensor:
#      x y z
#    x 3.926800 0.000000 0.000000 
#    y 0.000000 4.487390 0.000000 
#    z 0.000000 0.000000 3.821090 
# 
# 
# High freq. dielectric constant tensor:
#      x y z
#    x 1.875120 0.000000 0.000000 
#    y 0.000000 1.895450 0.000000 
#    z 0.000000 0.000000 1.869120 
# 
# From -- ./inp_files/6533.got.cif
#   From: 2010.03.12/outbox.cif.g09.slc.cpg/sg20_4_cif.got.tgz:6533.got - 2010.04.14 01:38:04.
