data_PCOD8159635
_publ_section_title
;
Structure prediction by ZEFSAII (Michael W. Deem and Ramdas Pophale) SiO2 
 PCOD8159635
Probable space group: C 2 2 21
;
_chemical_formula_sum "Si O2"
_cell_formula_units_Z 60
_cell_length_a 19.702698
_cell_length_b 17.919760
_cell_length_c 8.534970
_cell_angle_alpha 90.000000
_cell_angle_beta 90.000000
_cell_angle_gamma 90.000000
_cell_volume 3013.421541
_symmetry_space_group_name_H-M "C 2 2 21"
_symmetry_group_IT_number 20
_symmetry_cell_setting 'orthorhombic'
loop_
_space_group_symop_operation_xyz
x,y,z
-x,-y,1/2+z
x,-y,-z
-x,y,1/2-z
1/2+x,1/2+y,z
1/2-x,1/2-y,1/2+z
1/2+x,1/2-y,-z
1/2-x,1/2+y,1/2-z
loop_
_atom_site_type_symbol
_atom_site_label
_atom_site_fract_x
_atom_site_fract_y
_atom_site_fract_z
Si Si1 0.679025 0.427915 0.399559
Si Si2 0.500000 0.673863 0.750000
Si Si3 0.325976 0.305689 0.602719
Si Si4 0.209002 0.296714 0.829336
Si Si5 0.880924 0.770285 0.060640
Si Si6 0.081022 0.307190 0.246011
Si Si7 0.895804 0.926274 0.418647
Si Si8 0.665418 0.081719 0.948751
O O1 0.660353 0.500000 0.500000
O O2 0.646316 0.353876 0.479678
O O3 0.649031 0.444551 0.230815
O O4 0.759480 0.418842 0.375493
O O5 0.546485 0.726200 0.644376
O O6 0.540542 0.623379 0.872497
O O7 0.284076 0.315352 0.763994
O O8 0.281981 0.263363 0.468815
O O9 0.395139 0.258598 0.629781
O O10 0.347163 0.386487 0.544131
O O11 0.169494 0.263909 0.684829
O O12 0.169886 0.369530 0.892302
O O13 0.888644 0.714215 0.915337
O O14 0.000000 0.314310 0.250000
O O15 0.113904 0.384335 0.181001
O O16 0.924826 0.000000 0.500000
O O17 0.639559 0.000000 0.000000
#
# Coordination Sequence:
#
# PCOD8159635 Si02
#       8
#     8   4   8   8   8   8   8   8
#     4  10  22  40  62  89 129 167 199 259 314 369
#     4  10  22  44  58  88 134 174 208 256 302 362
#     4  11  22  40  61 100 123 163 209 264 312 372
#     4  11  22  38  69  91 124 158 207 268 317 374
#     4  11  22  40  64  94 123 168 212 257 310 368
#     4  11  24  40  66  91 122 162 216 256 312 382
#     4  11  25  39  61  91 130 168 215 250 302 374
#     4  10  24  44  63  91 125 160 201 265 331 379
#
# _framework density 19.910921999999999
#
# number of rings (size 3 to 8) (size 9 to 14) (size 15 to 20)
#    0.000    1.333    2.667    4.000    9.333    2.133 
#    1.200    2.000    0.000    0.000    0.000    0.000 
#    0.000    0.000    0.000    0.000    0.000    0.000 
#
# Total GULP energy -371966.651936 kJ/mol
# GULP energy per Si atom -12398.888398 kJ/mol
# Density = 1.986560 g / cm^3
# Si number density = 19.910922 Si / 1000 Ang^3
#
#
#
# Elastic Constant Matrix: (Units=GPa)
#
#
# Indices 1 2 3 4 5 6 
#
# 1 104.1954 29.6017 37.7410 0.0000 0.0000 0.0000
# 2 29.6017 113.1101 37.6248 0.0000 0.0000 0.0000
# 3 37.7410 37.6248 83.2253 0.0000 0.0000 0.0000
# 4 0.0000 0.0000 0.0000 31.7669 0.0000 0.0000
# 5 0.0000 0.0000 0.0000 0.0000 33.2616 0.0000
# 6 0.0000 0.0000 0.0000 0.0000 0.0000 22.0823
#
#
#
# Elastic Compliance Matrix: (Units=1/GPa)
#
#
# Indices 1 2 3 4 5 6 
#
# 1 0.011704 -0.001527 -0.004617 0.000000 0.000000 0.000000
# 2 -0.001527 0.010605 -0.004102 0.000000 0.000000 0.000000
# 3 -0.004617 -0.004102 0.015964 0.000000 0.000000 0.000000
# 4 0.000000 0.000000 0.000000 0.031479 0.000000 0.000000
# 5 0.000000 0.000000 0.000000 0.000000 0.030065 0.000000
# 6 0.000000 0.000000 0.000000 0.000000 0.000000 0.045285
#
#
# Mechanical properties :
#
#
# Convention : Reuss Voigt Hill
#
# Bulk Modulus (GPa) = 56.24170 56.71844 56.48007
# Shear Modulus (GPa) = 29.15114 30.45971 29.80543
#
# Velocity S-wave (km/s) = 3.83048 3.91551 3.87323
# Velocity P-wave (km/s) = 6.91892 6.99925 6.95920
#
# Compressibility (1/GPa) = 0.01778040
#
# Stress axis : x y z
#
# Youngs Moduli (GPa) = 85.44439 94.29486 62.64239
#
# Poissons Ratio (x) = 0.14400 0.28922
# Poissons Ratio (y) = 0.13048 0.25695
# Poissons Ratio (z) = 0.39449 0.38678
#
# Static dielectric constant tensor:
#      x y z
#    x 3.681050 0.000000 0.000000 
#    y 0.000000 3.687170 0.000000 
#    z 0.000000 0.000000 3.909600 
# 
# 
# High freq. dielectric constant tensor:
#      x y z
#    x 1.776650 0.000000 0.000000 
#    y 0.000000 1.766530 0.000000 
#    z 0.000000 0.000000 1.789260 
# 
# From -- ./inp_files/9588.got.cif
#   From: 2010.03.12/outbox.cif.g09.slc.cpg/sg20_5_cif.got.tgz:9588.got - 2010.04.14 01:38:04.
