data_PCOD8159305
_publ_section_title
;
Structure prediction by ZEFSAII (Michael W. Deem and Ramdas Pophale) SiO2 
 PCOD8159305
Probable space group: C 2 2 21
;
_chemical_formula_sum "Si O2"
_cell_formula_units_Z 48
_cell_length_a 25.033847
_cell_length_b 5.211750
_cell_length_c 17.124427
_cell_angle_alpha 90.000000
_cell_angle_beta 90.000000
_cell_angle_gamma 90.000000
_cell_volume 2234.226595
_symmetry_space_group_name_H-M "C 2 2 21"
_symmetry_group_IT_number 20
_symmetry_cell_setting 'orthorhombic'
loop_
_space_group_symop_operation_xyz
x,y,z
-x,-y,1/2+z
x,-y,-z
-x,y,1/2-z
1/2+x,1/2+y,z
1/2-x,1/2-y,1/2+z
1/2+x,1/2-y,-z
1/2-x,1/2+y,1/2-z
loop_
_atom_site_type_symbol
_atom_site_label
_atom_site_fract_x
_atom_site_fract_y
_atom_site_fract_z
Si Si1 0.000000 0.589081 0.250000
Si Si2 0.401211 0.500000 0.500000
Si Si3 0.199136 0.625636 0.683338
Si Si4 0.036809 0.500000 0.500000
Si Si5 0.260231 0.882854 0.354504
Si Si6 0.078162 0.697148 0.649480
Si Si7 0.667408 0.000000 0.000000
Si Si8 0.508457 0.591480 0.899357
O O1 0.049659 0.412836 0.274085
O O2 0.022807 0.745077 0.176982
O O3 0.367671 0.246911 0.475768
O O4 0.437880 0.565269 0.422393
O O5 0.216421 0.349658 0.647058
O O6 0.204585 0.636045 0.776489
O O7 0.139784 0.723686 0.666617
O O8 0.233763 0.839740 0.641123
O O9 0.073949 0.508914 0.575919
O O10 0.999818 0.745345 0.480472
O O11 0.297464 0.879169 0.430087
O O12 0.046611 0.949900 0.622405
#
# Coordination Sequence:
#
# PCOD8159305 Si02
#       8
#     4   4   8   4   8   8   4   8
#     4  10  26  38  64 100 146 178 242 276 328 446
#     4  12  26  42  74 100 145 191 220 290 360 412
#     4  10  24  45  73  93 137 180 226 293 363 396
#     4  10  21  40  61  92 142 173 230 277 336 412
#     4  10  24  48  66 101 133 170 240 302 335 423
#     4  11  23  40  67  98 133 193 222 284 353 422
#     4  12  27  44  75 104 133 184 240 289 360 410
#     4  11  23  44  62 101 149 180 233 284 337 441
#
# _framework density 21.483941999999999
#
# number of rings (size 3 to 8) (size 9 to 14) (size 15 to 20)
#    0.000    1.333    1.667    2.000    9.333    2.667 
#    0.000    0.000    0.000    0.000    0.000    0.000 
#    0.000    0.000    0.000    0.000    0.000    0.000 
#
# Total GULP energy -297341.460262 kJ/mol
# GULP energy per Si atom -12389.227511 kJ/mol
# Density = 2.143504 g / cm^3
# Si number density = 21.483942 Si / 1000 Ang^3
#
#
#
# Elastic Constant Matrix: (Units=GPa)
#
#
# Indices 1 2 3 4 5 6 
#
# 1 115.5366 39.9282 67.1842 0.0000 0.0000 0.0000
# 2 39.9282 116.5392 33.1292 0.0000 0.0000 0.0000
# 3 67.1842 33.1292 105.0762 0.0000 0.0000 0.0000
# 4 0.0000 0.0000 0.0000 27.5775 0.0000 0.0000
# 5 0.0000 0.0000 0.0000 0.0000 23.6770 0.0000
# 6 0.0000 0.0000 0.0000 0.0000 0.0000 29.0146
#
#
#
# Elastic Compliance Matrix: (Units=1/GPa)
#
#
# Indices 1 2 3 4 5 6 
#
# 1 0.014437 -0.002551 -0.008426 0.000000 0.000000 0.000000
# 2 -0.002551 0.009876 -0.001483 0.000000 0.000000 0.000000
# 3 -0.008426 -0.001483 0.015372 0.000000 0.000000 0.000000
# 4 0.000000 0.000000 0.000000 0.036261 0.000000 0.000000
# 5 0.000000 0.000000 0.000000 0.000000 0.042235 0.000000
# 6 0.000000 0.000000 0.000000 0.000000 0.000000 0.034465
#
#
# Mechanical properties :
#
#
# Convention : Reuss Voigt Hill
#
# Bulk Modulus (GPa) = 67.72805 68.62612 68.17708
# Shear Modulus (GPa) = 27.39891 29.18119 28.29005
#
# Velocity S-wave (km/s) = 3.57504 3.68948 3.63271
# Velocity P-wave (km/s) = 6.97385 7.08252 7.02839
#
# Compressibility (1/GPa) = 0.01476493
#
# Stress axis : x y z
#
# Youngs Moduli (GPa) = 69.26786 101.25239 65.05277
#
# Poissons Ratio (x) = 0.25828 0.54816
# Poissons Ratio (y) = 0.17669 0.09647
# Poissons Ratio (z) = 0.58368 0.15015
#
# Static dielectric constant tensor:
#      x y z
#    x 3.968000 0.000000 0.000000 
#    y 0.000000 4.107520 0.000000 
#    z 0.000000 0.000000 4.010990 
# 
# 
# High freq. dielectric constant tensor:
#      x y z
#    x 1.833790 0.000000 0.000000 
#    y 0.000000 1.854350 0.000000 
#    z 0.000000 0.000000 1.854990 
# 
# From -- ./inp_files/25604.got.cif
#   From: 2010.03.12/outbox.cif.g09.slc.cpg/sg20_13_cif.got.tgz:25604.got - 2010.04.14 01:38:04.
