data_PCOD8159847
_publ_section_title
;
Structure prediction by ZEFSAII (Michael W. Deem and Ramdas Pophale) SiO2 
 PCOD8159847
Probable space group: C 2 2 21
;
_chemical_formula_sum "Si O2"
_cell_formula_units_Z 48
_cell_length_a 9.811075
_cell_length_b 16.246788
_cell_length_c 14.145238
_cell_angle_alpha 90.000000
_cell_angle_beta 90.000000
_cell_angle_gamma 90.000000
_cell_volume 2254.729091
_symmetry_space_group_name_H-M "C 2 2 21"
_symmetry_group_IT_number 20
_symmetry_cell_setting 'orthorhombic'
loop_
_space_group_symop_operation_xyz
x,y,z
-x,-y,1/2+z
x,-y,-z
-x,y,1/2-z
1/2+x,1/2+y,z
1/2-x,1/2-y,1/2+z
1/2+x,1/2-y,-z
1/2-x,1/2+y,1/2-z
loop_
_atom_site_type_symbol
_atom_site_label
_atom_site_fract_x
_atom_site_fract_y
_atom_site_fract_z
Si Si1 0.874457 0.902804 0.689564
Si Si2 0.506464 0.570912 0.645543
Si Si3 0.369357 0.692294 0.500300
Si Si4 0.209102 0.501085 0.173113
Si Si5 0.571162 0.826308 0.445615
Si Si6 0.478198 0.000000 0.500000
Si Si7 0.500000 0.878504 0.250000
O O1 0.840451 0.840282 0.605757
O O2 0.000000 0.866681 0.750000
O O3 0.909892 0.991446 0.645847
O O4 0.747896 0.919616 0.761681
O O5 0.500000 0.613541 0.750000
O O6 0.455356 0.628787 0.562495
O O7 0.660270 0.542261 0.625042
O O8 0.457842 0.775349 0.502883
O O9 0.221400 0.711859 0.543202
O O10 0.112039 0.529248 0.088354
O O11 0.133375 0.434568 0.237842
O O12 0.573067 0.922250 0.475573
O O13 0.527911 0.818364 0.337025
#
# Coordination Sequence:
#
# PCOD8159847 Si02
#       7
#     8   8   8   8   8   4   4
#     4   9  21  38  66 103 131 180 225 276 345 410
#     4   9  20  38  66  99 131 179 225 273 341 415
#     4  12  26  43  69 100 145 177 236 289 348 403
#     4   9  20  37  70  98 128 176 234 276 335 410
#     4  11  28  45  69  99 138 182 230 285 352 409
#     4  10  24  44  68  96 136 180 232 280 340 418
#     4  10  22  44  68  90 140 180 222 284 354 402
#
# _framework density 21.288589000000002
#
# number of rings (size 3 to 8) (size 9 to 14) (size 15 to 20)
#    0.000    2.333    0.000    2.500   17.500    0.000 
#    0.000    0.000    0.000    0.000    0.000    0.000 
#    0.000    0.000    0.000    0.000    0.000    0.000 
#
# Total GULP energy -297558.466082 kJ/mol
# GULP energy per Si atom -12398.269420 kJ/mol
# Density = 2.124014 g / cm^3
# Si number density = 21.288589 Si / 1000 Ang^3
#
#
#
# Elastic Constant Matrix: (Units=GPa)
#
#
# Indices 1 2 3 4 5 6 
#
# 1 103.3609 26.6279 15.0929 0.0000 0.0000 0.0000
# 2 26.6279 68.5856 23.1373 0.0000 0.0000 0.0000
# 3 15.0929 23.1373 78.8267 0.0000 0.0000 0.0000
# 4 0.0000 0.0000 0.0000 24.0203 0.0000 0.0000
# 5 0.0000 0.0000 0.0000 0.0000 28.5744 0.0000
# 6 0.0000 0.0000 0.0000 0.0000 0.0000 13.8195
#
#
#
# Elastic Compliance Matrix: (Units=1/GPa)
#
#
# Indices 1 2 3 4 5 6 
#
# 1 0.010811 -0.003884 -0.000930 0.000000 0.000000 0.000000
# 2 -0.003884 0.017578 -0.004416 0.000000 0.000000 0.000000
# 3 -0.000930 -0.004416 0.014160 0.000000 0.000000 0.000000
# 4 0.000000 0.000000 0.000000 0.041632 0.000000 0.000000
# 5 0.000000 0.000000 0.000000 0.000000 0.034996 0.000000
# 6 0.000000 0.000000 0.000000 0.000000 0.000000 0.072362
#
#
# Mechanical properties :
#
#
# Convention : Reuss Voigt Hill
#
# Bulk Modulus (GPa) = 41.51078 42.27662 41.89370
# Shear Modulus (GPa) = 22.93284 25.67716 24.30500
#
# Velocity S-wave (km/s) = 3.28569 3.47673 3.38256
# Velocity P-wave (km/s) = 5.82544 6.00157 5.91416
#
# Compressibility (1/GPa) = 0.02409013
#
# Stress axis : x y z
#
# Youngs Moduli (GPa) = 92.49719 56.88992 70.62005
#
# Poissons Ratio (x) = 0.22094 0.06568
# Poissons Ratio (y) = 0.35922 0.31185
# Poissons Ratio (z) = 0.08603 0.25122
#
# Static dielectric constant tensor:
#      x y z
#    x 3.906590 0.000000 0.000000 
#    y 0.000000 3.454560 0.000000 
#    z 0.000000 0.000000 4.059510 
# 
# 
# High freq. dielectric constant tensor:
#      x y z
#    x 1.840790 0.000000 0.000000 
#    y 0.000000 1.804160 0.000000 
#    z 0.000000 0.000000 1.847410 
# 
# From -- ./inp_files/18930.got.cif
#   From: 2010.03.12/outbox.cif.g09.slc.cpg/sg20_10_cif.got.tgz:18930.got - 2010.04.14 01:38:04.
