data_PCOD8159813
_publ_section_title
;
Structure prediction by ZEFSAII (Michael W. Deem and Ramdas Pophale) SiO2 
 PCOD8159813
Probable space group: C 2 2 21
;
_chemical_formula_sum "Si O2"
_cell_formula_units_Z 60
_cell_length_a 11.520527
_cell_length_b 29.678395
_cell_length_c 8.190636
_cell_angle_alpha 90.000000
_cell_angle_beta 90.000000
_cell_angle_gamma 90.000000
_cell_volume 2800.466505
_symmetry_space_group_name_H-M "C 2 2 21"
_symmetry_group_IT_number 20
_symmetry_cell_setting 'orthorhombic'
loop_
_space_group_symop_operation_xyz
x,y,z
-x,-y,1/2+z
x,-y,-z
-x,y,1/2-z
1/2+x,1/2+y,z
1/2-x,1/2-y,1/2+z
1/2+x,1/2-y,-z
1/2-x,1/2+y,1/2-z
loop_
_atom_site_type_symbol
_atom_site_label
_atom_site_fract_x
_atom_site_fract_y
_atom_site_fract_z
Si Si1 0.000000 0.247869 0.750000
Si Si2 0.706230 0.951369 0.537461
Si Si3 0.886263 0.901451 0.330890
Si Si4 0.441251 0.622264 0.079721
Si Si5 0.943534 0.698558 0.578803
Si Si6 0.981640 0.395946 0.563491
Si Si7 0.249156 0.048769 0.413195
Si Si8 0.815155 0.818224 0.126784
O O1 0.989456 0.276137 0.582382
O O2 0.887319 0.217131 0.768142
O O3 0.804659 0.939750 0.405136
O O4 0.600041 0.918547 0.507421
O O5 0.759489 0.952079 0.717888
O O6 0.655457 0.000000 0.500000
O O7 0.813296 0.866837 0.218643
O O8 0.000000 0.925294 0.250000
O O9 0.944939 0.871120 0.469570
O O10 0.500000 0.616567 0.250000
O O11 0.359696 0.579328 0.030501
O O12 0.368231 0.668731 0.052724
O O13 0.967683 0.646023 0.554959
O O14 0.806880 0.705361 0.599017
O O15 0.000000 0.715303 0.750000
O O16 0.872446 0.429121 0.538920
O O17 0.000000 0.380357 0.750000
O O18 0.239599 0.000000 0.500000
#
# Coordination Sequence:
#
# PCOD8159813 Si02
#       8
#     4   8   8   8   8   8   8   8
#     4  12  28  52  70 116 150 174 244 306 354 446
#     4  11  24  40  64 102 140 192 239 289 351 415
#     4  10  22  43  67  91 138 184 234 287 347 418
#     4  11  21  43  70  98 132 194 237 287 360 422
#     4  12  27  47  80 112 141 192 235 294 372 431
#     4  10  22  46  69  99 145 186 234 294 355 427
#     4  11  24  39  65 101 141 184 237 295 349 412
#     4  11  25  50  72 103 145 186 238 295 359 433
#
# _framework density 21.425001000000002
#
# number of rings (size 3 to 8) (size 9 to 14) (size 15 to 20)
#    0.000    1.067    5.333    1.200    5.600    2.133 
#    2.400    0.000    0.000    0.000    0.000    0.000 
#    0.000    0.000    0.000    0.000    0.000    0.000 
#
# Total GULP energy -371713.768318 kJ/mol
# GULP energy per Si atom -12390.458944 kJ/mol
# Density = 2.137624 g / cm^3
# Si number density = 21.425001 Si / 1000 Ang^3
#
#
#
# Elastic Constant Matrix: (Units=GPa)
#
#
# Indices 1 2 3 4 5 6 
#
# 1 113.2196 28.8687 51.8748 0.0000 0.0000 0.0000
# 2 28.8687 87.1109 49.5397 0.0000 0.0000 0.0000
# 3 51.8748 49.5397 110.0241 0.0000 0.0000 0.0000
# 4 0.0000 0.0000 0.0000 32.9544 0.0000 0.0000
# 5 0.0000 0.0000 0.0000 0.0000 34.8962 0.0000
# 6 0.0000 0.0000 0.0000 0.0000 0.0000 26.3563
#
#
#
# Elastic Compliance Matrix: (Units=1/GPa)
#
#
# Indices 1 2 3 4 5 6 
#
# 1 0.011326 -0.000963 -0.004906 0.000000 0.000000 0.000000
# 2 -0.000963 0.015513 -0.006531 0.000000 0.000000 0.000000
# 3 -0.004906 -0.006531 0.014343 0.000000 0.000000 0.000000
# 4 0.000000 0.000000 0.000000 0.030345 0.000000 0.000000
# 5 0.000000 0.000000 0.000000 0.000000 0.028656 0.000000
# 6 0.000000 0.000000 0.000000 0.000000 0.000000 0.037942
#
#
# Mechanical properties :
#
#
# Convention : Reuss Voigt Hill
#
# Bulk Modulus (GPa) = 61.04632 63.43566 62.24099
# Shear Modulus (GPa) = 29.69380 30.84613 30.26997
#
# Velocity S-wave (km/s) = 3.72686 3.79849 3.76285
# Velocity P-wave (km/s) = 6.86107 6.99361 6.92765
#
# Compressibility (1/GPa) = 0.01638100
#
# Stress axis : x y z
#
# Youngs Moduli (GPa) = 88.29259 64.46290 69.72192
#
# Poissons Ratio (x) = 0.06209 0.34208
# Poissons Ratio (y) = 0.08505 0.45533
# Poissons Ratio (z) = 0.43319 0.42099
#
# Static dielectric constant tensor:
#      x y z
#    x 3.958140 0.000000 0.000000 
#    y 0.000000 3.727020 0.000000 
#    z 0.000000 0.000000 3.001990 
# 
# 
# High freq. dielectric constant tensor:
#      x y z
#    x 1.850930 0.000000 0.000000 
#    y 0.000000 1.825690 0.000000 
#    z 0.000000 0.000000 1.856090 
# 
# From -- ./inp_files/7632.got.cif
#   From: 2010.03.12/outbox.cif.g09.slc.cpg/sg20_4_cif.got.tgz:7632.got - 2010.04.14 01:38:04.
