data_PCOD8159775
_publ_section_title
;
Structure prediction by ZEFSAII (Michael W. Deem and Ramdas Pophale) SiO2 
 PCOD8159775
Probable space group: C 2 2 21
;
_chemical_formula_sum "Si O2"
_cell_formula_units_Z 24
_cell_length_a 5.065631
_cell_length_b 23.301707
_cell_length_c 8.781686
_cell_angle_alpha 90.000000
_cell_angle_beta 90.000000
_cell_angle_gamma 90.000000
_cell_volume 1036.571329
_symmetry_space_group_name_H-M "C 2 2 21"
_symmetry_group_IT_number 20
_symmetry_cell_setting 'orthorhombic'
loop_
_space_group_symop_operation_xyz
x,y,z
-x,-y,1/2+z
x,-y,-z
-x,y,1/2-z
1/2+x,1/2+y,z
1/2-x,1/2-y,1/2+z
1/2+x,1/2-y,-z
1/2-x,1/2+y,1/2-z
loop_
_atom_site_type_symbol
_atom_site_label
_atom_site_fract_x
_atom_site_fract_y
_atom_site_fract_z
Si Si1 0.250850 0.781211 0.646349
Si Si2 0.423591 0.836365 0.076945
Si Si3 0.250155 0.957124 0.141027
O O1 0.500000 0.771309 0.750000
O O2 0.316948 0.834859 0.532379
O O3 0.235134 0.722813 0.542703
O O4 0.000000 0.797721 0.750000
O O5 0.500000 0.829865 0.250000
O O6 0.259517 0.894795 0.058908
O O7 0.500000 0.968168 0.250000
O O8 0.000000 0.962999 0.250000
O O9 0.237578 0.000000 0.000000
#
# Coordination Sequence:
#
# PCOD8159775 Si02
#       3
#     8   8   8
#     4  11  23  39  63 100 138 174 220 274 333 402
#     4  10  22  42  67  96 135 180 222 270 337 401
#     4  11  25  47  72  98 133 178 229 282 336 395
#
# _framework density 23.153255000000001
#
# number of rings (size 3 to 8) (size 9 to 14) (size 15 to 20)
#    0.000    1.333    0.000    6.000    0.000    9.333 
#    0.000    8.333    0.000    0.000    0.000    0.000 
#    0.000    0.000    0.000    0.000    0.000    0.000 
#
# Total GULP energy -148683.629305 kJ/mol
# GULP energy per Si atom -12390.302442 kJ/mol
# Density = 2.310056 g / cm^3
# Si number density = 23.153255 Si / 1000 Ang^3
#
#
#
# Elastic Constant Matrix: (Units=GPa)
#
#
# Indices 1 2 3 4 5 6 
#
# 1 171.5912 56.8167 82.1015 0.0000 0.0000 0.0000
# 2 56.8167 133.9128 84.2801 0.0000 0.0000 0.0000
# 3 82.1015 84.2801 151.8480 0.0000 0.0000 0.0000
# 4 0.0000 0.0000 0.0000 -74.8655 0.0000 0.0000
# 5 0.0000 0.0000 0.0000 0.0000 52.5040 0.0000
# 6 0.0000 0.0000 0.0000 0.0000 0.0000 35.7349
#
#
#
# Elastic Compliance Matrix: (Units=1/GPa)
#
#
# Indices 1 2 3 4 5 6 
#
# 1 0.007952 -0.001027 -0.003730 0.000000 0.000000 0.000000
# 2 -0.001027 0.011609 -0.005888 0.000000 0.000000 0.000000
# 3 -0.003730 -0.005888 0.011870 0.000000 0.000000 0.000000
# 4 0.000000 0.000000 0.000000 -0.013357 0.000000 0.000000
# 5 0.000000 0.000000 0.000000 0.000000 0.019046 0.000000
# 6 0.000000 0.000000 0.000000 0.000000 0.000000 0.027984
#
#
# Mechanical properties :
#
#
# Convention : Reuss Voigt Hill
#
# Bulk Modulus (GPa) = 98.59778 100.41652 99.50715
# Shear Modulus (GPa) = 55.69488 18.28491 36.98990
#
# Velocity S-wave (km/s) = 4.90990 2.81327 4.00135
# Velocity P-wave (km/s) = 8.64986 7.34964 8.02612
#
# Compressibility (1/GPa) = 0.01014222
#
# Stress axis : x y z
#
# Youngs Moduli (GPa) = 125.74837 86.14024 84.24296
#
# Poissons Ratio (x) = 0.08843 0.31422
# Poissons Ratio (y) = 0.12909 0.49605
# Poissons Ratio (z) = 0.46904 0.50722
#
# Static dielectric constant tensor:
#      x y z
#    x 6.267330 0.000000 0.000000 
#    y 0.000000 5.211760 0.000000 
#    z 0.000000 0.000000 4.908400 
# 
# 
# High freq. dielectric constant tensor:
#      x y z
#    x 1.923670 0.000000 0.000000 
#    y 0.000000 1.895050 0.000000 
#    z 0.000000 0.000000 1.943550 
# 
# From -- ./inp_files/4960.got.cif
#   From: 2010.03.12/outbox.cif.g09.slc.cpg/sg20_3_cif.got.tgz:4960.got - 2010.04.14 01:38:04.
