data_PCOD8159349
_publ_section_title
;
Structure prediction by ZEFSAII (Michael W. Deem and Ramdas Pophale) SiO2 
 PCOD8159349
Probable space group: C 2 2 21
;
_chemical_formula_sum "Si O2"
_cell_formula_units_Z 40
_cell_length_a 23.466158
_cell_length_b 8.922523
_cell_length_c 8.608744
_cell_angle_alpha 90.000000
_cell_angle_beta 90.000000
_cell_angle_gamma 90.000000
_cell_volume 1802.475872
_symmetry_space_group_name_H-M "C 2 2 21"
_symmetry_group_IT_number 20
_symmetry_cell_setting 'orthorhombic'
loop_
_space_group_symop_operation_xyz
x,y,z
-x,-y,1/2+z
x,-y,-z
-x,y,1/2-z
1/2+x,1/2+y,z
1/2-x,1/2-y,1/2+z
1/2+x,1/2-y,-z
1/2-x,1/2+y,1/2-z
loop_
_atom_site_type_symbol
_atom_site_label
_atom_site_fract_x
_atom_site_fract_y
_atom_site_fract_z
Si Si1 0.733922 0.468930 0.325600
Si Si2 0.678597 0.799738 0.816889
Si Si3 0.440296 0.188064 0.817204
Si Si4 0.940092 0.335093 0.824693
Si Si5 0.647673 0.634003 0.106804
O O1 0.713456 0.500000 0.500000
O O2 0.725710 0.296144 0.278979
O O3 0.799414 0.528293 0.301454
O O4 0.694768 0.563133 0.213056
O O5 0.614764 0.764537 0.758557
O O6 0.678975 0.757349 0.998671
O O7 0.500000 0.240166 0.750000
O O8 0.396264 0.282952 0.718170
O O9 0.432223 0.011192 0.798283
O O10 0.437832 0.223505 0.999765
O O11 0.000000 0.280979 0.750000
O O12 0.620248 0.500000 0.000000
#
# Coordination Sequence:
#
# PCOD8159349 Si02
#       5
#     8   8   8   8   8
#     4  11  24  42  62  95 129 176 216 266 326 384
#     4  11  24  41  66  97 129 174 213 272 322 388
#     4  10  21  40  66  98 131 170 214 272 326 391
#     4  10  22  40  68 100 129 167 217 267 332 391
#     4  10  23  42  62  92 135 172 221 267 324 392
#
# _framework density 22.191696
#
# number of rings (size 3 to 8) (size 9 to 14) (size 15 to 20)
#    0.000    1.600    0.000    3.600    5.600    1.600 
#    7.200    9.000    0.000    0.000    0.000    0.000 
#    0.000    0.000    0.000    0.000    0.000    0.000 
#
# Total GULP energy -247885.606295 kJ/mol
# GULP energy per Si atom -12394.280315 kJ/mol
# Density = 2.214119 g / cm^3
# Si number density = 22.191696 Si / 1000 Ang^3
#
#
#
# Elastic Constant Matrix: (Units=GPa)
#
#
# Indices 1 2 3 4 5 6 
#
# 1 97.5526 36.7526 45.9847 0.0000 0.0000 0.0000
# 2 36.7526 61.9057 30.5962 0.0000 0.0000 0.0000
# 3 45.9847 30.5962 150.3812 0.0000 0.0000 0.0000
# 4 0.0000 0.0000 0.0000 37.9516 0.0000 0.0000
# 5 0.0000 0.0000 0.0000 0.0000 33.6556 0.0000
# 6 0.0000 0.0000 0.0000 0.0000 0.0000 34.0510
#
#
#
# Elastic Compliance Matrix: (Units=1/GPa)
#
#
# Indices 1 2 3 4 5 6 
#
# 1 0.014283 -0.007028 -0.002938 0.000000 0.000000 0.000000
# 2 -0.007028 0.021418 -0.002209 0.000000 0.000000 0.000000
# 3 -0.002938 -0.002209 0.007997 0.000000 0.000000 0.000000
# 4 0.000000 0.000000 0.000000 0.026349 0.000000 0.000000
# 5 0.000000 0.000000 0.000000 0.000000 0.029713 0.000000
# 6 0.000000 0.000000 0.000000 0.000000 0.000000 0.029368
#
#
# Mechanical properties :
#
#
# Convention : Reuss Voigt Hill
#
# Bulk Modulus (GPa) = 51.67974 59.61182 55.64578
# Shear Modulus (GPa) = 31.26432 34.23204 32.74818
#
# Velocity S-wave (km/s) = 3.75751 3.93181 3.84565
# Velocity P-wave (km/s) = 6.49335 6.89439 6.69687
#
# Compressibility (1/GPa) = 0.01934994
#
# Stress axis : x y z
#
# Youngs Moduli (GPa) = 70.01099 46.69076 125.03981
#
# Poissons Ratio (x) = 0.32814 0.36734
# Poissons Ratio (y) = 0.49203 0.27615
# Poissons Ratio (z) = 0.20568 0.10312
#
# Static dielectric constant tensor:
#      x y z
#    x 4.066160 0.000000 0.000000 
#    y 0.000000 4.295500 0.000000 
#    z 0.000000 0.000000 4.276020 
# 
# 
# High freq. dielectric constant tensor:
#      x y z
#    x 1.872150 0.000000 0.000000 
#    y 0.000000 1.869220 0.000000 
#    z 0.000000 0.000000 1.893950 
# 
# From -- ./inp_files/10479.got.cif
#   From: 2010.03.12/outbox.cif.g09.slc.cpg/sg20_6_cif.got.tgz:10479.got - 2010.04.14 01:38:04.
