data_PCOD8159741
_publ_section_title
;
Structure prediction by ZEFSAII (Michael W. Deem and Ramdas Pophale) SiO2 
 PCOD8159741
Probable space group: C 2 2 21
;
_chemical_formula_sum "Si O2"
_cell_formula_units_Z 48
_cell_length_a 9.455997
_cell_length_b 9.702627
_cell_length_c 26.231149
_cell_angle_alpha 90.000000
_cell_angle_beta 90.000000
_cell_angle_gamma 90.000000
_cell_volume 2406.655768
_symmetry_space_group_name_H-M "C 2 2 21"
_symmetry_group_IT_number 20
_symmetry_cell_setting 'orthorhombic'
loop_
_space_group_symop_operation_xyz
x,y,z
-x,-y,1/2+z
x,-y,-z
-x,y,1/2-z
1/2+x,1/2+y,z
1/2-x,1/2-y,1/2+z
1/2+x,1/2-y,-z
1/2-x,1/2+y,1/2-z
loop_
_atom_site_type_symbol
_atom_site_label
_atom_site_fract_x
_atom_site_fract_y
_atom_site_fract_z
Si Si1 0.320694 0.131959 0.965493
Si Si2 0.022155 0.782788 0.308196
Si Si3 0.198252 0.968474 0.139167
Si Si4 0.145753 0.350805 0.023905
Si Si5 0.188218 0.716716 0.865322
Si Si6 0.976432 0.531643 0.806561
O O1 0.281664 0.090752 0.908685
O O2 0.481149 0.187084 0.968006
O O3 0.212644 0.247824 0.983427
O O4 0.300567 0.000000 0.000000
O O5 0.934007 0.874868 0.347066
O O6 0.968991 0.625308 0.313489
O O7 0.000000 0.833522 0.250000
O O8 0.183506 0.801433 0.325810
O O9 0.308605 0.964624 0.185513
O O10 0.143963 0.123504 0.129673
O O11 0.226879 0.338976 0.078167
O O12 0.165453 0.500000 0.000000
O O13 0.055668 0.630063 0.845733
O O14 0.000000 0.587557 0.750000
#
# Coordination Sequence:
#
# PCOD8159741 Si02
#       6
#     8   8   8   8   8   8
#     4  11  24  43  61  89 126 158 205 257 311 366
#     4  10  24  41  64  94 127 165 207 258 312 370
#     4  11  23  39  65  90 124 163 201 259 312 366
#     4  11  26  41  65  92 123 165 209 257 311 376
#     4  11  23  41  62  95 124 160 211 254 311 374
#     4  10  22  42  63  88 126 164 207 258 311 368
#
# _framework density 19.944690000000001
#
# number of rings (size 3 to 8) (size 9 to 14) (size 15 to 20)
#    0.000    1.333    3.333    1.000    4.667    4.000 
#    0.000    0.000    0.000    0.000    0.000    0.000 
#    0.000    0.000    0.000    0.000    0.000    0.000 
#
# Total GULP energy -297696.262930 kJ/mol
# GULP energy per Si atom -12404.010955 kJ/mol
# Density = 1.989929 g / cm^3
# Si number density = 19.944690 Si / 1000 Ang^3
#
#
#
# Elastic Constant Matrix: (Units=GPa)
#
#
# Indices 1 2 3 4 5 6 
#
# 1 75.6166 47.8313 15.6162 0.0000 0.0000 0.0000
# 2 47.8313 97.2166 37.7588 0.0000 0.0000 0.0000
# 3 15.6162 37.7588 82.3999 0.0000 0.0000 0.0000
# 4 0.0000 0.0000 0.0000 35.6273 0.0000 0.0000
# 5 0.0000 0.0000 0.0000 0.0000 38.6302 0.0000
# 6 0.0000 0.0000 0.0000 0.0000 0.0000 40.8618
#
#
#
# Elastic Compliance Matrix: (Units=1/GPa)
#
#
# Indices 1 2 3 4 5 6 
#
# 1 0.019248 -0.009797 0.000842 0.000000 0.000000 0.000000
# 2 -0.009797 0.017500 -0.006162 0.000000 0.000000 0.000000
# 3 0.000842 -0.006162 0.014800 0.000000 0.000000 0.000000
# 4 0.000000 0.000000 0.000000 0.028068 0.000000 0.000000
# 5 0.000000 0.000000 0.000000 0.000000 0.025887 0.000000
# 6 0.000000 0.000000 0.000000 0.000000 0.000000 0.024473
#
#
# Mechanical properties :
#
#
# Convention : Reuss Voigt Hill
#
# Bulk Modulus (GPa) = 46.92099 50.84951 48.88525
# Shear Modulus (GPa) = 29.88362 33.29231 31.58797
#
# Velocity S-wave (km/s) = 3.87502 4.09006 3.98399
# Velocity P-wave (km/s) = 6.60285 6.91776 6.76214
#
# Compressibility (1/GPa) = 0.02131242
#
# Stress axis : x y z
#
# Youngs Moduli (GPa) = 51.95373 57.14292 67.56604
#
# Poissons Ratio (x) = 0.55983 -0.05686
# Poissons Ratio (y) = 0.50899 0.41637
# Poissons Ratio (z) = -0.04372 0.35214
#
# Static dielectric constant tensor:
#      x y z
#    x 3.529420 0.000000 0.000000 
#    y 0.000000 3.633320 0.000000 
#    z 0.000000 0.000000 3.743440 
# 
# 
# High freq. dielectric constant tensor:
#      x y z
#    x 1.774280 0.000000 0.000000 
#    y 0.000000 1.782610 0.000000 
#    z 0.000000 0.000000 1.794570 
# 
# From -- ./inp_files/30941.got.cif
#   From: 2010.03.12/outbox.cif.g09.slc.cpg/sg20_16_cif.got.tgz:30941.got - 2010.04.14 01:38:04.
