data_PCOD8159655
_publ_section_title
;
Structure prediction by ZEFSAII (Michael W. Deem and Ramdas Pophale) SiO2 
 PCOD8159655
Probable space group: C 2 2 21
;
_chemical_formula_sum "Si O2"
_cell_formula_units_Z 48
_cell_length_a 31.413063
_cell_length_b 8.660371
_cell_length_c 8.558556
_cell_angle_alpha 90.000000
_cell_angle_beta 90.000000
_cell_angle_gamma 90.000000
_cell_volume 2328.344717
_symmetry_space_group_name_H-M "C 2 2 21"
_symmetry_group_IT_number 20
_symmetry_cell_setting 'orthorhombic'
loop_
_space_group_symop_operation_xyz
x,y,z
-x,-y,1/2+z
x,-y,-z
-x,y,1/2-z
1/2+x,1/2+y,z
1/2-x,1/2-y,1/2+z
1/2+x,1/2-y,-z
1/2-x,1/2+y,1/2-z
loop_
_atom_site_type_symbol
_atom_site_label
_atom_site_fract_x
_atom_site_fract_y
_atom_site_fract_z
Si Si1 0.578414 0.000000 0.500000
Si Si2 0.904871 0.000000 0.000000
Si Si3 0.280648 0.116328 0.277037
Si Si4 0.951899 0.242531 0.210641
Si Si5 0.867174 0.739865 0.191745
Si Si6 0.115292 0.819866 0.966565
Si Si7 0.793907 0.720195 0.623836
O O1 0.549223 0.907264 0.377321
O O2 0.608064 0.885118 0.593484
O O3 0.935212 0.110840 0.096709
O O4 0.874650 0.909203 0.120324
O O5 0.317072 0.206211 0.181539
O O6 0.235714 0.145782 0.193850
O O7 0.278552 0.182546 0.450711
O O8 0.290751 0.934277 0.272163
O O9 0.924220 0.246394 0.368818
O O10 0.000000 0.201082 0.250000
O O11 0.883489 0.728823 0.369950
O O12 0.158224 0.785448 0.869503
O O13 0.110068 0.000000 0.000000
#
# Coordination Sequence:
#
# PCOD8159655 Si02
#       7
#     4   4   8   8   8   8   8
#     4  10  24  44  64 100 134 172 212 274 330 398
#     4  10  22  40  64  96 130 166 218 274 322 396
#     4  10  23  40  60  93 125 173 214 274 311 393
#     4  11  25  42  68  99 132 172 219 272 337 395
#     4  10  22  42  67  93 131 172 219 259 333 383
#     4  11  23  43  68  95 129 179 217 274 330 400
#     4  10  24  39  61  90 128 165 222 262 328 379
#
# _framework density 20.615504000000001
#
# number of rings (size 3 to 8) (size 9 to 14) (size 15 to 20)
#    0.000    1.667    1.667    1.000    5.833    8.667 
#    0.000    3.333    0.000    0.000    0.000    0.000 
#    0.000    0.000    0.000    0.000    0.000    0.000 
#
# Total GULP energy -297732.772176 kJ/mol
# GULP energy per Si atom -12405.532174 kJ/mol
# Density = 2.056858 g / cm^3
# Si number density = 20.615504 Si / 1000 Ang^3
#
#
#
# Elastic Constant Matrix: (Units=GPa)
#
#
# Indices 1 2 3 4 5 6 
#
# 1 137.4591 37.8739 56.8891 0.0000 0.0000 0.0000
# 2 37.8739 102.2404 33.5227 0.0000 0.0000 0.0000
# 3 56.8891 33.5227 82.9961 0.0000 0.0000 0.0000
# 4 0.0000 0.0000 0.0000 33.6088 0.0000 0.0000
# 5 0.0000 0.0000 0.0000 0.0000 30.5371 0.0000
# 6 0.0000 0.0000 0.0000 0.0000 0.0000 22.0282
#
#
#
# Elastic Compliance Matrix: (Units=1/GPa)
#
#
# Indices 1 2 3 4 5 6 
#
# 1 0.010421 -0.001750 -0.006436 0.000000 0.000000 0.000000
# 2 -0.001750 0.011568 -0.003473 0.000000 0.000000 0.000000
# 3 -0.006436 -0.003473 0.017863 0.000000 0.000000 0.000000
# 4 0.000000 0.000000 0.000000 0.029754 0.000000 0.000000
# 5 0.000000 0.000000 0.000000 0.000000 0.032747 0.000000
# 6 0.000000 0.000000 0.000000 0.000000 0.000000 0.045396
#
#
# Mechanical properties :
#
#
# Convention : Reuss Voigt Hill
#
# Bulk Modulus (GPa) = 60.48171 64.36300 62.42236
# Shear Modulus (GPa) = 28.31616 30.19549 29.25583
#
# Velocity S-wave (km/s) = 3.71015 3.83129 3.77120
# Velocity P-wave (km/s) = 6.91052 7.13163 7.02194
#
# Compressibility (1/GPa) = 0.01653392
#
# Stress axis : x y z
#
# Youngs Moduli (GPa) = 95.96325 86.44687 55.98195
#
# Poissons Ratio (x) = 0.15128 0.36030
# Poissons Ratio (y) = 0.16794 0.19441
# Poissons Ratio (z) = 0.61761 0.30021
#
# Static dielectric constant tensor:
#      x y z
#    x 3.565090 0.000000 0.000000 
#    y 0.000000 3.940010 0.000000 
#    z 0.000000 0.000000 3.966210 
# 
# 
# High freq. dielectric constant tensor:
#      x y z
#    x 1.797630 0.000000 0.000000 
#    y 0.000000 1.816320 0.000000 
#    z 0.000000 0.000000 1.818910 
# 
# From -- ./inp_files/11498.got.cif
#   From: 2010.03.12/outbox.cif.g09.slc.cpg/sg20_6_cif.got.tgz:11498.got - 2010.04.14 01:38:04.
