data_PCOD8159437
_publ_section_title
;
Structure prediction by ZEFSAII (Michael W. Deem and Ramdas Pophale) SiO2 
 PCOD8159437
Probable space group: C 2 2 21
;
_chemical_formula_sum "Si O2"
_cell_formula_units_Z 48
_cell_length_a 27.590634
_cell_length_b 8.794941
_cell_length_c 9.327332
_cell_angle_alpha 90.000000
_cell_angle_beta 90.000000
_cell_angle_gamma 90.000000
_cell_volume 2263.351712
_symmetry_space_group_name_H-M "C 2 2 21"
_symmetry_group_IT_number 20
_symmetry_cell_setting 'orthorhombic'
loop_
_space_group_symop_operation_xyz
x,y,z
-x,-y,1/2+z
x,-y,-z
-x,y,1/2-z
1/2+x,1/2+y,z
1/2-x,1/2-y,1/2+z
1/2+x,1/2-y,-z
1/2-x,1/2+y,1/2-z
loop_
_atom_site_type_symbol
_atom_site_label
_atom_site_fract_x
_atom_site_fract_y
_atom_site_fract_z
Si Si1 0.274986 0.758955 0.333784
Si Si2 0.494735 0.347249 0.418037
Si Si3 0.693452 0.179542 0.523891
Si Si4 0.910935 0.328876 0.957511
Si Si5 0.664864 0.500000 0.000000
Si Si6 0.172928 0.500000 0.000000
Si Si7 0.393864 0.753177 0.633285
O O1 0.277317 0.756374 0.161485
O O2 0.218846 0.753797 0.384035
O O3 0.302196 0.617082 0.409151
O O4 0.294864 0.925770 0.375273
O O5 0.484254 0.500000 0.500000
O O6 0.500000 0.382698 0.250000
O O7 0.541841 0.271421 0.491000
O O8 0.447458 0.241867 0.437268
O O9 0.636990 0.228902 0.542597
O O10 0.695305 0.000000 0.500000
O O11 0.896794 0.312542 0.793404
O O12 0.924338 0.500000 0.000000
O O13 0.630534 0.586747 0.885005
O O14 0.139346 0.367536 0.948395
#
# Coordination Sequence:
#
# PCOD8159437 Si02
#       7
#     8   8   8   8   4   4   8
#     4  11  25  41  68  97 132 178 220 275 325 390
#     4  10  22  43  64  96 127 170 215 269 326 387
#     4  11  25  43  65  95 135 171 223 268 330 383
#     4  10  23  42  64  89 134 171 219 268 324 381
#     4  10  22  42  68  94 130 170 224 268 332 386
#     4  10  22  38  64  96 130 172 226 262 334 382
#     4  10  21  42  67  93 131 169 219 272 325 395
#
# _framework density 21.207487
#
# number of rings (size 3 to 8) (size 9 to 14) (size 15 to 20)
#    0.000    1.667    1.667    2.000    8.167    2.667 
#    4.500    0.000    0.000    0.000    0.000    0.000 
#    0.000    0.000    0.000    0.000    0.000    0.000 
#
# Total GULP energy -297504.753013 kJ/mol
# GULP energy per Si atom -12396.031376 kJ/mol
# Density = 2.115922 g / cm^3
# Si number density = 21.207487 Si / 1000 Ang^3
#
#
#
# Elastic Constant Matrix: (Units=GPa)
#
#
# Indices 1 2 3 4 5 6 
#
# 1 114.6699 33.1485 19.7574 0.0000 0.0000 0.0000
# 2 33.1485 83.6660 39.9868 0.0000 0.0000 0.0000
# 3 19.7574 39.9868 67.4909 0.0000 0.0000 0.0000
# 4 0.0000 0.0000 0.0000 33.3775 0.0000 0.0000
# 5 0.0000 0.0000 0.0000 0.0000 23.1555 0.0000
# 6 0.0000 0.0000 0.0000 0.0000 0.0000 16.3163
#
#
#
# Elastic Compliance Matrix: (Units=1/GPa)
#
#
# Indices 1 2 3 4 5 6 
#
# 1 0.009880 -0.003532 -0.000799 0.000000 0.000000 0.000000
# 2 -0.003532 0.017937 -0.009593 0.000000 0.000000 0.000000
# 3 -0.000799 -0.009593 0.020734 0.000000 0.000000 0.000000
# 4 0.000000 0.000000 0.000000 0.029960 0.000000 0.000000
# 5 0.000000 0.000000 0.000000 0.000000 0.043186 0.000000
# 6 0.000000 0.000000 0.000000 0.000000 0.000000 0.061288
#
#
# Mechanical properties :
#
#
# Convention : Reuss Voigt Hill
#
# Bulk Modulus (GPa) = 48.30603 50.17915 49.24259
# Shear Modulus (GPa) = 22.96369 26.09880 24.53124
#
# Velocity S-wave (km/s) = 3.29418 3.51185 3.40476
# Velocity P-wave (km/s) = 6.10705 6.33692 6.22305
#
# Compressibility (1/GPa) = 0.02070135
#
# Stress axis : x y z
#
# Youngs Moduli (GPa) = 101.21965 55.75203 48.22892
#
# Poissons Ratio (x) = 0.19693 0.03855
# Poissons Ratio (y) = 0.35753 0.46266
# Poissons Ratio (z) = 0.08091 0.53483
#
# Static dielectric constant tensor:
#      x y z
#    x 4.397860 0.000000 0.000000 
#    y 0.000000 3.948730 0.000000 
#    z 0.000000 0.000000 3.726870 
# 
# 
# High freq. dielectric constant tensor:
#      x y z
#    x 1.854490 0.000000 0.000000 
#    y 0.000000 1.829790 0.000000 
#    z 0.000000 0.000000 1.820490 
# 
# From -- ./inp_files/6565.got.cif
#   From: 2010.03.12/outbox.cif.g09.slc.cpg/sg20_4_cif.got.tgz:6565.got - 2010.04.14 01:38:04.
