data_PCOD8159651
_publ_section_title
;
Structure prediction by ZEFSAII (Michael W. Deem and Ramdas Pophale) SiO2 
 PCOD8159651
Probable space group: C 2 2 21
;
_chemical_formula_sum "Si O2"
_cell_formula_units_Z 32
_cell_length_a 8.958856
_cell_length_b 30.380469
_cell_length_c 4.996210
_cell_angle_alpha 90.000000
_cell_angle_beta 90.000000
_cell_angle_gamma 90.000000
_cell_volume 1359.839695
_symmetry_space_group_name_H-M "C 2 2 21"
_symmetry_group_IT_number 20
_symmetry_cell_setting 'orthorhombic'
loop_
_space_group_symop_operation_xyz
x,y,z
-x,-y,1/2+z
x,-y,-z
-x,y,1/2-z
1/2+x,1/2+y,z
1/2-x,1/2-y,1/2+z
1/2+x,1/2-y,-z
1/2-x,1/2+y,1/2-z
loop_
_atom_site_type_symbol
_atom_site_label
_atom_site_fract_x
_atom_site_fract_y
_atom_site_fract_z
Si Si1 0.000000 0.658652 0.750000
Si Si2 0.333322 0.545689 0.366005
Si Si3 0.500000 0.340783 0.250000
Si Si4 0.747487 0.218784 0.563178
Si Si5 0.740966 0.401666 0.388380
O O1 0.097932 0.688877 0.549658
O O2 0.109206 0.626689 0.914316
O O3 0.282829 0.500000 0.500000
O O4 0.500000 0.542099 0.250000
O O5 0.300287 0.582109 0.589550
O O6 0.239028 0.558742 0.101713
O O7 0.606286 0.311666 0.060951
O O8 0.600726 0.369912 0.455469
O O9 0.754709 0.252651 0.327619
#
# Coordination Sequence:
#
# PCOD8159651 Si02
#       5
#     4   8   4   8   8
#     4  10  26  44  68 102 144 184 224 286 346 416
#     4  12  23  42  71 101 133 172 231 285 337 399
#     4  10  22  40  64  94 130 172 226 276 328 396
#     4  11  24  41  66  95 134 180 230 276 338 397
#     4  11  24  42  67 101 134 179 224 279 344 403
#
# _framework density 23.532181999999999
#
# number of rings (size 3 to 8) (size 9 to 14) (size 15 to 20)
#    0.000    1.000    2.500    3.750    0.000   13.000 
#    0.000    2.500    0.000    1.500    0.000    0.000 
#    0.000    0.000    0.000    0.000    0.000    0.000 
#
# Total GULP energy -198321.411792 kJ/mol
# GULP energy per Si atom -12395.088237 kJ/mol
# Density = 2.347862 g / cm^3
# Si number density = 23.532182 Si / 1000 Ang^3
#
#
#
# Elastic Constant Matrix: (Units=GPa)
#
#
# Indices 1 2 3 4 5 6 
#
# 1 155.2102 70.9471 35.3784 0.0000 0.0000 0.0000
# 2 70.9471 141.6370 57.1941 0.0000 0.0000 0.0000
# 3 35.3784 57.1941 138.2185 0.0000 0.0000 0.0000
# 4 0.0000 0.0000 0.0000 23.7390 0.0000 0.0000
# 5 0.0000 0.0000 0.0000 0.0000 17.5944 0.0000
# 6 0.0000 0.0000 0.0000 0.0000 0.0000 186.6556
#
#
#
# Elastic Compliance Matrix: (Units=1/GPa)
#
#
# Indices 1 2 3 4 5 6 
#
# 1 0.008384 -0.004002 -0.000490 0.000000 0.000000 0.000000
# 2 -0.004002 0.010387 -0.003274 0.000000 0.000000 0.000000
# 3 -0.000490 -0.003274 0.008715 0.000000 0.000000 0.000000
# 4 0.000000 0.000000 0.000000 0.042125 0.000000 0.000000
# 5 0.000000 0.000000 0.000000 0.000000 0.056836 0.000000
# 6 0.000000 0.000000 0.000000 0.000000 0.000000 0.005357
#
#
# Mechanical properties :
#
#
# Convention : Reuss Voigt Hill
#
# Bulk Modulus (GPa) = 83.64916 84.67832 84.16374
# Shear Modulus (GPa) = 33.04267 63.70086 48.37176
#
# Velocity S-wave (km/s) = 3.75126 5.20850 4.53874
# Velocity P-wave (km/s) = 7.37472 8.49903 7.95676
#
# Compressibility (1/GPa) = 0.01195469
#
# Stress axis : x y z
#
# Youngs Moduli (GPa) = 119.27886 96.27719 114.74466
#
# Poissons Ratio (x) = 0.38526 0.05623
# Poissons Ratio (y) = 0.47730 0.37564
# Poissons Ratio (z) = 0.05845 0.31518
#
# Static dielectric constant tensor:
#      x y z
#    x 4.449880 0.000000 0.000000 
#    y 0.000000 4.664400 0.000000 
#    z 0.000000 0.000000 3.399740 
# 
# 
# High freq. dielectric constant tensor:
#      x y z
#    x 1.925030 0.000000 0.000000 
#    y 0.000000 1.954920 0.000000 
#    z 0.000000 0.000000 1.916650 
# 
# From -- ./inp_files/620.got.cif
#   From: 2010.03.12/outbox.cif.g09.slc.cpg/sg20_1_cif.got.tgz:620.got - 2010.04.14 01:38:04.
