data_PCOD8159987
_publ_section_title
;
Structure prediction by ZEFSAII (Michael W. Deem and Ramdas Pophale) SiO2 
 PCOD8159987
Probable space group: C 2 2 21
;
_chemical_formula_sum "Si O2"
_cell_formula_units_Z 48
_cell_length_a 8.911807
_cell_length_b 18.807927
_cell_length_c 14.280753
_cell_angle_alpha 90.000000
_cell_angle_beta 90.000000
_cell_angle_gamma 90.000000
_cell_volume 2393.634362
_symmetry_space_group_name_H-M "C 2 2 21"
_symmetry_group_IT_number 20
_symmetry_cell_setting 'orthorhombic'
loop_
_space_group_symop_operation_xyz
x,y,z
-x,-y,1/2+z
x,-y,-z
-x,y,1/2-z
1/2+x,1/2+y,z
1/2-x,1/2-y,1/2+z
1/2+x,1/2-y,-z
1/2-x,1/2+y,1/2-z
loop_
_atom_site_type_symbol
_atom_site_label
_atom_site_fract_x
_atom_site_fract_y
_atom_site_fract_z
Si Si1 0.154358 0.919779 0.298703
Si Si2 0.626109 0.194914 0.184929
Si Si3 0.634756 0.816293 0.313747
Si Si4 0.865450 0.156028 0.989805
Si Si5 0.149730 0.084222 0.308373
Si Si6 0.955257 0.706569 0.511320
O O1 0.288611 0.881473 0.241399
O O2 0.120206 0.897860 0.404565
O O3 0.000000 0.902131 0.250000
O O4 0.194375 0.002509 0.299482
O O5 0.500000 0.229151 0.250000
O O6 0.748983 0.254483 0.161850
O O7 0.710163 0.128641 0.234484
O O8 0.538743 0.169825 0.090997
O O9 0.500000 0.785264 0.250000
O O10 0.559813 0.836483 0.414436
O O11 0.719582 0.202471 0.961186
O O12 0.860580 0.109266 0.083885
O O13 0.003384 0.210254 0.001228
O O14 0.000000 0.101497 0.250000
#
# Coordination Sequence:
#
# PCOD8159987 Si02
#       6
#     8   8   8   8   8   8
#     4  11  24  41  64  92 126 173 216 259 316 388
#     4  11  24  40  64  94 127 164 208 271 322 378
#     4  12  22  38  65  94 124 165 211 267 315 375
#     4  11  22  40  64  94 127 162 211 266 319 382
#     4  10  23  43  64  90 127 173 212 257 326 379
#     4  11  22  37  61  95 119 159 207 261 324 366
#
# _framework density 20.053189
#
# number of rings (size 3 to 8) (size 9 to 14) (size 15 to 20)
#    0.000    1.000    5.000    3.500    0.000    0.667 
#    0.000    0.000    0.000    0.000    0.000    0.000 
#    0.000    0.000    0.000    0.000    0.000    0.000 
#
# Total GULP energy -297379.247176 kJ/mol
# GULP energy per Si atom -12390.801966 kJ/mol
# Density = 2.000755 g / cm^3
# Si number density = 20.053189 Si / 1000 Ang^3
#
#
#
# Elastic Constant Matrix: (Units=GPa)
#
#
# Indices 1 2 3 4 5 6 
#
# 1 110.5482 45.9460 73.8072 0.0000 0.0000 0.0000
# 2 45.9460 78.4267 46.8616 0.0000 0.0000 0.0000
# 3 73.8072 46.8616 122.5389 0.0000 0.0000 0.0000
# 4 0.0000 0.0000 0.0000 1.0904 0.0000 0.0000
# 5 0.0000 0.0000 0.0000 0.0000 45.5590 0.0000
# 6 0.0000 0.0000 0.0000 0.0000 0.0000 28.6953
#
#
#
# Elastic Compliance Matrix: (Units=1/GPa)
#
#
# Indices 1 2 3 4 5 6 
#
# 1 0.016420 -0.004809 -0.008051 0.000000 0.000000 0.000000
# 2 -0.004809 0.017936 -0.003963 0.000000 0.000000 0.000000
# 3 -0.008051 -0.003963 0.014525 0.000000 0.000000 0.000000
# 4 0.000000 0.000000 0.000000 0.917112 0.000000 0.000000
# 5 0.000000 0.000000 0.000000 0.000000 0.021950 0.000000
# 6 0.000000 0.000000 0.000000 0.000000 0.000000 0.034849
#
#
# Mechanical properties :
#
#
# Convention : Reuss Voigt Hill
#
# Bulk Modulus (GPa) = 65.63370 71.63817 68.63594
# Shear Modulus (GPa) = 4.71025 24.72887 14.71956
#
# Velocity S-wave (km/s) = 1.53427 3.51545 2.71223
# Velocity P-wave (km/s) = 5.99496 7.23046 6.64150
#
# Compressibility (1/GPa) = 0.01523607
#
# Stress axis : x y z
#
# Youngs Moduli (GPa) = 60.90307 55.75465 68.84607
#
# Poissons Ratio (x) = 0.26811 0.55426
# Poissons Ratio (y) = 0.29287 0.27281
# Poissons Ratio (z) = 0.49032 0.22093
#
# Static dielectric constant tensor:
#      x y z
#    x 3.959980 0.000000 0.000000 
#    y 0.000000 3.506170 0.000000 
#    z 0.000000 0.000000 3.924100 
# 
# 
# High freq. dielectric constant tensor:
#      x y z
#    x 1.794000 0.000000 0.000000 
#    y 0.000000 1.758870 0.000000 
#    z 0.000000 0.000000 1.801170 
# 
# From -- ./inp_files/18868.got.cif
#   From: 2010.03.12/outbox.cif.g09.slc.cpg/sg20_10_cif.got.tgz:18868.got - 2010.04.14 01:38:04.
