data_PCOD8159506
_publ_section_title
;
Structure prediction by ZEFSAII (Michael W. Deem and Ramdas Pophale) SiO2 
 PCOD8159506
Probable space group: C 2 2 21
;
_chemical_formula_sum "Si O2"
_cell_formula_units_Z 48
_cell_length_a 8.707502
_cell_length_b 28.968512
_cell_length_c 8.212078
_cell_angle_alpha 90.000000
_cell_angle_beta 90.000000
_cell_angle_gamma 90.000000
_cell_volume 2071.442280
_symmetry_space_group_name_H-M "C 2 2 21"
_symmetry_group_IT_number 20
_symmetry_cell_setting 'orthorhombic'
loop_
_space_group_symop_operation_xyz
x,y,z
-x,-y,1/2+z
x,-y,-z
-x,y,1/2-z
1/2+x,1/2+y,z
1/2-x,1/2-y,1/2+z
1/2+x,1/2-y,-z
1/2-x,1/2+y,1/2-z
loop_
_atom_site_type_symbol
_atom_site_label
_atom_site_fract_x
_atom_site_fract_y
_atom_site_fract_z
Si Si1 0.500000 0.963168 0.750000
Si Si2 0.827907 0.695827 0.588361
Si Si3 0.664807 0.228270 0.562818
Si Si4 0.793124 0.602930 0.443885
Si Si5 0.850779 0.835203 0.667547
Si Si6 0.525631 0.424416 0.939443
Si Si7 0.735807 0.000000 0.500000
O O1 0.571991 0.932125 0.894436
O O2 0.630433 0.994112 0.661770
O O3 0.705260 0.716918 0.457643
O O4 0.771048 0.707482 0.769722
O O5 0.850019 0.640544 0.576249
O O6 0.984866 0.721784 0.547199
O O7 0.747300 0.203765 0.411264
O O8 0.749219 0.632852 0.286595
O O9 0.647026 0.574143 0.516061
O O10 0.915783 0.872001 0.536139
O O11 0.000000 0.810722 0.750000
O O12 0.500000 0.438036 0.750000
O O13 0.649337 0.456992 0.027213
#
# Coordination Sequence:
#
# PCOD8159506 Si02
#       7
#     4   8   8   8   8   8   4
#     4  12  24  44  74 104 146 178 232 294 370 412
#     4  11  26  42  67 102 143 183 240 281 354 404
#     4  11  25  43  66 102 143 188 234 294 335 417
#     4  10  21  44  70  98 133 191 229 289 352 426
#     4   9  19  40  71  92 131 180 236 281 345 404
#     4   9  20  43  70  94 130 184 228 284 350 424
#     4  12  24  46  72 106 136 186 234 296 358 438
#
# _framework density 23.172263000000001
#
# number of rings (size 3 to 8) (size 9 to 14) (size 15 to 20)
#    0.000    2.000    3.333    2.000    7.000    2.667 
#    3.000    0.000    0.000    0.000    0.000    0.000 
#    0.000    0.000    0.000    0.000    0.000    0.000 
#
# Total GULP energy -297482.757532 kJ/mol
# GULP energy per Si atom -12395.114897 kJ/mol
# Density = 2.311952 g / cm^3
# Si number density = 23.172263 Si / 1000 Ang^3
#
#
#
# Elastic Constant Matrix: (Units=GPa)
#
#
# Indices 1 2 3 4 5 6 
#
# 1 117.5417 51.9154 29.5573 0.0000 0.0000 0.0000
# 2 51.9154 97.3184 27.3289 0.0000 0.0000 0.0000
# 3 29.5573 27.3289 70.9611 0.0000 0.0000 0.0000
# 4 0.0000 0.0000 0.0000 30.7427 0.0000 0.0000
# 5 0.0000 0.0000 0.0000 0.0000 34.1995 0.0000
# 6 0.0000 0.0000 0.0000 0.0000 0.0000 44.6089
#
#
#
# Elastic Compliance Matrix: (Units=1/GPa)
#
#
# Indices 1 2 3 4 5 6 
#
# 1 0.011587 -0.005411 -0.002742 0.000000 0.000000 0.000000
# 2 -0.005411 0.014049 -0.003157 0.000000 0.000000 0.000000
# 3 -0.002742 -0.003157 0.016450 0.000000 0.000000 0.000000
# 4 0.000000 0.000000 0.000000 0.032528 0.000000 0.000000
# 5 0.000000 0.000000 0.000000 0.000000 0.029240 0.000000
# 6 0.000000 0.000000 0.000000 0.000000 0.000000 0.022417
#
#
# Mechanical properties :
#
#
# Convention : Reuss Voigt Hill
#
# Bulk Modulus (GPa) = 51.37244 55.93606 53.65425
# Shear Modulus (GPa) = 32.17914 33.71154 32.94534
#
# Velocity S-wave (km/s) = 3.73056 3.81835 3.77471
# Velocity P-wave (km/s) = 6.38545 6.60541 6.49636
#
# Compressibility (1/GPa) = 0.01946569
#
# Stress axis : x y z
#
# Youngs Moduli (GPa) = 86.30188 71.18140 60.78955
#
# Poissons Ratio (x) = 0.38518 0.16671
# Poissons Ratio (y) = 0.46700 0.19189
# Poissons Ratio (z) = 0.23668 0.22469
#
# Static dielectric constant tensor:
#      x y z
#    x 4.354530 0.000000 0.000000 
#    y 0.000000 4.328650 0.000000 
#    z 0.000000 0.000000 3.866070 
# 
# 
# High freq. dielectric constant tensor:
#      x y z
#    x 1.929720 0.000000 0.000000 
#    y 0.000000 1.918110 0.000000 
#    z 0.000000 0.000000 1.881650 
# 
# From -- ./inp_files/6598.got.cif
#   From: 2010.03.12/outbox.cif.g09.slc.cpg/sg20_4_cif.got.tgz:6598.got - 2010.04.14 01:38:04.
