data_PCOD8159945
_publ_section_title
;
Structure prediction by ZEFSAII (Michael W. Deem and Ramdas Pophale) SiO2 
 PCOD8159945
Probable space group: C 2 2 21
;
_chemical_formula_sum "Si O2"
_cell_formula_units_Z 36
_cell_length_a 7.629821
_cell_length_b 22.681446
_cell_length_c 9.797147
_cell_angle_alpha 90.000000
_cell_angle_beta 90.000000
_cell_angle_gamma 90.000000
_cell_volume 1695.448928
_symmetry_space_group_name_H-M "C 2 2 21"
_symmetry_group_IT_number 20
_symmetry_cell_setting 'orthorhombic'
loop_
_space_group_symop_operation_xyz
x,y,z
-x,-y,1/2+z
x,-y,-z
-x,y,1/2-z
1/2+x,1/2+y,z
1/2-x,1/2-y,1/2+z
1/2+x,1/2-y,-z
1/2-x,1/2+y,1/2-z
loop_
_atom_site_type_symbol
_atom_site_label
_atom_site_fract_x
_atom_site_fract_y
_atom_site_fract_z
Si Si1 0.323981 0.994577 0.658763
Si Si2 0.705244 0.132238 0.242344
Si Si3 0.860363 0.835481 0.471919
Si Si4 0.885648 0.760635 0.880617
Si Si5 0.000000 0.075246 0.750000
O O1 0.500000 0.005215 0.750000
O O2 0.168444 0.038486 0.701558
O O3 0.377630 0.000000 0.500000
O O4 0.240489 0.929876 0.677033
O O5 0.500000 0.133319 0.250000
O O6 0.807639 0.135111 0.385289
O O7 0.749877 0.186782 0.145748
O O8 0.693134 0.803341 0.408695
O O9 0.000055 0.782612 0.491383
O O10 0.937681 0.885107 0.375434
O O11 0.000000 0.748694 0.750000
#
# Coordination Sequence:
#
# PCOD8159945 Si02
#       5
#     8   8   8   8   4
#     4  11  28  49  76 108 146 195 249 306 371 440
#     4  10  23  44  74  97 142 185 237 300 363 435
#     4  11  25  43  68 108 140 192 237 300 371 436
#     4  10  23  41  69  99 140 184 237 295 360 436
#     4  12  30  42  80 106 156 186 254 304 370 444
#
# _framework density 21.233315999999999
#
# number of rings (size 3 to 8) (size 9 to 14) (size 15 to 20)
#    0.000    1.333    0.000    2.667   21.778    0.889 
#    0.000    0.000    0.000    0.000    0.000    0.000 
#    0.000    0.000    0.000    0.000    0.000    0.000 
#
# Total GULP energy -223152.858220 kJ/mol
# GULP energy per Si atom -12397.381012 kJ/mol
# Density = 2.118499 g / cm^3
# Si number density = 21.233316 Si / 1000 Ang^3
#
#
#
# Elastic Constant Matrix: (Units=GPa)
#
#
# Indices 1 2 3 4 5 6 
#
# 1 88.9189 42.7436 37.8000 0.0000 0.0000 0.0000
# 2 42.7436 113.8681 48.7471 0.0000 0.0000 0.0000
# 3 37.8000 48.7471 119.9619 0.0000 0.0000 0.0000
# 4 0.0000 0.0000 0.0000 102.6831 0.0000 0.0000
# 5 0.0000 0.0000 0.0000 0.0000 26.3239 0.0000
# 6 0.0000 0.0000 0.0000 0.0000 0.0000 58.6310
#
#
#
# Elastic Compliance Matrix: (Units=1/GPa)
#
#
# Indices 1 2 3 4 5 6 
#
# 1 0.014485 -0.004217 -0.002851 0.000000 0.000000 0.000000
# 2 -0.004217 0.011859 -0.003490 0.000000 0.000000 0.000000
# 3 -0.002851 -0.003490 0.010653 0.000000 0.000000 0.000000
# 4 0.000000 0.000000 0.000000 0.009739 0.000000 0.000000
# 5 0.000000 0.000000 0.000000 0.000000 0.037988 0.000000
# 6 0.000000 0.000000 0.000000 0.000000 0.000000 0.017056
#
#
# Mechanical properties :
#
#
# Convention : Reuss Voigt Hill
#
# Bulk Modulus (GPa) = 62.96836 64.59224 63.78030
# Shear Modulus (GPa) = 39.00478 50.42484 44.71481
#
# Velocity S-wave (km/s) = 4.29063 4.87848 4.59397
# Velocity P-wave (km/s) = 7.36653 7.88790 7.63167
#
# Compressibility (1/GPa) = 0.01588099
#
# Stress axis : x y z
#
# Youngs Moduli (GPa) = 69.03604 84.32223 93.87455
#
# Poissons Ratio (x) = 0.35559 0.26760
# Poissons Ratio (y) = 0.29113 0.32765
# Poissons Ratio (z) = 0.19680 0.29431
#
# Static dielectric constant tensor:
#      x y z
#    x 4.348490 0.000000 0.000000 
#    y 0.000000 5.013470 0.000000 
#    z 0.000000 0.000000 3.867560 
# 
# 
# High freq. dielectric constant tensor:
#      x y z
#    x 1.849410 0.000000 0.000000 
#    y 0.000000 1.845950 0.000000 
#    z 0.000000 0.000000 1.838270 
# 
# From -- ./inp_files/5899.got.cif
#   From: 2010.03.12/outbox.cif.g09.slc.cpg/sg20_3_cif.got.tgz:5899.got - 2010.04.14 01:38:04.
