data_PCOD8159890
_publ_section_title
;
Structure prediction by ZEFSAII (Michael W. Deem and Ramdas Pophale) SiO2 
 PCOD8159890
Probable space group: C 2 2 21
;
_chemical_formula_sum "Si O2"
_cell_formula_units_Z 40
_cell_length_a 19.428241
_cell_length_b 10.717937
_cell_length_c 8.231103
_cell_angle_alpha 90.000000
_cell_angle_beta 90.000000
_cell_angle_gamma 90.000000
_cell_volume 1713.968035
_symmetry_space_group_name_H-M "C 2 2 21"
_symmetry_group_IT_number 20
_symmetry_cell_setting 'orthorhombic'
loop_
_space_group_symop_operation_xyz
x,y,z
-x,-y,1/2+z
x,-y,-z
-x,y,1/2-z
1/2+x,1/2+y,z
1/2-x,1/2-y,1/2+z
1/2+x,1/2-y,-z
1/2-x,1/2+y,1/2-z
loop_
_atom_site_type_symbol
_atom_site_label
_atom_site_fract_x
_atom_site_fract_y
_atom_site_fract_z
Si Si1 0.550350 0.859030 0.049901
Si Si2 0.817944 0.790807 0.006797
Si Si3 0.033811 0.128930 0.424901
Si Si4 0.874843 0.433934 0.153864
Si Si5 0.820270 0.337283 0.658277
O O1 0.492491 0.759059 0.992439
O O2 0.565118 0.860482 0.246641
O O3 0.619072 0.804765 0.966018
O O4 0.531172 0.000000 0.000000
O O5 0.883467 0.870586 0.944473
O O6 0.817582 0.657348 0.918015
O O7 0.749049 0.856329 0.944881
O O8 0.816879 0.769077 0.201748
O O9 0.000000 0.128717 0.250000
O O10 0.005635 0.000000 0.500000
O O11 0.835094 0.526917 0.270531
O O12 0.912239 0.500000 0.000000
#
# Coordination Sequence:
#
# PCOD8159890 Si02
#       5
#     8   8   8   8   8
#     4  10  22  46  76 104 142 187 245 312 362 441
#     4  11  23  43  69 103 143 192 239 312 373 453
#     4  12  29  49  70 105 157 199 245 298 383 463
#     4   9  19  40  67 105 137 177 244 308 371 431
#     4  10  23  40  73 104 140 185 255 310 376 433
#
# _framework density 23.337661000000001
#
# number of rings (size 3 to 8) (size 9 to 14) (size 15 to 20)
#    0.000    1.600    2.000    1.200    2.800    6.400 
#    0.000    0.000    0.000    0.000    0.000    0.000 
#    0.000    0.000    0.000    0.000    0.000    0.000 
#
# Total GULP energy -247900.266950 kJ/mol
# GULP energy per Si atom -12395.013347 kJ/mol
# Density = 2.328454 g / cm^3
# Si number density = 23.337661 Si / 1000 Ang^3
#
#
#
# Elastic Constant Matrix: (Units=GPa)
#
#
# Indices 1 2 3 4 5 6 
#
# 1 155.4377 50.9134 35.3417 0.0000 0.0000 0.0000
# 2 50.9134 119.9719 42.1720 0.0000 0.0000 0.0000
# 3 35.3417 42.1720 92.8371 0.0000 0.0000 0.0000
# 4 0.0000 0.0000 0.0000 29.6076 0.0000 0.0000
# 5 0.0000 0.0000 0.0000 0.0000 18.6072 0.0000
# 6 0.0000 0.0000 0.0000 0.0000 0.0000 8.8032
#
#
#
# Elastic Compliance Matrix: (Units=1/GPa)
#
#
# Indices 1 2 3 4 5 6 
#
# 1 0.007696 -0.002661 -0.001721 0.000000 0.000000 0.000000
# 2 -0.002661 0.010839 -0.003911 0.000000 0.000000 0.000000
# 3 -0.001721 -0.003911 0.013203 0.000000 0.000000 0.000000
# 4 0.000000 0.000000 0.000000 0.033775 0.000000 0.000000
# 5 0.000000 0.000000 0.000000 0.000000 0.053743 0.000000
# 6 0.000000 0.000000 0.000000 0.000000 0.000000 0.113595
#
#
# Mechanical properties :
#
#
# Convention : Reuss Voigt Hill
#
# Bulk Modulus (GPa) = 65.99376 69.45565 67.72470
# Shear Modulus (GPa) = 19.64721 27.39158 23.51939
#
# Velocity S-wave (km/s) = 2.90464 3.42966 3.17801
# Velocity P-wave (km/s) = 6.29193 6.74605 6.52295
#
# Compressibility (1/GPa) = 0.01515295
#
# Stress axis : x y z
#
# Youngs Moduli (GPa) = 129.93025 92.25647 75.73901
#
# Poissons Ratio (x) = 0.24552 0.13035
# Poissons Ratio (y) = 0.34577 0.29620
# Poissons Ratio (z) = 0.22362 0.36079
#
# Static dielectric constant tensor:
#      x y z
#    x 4.119670 0.000000 0.000000 
#    y 0.000000 4.577580 0.000000 
#    z 0.000000 0.000000 4.533580 
# 
# 
# High freq. dielectric constant tensor:
#      x y z
#    x 1.926920 0.000000 0.000000 
#    y 0.000000 1.922410 0.000000 
#    z 0.000000 0.000000 1.931120 
# 
# From -- ./inp_files/9122.got.cif
#   From: 2010.03.12/outbox.cif.g09.slc.cpg/sg20_5_cif.got.tgz:9122.got - 2010.04.14 01:38:04.
