data_PCOD8159532
_publ_section_title
;
Structure prediction by ZEFSAII (Michael W. Deem and Ramdas Pophale) SiO2 
 PCOD8159532
Probable space group: C 2 2 21
;
_chemical_formula_sum "Si O2"
_cell_formula_units_Z 64
_cell_length_a 21.168816
_cell_length_b 17.817346
_cell_length_c 9.323488
_cell_angle_alpha 90.000000
_cell_angle_beta 90.000000
_cell_angle_gamma 90.000000
_cell_volume 3516.559726
_symmetry_space_group_name_H-M "C 2 2 21"
_symmetry_group_IT_number 20
_symmetry_cell_setting 'orthorhombic'
loop_
_space_group_symop_operation_xyz
x,y,z
-x,-y,1/2+z
x,-y,-z
-x,y,1/2-z
1/2+x,1/2+y,z
1/2-x,1/2-y,1/2+z
1/2+x,1/2-y,-z
1/2-x,1/2+y,1/2-z
loop_
_atom_site_type_symbol
_atom_site_label
_atom_site_fract_x
_atom_site_fract_y
_atom_site_fract_z
Si Si1 0.189605 0.305417 0.744996
Si Si2 0.747986 0.053856 0.119359
Si Si3 0.926989 0.215227 0.789855
Si Si4 0.746364 0.948427 0.381171
Si Si5 0.382921 0.411087 0.401841
Si Si6 0.780546 0.709260 0.921958
Si Si7 0.568832 0.555844 0.200703
Si Si8 0.866576 0.155139 0.071920
O O1 0.197646 0.386941 0.817662
O O2 0.114859 0.291622 0.712941
O O3 0.227365 0.299125 0.594337
O O4 0.216707 0.242467 0.852785
O O5 0.808323 0.096557 0.047642
O O6 0.766147 0.996182 0.244250
O O7 0.716204 0.000000 0.000000
O O8 0.897860 0.168517 0.661910
O O9 0.000000 0.232172 0.750000
O O10 0.913291 0.167816 0.936021
O O11 0.810584 0.916061 0.454609
O O12 0.705062 0.873173 0.351815
O O13 0.711391 0.000000 0.500000
O O14 0.429724 0.418964 0.536016
O O15 0.393514 0.477479 0.284921
O O16 0.838413 0.764231 0.883206
O O17 0.500000 0.534882 0.250000
O O18 0.593864 0.623846 0.296659
#
# Coordination Sequence:
#
# PCOD8159532 Si02
#       8
#     8   8   8   8   8   8   8   8
#     4  10  22  37  55  84 112 144 188 224 284 334
#     4  11  22  36  57  86 113 142 177 237 287 334
#     4  11  22  37  56  78 110 153 188 227 266 330
#     4  12  19  36  58  79 114 145 181 220 284 339
#     4  11  21  34  50  80 106 148 190 213 264 319
#     4  10  22  35  56  80 114 144 179 231 276 335
#     4  11  22  35  51  74 109 152 185 225 253 318
#     4  10  22  38  53  82 114 141 183 227 278 325
#
# _framework density 18.199604999999998
#
# number of rings (size 3 to 8) (size 9 to 14) (size 15 to 20)
#    0.000    1.250    5.000    1.875    5.250    1.000 
#    0.000    0.000    0.000    0.000    6.500    0.000 
#    0.000    0.000    0.000    0.000    0.000    0.000 
#
# Total GULP energy -396472.556147 kJ/mol
# GULP energy per Si atom -12389.767380 kJ/mol
# Density = 1.815818 g / cm^3
# Si number density = 18.199605 Si / 1000 Ang^3
#
#
#
# Elastic Constant Matrix: (Units=GPa)
#
#
# Indices 1 2 3 4 5 6 
#
# 1 70.6908 36.1546 35.8492 0.0000 0.0000 0.0000
# 2 36.1546 113.8690 39.5416 0.0000 0.0000 0.0000
# 3 35.8492 39.5416 85.2707 0.0000 0.0000 0.0000
# 4 0.0000 0.0000 0.0000 35.2007 0.0000 0.0000
# 5 0.0000 0.0000 0.0000 0.0000 19.4557 0.0000
# 6 0.0000 0.0000 0.0000 0.0000 0.0000 13.1705
#
#
#
# Elastic Compliance Matrix: (Units=1/GPa)
#
#
# Indices 1 2 3 4 5 6 
#
# 1 0.019370 -0.003960 -0.006307 0.000000 0.000000 0.000000
# 2 -0.003960 0.011277 -0.003565 0.000000 0.000000 0.000000
# 3 -0.006307 -0.003565 0.016032 0.000000 0.000000 0.000000
# 4 0.000000 0.000000 0.000000 0.028408 0.000000 0.000000
# 5 0.000000 0.000000 0.000000 0.000000 0.051399 0.000000
# 6 0.000000 0.000000 0.000000 0.000000 0.000000 0.075927
#
#
# Mechanical properties :
#
#
# Convention : Reuss Voigt Hill
#
# Bulk Modulus (GPa) = 52.58821 54.76903 53.67862
# Shear Modulus (GPa) = 21.14921 24.11773 22.63347
#
# Velocity S-wave (km/s) = 3.41261 3.64425 3.53033
# Velocity P-wave (km/s) = 6.66977 6.91855 6.79530
#
# Compressibility (1/GPa) = 0.01901567
#
# Stress axis : x y z
#
# Youngs Moduli (GPa) = 51.62640 88.67463 62.37545
#
# Poissons Ratio (x) = 0.35115 0.39341
# Poissons Ratio (y) = 0.20444 0.22234
# Poissons Ratio (z) = 0.32561 0.31609
#
# Static dielectric constant tensor:
#      x y z
#    x 3.150020 0.000000 0.000000 
#    y 0.000000 3.539710 0.000000 
#    z 0.000000 0.000000 3.464510 
# 
# 
# High freq. dielectric constant tensor:
#      x y z
#    x 1.663220 0.000000 0.000000 
#    y 0.000000 1.710270 0.000000 
#    z 0.000000 0.000000 1.712760 
# 
# From -- ./inp_files/10354.got.cif
#   From: 2010.03.12/outbox.cif.g09.slc.cpg/sg20_6_cif.got.tgz:10354.got - 2010.04.14 01:38:04.
