data_PCOD8159173
_publ_section_title
;
Structure prediction by ZEFSAII (Michael W. Deem and Ramdas Pophale) SiO2 
 PCOD8159173
Probable space group: C 2 2 21
;
_chemical_formula_sum "Si O2"
_cell_formula_units_Z 48
_cell_length_a 18.445306
_cell_length_b 14.216974
_cell_length_c 9.080007
_cell_angle_alpha 90.000000
_cell_angle_beta 90.000000
_cell_angle_gamma 90.000000
_cell_volume 2381.108673
_symmetry_space_group_name_H-M "C 2 2 21"
_symmetry_group_IT_number 20
_symmetry_cell_setting 'orthorhombic'
loop_
_space_group_symop_operation_xyz
x,y,z
-x,-y,1/2+z
x,-y,-z
-x,y,1/2-z
1/2+x,1/2+y,z
1/2-x,1/2-y,1/2+z
1/2+x,1/2-y,-z
1/2-x,1/2+y,1/2-z
loop_
_atom_site_type_symbol
_atom_site_label
_atom_site_fract_x
_atom_site_fract_y
_atom_site_fract_z
Si Si1 0.707413 0.357625 0.811503
Si Si2 0.065371 0.442473 0.859688
Si Si3 0.053536 0.914331 0.883721
Si Si4 0.187368 0.521277 0.658945
Si Si5 0.775236 0.795866 0.372609
Si Si6 0.937287 0.773610 0.369889
O O1 0.623929 0.383438 0.792253
O O2 0.742030 0.458096 0.836120
O O3 0.742806 0.304670 0.673625
O O4 0.721604 0.290941 0.951398
O O5 0.134464 0.494089 0.790467
O O6 0.080385 0.334977 0.904041
O O7 0.000000 0.446621 0.750000
O O8 0.040695 0.500000 0.000000
O O9 0.000000 0.940642 0.750000
O O10 0.031806 0.824119 0.983117
O O11 0.064027 0.000000 0.000000
O O12 0.149278 0.500000 0.500000
O O13 0.217080 0.626665 0.681393
O O14 0.858616 0.815495 0.316763
O O15 0.000000 0.787282 0.250000
#
# Coordination Sequence:
#
# PCOD8159173 Si02
#       6
#     8   8   8   8   8   8
#     4  10  21  40  60  94 124 165 207 264 317 373
#     4  11  24  41  62  90 127 167 213 260 317 379
#     4  11  24  43  66  93 130 170 215 263 322 383
#     4  10  21  39  62  89 124 166 205 257 320 376
#     4  10  21  37  63  90 127 164 208 260 318 379
#     4  10  22  42  65  94 131 168 210 269 318 374
#
# _framework density 20.158677000000001
#
# number of rings (size 3 to 8) (size 9 to 14) (size 15 to 20)
#    0.000    1.667    1.667    3.500    4.667    2.000 
#    3.000    0.833    0.000    0.000    0.000    0.000 
#    0.000    0.000    0.000    0.000    0.000    0.000 
#
# Total GULP energy -297451.674430 kJ/mol
# GULP energy per Si atom -12393.819768 kJ/mol
# Density = 2.011280 g / cm^3
# Si number density = 20.158677 Si / 1000 Ang^3
#
#
#
# Elastic Constant Matrix: (Units=GPa)
#
#
# Indices 1 2 3 4 5 6 
#
# 1 81.7307 23.2143 25.1661 0.0000 0.0000 0.0000
# 2 23.2143 80.1328 40.5755 0.0000 0.0000 0.0000
# 3 25.1661 40.5755 59.5024 0.0000 0.0000 0.0000
# 4 0.0000 0.0000 0.0000 40.4844 0.0000 0.0000
# 5 0.0000 0.0000 0.0000 0.0000 20.7414 0.0000
# 6 0.0000 0.0000 0.0000 0.0000 0.0000 6.7928
#
#
#
# Elastic Compliance Matrix: (Units=1/GPa)
#
#
# Indices 1 2 3 4 5 6 
#
# 1 0.014207 -0.001639 -0.004891 0.000000 0.000000 0.000000
# 2 -0.001639 0.019250 -0.012434 0.000000 0.000000 0.000000
# 3 -0.004891 -0.012434 0.027353 0.000000 0.000000 0.000000
# 4 0.000000 0.000000 0.000000 0.024701 0.000000 0.000000
# 5 0.000000 0.000000 0.000000 0.000000 0.048213 0.000000
# 6 0.000000 0.000000 0.000000 0.000000 0.000000 0.147215
#
#
# Mechanical properties :
#
#
# Convention : Reuss Voigt Hill
#
# Bulk Modulus (GPa) = 43.70095 44.36420 44.03257
# Shear Modulus (GPa) = 15.31426 22.43106 18.87266
#
# Velocity S-wave (km/s) = 2.75923 3.33937 3.06307
# Velocity P-wave (km/s) = 5.64594 6.07650 5.86517
#
# Compressibility (1/GPa) = 0.02288280
#
# Stress axis : x y z
#
# Youngs Moduli (GPa) = 70.38849 51.94827 36.55875
#
# Poissons Ratio (x) = 0.08515 0.17881
# Poissons Ratio (y) = 0.11538 0.45455
# Poissons Ratio (z) = 0.34426 0.64590
#
# Static dielectric constant tensor:
#      x y z
#    x 3.693070 0.000000 0.000000 
#    y 0.000000 3.878890 0.000000 
#    z 0.000000 0.000000 3.458030 
# 
# 
# High freq. dielectric constant tensor:
#      x y z
#    x 1.793590 0.000000 0.000000 
#    y 0.000000 1.795780 0.000000 
#    z 0.000000 0.000000 1.775410 
# 
# From -- ./inp_files/8382.got.cif
#   From: 2010.03.12/outbox.cif.g09.slc.cpg/sg20_5_cif.got.tgz:8382.got - 2010.04.14 01:38:04.
