data_PCOD8159170
_publ_section_title
;
Structure prediction by ZEFSAII (Michael W. Deem and Ramdas Pophale) SiO2 
 PCOD8159170
Probable space group: C 2 2 21
;
_chemical_formula_sum "Si O2"
_cell_formula_units_Z 56
_cell_length_a 11.749250
_cell_length_b 19.479730
_cell_length_c 12.318384
_cell_angle_alpha 90.000000
_cell_angle_beta 90.000000
_cell_angle_gamma 90.000000
_cell_volume 2819.335865
_symmetry_space_group_name_H-M "C 2 2 21"
_symmetry_group_IT_number 20
_symmetry_cell_setting 'orthorhombic'
loop_
_space_group_symop_operation_xyz
x,y,z
-x,-y,1/2+z
x,-y,-z
-x,y,1/2-z
1/2+x,1/2+y,z
1/2-x,1/2-y,1/2+z
1/2+x,1/2-y,-z
1/2-x,1/2+y,1/2-z
loop_
_atom_site_type_symbol
_atom_site_label
_atom_site_fract_x
_atom_site_fract_y
_atom_site_fract_z
Si Si1 0.992360 0.627564 0.618089
Si Si2 0.753931 0.815403 0.081904
Si Si3 0.197168 0.039570 0.157561
Si Si4 0.415543 0.271122 0.899557
Si Si5 0.394012 0.000000 0.000000
Si Si6 0.497051 0.500000 0.500000
Si Si7 0.387561 0.426585 0.185332
Si Si8 0.150462 0.810075 0.830264
O O1 0.866375 0.645650 0.574165
O O2 0.000000 0.618952 0.750000
O O3 0.070732 0.690022 0.573509
O O4 0.028863 0.558097 0.556302
O O5 0.820248 0.855554 0.177089
O O6 0.745119 0.734729 0.108661
O O7 0.826385 0.814051 0.971209
O O8 0.198453 0.116143 0.204352
O O9 0.188393 0.984040 0.253660
O O10 0.313487 0.030490 0.093016
O O11 0.084474 0.039172 0.083644
O O12 0.536187 0.311885 0.904477
O O13 0.373234 0.267828 0.777260
O O14 0.581104 0.550235 0.564056
O O15 0.500000 0.409223 0.250000
#
# Coordination Sequence:
#
# PCOD8159170 Si02
#       8
#     8   8   8   8   4   4   8   8
#     4  11  22  46  65  92 127 175 211 261 328 386
#     4  11  22  40  64  93 121 167 210 257 315 377
#     4  10  21  37  62  91 123 168 207 258 317 373
#     4  10  21  39  68  87 121 165 215 260 317 379
#     4  11  24  41  66  88 130 171 214 251 314 402
#     4   9  20  35  58  92 124 157 208 259 316 374
#     4  10  22  37  60  93 130 158 201 264 317 371
#     4  10  21  39  62  91 122 163 209 260 309 380
#
# _framework density 19.862835
#
# number of rings (size 3 to 8) (size 9 to 14) (size 15 to 20)
#    0.000    1.714    2.857    2.571    8.000    0.571 
#   10.286    0.000    0.000    0.000    0.000    0.000 
#    0.000    0.000    0.000    0.000    0.000    0.000 
#
# Total GULP energy -346996.760275 kJ/mol
# GULP energy per Si atom -12392.741438 kJ/mol
# Density = 1.981763 g / cm^3
# Si number density = 19.862835 Si / 1000 Ang^3
#
#
#
# Elastic Constant Matrix: (Units=GPa)
#
#
# Indices 1 2 3 4 5 6 
#
# 1 103.2475 61.0963 49.4159 0.0000 0.0000 0.0000
# 2 61.0963 110.3870 40.7154 0.0000 0.0000 0.0000
# 3 49.4159 40.7154 86.4917 0.0000 0.0000 0.0000
# 4 0.0000 0.0000 0.0000 33.6167 0.0000 0.0000
# 5 0.0000 0.0000 0.0000 0.0000 18.9080 0.0000
# 6 0.0000 0.0000 0.0000 0.0000 0.0000 -8.4493
#
#
#
# Elastic Compliance Matrix: (Units=1/GPa)
#
#
# Indices 1 2 3 4 5 6 
#
# 1 0.016857 -0.006992 -0.006340 0.000000 0.000000 0.000000
# 2 -0.006992 0.013862 -0.002531 0.000000 0.000000 0.000000
# 3 -0.006340 -0.002531 0.016375 0.000000 0.000000 0.000000
# 4 0.000000 0.000000 0.000000 0.029747 0.000000 0.000000
# 5 0.000000 0.000000 0.000000 0.000000 0.052888 0.000000
# 6 0.000000 0.000000 0.000000 0.000000 0.000000 -0.118352
#
#
# Mechanical properties :
#
#
# Convention : Reuss Voigt Hill
#
# Bulk Modulus (GPa) = 65.06215 66.95350 66.00782
# Shear Modulus (GPa) = 103.68025 18.74164 61.21095
#
# Velocity S-wave (km/s) = 7.23266 3.07506 5.55731
# Velocity P-wave (km/s) = 10.12795 6.81096 8.63031
#
# Compressibility (1/GPa) = 0.01536992
#
# Stress axis : x y z
#
# Youngs Moduli (GPa) = 59.32252 72.13856 61.06705
#
# Poissons Ratio (x) = 0.50436 0.38715
# Poissons Ratio (y) = 0.41475 0.15456
# Poissons Ratio (z) = 0.37609 0.18259
#
# Static dielectric constant tensor:
#      x y z
#    x 3.641270 0.000000 0.000000 
#    y 0.000000 3.611070 0.000000 
#    z 0.000000 0.000000 4.133090 
# 
# 
# High freq. dielectric constant tensor:
#      x y z
#    x 1.770570 0.000000 0.000000 
#    y 0.000000 1.783460 0.000000 
#    z 0.000000 0.000000 1.764860 
# 
# From -- ./inp_files/14344.got.cif
#   From: 2010.03.12/outbox.cif.g09.slc.cpg/sg20_8_cif.got.tgz:14344.got - 2010.04.14 01:38:04.
