data_PCOD8159307
_publ_section_title
;
Structure prediction by ZEFSAII (Michael W. Deem and Ramdas Pophale) SiO2 
 PCOD8159307
Probable space group: C 2 2 21
;
_chemical_formula_sum "Si O2"
_cell_formula_units_Z 48
_cell_length_a 16.713349
_cell_length_b 15.599195
_cell_length_c 8.573288
_cell_angle_alpha 90.000000
_cell_angle_beta 90.000000
_cell_angle_gamma 90.000000
_cell_volume 2235.182982
_symmetry_space_group_name_H-M "C 2 2 21"
_symmetry_group_IT_number 20
_symmetry_cell_setting 'orthorhombic'
loop_
_space_group_symop_operation_xyz
x,y,z
-x,-y,1/2+z
x,-y,-z
-x,y,1/2-z
1/2+x,1/2+y,z
1/2-x,1/2-y,1/2+z
1/2+x,1/2-y,-z
1/2-x,1/2+y,1/2-z
loop_
_atom_site_type_symbol
_atom_site_label
_atom_site_fract_x
_atom_site_fract_y
_atom_site_fract_z
Si Si1 0.088162 0.488386 0.815231
Si Si2 0.338055 0.677259 0.369161
Si Si3 0.157016 0.331576 0.636515
Si Si4 0.916339 0.987562 0.682674
Si Si5 0.589520 0.676082 0.801812
Si Si6 0.590505 0.831483 0.307241
O O1 0.142755 0.409287 0.758252
O O2 0.123799 0.576860 0.748822
O O3 0.000000 0.471485 0.750000
O O4 0.086455 0.500000 0.000000
O O5 0.247263 0.668532 0.428809
O O6 0.354746 0.588335 0.276284
O O7 0.399966 0.685568 0.512218
O O8 0.351335 0.757165 0.254746
O O9 0.149909 0.241584 0.723683
O O10 0.094011 0.334772 0.494813
O O11 0.000000 0.956672 0.750000
O O12 0.925835 0.000000 0.500000
O O13 0.889442 0.079231 0.755168
O O14 0.500000 0.700468 0.750000
O O15 0.500000 0.815997 0.250000
#
# Coordination Sequence:
#
# PCOD8159307 Si02
#       6
#     8   8   8   8   8   8
#     4  11  23  42  66  91 120 161 211 256 306 372
#     4  11  23  39  61  92 127 162 202 256 313 365
#     4  12  24  39  62  93 128 162 201 259 315 366
#     4   9  20  38  61  85 114 155 202 248 295 356
#     4  10  21  40  62  85 118 167 212 250 302 370
#     4  11  23  40  63  90 122 163 208 253 304 369
#
# _framework density 21.474751000000001
#
# number of rings (size 3 to 8) (size 9 to 14) (size 15 to 20)
#    0.000    1.333    0.000    6.500    0.000    8.000 
#    0.000    0.833    0.000    0.000    0.000    0.000 
#    0.000    0.000    0.000    0.000    0.000    0.000 
#
# Total GULP energy -297593.610015 kJ/mol
# GULP energy per Si atom -12399.733751 kJ/mol
# Density = 2.142587 g / cm^3
# Si number density = 21.474751 Si / 1000 Ang^3
#
#
#
# Elastic Constant Matrix: (Units=GPa)
#
#
# Indices 1 2 3 4 5 6 
#
# 1 98.1449 56.6442 29.7205 0.0000 0.0000 0.0000
# 2 56.6442 164.6179 49.7010 0.0000 0.0000 0.0000
# 3 29.7205 49.7010 102.6111 0.0000 0.0000 0.0000
# 4 0.0000 0.0000 0.0000 28.7173 0.0000 0.0000
# 5 0.0000 0.0000 0.0000 0.0000 25.9943 0.0000
# 6 0.0000 0.0000 0.0000 0.0000 0.0000 6.6873
#
#
#
# Elastic Compliance Matrix: (Units=1/GPa)
#
#
# Indices 1 2 3 4 5 6 
#
# 1 0.013015 -0.003912 -0.001875 0.000000 0.000000 0.000000
# 2 -0.003912 0.008291 -0.002883 0.000000 0.000000 0.000000
# 3 -0.001875 -0.002883 0.011685 0.000000 0.000000 0.000000
# 4 0.000000 0.000000 0.000000 0.034822 0.000000 0.000000
# 5 0.000000 0.000000 0.000000 0.000000 0.038470 0.000000
# 6 0.000000 0.000000 0.000000 0.000000 0.000000 0.149537
#
#
# Mechanical properties :
#
#
# Convention : Reuss Voigt Hill
#
# Bulk Modulus (GPa) = 63.89250 70.83393 67.36321
# Shear Modulus (GPa) = 17.96128 27.56700 22.76414
#
# Velocity S-wave (km/s) = 2.89518 3.58675 3.25936
# Velocity P-wave (km/s) = 6.40258 7.08586 6.75287
#
# Compressibility (1/GPa) = 0.01565129
#
# Stress axis : x y z
#
# Youngs Moduli (GPa) = 76.83632 120.60913 85.58111
#
# Poissons Ratio (x) = 0.47186 0.16043
# Poissons Ratio (y) = 0.30061 0.24671
# Poissons Ratio (z) = 0.14404 0.34769
#
# Static dielectric constant tensor:
#      x y z
#    x 3.592620 0.000000 0.000000 
#    y 0.000000 4.456960 0.000000 
#    z 0.000000 0.000000 3.853710 
# 
# 
# High freq. dielectric constant tensor:
#      x y z
#    x 1.825160 0.000000 0.000000 
#    y 0.000000 1.870340 0.000000 
#    z 0.000000 0.000000 1.836510 
# 
# From -- ./inp_files/9328.got.cif
#   From: 2010.03.12/outbox.cif.g09.slc.cpg/sg20_5_cif.got.tgz:9328.got - 2010.04.14 01:38:04.
