data_PCOD8159776
_publ_section_title
;
Structure prediction by ZEFSAII (Michael W. Deem and Ramdas Pophale) SiO2 
 PCOD8159776
Probable space group: C 2 2 21
;
_chemical_formula_sum "Si O2"
_cell_formula_units_Z 48
_cell_length_a 30.994738
_cell_length_b 8.888228
_cell_length_c 8.053826
_cell_angle_alpha 90.000000
_cell_angle_beta 90.000000
_cell_angle_gamma 90.000000
_cell_volume 2218.734818
_symmetry_space_group_name_H-M "C 2 2 21"
_symmetry_group_IT_number 20
_symmetry_cell_setting 'orthorhombic'
loop_
_space_group_symop_operation_xyz
x,y,z
-x,-y,1/2+z
x,-y,-z
-x,y,1/2-z
1/2+x,1/2+y,z
1/2-x,1/2-y,1/2+z
1/2+x,1/2-y,-z
1/2-x,1/2+y,1/2-z
loop_
_atom_site_type_symbol
_atom_site_label
_atom_site_fract_x
_atom_site_fract_y
_atom_site_fract_z
Si Si1 0.119863 0.177464 0.477668
Si Si2 0.450388 0.740993 0.276943
Si Si3 0.357382 0.764988 0.662053
Si Si4 0.728132 0.159804 0.960669
Si Si5 0.197314 0.652863 0.591284
Si Si6 0.580782 0.000000 0.000000
Si Si7 0.096701 0.000000 0.000000
O O1 0.075494 0.244066 0.398944
O O2 0.137443 0.264709 0.640496
O O3 0.159240 0.227689 0.360926
O O4 0.114955 0.000000 0.500000
O O5 0.500000 0.705023 0.250000
O O6 0.432640 0.602098 0.382968
O O7 0.447816 0.899733 0.374438
O O8 0.310252 0.799350 0.589433
O O9 0.371900 0.599636 0.609912
O O10 0.389766 0.892515 0.606399
O O11 0.714225 0.129600 0.774253
O O12 0.765310 0.283575 0.971487
O O13 0.749575 0.000000 0.000000
O O14 0.181428 0.500000 0.500000
#
# Coordination Sequence:
#
# PCOD8159776 Si02
#       7
#     8   8   8   8   8   4   4
#     4  12  26  45  69 106 140 190 238 294 366 429
#     4  11  26  46  74 105 143 183 238 300 367 444
#     4  11  23  42  73 100 145 188 234 293 351 426
#     4  12  25  45  67 103 147 192 245 297 355 423
#     4  12  27  44  71 104 143 195 245 303 354 424
#     4  10  24  46  66 106 136 188 230 288 370 426
#     4  10  22  42  68 100 140 186 232 286 360 430
#
# _framework density 21.633951
#
# number of rings (size 3 to 8) (size 9 to 14) (size 15 to 20)
#    0.000    0.667    2.500    5.500    4.667    1.333 
#    0.000    3.333    0.000    0.000    0.000    0.000 
#    0.000    0.000    0.000    0.000    0.000    0.000 
#
# Total GULP energy -297440.065070 kJ/mol
# GULP energy per Si atom -12393.336045 kJ/mol
# Density = 2.158471 g / cm^3
# Si number density = 21.633951 Si / 1000 Ang^3
#
#
#
# Elastic Constant Matrix: (Units=GPa)
#
#
# Indices 1 2 3 4 5 6 
#
# 1 116.7103 33.9867 22.5684 0.0000 0.0000 0.0000
# 2 33.9867 124.8641 34.1335 0.0000 0.0000 0.0000
# 3 22.5684 34.1335 91.0356 0.0000 0.0000 0.0000
# 4 0.0000 0.0000 0.0000 19.4619 0.0000 0.0000
# 5 0.0000 0.0000 0.0000 0.0000 22.1179 0.0000
# 6 0.0000 0.0000 0.0000 0.0000 0.0000 20.0200
#
#
#
# Elastic Compliance Matrix: (Units=1/GPa)
#
#
# Indices 1 2 3 4 5 6 
#
# 1 0.009497 -0.002163 -0.001543 0.000000 0.000000 0.000000
# 2 -0.002163 0.009416 -0.002994 0.000000 0.000000 0.000000
# 3 -0.001543 -0.002994 0.012490 0.000000 0.000000 0.000000
# 4 0.000000 0.000000 0.000000 0.051382 0.000000 0.000000
# 5 0.000000 0.000000 0.000000 0.000000 0.045212 0.000000
# 6 0.000000 0.000000 0.000000 0.000000 0.000000 0.049950
#
#
# Mechanical properties :
#
#
# Convention : Reuss Voigt Hill
#
# Bulk Modulus (GPa) = 55.55103 57.10971 56.33037
# Shear Modulus (GPa) = 25.33588 28.44807 26.89197
#
# Velocity S-wave (km/s) = 3.42587 3.63019 3.52951
# Velocity P-wave (km/s) = 6.43290 6.63525 6.53486
#
# Compressibility (1/GPa) = 0.01800147
#
# Stress axis : x y z
#
# Youngs Moduli (GPa) = 105.30181 106.20252 80.06411
#
# Poissons Ratio (x) = 0.22971 0.12356
# Poissons Ratio (y) = 0.22777 0.23973
# Poissons Ratio (z) = 0.16251 0.31800
#
# Static dielectric constant tensor:
#      x y z
#    x 3.862880 0.000000 0.000000 
#    y 0.000000 4.249150 0.000000 
#    z 0.000000 0.000000 4.977620 
# 
# 
# High freq. dielectric constant tensor:
#      x y z
#    x 1.839540 0.000000 0.000000 
#    y 0.000000 1.869700 0.000000 
#    z 0.000000 0.000000 1.867960 
# 
# From -- ./inp_files/11514.got.cif
#   From: 2010.03.12/outbox.cif.g09.slc.cpg/sg20_6_cif.got.tgz:11514.got - 2010.04.14 01:38:04.
