data_PCOD8159874
_publ_section_title
;
Structure prediction by ZEFSAII (Michael W. Deem and Ramdas Pophale) SiO2 
 PCOD8159874
Probable space group: C 2 2 21
;
_chemical_formula_sum "Si O2"
_cell_formula_units_Z 24
_cell_length_a 18.797328
_cell_length_b 4.905295
_cell_length_c 11.783775
_cell_angle_alpha 90.000000
_cell_angle_beta 90.000000
_cell_angle_gamma 90.000000
_cell_volume 1086.539931
_symmetry_space_group_name_H-M "C 2 2 21"
_symmetry_group_IT_number 20
_symmetry_cell_setting 'orthorhombic'
loop_
_space_group_symop_operation_xyz
x,y,z
-x,-y,1/2+z
x,-y,-z
-x,y,1/2-z
1/2+x,1/2+y,z
1/2-x,1/2-y,1/2+z
1/2+x,1/2-y,-z
1/2-x,1/2+y,1/2-z
loop_
_atom_site_type_symbol
_atom_site_label
_atom_site_fract_x
_atom_site_fract_y
_atom_site_fract_z
Si Si1 0.873482 0.500000 0.500000
Si Si2 0.532194 0.500000 0.000000
Si Si3 0.897780 0.231805 0.074876
Si Si4 0.703887 0.122984 0.773139
O O1 0.920048 0.752337 0.452217
O O2 0.824065 0.387747 0.400579
O O3 0.479100 0.377201 0.902438
O O4 0.860163 0.275983 0.194134
O O5 0.900521 0.500000 0.000000
O O6 0.856566 0.000000 0.000000
O O7 0.769764 0.330058 0.769147
#
# Coordination Sequence:
#
# PCOD8159874 Si02
#       4
#     4   4   8   8
#     4  12  26  47  70 109 138 180 244 294 346 414
#     4  10  22  47  70 105 136 176 236 294 350 422
#     4  10  22  45  71 101 137 187 229 283 361 409
#     4  12  28  45  72 104 144 191 230 294 346 427
#
# _framework density 22.088464999999999
#
# number of rings (size 3 to 8) (size 9 to 14) (size 15 to 20)
#    1.000    0.000    1.667    4.000    7.000    1.333 
#    6.000    0.000    0.000    0.000    0.000    0.000 
#    0.000    0.000    0.000    0.000    0.000    0.000 
#
# Total GULP energy -148741.264346 kJ/mol
# GULP energy per Si atom -12395.105362 kJ/mol
# Density = 2.203819 g / cm^3
# Si number density = 22.088465 Si / 1000 Ang^3
#
#
#
# Elastic Constant Matrix: (Units=GPa)
#
#
# Indices 1 2 3 4 5 6 
#
# 1 96.3157 30.9566 57.9028 0.0000 0.0000 0.0000
# 2 30.9566 135.3530 42.1646 0.0000 0.0000 0.0000
# 3 57.9028 42.1646 144.1464 0.0000 0.0000 0.0000
# 4 0.0000 0.0000 0.0000 31.7025 0.0000 0.0000
# 5 0.0000 0.0000 0.0000 0.0000 20.1862 0.0000
# 6 0.0000 0.0000 0.0000 0.0000 0.0000 29.3833
#
#
#
# Elastic Compliance Matrix: (Units=1/GPa)
#
#
# Indices 1 2 3 4 5 6 
#
# 1 0.013994 -0.001595 -0.005155 0.000000 0.000000 0.000000
# 2 -0.001595 0.008311 -0.001790 0.000000 0.000000 0.000000
# 3 -0.005155 -0.001790 0.009532 0.000000 0.000000 0.000000
# 4 0.000000 0.000000 0.000000 0.031543 0.000000 0.000000
# 5 0.000000 0.000000 0.000000 0.000000 0.049539 0.000000
# 6 0.000000 0.000000 0.000000 0.000000 0.000000 0.034033
#
#
# Mechanical properties :
#
#
# Convention : Reuss Voigt Hill
#
# Bulk Modulus (GPa) = 67.76682 70.87367 69.32024
# Shear Modulus (GPa) = 29.59455 32.57381 31.08418
#
# Velocity S-wave (km/s) = 3.66433 3.84435 3.75541
# Velocity P-wave (km/s) = 6.97491 7.20148 7.08910
#
# Compressibility (1/GPa) = 0.01475648
#
# Stress axis : x y z
#
# Youngs Moduli (GPa) = 71.45877 120.32905 104.91235
#
# Poissons Ratio (x) = 0.19190 0.54081
# Poissons Ratio (y) = 0.11396 0.18783
# Poissons Ratio (z) = 0.36836 0.21543
#
# Static dielectric constant tensor:
#      x y z
#    x 4.059300 0.000000 0.000000 
#    y 0.000000 4.470150 0.000000 
#    z 0.000000 0.000000 3.546090 
# 
# 
# High freq. dielectric constant tensor:
#      x y z
#    x 1.873910 0.000000 0.000000 
#    y 0.000000 1.900290 0.000000 
#    z 0.000000 0.000000 1.834650 
# 
# From -- ./inp_files/15462.got.cif
#   From: 2010.03.12/outbox.cif.g09.slc.cpg/sg20_8_cif.got.tgz:15462.got - 2010.04.14 01:38:04.
