data_PCOD8159710
_publ_section_title
;
Structure prediction by ZEFSAII (Michael W. Deem and Ramdas Pophale) SiO2 
 PCOD8159710
Probable space group: C 2 2 21
;
_chemical_formula_sum "Si O2"
_cell_formula_units_Z 56
_cell_length_a 11.283470
_cell_length_b 16.026349
_cell_length_c 14.050114
_cell_angle_alpha 90.000000
_cell_angle_beta 90.000000
_cell_angle_gamma 90.000000
_cell_volume 2540.721850
_symmetry_space_group_name_H-M "C 2 2 21"
_symmetry_group_IT_number 20
_symmetry_cell_setting 'orthorhombic'
loop_
_space_group_symop_operation_xyz
x,y,z
-x,-y,1/2+z
x,-y,-z
-x,y,1/2-z
1/2+x,1/2+y,z
1/2-x,1/2-y,1/2+z
1/2+x,1/2-y,-z
1/2-x,1/2+y,1/2-z
loop_
_atom_site_type_symbol
_atom_site_label
_atom_site_fract_x
_atom_site_fract_y
_atom_site_fract_z
Si Si1 0.258399 0.511761 0.292374
Si Si2 0.274027 0.670281 0.406590
Si Si3 0.123743 0.809849 0.465739
Si Si4 0.728308 0.044347 0.908530
Si Si5 0.455448 0.048735 0.905548
Si Si6 0.992335 0.738357 0.864253
Si Si7 0.409909 0.576956 0.558605
O O1 0.269769 0.610403 0.314300
O O2 0.291716 0.493941 0.183490
O O3 0.125428 0.481899 0.318155
O O4 0.357040 0.456311 0.343970
O O5 0.148450 0.717924 0.420897
O O6 0.377366 0.738223 0.398766
O O7 0.298573 0.613671 0.499510
O O8 0.240921 0.859830 0.432219
O O9 0.100334 0.801240 0.580981
O O10 0.008781 0.853310 0.418808
O O11 0.591206 0.023537 0.891560
O O12 0.782203 0.000000 0.000000
O O13 0.453164 0.148898 0.904929
O O14 0.407595 0.000000 0.000000
O O15 0.000000 0.744057 0.750000
O O16 0.468147 0.500000 0.500000
#
# Coordination Sequence:
#
# PCOD8159710 Si02
#       7
#     8   8   8   8   8   8   8
#     4  11  22  42  70  93 131 178 233 269 336 422
#     4  10  22  41  66 102 132 174 225 284 342 394
#     4  11  22  41  64  97 142 163 225 291 337 390
#     4  11  25  40  64  96 135 179 223 281 342 397
#     4  11  22  42  72  99 130 177 229 276 334 415
#     4  11  23  40  70 100 136 186 233 272 342 414
#     4   9  20  40  66  96 127 178 220 270 336 409
#
# _framework density 22.040979
#
# number of rings (size 3 to 8) (size 9 to 14) (size 15 to 20)
#    0.000    1.429    1.429    4.714    2.000    0.571 
#    0.000    0.000    9.429    0.000    0.000    0.000 
#    0.000    0.000    0.000    0.000    0.000    0.000 
#
# Total GULP energy -346895.477585 kJ/mol
# GULP energy per Si atom -12389.124199 kJ/mol
# Density = 2.199081 g / cm^3
# Si number density = 22.040979 Si / 1000 Ang^3
#
#
#
# Elastic Constant Matrix: (Units=GPa)
#
#
# Indices 1 2 3 4 5 6 
#
# 1 84.5960 54.1992 36.4026 0.0000 0.0000 0.0000
# 2 54.1992 129.5128 62.2945 0.0000 0.0000 0.0000
# 3 36.4026 62.2945 166.6115 0.0000 0.0000 0.0000
# 4 0.0000 0.0000 0.0000 24.9642 0.0000 0.0000
# 5 0.0000 0.0000 0.0000 0.0000 12.6832 0.0000
# 6 0.0000 0.0000 0.0000 0.0000 0.0000 -166.6833
#
#
#
# Elastic Compliance Matrix: (Units=1/GPa)
#
#
# Indices 1 2 3 4 5 6 
#
# 1 0.016358 -0.006251 -0.001237 0.000000 0.000000 0.000000
# 2 -0.006251 0.011803 -0.003047 0.000000 0.000000 0.000000
# 3 -0.001237 -0.003047 0.007412 0.000000 0.000000 0.000000
# 4 0.000000 0.000000 0.000000 0.040057 0.000000 0.000000
# 5 0.000000 0.000000 0.000000 0.000000 0.078845 0.000000
# 6 0.000000 0.000000 0.000000 0.000000 0.000000 -0.005999
#
#
# Mechanical properties :
#
#
# Convention : Reuss Voigt Hill
#
# Bulk Modulus (GPa) = 68.95326 76.27921 72.61623
# Shear Modulus (GPa) = 28.67329 -10.61891 9.02719
#
# Velocity S-wave (km/s) = 3.61072 -2.19733 2.02596
# Velocity P-wave (km/s) = 6.98105 5.31464 6.20405
#
# Compressibility (1/GPa) = 0.01450258
#
# Stress axis : x y z
#
# Youngs Moduli (GPa) = 61.13307 84.72641 134.92389
#
# Poissons Ratio (x) = 0.52958 0.16690
# Poissons Ratio (y) = 0.38211 0.41115
# Poissons Ratio (z) = 0.07562 0.25818
#
# Static dielectric constant tensor:
#      x y z
#    x 3.823050 0.000000 0.000000 
#    y 0.000000 4.189400 0.000000 
#    z 0.000000 0.000000 4.139890 
# 
# 
# High freq. dielectric constant tensor:
#      x y z
#    x 1.867100 0.000000 0.000000 
#    y 0.000000 1.877250 0.000000 
#    z 0.000000 0.000000 1.850550 
# 
# From -- ./inp_files/20072.got.cif
#   From: 2010.03.12/outbox.cif.g09.slc.cpg/sg20_11_cif.got.tgz:20072.got - 2010.04.14 01:38:04.
