data_PCOD8159738
_publ_section_title
;
Structure prediction by ZEFSAII (Michael W. Deem and Ramdas Pophale) SiO2 
 PCOD8159738
Probable space group: C 2 2 21
;
_chemical_formula_sum "Si O2"
_cell_formula_units_Z 32
_cell_length_a 19.721767
_cell_length_b 9.308387
_cell_length_c 8.428602
_cell_angle_alpha 90.000000
_cell_angle_beta 90.000000
_cell_angle_gamma 90.000000
_cell_volume 1547.304546
_symmetry_space_group_name_H-M "C 2 2 21"
_symmetry_group_IT_number 20
_symmetry_cell_setting 'orthorhombic'
loop_
_space_group_symop_operation_xyz
x,y,z
-x,-y,1/2+z
x,-y,-z
-x,y,1/2-z
1/2+x,1/2+y,z
1/2-x,1/2-y,1/2+z
1/2+x,1/2-y,-z
1/2-x,1/2+y,1/2-z
loop_
_atom_site_type_symbol
_atom_site_label
_atom_site_fract_x
_atom_site_fract_y
_atom_site_fract_z
Si Si1 0.946810 0.115001 0.371027
Si Si2 0.195300 0.211187 0.867227
Si Si3 0.450437 0.854419 0.597591
Si Si4 0.195664 0.101689 0.211486
O O1 0.981987 0.245054 0.467349
O O2 0.881518 0.160492 0.267150
O O3 0.000000 0.044923 0.250000
O O4 0.919935 0.000000 0.500000
O O5 0.122770 0.291320 0.851913
O O6 0.253622 0.325289 0.832635
O O7 0.196888 0.070208 0.754749
O O8 0.216627 0.150948 0.037013
O O9 0.500000 0.871471 0.750000
O O10 0.441128 0.000000 0.500000
#
# Coordination Sequence:
#
# PCOD8159738 Si02
#       4
#     8   8   8   8
#     4  11  22  42  67  92 128 165 211 265 314 381
#     4  10  23  41  64  89 129 162 209 260 314 377
#     4  11  24  44  64  94 129 167 213 265 321 381
#     4  10  22  42  62  94 124 165 208 259 316 375
#
# _framework density 20.681125999999999
#
# number of rings (size 3 to 8) (size 9 to 14) (size 15 to 20)
#    0.000    1.500    5.000    1.500    7.000    2.000 
#    4.500    0.000    0.000    0.000    0.000    0.000 
#    0.000    0.000    0.000    0.000    0.000    0.000 
#
# Total GULP energy -198242.376578 kJ/mol
# GULP energy per Si atom -12390.148536 kJ/mol
# Density = 2.063405 g / cm^3
# Si number density = 20.681126 Si / 1000 Ang^3
#
#
#
# Elastic Constant Matrix: (Units=GPa)
#
#
# Indices 1 2 3 4 5 6 
#
# 1 139.9458 54.9698 64.5929 0.0000 0.0000 0.0000
# 2 54.9698 143.2159 39.7347 0.0000 0.0000 0.0000
# 3 64.5929 39.7347 46.7551 0.0000 0.0000 0.0000
# 4 0.0000 0.0000 0.0000 40.6707 0.0000 0.0000
# 5 0.0000 0.0000 0.0000 0.0000 36.9530 0.0000
# 6 0.0000 0.0000 0.0000 0.0000 0.0000 29.0629
#
#
#
# Elastic Compliance Matrix: (Units=1/GPa)
#
#
# Indices 1 2 3 4 5 6 
#
# 1 0.019720 -0.000014 -0.027232 0.000000 0.000000 0.000000
# 2 -0.000014 0.009137 -0.007746 0.000000 0.000000 0.000000
# 3 -0.027232 -0.007746 0.065593 0.000000 0.000000 0.000000
# 4 0.000000 0.000000 0.000000 0.024588 0.000000 0.000000
# 5 0.000000 0.000000 0.000000 0.000000 0.027061 0.000000
# 6 0.000000 0.000000 0.000000 0.000000 0.000000 0.034408
#
#
# Mechanical properties :
#
#
# Convention : Reuss Voigt Hill
#
# Bulk Modulus (GPa) = 40.87307 72.05685 56.46496
# Shear Modulus (GPa) = 19.33143 32.71195 26.02169
#
# Velocity S-wave (km/s) = 3.06067 3.98141 3.55101
# Velocity P-wave (km/s) = 5.68301 7.48685 6.64641
#
# Compressibility (1/GPa) = 0.02446599
#
# Stress axis : x y z
#
# Youngs Moduli (GPa) = 50.70945 109.44729 15.24558
#
# Poissons Ratio (x) = 0.00149 0.41517
# Poissons Ratio (y) = 0.00069 0.11809
# Poissons Ratio (z) = 1.38093 0.84779
#
# Static dielectric constant tensor:
#      x y z
#    x 3.626230 0.000000 0.000000 
#    y 0.000000 4.099250 0.000000 
#    z 0.000000 0.000000 3.585530 
# 
# 
# High freq. dielectric constant tensor:
#      x y z
#    x 1.809890 0.000000 0.000000 
#    y 0.000000 1.822860 0.000000 
#    z 0.000000 0.000000 1.791660 
# 
# From -- ./inp_files/5750.got.cif
#   From: 2010.03.12/outbox.cif.g09.slc.cpg/sg20_3_cif.got.tgz:5750.got - 2010.04.14 01:38:04.
