data_PCOD8159057
_publ_section_title
;
Structure prediction by ZEFSAII (Michael W. Deem and Ramdas Pophale) SiO2 
 PCOD8159057
Probable space group: C 2 2 21
;
_chemical_formula_sum "Si O2"
_cell_formula_units_Z 64
_cell_length_a 12.871088
_cell_length_b 14.068310
_cell_length_c 17.231311
_cell_angle_alpha 90.000000
_cell_angle_beta 90.000000
_cell_angle_gamma 90.000000
_cell_volume 3120.150266
_symmetry_space_group_name_H-M "C 2 2 21"
_symmetry_group_IT_number 20
_symmetry_cell_setting 'orthorhombic'
loop_
_space_group_symop_operation_xyz
x,y,z
-x,-y,1/2+z
x,-y,-z
-x,y,1/2-z
1/2+x,1/2+y,z
1/2-x,1/2-y,1/2+z
1/2+x,1/2-y,-z
1/2-x,1/2+y,1/2-z
loop_
_atom_site_type_symbol
_atom_site_label
_atom_site_fract_x
_atom_site_fract_y
_atom_site_fract_z
Si Si1 0.397345 0.656830 0.902930
Si Si2 0.120628 0.479636 0.762919
Si Si3 0.070385 0.862371 0.826532
Si Si4 0.896144 0.045198 0.585315
Si Si5 0.216637 0.643849 0.660245
Si Si6 0.214879 0.282624 0.714828
Si Si7 0.244215 0.485769 0.910984
Si Si8 0.885459 0.807188 0.923243
O O1 0.515365 0.622291 0.896251
O O2 0.369290 0.741026 0.844585
O O3 0.325900 0.566035 0.887414
O O4 0.376690 0.703660 0.985562
O O5 0.157094 0.569142 0.713433
O O6 0.182496 0.387998 0.735925
O O7 0.145022 0.495326 0.854490
O O8 0.000000 0.463279 0.750000
O O9 0.167410 0.790093 0.818915
O O10 0.000000 0.858634 0.750000
O O11 0.002464 0.835149 0.901348
O O12 0.107366 0.968952 0.844754
O O13 0.786009 0.097472 0.592344
O O14 0.911247 0.000000 0.500000
O O15 0.288137 0.712354 0.712229
O O16 0.131679 0.706089 0.616251
O O17 0.301875 0.385786 0.895226
O O18 0.207517 0.500000 0.000000
#
# Coordination Sequence:
#
# PCOD8159057 Si02
#       8
#     8   8   8   8   8   8   8   8
#     4  11  24  42  71 103 135 177 235 286 348 407
#     4  12  27  47  64 100 145 178 228 288 342 416
#     4  12  23  43  71  98 138 178 231 289 344 401
#     4  12  26  46  72 104 137 180 234 300 348 395
#     4  12  27  43  71 100 139 185 231 280 354 411
#     4  12  27  44  67 104 139 185 228 286 341 415
#     4  10  20  43  70  99 134 177 230 288 340 404
#     4  11  23  42  71 103 135 178 231 284 341 421
#
# _framework density 20.511832999999999
#
# number of rings (size 3 to 8) (size 9 to 14) (size 15 to 20)
#    0.000    0.500    7.500    0.375    7.000    0.000 
#    0.000    4.375    0.000    0.000    0.000    0.000 
#    0.000    0.000    0.000    0.000    0.000    0.000 
#
# Total GULP energy -396871.631011 kJ/mol
# GULP energy per Si atom -12402.238469 kJ/mol
# Density = 2.046515 g / cm^3
# Si number density = 20.511833 Si / 1000 Ang^3
#
#
#
# Elastic Constant Matrix: (Units=GPa)
#
#
# Indices 1 2 3 4 5 6 
#
# 1 81.6340 3.4907 34.6000 0.0000 0.0000 0.0000
# 2 3.4907 82.2429 33.9185 0.0000 0.0000 0.0000
# 3 34.6000 33.9185 73.6470 0.0000 0.0000 0.0000
# 4 0.0000 0.0000 0.0000 31.8272 0.0000 0.0000
# 5 0.0000 0.0000 0.0000 0.0000 29.0102 0.0000
# 6 0.0000 0.0000 0.0000 0.0000 0.0000 31.2324
#
#
#
# Elastic Compliance Matrix: (Units=1/GPa)
#
#
# Indices 1 2 3 4 5 6 
#
# 1 0.015859 0.002962 -0.008815 0.000000 0.000000 0.000000
# 2 0.002962 0.015564 -0.008560 0.000000 0.000000 0.000000
# 3 -0.008815 -0.008560 0.021662 0.000000 0.000000 0.000000
# 4 0.000000 0.000000 0.000000 0.031420 0.000000 0.000000
# 5 0.000000 0.000000 0.000000 0.000000 0.034471 0.000000
# 6 0.000000 0.000000 0.000000 0.000000 0.000000 0.032018
#
#
# Mechanical properties :
#
#
# Convention : Reuss Voigt Hill
#
# Bulk Modulus (GPa) = 41.22015 42.39359 41.80687
# Shear Modulus (GPa) = 26.60922 29.44827 28.02875
#
# Velocity S-wave (km/s) = 3.60566 3.79314 3.70059
# Velocity P-wave (km/s) = 6.12158 6.31638 6.21974
#
# Compressibility (1/GPa) = 0.02425998
#
# Stress axis : x y z
#
# Youngs Moduli (GPa) = 63.05407 64.25280 46.16389
#
# Poissons Ratio (x) = -0.19035 0.40695
# Poissons Ratio (y) = -0.18679 0.39515
# Poissons Ratio (z) = 0.55584 0.54998
#
# Static dielectric constant tensor:
#      x y z
#    x 3.748060 0.000000 0.000000 
#    y 0.000000 3.808660 0.000000 
#    z 0.000000 0.000000 3.913880 
# 
# 
# High freq. dielectric constant tensor:
#      x y z
#    x 1.794300 0.000000 0.000000 
#    y 0.000000 1.810150 0.000000 
#    z 0.000000 0.000000 1.809680 
# 
# From -- ./inp_files/24447.got.cif
#   From: 2010.03.12/outbox.cif.g09.slc.cpg/sg20_13_cif.got.tgz:24447.got - 2010.04.14 01:38:04.
