data_PCOD8159495
_publ_section_title
;
Structure prediction by ZEFSAII (Michael W. Deem and Ramdas Pophale) SiO2 
 PCOD8159495
Probable space group: C 2 2 21
;
_chemical_formula_sum "Si O2"
_cell_formula_units_Z 64
_cell_length_a 9.378215
_cell_length_b 11.432699
_cell_length_c 25.620378
_cell_angle_alpha 90.000000
_cell_angle_beta 90.000000
_cell_angle_gamma 90.000000
_cell_volume 2746.973612
_symmetry_space_group_name_H-M "C 2 2 21"
_symmetry_group_IT_number 20
_symmetry_cell_setting 'orthorhombic'
loop_
_space_group_symop_operation_xyz
x,y,z
-x,-y,1/2+z
x,-y,-z
-x,y,1/2-z
1/2+x,1/2+y,z
1/2-x,1/2-y,1/2+z
1/2+x,1/2-y,-z
1/2-x,1/2+y,1/2-z
loop_
_atom_site_type_symbol
_atom_site_label
_atom_site_fract_x
_atom_site_fract_y
_atom_site_fract_z
Si Si1 0.075758 0.818319 0.944856
Si Si2 0.497749 0.528670 0.621995
Si Si3 0.658463 0.004551 0.769228
Si Si4 0.693283 0.887539 0.120609
Si Si5 0.219834 0.608220 0.664813
Si Si6 0.946507 0.516410 0.081101
Si Si7 0.398288 0.660864 0.201884
Si Si8 0.353960 0.826094 0.001247
O O1 0.060027 0.951862 0.926399
O O2 0.127658 0.737290 0.896259
O O3 0.925868 0.784875 0.971155
O O4 0.188233 0.802273 0.991647
O O5 0.638886 0.602437 0.607633
O O6 0.375155 0.620615 0.638212
O O7 0.526673 0.441956 0.670077
O O8 0.500000 0.973202 0.750000
O O9 0.743062 0.884198 0.779359
O O10 0.657944 0.091775 0.818688
O O11 0.742824 0.075082 0.724883
O O12 0.614327 0.988673 0.086732
O O13 0.130022 0.503801 0.636944
O O14 0.132528 0.730292 0.662868
O O15 0.867734 0.431099 0.041293
O O16 0.925546 0.644572 0.055845
O O17 0.500000 0.699143 0.250000
#
# Coordination Sequence:
#
# PCOD8159495 Si02
#       8
#     8   8   8   8   8   8   8   8
#     4  11  24  46  70 103 135 183 228 297 354 418
#     4  11  25  46  68 101 140 178 234 288 341 416
#     4  11  23  43  67 104 138 186 238 288 348 429
#     4  10  24  43  68 100 138 182 230 288 350 414
#     4  12  23  43  71  98 140 187 230 285 348 416
#     4  10  21  44  65  95 134 178 229 287 345 419
#     4  11  24  43  67  99 141 184 232 289 347 408
#     4  10  23  41  69  96 134 175 231 286 356 416
#
# _framework density 23.298365
#
# number of rings (size 3 to 8) (size 9 to 14) (size 15 to 20)
#    0.000    1.250    3.750    1.875    3.500    1.000 
#   11.250    0.000    0.000    0.000    0.000    0.000 
#    0.000    0.000    0.000    0.000    0.000    0.000 
#
# Total GULP energy -396741.758355 kJ/mol
# GULP energy per Si atom -12398.179949 kJ/mol
# Density = 2.324534 g / cm^3
# Si number density = 23.298365 Si / 1000 Ang^3
#
#
#
# Elastic Constant Matrix: (Units=GPa)
#
#
# Indices 1 2 3 4 5 6 
#
# 1 142.4350 8.5549 30.2064 0.0000 0.0000 0.0000
# 2 8.5549 29.2851 15.1177 0.0000 0.0000 0.0000
# 3 30.2064 15.1177 100.4694 0.0000 0.0000 0.0000
# 4 0.0000 0.0000 0.0000 29.9193 0.0000 0.0000
# 5 0.0000 0.0000 0.0000 0.0000 46.1765 0.0000
# 6 0.0000 0.0000 0.0000 0.0000 0.0000 29.9396
#
#
#
# Elastic Compliance Matrix: (Units=1/GPa)
#
#
# Indices 1 2 3 4 5 6 
#
# 1 0.007532 -0.001118 -0.002096 0.000000 0.000000 0.000000
# 2 -0.001118 0.037189 -0.005260 0.000000 0.000000 0.000000
# 3 -0.002096 -0.005260 0.011375 0.000000 0.000000 0.000000
# 4 0.000000 0.000000 0.000000 0.033423 0.000000 0.000000
# 5 0.000000 0.000000 0.000000 0.000000 0.021656 0.000000
# 6 0.000000 0.000000 0.000000 0.000000 0.000000 0.033401
#
#
# Mechanical properties :
#
#
# Convention : Reuss Voigt Hill
#
# Bulk Modulus (GPa) = 25.54417 42.21641 33.88029
# Shear Modulus (GPa) = 28.64113 35.76112 32.20112
#
# Velocity S-wave (km/s) = 3.50997 3.92206 3.72172
# Velocity P-wave (km/s) = 5.23586 6.21846 5.74820
#
# Compressibility (1/GPa) = 0.03914787
#
# Stress axis : x y z
#
# Youngs Moduli (GPa) = 132.75812 26.88971 87.91209
#
# Poissons Ratio (x) = 0.03007 0.18430
# Poissons Ratio (y) = 0.14845 0.46239
# Poissons Ratio (z) = 0.27832 0.14143
#
# Static dielectric constant tensor:
#      x y z
#    x 4.336860 0.000000 0.000000 
#    y 0.000000 3.982330 0.000000 
#    z 0.000000 0.000000 4.540180 
# 
# 
# High freq. dielectric constant tensor:
#      x y z
#    x 1.932680 0.000000 0.000000 
#    y 0.000000 1.890630 0.000000 
#    z 0.000000 0.000000 1.931620 
# 
# From -- ./inp_files/28903.got.cif
#   From: 2010.03.12/outbox.cif.g09.slc.cpg/sg20_15_cif.got.tgz:28903.got - 2010.04.14 01:38:04.
