data_PCOD8159202
_publ_section_title
;
Structure prediction by ZEFSAII (Michael W. Deem and Ramdas Pophale) SiO2 
 PCOD8159202
Probable space group: C 2 2 21
;
_chemical_formula_sum "Si O2"
_cell_formula_units_Z 44
_cell_length_a 11.657850
_cell_length_b 8.406248
_cell_length_c 21.529673
_cell_angle_alpha 90.000000
_cell_angle_beta 90.000000
_cell_angle_gamma 90.000000
_cell_volume 2109.881650
_symmetry_space_group_name_H-M "C 2 2 21"
_symmetry_group_IT_number 20
_symmetry_cell_setting 'orthorhombic'
loop_
_space_group_symop_operation_xyz
x,y,z
-x,-y,1/2+z
x,-y,-z
-x,y,1/2-z
1/2+x,1/2+y,z
1/2-x,1/2-y,1/2+z
1/2+x,1/2-y,-z
1/2-x,1/2+y,1/2-z
loop_
_atom_site_type_symbol
_atom_site_label
_atom_site_fract_x
_atom_site_fract_y
_atom_site_fract_z
Si Si1 0.882800 0.775277 0.341831
Si Si2 0.157755 0.087955 0.355477
Si Si3 0.390868 0.235609 0.100160
Si Si4 0.688909 0.543876 0.066508
Si Si5 0.459838 0.671460 0.028359
Si Si6 0.500000 0.508784 0.750000
O O1 0.781949 0.647347 0.331822
O O2 0.900204 0.881481 0.280332
O O3 0.002895 0.684851 0.356006
O O4 0.866112 0.890183 0.401089
O O5 0.122230 0.204659 0.412308
O O6 0.157665 0.908405 0.380775
O O7 0.064336 0.102191 0.300169
O O8 0.286468 0.114395 0.111430
O O9 0.430551 0.211255 0.028237
O O10 0.590644 0.676994 0.053304
O O11 0.742767 0.500000 0.000000
O O12 0.434997 0.500000 0.000000
#
# Coordination Sequence:
#
# PCOD8159202 Si02
#       6
#     8   8   8   8   8   4
#     4  11  22  41  60  86 118 153 199 248 291 348
#     4  10  21  41  63  82 116 157 196 245 294 341
#     4  10  21  38  61  89 121 154 187 237 296 354
#     4  11  19  38  63  88 124 155 187 237 293 358
#     4   9  16  35  60  84 115 151 185 224 287 349
#     4  10  22  40  60  84 112 160 200 246 300 336
#
# _framework density 20.854251000000001
#
# number of rings (size 3 to 8) (size 9 to 14) (size 15 to 20)
#    0.000    1.818    7.273    1.091    0.000    2.909 
#    6.545    0.000    0.000    0.000    0.000    0.000 
#    0.000    0.000    0.000    0.000    0.000    0.000 
#
# Total GULP energy -272638.653892 kJ/mol
# GULP energy per Si atom -12392.666086 kJ/mol
# Density = 2.080679 g / cm^3
# Si number density = 20.854251 Si / 1000 Ang^3
#
#
#
# Elastic Constant Matrix: (Units=GPa)
#
#
# Indices 1 2 3 4 5 6 
#
# 1 110.1834 31.1343 15.8942 0.0000 0.0000 0.0000
# 2 31.1343 25.4170 7.5196 0.0000 0.0000 0.0000
# 3 15.8942 7.5196 87.4613 0.0000 0.0000 0.0000
# 4 0.0000 0.0000 0.0000 15.9501 0.0000 0.0000
# 5 0.0000 0.0000 0.0000 0.0000 33.7711 0.0000
# 6 0.0000 0.0000 0.0000 0.0000 0.0000 36.1945
#
#
#
# Elastic Compliance Matrix: (Units=1/GPa)
#
#
# Indices 1 2 3 4 5 6 
#
# 1 0.013982 -0.016803 -0.001096 0.000000 0.000000 0.000000
# 2 -0.016803 0.060563 -0.002153 0.000000 0.000000 0.000000
# 3 -0.001096 -0.002153 0.011818 0.000000 0.000000 0.000000
# 4 0.000000 0.000000 0.000000 0.062695 0.000000 0.000000
# 5 0.000000 0.000000 0.000000 0.000000 0.029611 0.000000
# 6 0.000000 0.000000 0.000000 0.000000 0.000000 0.027629
#
#
# Mechanical properties :
#
#
# Convention : Reuss Voigt Hill
#
# Bulk Modulus (GPa) = 21.61779 36.90643 29.26211
# Shear Modulus (GPa) = 19.09697 28.41738 23.75718
#
# Velocity S-wave (km/s) = 3.02939 3.69544 3.37887
# Velocity P-wave (km/s) = 4.75657 5.99534 5.41152
#
# Compressibility (1/GPa) = 0.04625821
#
# Stress axis : x y z
#
# Youngs Moduli (GPa) = 71.52164 16.51174 84.61668
#
# Poissons Ratio (x) = 0.27744 0.09276
# Poissons Ratio (y) = 1.20174 0.18222
# Poissons Ratio (z) = 0.07841 0.03556
#
# Static dielectric constant tensor:
#      x y z
#    x 3.829480 0.000000 0.000000 
#    y 0.000000 3.220650 0.000000 
#    z 0.000000 0.000000 3.993400 
# 
# 
# High freq. dielectric constant tensor:
#      x y z
#    x 1.824720 0.000000 0.000000 
#    y 0.000000 1.760590 0.000000 
#    z 0.000000 0.000000 1.822510 
# 
# From -- ./inp_files/29045.got.cif
#   From: 2010.03.12/outbox.cif.g09.slc.cpg/sg20_15_cif.got.tgz:29045.got - 2010.04.14 01:38:04.
