data_PCOD8159398
_publ_section_title
;
Structure prediction by ZEFSAII (Michael W. Deem and Ramdas Pophale) SiO2 
 PCOD8159398
Probable space group: C 2 2 21
;
_chemical_formula_sum "Si O2"
_cell_formula_units_Z 44
_cell_length_a 5.220738
_cell_length_b 12.978246
_cell_length_c 32.423485
_cell_angle_alpha 90.000000
_cell_angle_beta 90.000000
_cell_angle_gamma 90.000000
_cell_volume 2196.886365
_symmetry_space_group_name_H-M "C 2 2 21"
_symmetry_group_IT_number 20
_symmetry_cell_setting 'orthorhombic'
loop_
_space_group_symop_operation_xyz
x,y,z
-x,-y,1/2+z
x,-y,-z
-x,y,1/2-z
1/2+x,1/2+y,z
1/2-x,1/2-y,1/2+z
1/2+x,1/2-y,-z
1/2-x,1/2+y,1/2-z
loop_
_atom_site_type_symbol
_atom_site_label
_atom_site_fract_x
_atom_site_fract_y
_atom_site_fract_z
Si Si1 0.130009 0.617224 0.512899
Si Si2 0.123317 0.384268 0.316960
Si Si3 0.500000 0.257297 0.750000
Si Si4 0.900547 0.796168 0.146244
Si Si5 0.870066 0.795485 0.050980
Si Si6 0.876253 0.620854 0.205709
O O1 0.154852 0.500000 0.500000
O O2 0.138629 0.686065 0.471838
O O3 0.865510 0.633059 0.537149
O O4 0.366361 0.645236 0.542354
O O5 0.352471 0.370553 0.349710
O O6 0.112515 0.503728 0.306481
O O7 0.190574 0.320480 0.274970
O O8 0.846176 0.351211 0.334006
O O9 0.404986 0.332855 0.713566
O O10 0.986779 0.689559 0.168352
O O11 0.844199 0.771479 0.098995
O O12 0.000000 0.643179 0.250000
#
# Coordination Sequence:
#
# PCOD8159398 Si02
#       6
#     8   8   4   8   8   8
#     4  10  21  41  69  93 120 163 197 241 301 374
#     4  11  24  39  61  86 120 164 208 253 304 356
#     4  10  22  38  60  84 116 156 216 258 298 358
#     4  11  25  41  59  93 127 157 200 260 303 358
#     4  10  22  40  63  95 127 154 200 247 302 365
#     4  11  23  39  63  85 118 166 211 251 307 355
#
# _framework density 20.028347
#
# number of rings (size 3 to 8) (size 9 to 14) (size 15 to 20)
#    0.000    1.455    2.727    1.636    2.545    2.909 
#    0.000    0.000    0.000    0.000    0.000    0.000 
#    0.000    0.000    0.000    0.000    0.000    0.000 
#
# Total GULP energy -272669.218170 kJ/mol
# GULP energy per Si atom -12394.055371 kJ/mol
# Density = 1.998276 g / cm^3
# Si number density = 20.028347 Si / 1000 Ang^3
#
#
#
# Elastic Constant Matrix: (Units=GPa)
#
#
# Indices 1 2 3 4 5 6 
#
# 1 91.2374 41.2203 21.4211 0.0000 0.0000 0.0000
# 2 41.2203 149.7928 64.8805 0.0000 0.0000 0.0000
# 3 21.4211 64.8805 132.2156 0.0000 0.0000 0.0000
# 4 0.0000 0.0000 0.0000 14.3811 0.0000 0.0000
# 5 0.0000 0.0000 0.0000 0.0000 22.0650 0.0000
# 6 0.0000 0.0000 0.0000 0.0000 0.0000 20.6228
#
#
#
# Elastic Compliance Matrix: (Units=1/GPa)
#
#
# Indices 1 2 3 4 5 6 
#
# 1 0.012536 -0.003264 -0.000430 0.000000 0.000000 0.000000
# 2 -0.003264 0.009327 -0.004048 0.000000 0.000000 0.000000
# 3 -0.000430 -0.004048 0.009620 0.000000 0.000000 0.000000
# 4 0.000000 0.000000 0.000000 0.069536 0.000000 0.000000
# 5 0.000000 0.000000 0.000000 0.000000 0.045321 0.000000
# 6 0.000000 0.000000 0.000000 0.000000 0.000000 0.048490
#
#
# Mechanical properties :
#
#
# Convention : Reuss Voigt Hill
#
# Bulk Modulus (GPa) = 62.50060 69.80997 66.15529
# Shear Modulus (GPa) = 23.18620 27.79537 25.49078
#
# Velocity S-wave (km/s) = 3.40614 3.72936 3.57141
# Velocity P-wave (km/s) = 6.83688 7.31269 7.07878
#
# Compressibility (1/GPa) = 0.01599985
#
# Stress axis : x y z
#
# Youngs Moduli (GPa) = 79.77205 107.21023 103.95436
#
# Poissons Ratio (x) = 0.34989 0.04465
# Poissons Ratio (y) = 0.26034 0.42085
# Poissons Ratio (z) = 0.03426 0.43403
#
# Static dielectric constant tensor:
#      x y z
#    x 3.872430 0.000000 0.000000 
#    y 0.000000 3.532510 0.000000 
#    z 0.000000 0.000000 3.652820 
# 
# 
# High freq. dielectric constant tensor:
#      x y z
#    x 1.788620 0.000000 0.000000 
#    y 0.000000 1.785720 0.000000 
#    z 0.000000 0.000000 1.780530 
# 
# From -- ./inp_files/29784.got.cif
#   From: 2010.03.12/outbox.cif.g09.slc.cpg/sg20_15_cif.got.tgz:29784.got - 2010.04.14 01:38:04.
