data_PCOD8159795
_publ_section_title
;
Structure prediction by ZEFSAII (Michael W. Deem and Ramdas Pophale) SiO2 
 PCOD8159795
Probable space group: C 2 2 21
;
_chemical_formula_sum "Si O2"
_cell_formula_units_Z 60
_cell_length_a 18.555743
_cell_length_b 7.809254
_cell_length_c 18.056144
_cell_angle_alpha 90.000000
_cell_angle_beta 90.000000
_cell_angle_gamma 90.000000
_cell_volume 2616.452816
_symmetry_space_group_name_H-M "C 2 2 21"
_symmetry_group_IT_number 20
_symmetry_cell_setting 'orthorhombic'
loop_
_space_group_symop_operation_xyz
x,y,z
-x,-y,1/2+z
x,-y,-z
-x,y,1/2-z
1/2+x,1/2+y,z
1/2-x,1/2-y,1/2+z
1/2+x,1/2-y,-z
1/2-x,1/2+y,1/2-z
loop_
_atom_site_type_symbol
_atom_site_label
_atom_site_fract_x
_atom_site_fract_y
_atom_site_fract_z
Si Si1 0.911816 0.189746 0.145657
Si Si2 0.341106 0.334227 0.162530
Si Si3 0.414043 0.018942 0.239556
Si Si4 0.049191 0.245555 0.953295
Si Si5 0.108425 0.310492 0.516251
Si Si6 0.318269 0.844876 0.352716
Si Si7 0.435181 0.594090 0.384829
Si Si8 0.158528 0.500000 0.000000
O O1 0.888904 0.365863 0.184650
O O2 0.996824 0.163233 0.161529
O O3 0.869374 0.026388 0.177986
O O4 0.894334 0.198909 0.058300
O O5 0.342229 0.287521 0.075233
O O6 0.257722 0.325398 0.189259
O O7 0.388852 0.200887 0.208267
O O8 0.500000 0.024430 0.250000
O O9 0.370959 0.985883 0.315794
O O10 0.970335 0.328875 0.945659
O O11 0.062813 0.112023 0.886335
O O12 0.057319 0.158646 0.032217
O O13 0.108633 0.389659 0.945237
O O14 0.139102 0.500000 0.500000
O O15 0.361063 0.663506 0.349624
O O16 0.297425 0.893226 0.438681
#
# Coordination Sequence:
#
# PCOD8159795 Si02
#       8
#     8   8   8   8   8   8   8   4
#     4  11  23  44  75 103 140 190 246 299 350 436
#     4  12  28  47  72 109 147 190 238 302 376 431
#     4  12  28  51  73 102 145 199 247 294 358 441
#     4   9  17  32  65 102 133 175 232 291 353 404
#     4  11  20  39  73 106 146 181 243 306 360 418
#     4  11  27  48  68 103 148 185 242 300 374 431
#     4   9  18  39  64  97 133 181 234 293 342 421
#     4  10  22  42  72  98 146 188 232 306 364 424
#
# _framework density 22.931809999999999
#
# number of rings (size 3 to 8) (size 9 to 14) (size 15 to 20)
#    0.000    1.333    4.667    0.400    5.600    0.533 
#    9.600    0.000    0.000    0.000    0.000    0.000 
#    0.000    0.000    0.000    0.000    0.000    0.000 
#
# Total GULP energy -371926.318223 kJ/mol
# GULP energy per Si atom -12397.543941 kJ/mol
# Density = 2.287962 g / cm^3
# Si number density = 22.931810 Si / 1000 Ang^3
#
#
#
# Elastic Constant Matrix: (Units=GPa)
#
#
# Indices 1 2 3 4 5 6 
#
# 1 136.5278 36.3769 23.4336 0.0000 0.0000 0.0000
# 2 36.3769 107.4087 16.4839 0.0000 0.0000 0.0000
# 3 23.4336 16.4839 71.0426 0.0000 0.0000 0.0000
# 4 0.0000 0.0000 0.0000 32.8584 0.0000 0.0000
# 5 0.0000 0.0000 0.0000 0.0000 21.3595 0.0000
# 6 0.0000 0.0000 0.0000 0.0000 0.0000 22.3135
#
#
#
# Elastic Compliance Matrix: (Units=1/GPa)
#
#
# Indices 1 2 3 4 5 6 
#
# 1 0.008364 -0.002498 -0.002179 0.000000 0.000000 0.000000
# 2 -0.002498 0.010400 -0.001589 0.000000 0.000000 0.000000
# 3 -0.002179 -0.001589 0.015164 0.000000 0.000000 0.000000
# 4 0.000000 0.000000 0.000000 0.030434 0.000000 0.000000
# 5 0.000000 0.000000 0.000000 0.000000 0.046817 0.000000
# 6 0.000000 0.000000 0.000000 0.000000 0.000000 0.044816
#
#
# Mechanical properties :
#
#
# Convention : Reuss Voigt Hill
#
# Bulk Modulus (GPa) = 46.74051 51.95200 49.34626
# Shear Modulus (GPa) = 28.46409 31.21861 29.84135
#
# Velocity S-wave (km/s) = 3.52696 3.69367 3.61128
# Velocity P-wave (km/s) = 6.08379 6.39493 6.24130
#
# Compressibility (1/GPa) = 0.02139472
#
# Stress axis : x y z
#
# Youngs Moduli (GPa) = 119.55674 96.15175 65.94738
#
# Poissons Ratio (x) = 0.24022 0.14372
# Poissons Ratio (y) = 0.29869 0.10479
# Poissons Ratio (z) = 0.26055 0.15279
#
# Static dielectric constant tensor:
#      x y z
#    x 3.887830 0.000000 0.000000 
#    y 0.000000 5.041220 0.000000 
#    z 0.000000 0.000000 3.994360 
# 
# 
# High freq. dielectric constant tensor:
#      x y z
#    x 1.886010 0.000000 0.000000 
#    y 0.000000 1.911080 0.000000 
#    z 0.000000 0.000000 1.897990 
# 
# From -- ./inp_files/25291.got.cif
#   From: 2010.03.12/outbox.cif.g09.slc.cpg/sg20_13_cif.got.tgz:25291.got - 2010.04.14 01:38:04.
