data_PCOD8159276
_publ_section_title
;
Structure prediction by ZEFSAII (Michael W. Deem and Ramdas Pophale) SiO2 
 PCOD8159276
Probable space group: C 2 2 21
;
_chemical_formula_sum "Si O2"
_cell_formula_units_Z 64
_cell_length_a 16.025588
_cell_length_b 10.422776
_cell_length_c 18.275749
_cell_angle_alpha 90.000000
_cell_angle_beta 90.000000
_cell_angle_gamma 90.000000
_cell_volume 3052.618715
_symmetry_space_group_name_H-M "C 2 2 21"
_symmetry_group_IT_number 20
_symmetry_cell_setting 'orthorhombic'
loop_
_space_group_symop_operation_xyz
x,y,z
-x,-y,1/2+z
x,-y,-z
-x,y,1/2-z
1/2+x,1/2+y,z
1/2-x,1/2-y,1/2+z
1/2+x,1/2-y,-z
1/2-x,1/2+y,1/2-z
loop_
_atom_site_type_symbol
_atom_site_label
_atom_site_fract_x
_atom_site_fract_y
_atom_site_fract_z
Si Si1 0.495065 0.240796 0.085745
Si Si2 0.303291 0.516019 0.380361
Si Si3 0.448109 0.222807 0.824047
Si Si4 0.031070 0.885313 0.949458
Si Si5 0.359509 0.755646 0.680571
Si Si6 0.802673 0.120562 0.224079
Si Si7 0.113467 0.511143 0.417929
Si Si8 0.928550 0.911267 0.200351
O O1 0.573694 0.177991 0.127438
O O2 0.415226 0.153735 0.102911
O O3 0.472205 0.379011 0.123080
O O4 0.521240 0.260178 0.001376
O O5 0.372061 0.579207 0.434081
O O6 0.329011 0.373970 0.358063
O O7 0.296164 0.608725 0.310875
O O8 0.213295 0.504681 0.417535
O O9 0.500000 0.198691 0.750000
O O10 0.484243 0.343093 0.873524
O O11 0.355408 0.254883 0.796859
O O12 0.436327 0.092523 0.869342
O O13 0.991549 0.000000 0.000000
O O14 0.288756 0.862410 0.690634
O O15 0.401285 0.719513 0.758188
O O16 0.846804 0.996930 0.188255
O O17 0.080766 0.500000 0.500000
O O18 0.000000 0.983089 0.250000
#
# Coordination Sequence:
#
# PCOD8159276 Si02
#       8
#     8   8   8   8   8   8   8   8
#     4  11  23  43  66  95 132 178 227 278 340 416
#     4  11  23  40  68  97 131 180 227 279 340 414
#     4  12  25  44  71 103 139 187 229 287 347 414
#     4  12  23  42  72  99 131 178 235 285 342 402
#     4  10  21  39  64  97 135 176 221 279 342 407
#     4  11  21  38  65 100 134 164 234 287 330 398
#     4  12  26  45  67  99 142 182 224 280 358 419
#     4   9  20  38  65  94 130 173 225 281 333 400
#
# _framework density 20.965605
#
# number of rings (size 3 to 8) (size 9 to 14) (size 15 to 20)
#    0.000    1.000    5.000    2.250    1.750    2.500 
#    0.000    0.000    0.000    0.750    0.000    0.000 
#    0.000    0.000    0.000    0.000    0.000    0.000 
#
# Total GULP energy -396585.516750 kJ/mol
# GULP energy per Si atom -12393.297398 kJ/mol
# Density = 2.091789 g / cm^3
# Si number density = 20.965605 Si / 1000 Ang^3
#
#
#
# Elastic Constant Matrix: (Units=GPa)
#
#
# Indices 1 2 3 4 5 6 
#
# 1 104.7152 18.9308 34.4536 0.0000 0.0000 0.0000
# 2 18.9308 56.8041 31.4213 0.0000 0.0000 0.0000
# 3 34.4536 31.4213 120.1266 0.0000 0.0000 0.0000
# 4 0.0000 0.0000 0.0000 30.1409 0.0000 0.0000
# 5 0.0000 0.0000 0.0000 0.0000 34.4615 0.0000
# 6 0.0000 0.0000 0.0000 0.0000 0.0000 37.1493
#
#
#
# Elastic Compliance Matrix: (Units=1/GPa)
#
#
# Indices 1 2 3 4 5 6 
#
# 1 0.010775 -0.002200 -0.002515 0.000000 0.000000 0.000000
# 2 -0.002200 0.021031 -0.004870 0.000000 0.000000 0.000000
# 3 -0.002515 -0.004870 0.010320 0.000000 0.000000 0.000000
# 4 0.000000 0.000000 0.000000 0.033178 0.000000 0.000000
# 5 0.000000 0.000000 0.000000 0.000000 0.029018 0.000000
# 6 0.000000 0.000000 0.000000 0.000000 0.000000 0.026918
#
#
# Mechanical properties :
#
#
# Convention : Reuss Voigt Hill
#
# Bulk Modulus (GPa) = 43.56122 50.13970 46.85046
# Shear Modulus (GPa) = 31.63318 33.47302 32.55310
#
# Velocity S-wave (km/s) = 3.88856 4.00004 3.94469
# Velocity P-wave (km/s) = 6.40186 6.73060 6.56828
#
# Compressibility (1/GPa) = 0.02295620
#
# Stress axis : x y z
#
# Youngs Moduli (GPa) = 92.80862 47.54782 96.90134
#
# Poissons Ratio (x) = 0.10459 0.24370
# Poissons Ratio (y) = 0.20415 0.47193
# Poissons Ratio (z) = 0.23341 0.23157
#
# Static dielectric constant tensor:
#      x y z
#    x 3.841580 0.000000 0.000000 
#    y 0.000000 3.548340 0.000000 
#    z 0.000000 0.000000 4.010940 
# 
# 
# High freq. dielectric constant tensor:
#      x y z
#    x 1.822980 0.000000 0.000000 
#    y 0.000000 1.802940 0.000000 
#    z 0.000000 0.000000 1.834890 
# 
# From -- ./inp_files/24989.got.cif
#   From: 2010.03.12/outbox.cif.g09.slc.cpg/sg20_13_cif.got.tgz:24989.got - 2010.04.14 01:38:04.
