data_PCOD8159689
_publ_section_title
;
Structure prediction by ZEFSAII (Michael W. Deem and Ramdas Pophale) SiO2 
 PCOD8159689
Probable space group: C 2 2 21
;
_chemical_formula_sum "Si O2"
_cell_formula_units_Z 44
_cell_length_a 14.807969
_cell_length_b 26.532263
_cell_length_c 5.074503
_cell_angle_alpha 90.000000
_cell_angle_beta 90.000000
_cell_angle_gamma 90.000000
_cell_volume 1993.716044
_symmetry_space_group_name_H-M "C 2 2 21"
_symmetry_group_IT_number 20
_symmetry_cell_setting 'orthorhombic'
loop_
_space_group_symop_operation_xyz
x,y,z
-x,-y,1/2+z
x,-y,-z
-x,y,1/2-z
1/2+x,1/2+y,z
1/2-x,1/2-y,1/2+z
1/2+x,1/2-y,-z
1/2-x,1/2+y,1/2-z
loop_
_atom_site_type_symbol
_atom_site_label
_atom_site_fract_x
_atom_site_fract_y
_atom_site_fract_z
Si Si1 0.168420 0.796603 0.684744
Si Si2 0.761399 0.585825 0.881560
Si Si3 0.000000 0.368364 0.750000
Si Si4 0.158053 0.312804 0.503569
Si Si5 0.399262 0.352904 0.328808
Si Si6 0.141007 0.552356 0.097493
O O1 0.149749 0.737176 0.668879
O O2 0.274637 0.804755 0.747506
O O3 0.147763 0.824538 0.413804
O O4 0.103329 0.816122 0.918797
O O5 0.653511 0.595166 0.910130
O O6 0.778101 0.557541 0.610273
O O7 0.800999 0.641651 0.836658
O O8 0.809847 0.554871 0.117639
O O9 0.058048 0.330033 0.578902
O O10 0.063912 0.404970 0.925172
O O11 0.500000 0.367948 0.250000
O O12 0.094386 0.500000 0.000000
#
# Coordination Sequence:
#
# PCOD8159689 Si02
#       6
#     8   8   4   8   8   8
#     4  11  23  39  62  87 133 178 217 276 313 381
#     4  10  22  42  66  87 126 172 207 261 331 394
#     4  10  24  40  66  94 128 172 212 276 312 384
#     4  10  22  41  61  87 129 170 223 255 322 368
#     4  11  23  41  62  96 126 168 225 269 325 379
#     4  11  24  43  66  97 127 163 212 263 335 401
#
# _framework density 22.069341000000001
#
# number of rings (size 3 to 8) (size 9 to 14) (size 15 to 20)
#    0.000    1.455    0.000    6.545    1.273    8.727 
#    6.545    0.000    0.000    2.182    0.000    0.000 
#    0.000    0.000    0.000    0.000    0.000    0.000 
#
# Total GULP energy -272621.426608 kJ/mol
# GULP energy per Si atom -12391.883028 kJ/mol
# Density = 2.201911 g / cm^3
# Si number density = 22.069341 Si / 1000 Ang^3
#
#
#
# Elastic Constant Matrix: (Units=GPa)
#
#
# Indices 1 2 3 4 5 6 
#
# 1 114.2981 25.0595 10.2564 0.0000 0.0000 0.0000
# 2 25.0595 74.8180 21.3520 0.0000 0.0000 0.0000
# 3 10.2564 21.3520 102.7634 0.0000 0.0000 0.0000
# 4 0.0000 0.0000 0.0000 34.7893 0.0000 0.0000
# 5 0.0000 0.0000 0.0000 0.0000 29.2110 0.0000
# 6 0.0000 0.0000 0.0000 0.0000 0.0000 22.2501
#
#
#
# Elastic Compliance Matrix: (Units=1/GPa)
#
#
# Indices 1 2 3 4 5 6 
#
# 1 0.009451 -0.003079 -0.000304 0.000000 0.000000 0.000000
# 2 -0.003079 0.015211 -0.002853 0.000000 0.000000 0.000000
# 3 -0.000304 -0.002853 0.010354 0.000000 0.000000 0.000000
# 4 0.000000 0.000000 0.000000 0.028744 0.000000 0.000000
# 5 0.000000 0.000000 0.000000 0.000000 0.034234 0.000000
# 6 0.000000 0.000000 0.000000 0.000000 0.000000 0.044944
#
#
# Mechanical properties :
#
#
# Convention : Reuss Voigt Hill
#
# Bulk Modulus (GPa) = 44.35521 45.02390 44.68955
# Shear Modulus (GPa) = 30.68889 32.93087 31.80988
#
# Velocity S-wave (km/s) = 3.73308 3.86703 3.80064
# Velocity P-wave (km/s) = 6.22277 6.35484 6.28915
#
# Compressibility (1/GPa) = 0.02254527
#
# Stress axis : x y z
#
# Youngs Moduli (GPa) = 105.80503 65.74045 96.57881
#
# Poissons Ratio (x) = 0.20241 0.02932
# Poissons Ratio (y) = 0.32577 0.27557
# Poissons Ratio (z) = 0.03212 0.18758
#
# Static dielectric constant tensor:
#      x y z
#    x 4.595910 0.000000 0.000000 
#    y 0.000000 4.205980 0.000000 
#    z 0.000000 0.000000 4.012680 
# 
# 
# High freq. dielectric constant tensor:
#      x y z
#    x 1.861900 0.000000 0.000000 
#    y 0.000000 1.858150 0.000000 
#    z 0.000000 0.000000 1.873620 
# 
# From -- ./inp_files/1949.got.cif
#   From: 2010.03.12/outbox.cif.g09.slc.cpg/sg20_1_cif.got.tgz:1949.got - 2010.04.14 01:38:04.
