data_PCOD8159445
_publ_section_title
;
Structure prediction by ZEFSAII (Michael W. Deem and Ramdas Pophale) SiO2 
 PCOD8159445
Probable space group: C 2 2 21
;
_chemical_formula_sum "Si O2"
_cell_formula_units_Z 56
_cell_length_a 9.034182
_cell_length_b 19.270737
_cell_length_c 14.426235
_cell_angle_alpha 90.000000
_cell_angle_beta 90.000000
_cell_angle_gamma 90.000000
_cell_volume 2511.540364
_symmetry_space_group_name_H-M "C 2 2 21"
_symmetry_group_IT_number 20
_symmetry_cell_setting 'orthorhombic'
loop_
_space_group_symop_operation_xyz
x,y,z
-x,-y,1/2+z
x,-y,-z
-x,y,1/2-z
1/2+x,1/2+y,z
1/2-x,1/2-y,1/2+z
1/2+x,1/2-y,-z
1/2-x,1/2+y,1/2-z
loop_
_atom_site_type_symbol
_atom_site_label
_atom_site_fract_x
_atom_site_fract_y
_atom_site_fract_z
Si Si1 0.503552 0.903096 0.858435
Si Si2 0.344326 0.573190 0.631774
Si Si3 0.622777 0.000000 0.500000
Si Si4 0.500000 0.543387 0.250000
Si Si5 0.000867 0.173907 0.984060
Si Si6 0.186461 0.844478 0.658216
Si Si7 0.332255 0.197862 0.026690
Si Si8 0.133910 0.687533 0.681813
O O1 0.500000 0.921745 0.750000
O O2 0.651225 0.860535 0.881458
O O3 0.363632 0.857241 0.891947
O O4 0.487850 0.972001 0.920152
O O5 0.228123 0.556765 0.548796
O O6 0.413377 0.505272 0.677518
O O7 0.485658 0.609909 0.585880
O O8 0.262662 0.629261 0.699704
O O9 0.362781 0.593029 0.224618
O O10 0.160363 0.207011 0.006040
O O11 0.932784 0.147455 0.078445
O O12 0.895486 0.229803 0.934806
O O13 0.186855 0.767162 0.703589
O O14 0.413925 0.183338 0.927021
O O15 0.000000 0.668381 0.750000
#
# Coordination Sequence:
#
# PCOD8159445 Si02
#       8
#     8   8   4   4   8   8   8   8
#     4  12  26  43  70 106 138 193 255 306 367 462
#     4  11  24  45  69 105 148 195 240 305 392 437
#     4  12  24  48  70  96 158 196 236 314 390 448
#     4  12  26  44  68 106 148 194 252 308 378 460
#     4  10  21  44  72  98 144 193 233 306 374 444
#     4  11  25  45  70 104 140 192 256 304 374 444
#     4  10  21  42  68 105 139 184 243 302 368 438
#     4  10  21  44  74 100 142 194 239 301 371 443
#
# _framework density 22.297073999999999
#
# number of rings (size 3 to 8) (size 9 to 14) (size 15 to 20)
#    0.000    1.143    3.571    4.286    2.000    2.857 
#   12.857    0.000    0.000    0.000    0.000    0.000 
#    0.000    0.000    0.000    0.000    0.000    0.000 
#
# Total GULP energy -346969.904333 kJ/mol
# GULP energy per Si atom -12391.782298 kJ/mol
# Density = 2.224632 g / cm^3
# Si number density = 22.297074 Si / 1000 Ang^3
#
#
#
# Elastic Constant Matrix: (Units=GPa)
#
#
# Indices 1 2 3 4 5 6 
#
# 1 76.5552 30.8955 30.2104 0.0000 0.0000 0.0000
# 2 30.8955 137.1674 40.1871 0.0000 0.0000 0.0000
# 3 30.2104 40.1871 99.1980 0.0000 0.0000 0.0000
# 4 0.0000 0.0000 0.0000 44.2366 0.0000 0.0000
# 5 0.0000 0.0000 0.0000 0.0000 32.0884 0.0000
# 6 0.0000 0.0000 0.0000 0.0000 0.0000 47.6276
#
#
#
# Elastic Compliance Matrix: (Units=1/GPa)
#
#
# Indices 1 2 3 4 5 6 
#
# 1 0.015510 -0.002394 -0.003754 0.000000 0.000000 0.000000
# 2 -0.002394 0.008642 -0.002772 0.000000 0.000000 0.000000
# 3 -0.003754 -0.002772 0.012347 0.000000 0.000000 0.000000
# 4 0.000000 0.000000 0.000000 0.022606 0.000000 0.000000
# 5 0.000000 0.000000 0.000000 0.000000 0.031164 0.000000
# 6 0.000000 0.000000 0.000000 0.000000 0.000000 0.020996
#
#
# Mechanical properties :
#
#
# Convention : Reuss Voigt Hill
#
# Bulk Modulus (GPa) = 53.59115 57.27850 55.43482
# Shear Modulus (GPa) = 36.94870 38.89904 37.92387
#
# Velocity S-wave (km/s) = 4.07518 4.18135 4.12860
# Velocity P-wave (km/s) = 6.79926 7.00401 6.90240
#
# Compressibility (1/GPa) = 0.01865980
#
# Stress axis : x y z
#
# Youngs Moduli (GPa) = 64.47547 115.71913 80.99141
#
# Poissons Ratio (x) = 0.27699 0.30402
# Poissons Ratio (y) = 0.15433 0.22450
# Poissons Ratio (z) = 0.24202 0.32076
#
# Static dielectric constant tensor:
#      x y z
#    x 4.033220 0.000000 0.000000 
#    y 0.000000 4.271440 0.000000 
#    z 0.000000 0.000000 3.903140 
# 
# 
# High freq. dielectric constant tensor:
#      x y z
#    x 1.873870 0.000000 0.000000 
#    y 0.000000 1.896450 0.000000 
#    z 0.000000 0.000000 1.865100 
# 
# From -- ./inp_files/19248.got.cif
#   From: 2010.03.12/outbox.cif.g09.slc.cpg/sg20_10_cif.got.tgz:19248.got - 2010.04.14 01:38:04.
