data_PCOD8159164
_publ_section_title
;
Structure prediction by ZEFSAII (Michael W. Deem and Ramdas Pophale) SiO2 
 PCOD8159164
Probable space group: C 2 2 21
;
_chemical_formula_sum "Si O2"
_cell_formula_units_Z 60
_cell_length_a 9.017064
_cell_length_b 24.149384
_cell_length_c 13.249678
_cell_angle_alpha 90.000000
_cell_angle_beta 90.000000
_cell_angle_gamma 90.000000
_cell_volume 2885.204052
_symmetry_space_group_name_H-M "C 2 2 21"
_symmetry_group_IT_number 20
_symmetry_cell_setting 'orthorhombic'
loop_
_space_group_symop_operation_xyz
x,y,z
-x,-y,1/2+z
x,-y,-z
-x,y,1/2-z
1/2+x,1/2+y,z
1/2-x,1/2-y,1/2+z
1/2+x,1/2-y,-z
1/2-x,1/2+y,1/2-z
loop_
_atom_site_type_symbol
_atom_site_label
_atom_site_fract_x
_atom_site_fract_y
_atom_site_fract_z
Si Si1 0.563295 0.000000 0.000000
Si Si2 0.170363 0.452623 0.648301
Si Si3 0.167133 0.956128 0.235519
Si Si4 0.144788 0.793981 0.952400
Si Si5 0.121478 0.917088 0.019902
Si Si6 0.662708 0.170648 0.271152
Si Si7 0.696210 0.699067 0.436369
Si Si8 0.292486 0.591401 0.941563
O O1 0.659875 0.054051 0.980196
O O2 0.470037 0.982388 0.901924
O O3 0.226355 0.489893 0.742654
O O4 0.303205 0.453390 0.566811
O O5 0.136236 0.391656 0.688930
O O6 0.195428 0.928626 0.127423
O O7 0.207127 0.910667 0.319878
O O8 0.000000 0.977086 0.250000
O O9 0.249428 0.792372 0.853123
O O10 0.973888 0.781231 0.925424
O O11 0.154901 0.853259 0.002876
O O12 0.201958 0.751028 0.035851
O O13 0.947767 0.931830 0.015074
O O14 0.500000 0.196673 0.250000
O O15 0.757239 0.171115 0.168882
O O16 0.725225 0.654722 0.525010
#
# Coordination Sequence:
#
# PCOD8159164 Si02
#       8
#     4   8   8   8   8   8   8   8
#     4  12  24  38  60  90 136 170 206 272 330 376
#     4  11  23  39  62  91 129 168 218 268 322 380
#     4  10  21  37  61  87 119 169 214 255 316 386
#     4  10  23  42  72  95 130 169 221 274 338 387
#     4   9  20  43  62  90 121 171 218 268 315 396
#     4  11  24  41  66  95 131 173 221 265 324 394
#     4  11  23  45  66  99 130 169 217 279 330 399
#     4  10  25  37  61  91 130 165 214 255 329 392
#
# _framework density 20.795756999999998
#
# number of rings (size 3 to 8) (size 9 to 14) (size 15 to 20)
#    0.000    1.600    1.333    2.000    7.467    4.267 
#    0.000    2.667    0.000    0.000    0.000    0.000 
#    0.000    0.000    0.000    0.000    0.000    0.000 
#
# Total GULP energy -372027.187895 kJ/mol
# GULP energy per Si atom -12400.906263 kJ/mol
# Density = 2.074842 g / cm^3
# Si number density = 20.795757 Si / 1000 Ang^3
#
#
#
# Elastic Constant Matrix: (Units=GPa)
#
#
# Indices 1 2 3 4 5 6 
#
# 1 132.1209 43.9884 46.2351 0.0000 0.0000 0.0000
# 2 43.9884 68.6178 33.6240 0.0000 0.0000 0.0000
# 3 46.2351 33.6240 105.4486 0.0000 0.0000 0.0000
# 4 0.0000 0.0000 0.0000 33.3595 0.0000 0.0000
# 5 0.0000 0.0000 0.0000 0.0000 36.6109 0.0000
# 6 0.0000 0.0000 0.0000 0.0000 0.0000 30.2243
#
#
#
# Elastic Compliance Matrix: (Units=1/GPa)
#
#
# Indices 1 2 3 4 5 6 
#
# 1 0.010301 -0.005204 -0.002857 0.000000 0.000000 0.000000
# 2 -0.005204 0.019901 -0.004064 0.000000 0.000000 0.000000
# 3 -0.002857 -0.004064 0.012032 0.000000 0.000000 0.000000
# 4 0.000000 0.000000 0.000000 0.029976 0.000000 0.000000
# 5 0.000000 0.000000 0.000000 0.000000 0.027314 0.000000
# 6 0.000000 0.000000 0.000000 0.000000 0.000000 0.033086
#
#
# Mechanical properties :
#
#
# Convention : Reuss Voigt Hill
#
# Bulk Modulus (GPa) = 55.60547 61.54247 58.57397
# Shear Modulus (GPa) = 30.70201 32.19492 31.44847
#
# Velocity S-wave (km/s) = 3.84651 3.93892 3.89299
# Velocity P-wave (km/s) = 6.82088 7.09541 6.95950
#
# Compressibility (1/GPa) = 0.01798384
#
# Stress axis : x y z
#
# Youngs Moduli (GPa) = 97.07551 50.24921 83.11107
#
# Poissons Ratio (x) = 0.26148 0.23749
# Poissons Ratio (y) = 0.50514 0.33778
# Poissons Ratio (z) = 0.27739 0.20422
#
# Static dielectric constant tensor:
#      x y z
#    x 3.977550 0.000000 0.000000 
#    y 0.000000 3.574260 0.000000 
#    z 0.000000 0.000000 3.940480 
# 
# 
# High freq. dielectric constant tensor:
#      x y z
#    x 1.827780 0.000000 0.000000 
#    y 0.000000 1.803300 0.000000 
#    z 0.000000 0.000000 1.820300 
# 
# From -- ./inp_files/13302.got.cif
#   From: 2010.03.12/outbox.cif.g09.slc.cpg/sg20_7_cif.got.tgz:13302.got - 2010.04.14 01:38:04.
