data_PCOD8159490
_publ_section_title
;
Structure prediction by ZEFSAII (Michael W. Deem and Ramdas Pophale) SiO2 
 PCOD8159490
Probable space group: C 2 2 21
;
_chemical_formula_sum "Si O2"
_cell_formula_units_Z 48
_cell_length_a 9.156636
_cell_length_b 27.438995
_cell_length_c 9.568561
_cell_angle_alpha 90.000000
_cell_angle_beta 90.000000
_cell_angle_gamma 90.000000
_cell_volume 2404.090325
_symmetry_space_group_name_H-M "C 2 2 21"
_symmetry_group_IT_number 20
_symmetry_cell_setting 'orthorhombic'
loop_
_space_group_symop_operation_xyz
x,y,z
-x,-y,1/2+z
x,-y,-z
-x,y,1/2-z
1/2+x,1/2+y,z
1/2-x,1/2-y,1/2+z
1/2+x,1/2-y,-z
1/2-x,1/2+y,1/2-z
loop_
_atom_site_type_symbol
_atom_site_label
_atom_site_fract_x
_atom_site_fract_y
_atom_site_fract_z
Si Si1 0.189496 0.190843 0.484821
Si Si2 0.356560 0.124318 0.963358
Si Si3 0.375320 0.056118 0.513005
Si Si4 0.842114 0.106109 0.797173
Si Si5 0.009834 0.277389 0.086700
Si Si6 0.833158 0.375463 0.733253
O O1 0.141602 0.151680 0.599616
O O2 0.053476 0.225822 0.460607
O O3 0.322619 0.223157 0.540534
O O4 0.233999 0.165821 0.338281
O O5 0.485014 0.085806 0.930881
O O6 0.241367 0.123686 0.840222
O O7 0.426780 0.177502 0.983600
O O8 0.274796 0.112185 0.110643
O O9 0.244102 0.062886 0.624161
O O10 0.328022 0.075764 0.360807
O O11 0.417215 0.000000 0.500000
O O12 0.000000 0.086363 0.750000
O O13 0.000000 0.285097 0.250000
O O14 0.000000 0.357105 0.750000
#
# Coordination Sequence:
#
# PCOD8159490 Si02
#       6
#     8   8   8   8   8   8
#     4  11  25  39  60  88 129 173 217 262 316 377
#     4  11  21  41  66  90 128 163 217 270 315 381
#     4  10  21  43  70  96 124 161 211 267 326 393
#     4  11  24  43  63  94 132 172 208 265 325 380
#     4  12  24  39  60  94 126 170 224 268 311 381
#     4   9  19  38  61  89 123 158 207 267 316 380
#
# _framework density 19.965971
#
# number of rings (size 3 to 8) (size 9 to 14) (size 15 to 20)
#    0.000    1.333    6.667    0.500    4.667    4.000 
#    0.000    5.000    0.000    0.000    0.000    0.000 
#    0.000    0.000    0.000    0.000    0.000    0.000 
#
# Total GULP energy -297635.907660 kJ/mol
# GULP energy per Si atom -12401.496152 kJ/mol
# Density = 1.992053 g / cm^3
# Si number density = 19.965971 Si / 1000 Ang^3
#
#
#
# Elastic Constant Matrix: (Units=GPa)
#
#
# Indices 1 2 3 4 5 6 
#
# 1 74.6224 20.1431 27.8153 0.0000 0.0000 0.0000
# 2 20.1431 101.4893 16.0437 0.0000 0.0000 0.0000
# 3 27.8153 16.0437 120.8594 0.0000 0.0000 0.0000
# 4 0.0000 0.0000 0.0000 16.3546 0.0000 0.0000
# 5 0.0000 0.0000 0.0000 0.0000 19.7015 0.0000
# 6 0.0000 0.0000 0.0000 0.0000 0.0000 17.7693
#
#
#
# Elastic Compliance Matrix: (Units=1/GPa)
#
#
# Indices 1 2 3 4 5 6 
#
# 1 0.015268 -0.002528 -0.003178 0.000000 0.000000 0.000000
# 2 -0.002528 0.010483 -0.000810 0.000000 0.000000 0.000000
# 3 -0.003178 -0.000810 0.009113 0.000000 0.000000 0.000000
# 4 0.000000 0.000000 0.000000 0.061145 0.000000 0.000000
# 5 0.000000 0.000000 0.000000 0.000000 0.050757 0.000000
# 6 0.000000 0.000000 0.000000 0.000000 0.000000 0.056277
#
#
# Mechanical properties :
#
#
# Convention : Reuss Voigt Hill
#
# Bulk Modulus (GPa) = 45.80430 47.21948 46.51189
# Shear Modulus (GPa) = 22.38616 26.29635 24.34126
#
# Velocity S-wave (km/s) = 3.35209 3.63307 3.49540
# Velocity P-wave (km/s) = 6.16222 6.42653 6.29576
#
# Compressibility (1/GPa) = 0.02183201
#
# Stress axis : x y z
#
# Youngs Moduli (GPa) = 65.49707 95.39266 109.73283
#
# Poissons Ratio (x) = 0.24114 0.34876
# Poissons Ratio (y) = 0.16557 0.08886
# Poissons Ratio (z) = 0.20817 0.07725
#
# Static dielectric constant tensor:
#      x y z
#    x 3.512390 0.000000 0.000000 
#    y 0.000000 3.378770 0.000000 
#    z 0.000000 0.000000 4.183370 
# 
# 
# High freq. dielectric constant tensor:
#      x y z
#    x 1.762550 0.000000 0.000000 
#    y 0.000000 1.758460 0.000000 
#    z 0.000000 0.000000 1.803570 
# 
# From -- ./inp_files/6469.got.cif
#   From: 2010.03.12/outbox.cif.g09.slc.cpg/sg20_4_cif.got.tgz:6469.got - 2010.04.14 01:38:04.
