data_PCOD8159953
_publ_section_title
;
Structure prediction by ZEFSAII (Michael W. Deem and Ramdas Pophale) SiO2 
 PCOD8159953
Probable space group: C 2 2 21
;
_chemical_formula_sum "Si O2"
_cell_formula_units_Z 40
_cell_length_a 9.142885
_cell_length_b 17.400488
_cell_length_c 12.532771
_cell_angle_alpha 90.000000
_cell_angle_beta 90.000000
_cell_angle_gamma 90.000000
_cell_volume 1993.846819
_symmetry_space_group_name_H-M "C 2 2 21"
_symmetry_group_IT_number 20
_symmetry_cell_setting 'orthorhombic'
loop_
_space_group_symop_operation_xyz
x,y,z
-x,-y,1/2+z
x,-y,-z
-x,y,1/2-z
1/2+x,1/2+y,z
1/2-x,1/2-y,1/2+z
1/2+x,1/2-y,-z
1/2-x,1/2+y,1/2-z
loop_
_atom_site_type_symbol
_atom_site_label
_atom_site_fract_x
_atom_site_fract_y
_atom_site_fract_z
Si Si1 0.638279 0.948789 0.595850
Si Si2 0.660530 0.649355 0.229834
Si Si3 0.207463 0.683086 0.851073
Si Si4 0.500000 0.063079 0.750000
Si Si5 0.500000 0.713609 0.750000
Si Si6 0.125311 0.335392 0.912535
O O1 0.767062 0.891067 0.628023
O O2 0.493803 0.901073 0.563253
O O3 0.697266 0.000000 0.500000
O O4 0.610989 0.008415 0.689478
O O5 0.500000 0.616234 0.250000
O O6 0.652791 0.739806 0.206024
O O7 0.751552 0.629571 0.335844
O O8 0.367625 0.663048 0.800089
O O9 0.095786 0.614834 0.828483
O O10 0.205231 0.693395 0.979459
O O11 0.549398 0.765433 0.850083
#
# Coordination Sequence:
#
# PCOD8159953 Si02
#       6
#     8   8   8   4   4   8
#     4  12  23  44  70  93 132 186 220 269 346 414
#     4  11  24  43  65  99 138 174 222 281 337 403
#     4  11  24  39  70 101 133 175 230 281 335 401
#     4  12  23  42  66 103 128 172 236 268 325 424
#     4  10  23  42  62  99 140 168 222 290 333 402
#     4  11  21  41  68  94 135 181 219 274 347 398
#
# _framework density 20.061722
#
# number of rings (size 3 to 8) (size 9 to 14) (size 15 to 20)
#    0.000    0.800    9.000    0.000    2.800    3.200 
#    1.800    1.000    0.000    0.000    0.000    0.000 
#    0.000    0.000    0.000    0.000    0.000    0.000 
#
# Total GULP energy -247977.351533 kJ/mol
# GULP energy per Si atom -12398.867577 kJ/mol
# Density = 2.001606 g / cm^3
# Si number density = 20.061722 Si / 1000 Ang^3
#
#
#
# Elastic Constant Matrix: (Units=GPa)
#
#
# Indices 1 2 3 4 5 6 
#
# 1 125.2243 23.2350 31.2275 0.0000 0.0000 0.0000
# 2 23.2350 63.2910 12.8270 0.0000 0.0000 0.0000
# 3 31.2275 12.8270 104.9544 0.0000 0.0000 0.0000
# 4 0.0000 0.0000 0.0000 38.2665 0.0000 0.0000
# 5 0.0000 0.0000 0.0000 0.0000 34.5774 0.0000
# 6 0.0000 0.0000 0.0000 0.0000 0.0000 19.6307
#
#
#
# Elastic Compliance Matrix: (Units=1/GPa)
#
#
# Indices 1 2 3 4 5 6 
#
# 1 0.009105 -0.002865 -0.002359 0.000000 0.000000 0.000000
# 2 -0.002865 0.017103 -0.001238 0.000000 0.000000 0.000000
# 3 -0.002359 -0.001238 0.010381 0.000000 0.000000 0.000000
# 4 0.000000 0.000000 0.000000 0.026132 0.000000 0.000000
# 5 0.000000 0.000000 0.000000 0.000000 0.028921 0.000000
# 6 0.000000 0.000000 0.000000 0.000000 0.000000 0.050941
#
#
# Mechanical properties :
#
#
# Convention : Reuss Voigt Hill
#
# Bulk Modulus (GPa) = 42.25470 47.56096 44.90783
# Shear Modulus (GPa) = 30.60073 33.57361 32.08717
#
# Velocity S-wave (km/s) = 3.90978 4.09530 4.00362
# Velocity P-wave (km/s) = 6.44127 6.79123 6.61856
#
# Compressibility (1/GPa) = 0.02366600
#
# Stress axis : x y z
#
# Youngs Moduli (GPa) = 109.82392 58.47079 96.32851
#
# Poissons Ratio (x) = 0.16750 0.22725
# Poissons Ratio (y) = 0.31461 0.11924
# Poissons Ratio (z) = 0.25908 0.07238
#
# Static dielectric constant tensor:
#      x y z
#    x 3.749380 0.000000 0.000000 
#    y 0.000000 3.510400 0.000000 
#    z 0.000000 0.000000 3.587200 
# 
# 
# High freq. dielectric constant tensor:
#      x y z
#    x 1.780930 0.000000 0.000000 
#    y 0.000000 1.769780 0.000000 
#    z 0.000000 0.000000 1.792260 
# 
# From -- ./inp_files/12748.got.cif
#   From: 2010.03.12/outbox.cif.g09.slc.cpg/sg20_7_cif.got.tgz:12748.got - 2010.04.14 01:38:04.
