data_PCOD8159597
_publ_section_title
;
Structure prediction by ZEFSAII (Michael W. Deem and Ramdas Pophale) SiO2 
 PCOD8159597
Probable space group: C 2 2 21
;
_chemical_formula_sum "Si O2"
_cell_formula_units_Z 48
_cell_length_a 8.698535
_cell_length_b 15.370109
_cell_length_c 17.681885
_cell_angle_alpha 90.000000
_cell_angle_beta 90.000000
_cell_angle_gamma 90.000000
_cell_volume 2364.022601
_symmetry_space_group_name_H-M "C 2 2 21"
_symmetry_group_IT_number 20
_symmetry_cell_setting 'orthorhombic'
loop_
_space_group_symop_operation_xyz
x,y,z
-x,-y,1/2+z
x,-y,-z
-x,y,1/2-z
1/2+x,1/2+y,z
1/2-x,1/2-y,1/2+z
1/2+x,1/2-y,-z
1/2-x,1/2+y,1/2-z
loop_
_atom_site_type_symbol
_atom_site_label
_atom_site_fract_x
_atom_site_fract_y
_atom_site_fract_z
Si Si1 0.052163 0.545442 0.337218
Si Si2 0.441515 0.602452 0.830052
Si Si3 0.017411 0.275615 0.592351
Si Si4 0.873990 0.225012 0.440425
Si Si5 0.632355 0.532659 0.081581
Si Si6 0.081237 0.627384 0.830176
O O1 0.974991 0.631951 0.370730
O O2 0.234624 0.541571 0.354505
O O3 0.000000 0.542442 0.250000
O O4 0.987406 0.456582 0.373938
O O5 0.500000 0.569554 0.750000
O O6 0.512010 0.697368 0.848708
O O7 0.497623 0.532247 0.891900
O O8 0.260202 0.608487 0.823607
O O9 0.191618 0.275440 0.565297
O O10 0.905758 0.262902 0.522488
O O11 0.941889 0.128240 0.429479
O O12 0.952932 0.286511 0.378266
O O13 0.697254 0.500000 0.000000
O O14 0.000000 0.642650 0.750000
#
# Coordination Sequence:
#
# PCOD8159597 Si02
#       6
#     8   8   8   8   8   8
#     4  10  22  41  64  92 127 166 213 260 320 380
#     4  11  22  40  65  89 123 166 207 259 316 380
#     4  10  22  39  60  90 125 164 209 258 314 380
#     4  10  23  39  62  91 125 166 210 256 321 374
#     4  11  23  42  65  94 130 168 212 265 322 379
#     4  10  23  41  60  92 126 161 212 259 312 377
#
# _framework density 20.304372000000001
#
# number of rings (size 3 to 8) (size 9 to 14) (size 15 to 20)
#    0.000    1.667    1.667    2.500    4.667    3.333 
#    0.000    3.333    0.000    0.000    0.000    0.000 
#    0.000    0.000    0.000    0.000    0.000    0.000 
#
# Total GULP energy -297546.159029 kJ/mol
# GULP energy per Si atom -12397.756626 kJ/mol
# Density = 2.025816 g / cm^3
# Si number density = 20.304372 Si / 1000 Ang^3
#
#
#
# Elastic Constant Matrix: (Units=GPa)
#
#
# Indices 1 2 3 4 5 6 
#
# 1 52.6094 32.4147 43.3636 0.0000 0.0000 0.0000
# 2 32.4147 182.6554 50.9100 0.0000 0.0000 0.0000
# 3 43.3636 50.9100 106.1836 0.0000 0.0000 0.0000
# 4 0.0000 0.0000 0.0000 34.3291 0.0000 0.0000
# 5 0.0000 0.0000 0.0000 0.0000 34.7017 0.0000
# 6 0.0000 0.0000 0.0000 0.0000 0.0000 31.0965
#
#
#
# Elastic Compliance Matrix: (Units=1/GPa)
#
#
# Indices 1 2 3 4 5 6 
#
# 1 0.029372 -0.002157 -0.010960 0.000000 0.000000 0.000000
# 2 -0.002157 0.006478 -0.002225 0.000000 0.000000 0.000000
# 3 -0.010960 -0.002225 0.014960 0.000000 0.000000 0.000000
# 4 0.000000 0.000000 0.000000 0.029130 0.000000 0.000000
# 5 0.000000 0.000000 0.000000 0.000000 0.028817 0.000000
# 6 0.000000 0.000000 0.000000 0.000000 0.000000 0.032158
#
#
# Mechanical properties :
#
#
# Convention : Reuss Voigt Hill
#
# Bulk Modulus (GPa) = 49.69089 66.09166 57.89127
# Shear Modulus (GPa) = 28.04142 34.34279 31.19211
#
# Velocity S-wave (km/s) = 3.72028 4.11712 3.92372
# Velocity P-wave (km/s) = 6.55592 7.43115 7.00722
#
# Compressibility (1/GPa) = 0.02012441
#
# Stress axis : x y z
#
# Youngs Moduli (GPa) = 34.04660 154.37496 66.84350
#
# Poissons Ratio (x) = 0.33306 0.73263
# Poissons Ratio (y) = 0.07345 0.14871
# Poissons Ratio (z) = 0.37316 0.34344
#
# Static dielectric constant tensor:
#      x y z
#    x 3.480070 0.000000 0.000000 
#    y 0.000000 4.399150 0.000000 
#    z 0.000000 0.000000 3.771660 
# 
# 
# High freq. dielectric constant tensor:
#      x y z
#    x 1.777600 0.000000 0.000000 
#    y 0.000000 1.819590 0.000000 
#    z 0.000000 0.000000 1.792820 
# 
# From -- ./inp_files/23422.got.cif
#   From: 2010.03.12/outbox.cif.g09.slc.cpg/sg20_12_cif.got.tgz:23422.got - 2010.04.14 01:38:04.
