data_PCOD8159647
_publ_section_title
;
Structure prediction by ZEFSAII (Michael W. Deem and Ramdas Pophale) SiO2 
 PCOD8159647
Probable space group: C 2 2 21
;
_chemical_formula_sum "Si O2"
_cell_formula_units_Z 52
_cell_length_a 8.571671
_cell_length_b 15.364683
_cell_length_c 20.450616
_cell_angle_alpha 90.000000
_cell_angle_beta 90.000000
_cell_angle_gamma 90.000000
_cell_volume 2693.366735
_symmetry_space_group_name_H-M "C 2 2 21"
_symmetry_group_IT_number 20
_symmetry_cell_setting 'orthorhombic'
loop_
_space_group_symop_operation_xyz
x,y,z
-x,-y,1/2+z
x,-y,-z
-x,y,1/2-z
1/2+x,1/2+y,z
1/2-x,1/2-y,1/2+z
1/2+x,1/2-y,-z
1/2-x,1/2+y,1/2-z
loop_
_atom_site_type_symbol
_atom_site_label
_atom_site_fract_x
_atom_site_fract_y
_atom_site_fract_z
Si Si1 0.150944 0.331630 0.476411
Si Si2 0.260734 0.740697 0.333345
Si Si3 0.252923 0.896401 0.158634
Si Si4 0.090728 0.000000 0.500000
Si Si5 0.000000 0.331699 0.250000
Si Si6 0.715275 0.162326 0.959062
Si Si7 0.000000 0.195442 0.750000
Si Si8 0.679863 0.430537 0.914329
O O1 0.231160 0.335826 0.405273
O O2 0.195936 0.236912 0.501342
O O3 0.213759 0.410083 0.522192
O O4 0.965771 0.340747 0.477160
O O5 0.379579 0.762437 0.277115
O O6 0.262368 0.821309 0.382736
O O7 0.090994 0.739120 0.298966
O O8 0.319283 0.654339 0.369142
O O9 0.415841 0.893572 0.197623
O O10 0.111097 0.866767 0.205720
O O11 0.240774 0.994407 0.132926
O O12 0.203854 0.071224 0.529499
O O13 0.989685 0.043160 0.441785
#
# Coordination Sequence:
#
# PCOD8159647 Si02
#       8
#     8   8   8   4   4   8   4   8
#     4  11  23  41  67  94 131 168 206 267 326 382
#     4  10  22  41  61  90 125 169 216 254 317 381
#     4  11  22  42  64  91 129 164 215 261 312 376
#     4  12  24  38  62 102 122 164 206 260 334 378
#     4  10  22  40  64  82 122 178 212 254 308 380
#     4  11  24  39  65  94 129 165 209 263 328 377
#     4  10  24  40  66  88 124 182 212 256 312 386
#     4  11  24  40  66  94 132 159 210 274 321 376
#
# _framework density 19.306691000000001
#
# number of rings (size 3 to 8) (size 9 to 14) (size 15 to 20)
#    0.000    1.231    3.077    2.769    6.462    1.231 
#    0.000    0.000    0.000    0.000    0.000    0.000 
#    0.000    0.000    0.000    0.000    0.000    0.000 
#
# Total GULP energy -322301.078528 kJ/mol
# GULP energy per Si atom -12396.195328 kJ/mol
# Density = 1.926275 g / cm^3
# Si number density = 19.306691 Si / 1000 Ang^3
#
#
#
# Elastic Constant Matrix: (Units=GPa)
#
#
# Indices 1 2 3 4 5 6 
#
# 1 126.0851 50.0799 41.2302 0.0000 0.0000 0.0000
# 2 50.0799 101.8691 36.1262 0.0000 0.0000 0.0000
# 3 41.2302 36.1262 94.6046 0.0000 0.0000 0.0000
# 4 0.0000 0.0000 0.0000 35.4155 0.0000 0.0000
# 5 0.0000 0.0000 0.0000 0.0000 26.0733 0.0000
# 6 0.0000 0.0000 0.0000 0.0000 0.0000 26.4660
#
#
#
# Elastic Compliance Matrix: (Units=1/GPa)
#
#
# Indices 1 2 3 4 5 6 
#
# 1 0.010556 -0.004115 -0.003029 0.000000 0.000000 0.000000
# 2 -0.004115 0.012958 -0.003155 0.000000 0.000000 0.000000
# 3 -0.003029 -0.003155 0.013095 0.000000 0.000000 0.000000
# 4 0.000000 0.000000 0.000000 0.028236 0.000000 0.000000
# 5 0.000000 0.000000 0.000000 0.000000 0.038353 0.000000
# 6 0.000000 0.000000 0.000000 0.000000 0.000000 0.037784
#
#
# Mechanical properties :
#
#
# Convention : Reuss Voigt Hill
#
# Bulk Modulus (GPa) = 62.45577 64.15904 63.30740
# Shear Modulus (GPa) = 29.95454 30.59911 30.27682
#
# Velocity S-wave (km/s) = 3.94320 3.98540 3.96435
# Velocity P-wave (km/s) = 7.29049 7.38116 7.33596
#
# Compressibility (1/GPa) = 0.01601133
#
# Stress axis : x y z
#
# Youngs Moduli (GPa) = 94.73063 77.16956 76.36402
#
# Poissons Ratio (x) = 0.31758 0.23131
# Poissons Ratio (y) = 0.38985 0.24092
# Poissons Ratio (z) = 0.28695 0.24346
#
# Static dielectric constant tensor:
#      x y z
#    x 3.692650 0.000000 0.000000 
#    y 0.000000 3.665390 0.000000 
#    z 0.000000 0.000000 4.048480 
# 
# 
# High freq. dielectric constant tensor:
#      x y z
#    x 1.763020 0.000000 0.000000 
#    y 0.000000 1.745150 0.000000 
#    z 0.000000 0.000000 1.769190 
# 
# From -- ./inp_files/26677.got.cif
#   From: 2010.03.12/outbox.cif.g09.slc.cpg/sg20_14_cif.got.tgz:26677.got - 2010.04.14 01:38:04.
