data_PCOD8159733
_publ_section_title
;
Structure prediction by ZEFSAII (Michael W. Deem and Ramdas Pophale) SiO2 
 PCOD8159733
Probable space group: C 2 2 21
;
_chemical_formula_sum "Si O2"
_cell_formula_units_Z 64
_cell_length_a 15.603164
_cell_length_b 11.148195
_cell_length_c 17.870010
_cell_angle_alpha 90.000000
_cell_angle_beta 90.000000
_cell_angle_gamma 90.000000
_cell_volume 3108.436683
_symmetry_space_group_name_H-M "C 2 2 21"
_symmetry_group_IT_number 20
_symmetry_cell_setting 'orthorhombic'
loop_
_space_group_symop_operation_xyz
x,y,z
-x,-y,1/2+z
x,-y,-z
-x,y,1/2-z
1/2+x,1/2+y,z
1/2-x,1/2-y,1/2+z
1/2+x,1/2-y,-z
1/2-x,1/2+y,1/2-z
loop_
_atom_site_type_symbol
_atom_site_label
_atom_site_fract_x
_atom_site_fract_y
_atom_site_fract_z
Si Si1 0.145331 0.284683 0.584092
Si Si2 0.026205 0.283802 0.829953
Si Si3 0.863188 0.052960 0.710144
Si Si4 0.090674 0.813100 0.727703
Si Si5 0.721117 0.154150 0.818149
Si Si6 0.343299 0.051299 0.417945
Si Si7 0.181632 0.774209 0.579477
Si Si8 0.748011 0.986383 0.417233
O O1 0.227999 0.219804 0.616608
O O2 0.134122 0.238372 0.499689
O O3 0.164572 0.427325 0.589791
O O4 0.061020 0.248631 0.628568
O O5 0.076874 0.162683 0.812541
O O6 0.080249 0.367368 0.885402
O O7 0.000000 0.345043 0.750000
O O8 0.783652 0.094488 0.759250
O O9 0.825445 0.982710 0.638124
O O10 0.916432 0.954258 0.754835
O O11 0.164840 0.749832 0.774197
O O12 0.108346 0.804615 0.639275
O O13 0.000000 0.753082 0.750000
O O14 0.663091 0.054761 0.857974
O O15 0.254491 0.123848 0.422427
O O16 0.368099 0.000000 0.500000
O O17 0.223218 0.648890 0.602576
O O18 0.786518 0.000000 0.500000
#
# Coordination Sequence:
#
# PCOD8159733 Si02
#       8
#     8   8   8   8   8   8   8   8
#     4  11  25  45  71 102 138 184 236 285 356 426
#     4  12  27  44  72 107 140 180 231 299 351 414
#     4  12  23  45  72 100 137 184 235 286 351 424
#     4  12  27  43  69 105 140 179 236 298 345 414
#     4  12  24  42  71  98 134 185 235 279 346 428
#     4  12  26  44  74 101 138 186 237 286 350 424
#     4  11  23  48  70  99 141 187 229 290 353 417
#     4  10  22  41  74  98 132 185 233 279 347 421
#
# _framework density 20.589129
#
# number of rings (size 3 to 8) (size 9 to 14) (size 15 to 20)
#    0.000    0.500    7.500    0.375    1.750    4.000 
#    2.250    0.000    0.000    0.000    0.000    0.000 
#    0.000    0.000    0.000    0.000    0.000    0.000 
#
# Total GULP energy -396846.976050 kJ/mol
# GULP energy per Si atom -12401.468002 kJ/mol
# Density = 2.054227 g / cm^3
# Si number density = 20.589129 Si / 1000 Ang^3
#
#
#
# Elastic Constant Matrix: (Units=GPa)
#
#
# Indices 1 2 3 4 5 6 
#
# 1 88.8971 14.6786 58.3194 0.0000 0.0000 0.0000
# 2 14.6786 81.8318 45.8465 0.0000 0.0000 0.0000
# 3 58.3194 45.8465 155.3213 0.0000 0.0000 0.0000
# 4 0.0000 0.0000 0.0000 28.2493 0.0000 0.0000
# 5 0.0000 0.0000 0.0000 0.0000 32.8306 0.0000
# 6 0.0000 0.0000 0.0000 0.0000 0.0000 31.5972
#
#
#
# Elastic Compliance Matrix: (Units=1/GPa)
#
#
# Indices 1 2 3 4 5 6 
#
# 1 0.014946 0.000555 -0.005776 0.000000 0.000000 0.000000
# 2 0.000555 0.014662 -0.004536 0.000000 0.000000 0.000000
# 3 -0.005776 -0.004536 0.009946 0.000000 0.000000 0.000000
# 4 0.000000 0.000000 0.000000 0.035399 0.000000 0.000000
# 5 0.000000 0.000000 0.000000 0.000000 0.030459 0.000000
# 6 0.000000 0.000000 0.000000 0.000000 0.000000 0.031648
#
#
# Mechanical properties :
#
#
# Convention : Reuss Voigt Hill
#
# Bulk Modulus (GPa) = 49.89967 62.63768 56.26868
# Shear Modulus (GPa) = 30.62682 32.34913 31.48797
#
# Velocity S-wave (km/s) = 3.86103 3.96811 3.91493
# Velocity P-wave (km/s) = 6.64569 7.17518 6.91551
#
# Compressibility (1/GPa) = 0.02004021
#
# Stress axis : x y z
#
# Youngs Moduli (GPa) = 66.90540 68.20322 100.54384
#
# Poissons Ratio (x) = -0.03785 0.58072
# Poissons Ratio (y) = -0.03713 0.45609
# Poissons Ratio (z) = 0.38643 0.30938
#
# Static dielectric constant tensor:
#      x y z
#    x 3.592390 0.000000 0.000000 
#    y 0.000000 3.851000 0.000000 
#    z 0.000000 0.000000 3.890320 
# 
# 
# High freq. dielectric constant tensor:
#      x y z
#    x 1.793800 0.000000 0.000000 
#    y 0.000000 1.813470 0.000000 
#    z 0.000000 0.000000 1.827090 
# 
# From -- ./inp_files/25004.got.cif
#   From: 2010.03.12/outbox.cif.g09.slc.cpg/sg20_13_cif.got.tgz:25004.got - 2010.04.14 01:38:04.
