data_PCOD8159594
_publ_section_title
;
Structure prediction by ZEFSAII (Michael W. Deem and Ramdas Pophale) SiO2 
 PCOD8159594
Probable space group: C 2 2 21
;
_chemical_formula_sum "Si O2"
_cell_formula_units_Z 64
_cell_length_a 9.323873
_cell_length_b 10.858914
_cell_length_c 31.040608
_cell_angle_alpha 90.000000
_cell_angle_beta 90.000000
_cell_angle_gamma 90.000000
_cell_volume 3142.772630
_symmetry_space_group_name_H-M "C 2 2 21"
_symmetry_group_IT_number 20
_symmetry_cell_setting 'orthorhombic'
loop_
_space_group_symop_operation_xyz
x,y,z
-x,-y,1/2+z
x,-y,-z
-x,y,1/2-z
1/2+x,1/2+y,z
1/2-x,1/2-y,1/2+z
1/2+x,1/2-y,-z
1/2-x,1/2+y,1/2-z
loop_
_atom_site_type_symbol
_atom_site_label
_atom_site_fract_x
_atom_site_fract_y
_atom_site_fract_z
Si Si1 0.476349 0.752241 0.655953
Si Si2 0.868368 0.114922 0.977520
Si Si3 0.656449 0.848323 0.096100
Si Si4 0.783058 0.915371 0.863879
Si Si5 0.984579 0.013933 0.700735
Si Si6 0.382323 0.589421 0.581877
Si Si7 0.735769 0.612288 0.142256
Si Si8 0.379153 0.749165 0.062827
O O1 0.318629 0.810221 0.655554
O O2 0.488219 0.663892 0.697880
O O3 0.488115 0.651733 0.617301
O O4 0.596619 0.859450 0.652670
O O5 0.011998 0.053900 0.956915
O O6 0.768317 0.179828 0.942270
O O7 0.912293 0.212814 0.013801
O O8 0.785341 0.000000 0.000000
O O9 0.665264 0.743932 0.132660
O O10 0.496861 0.848919 0.076890
O O11 0.681161 0.977832 0.118600
O O12 0.880224 0.866686 0.903800
O O13 0.883422 0.957657 0.825442
O O14 0.000000 0.974616 0.750000
O O15 0.835855 0.954497 0.683333
O O16 0.290831 0.474849 0.600516
O O17 0.276789 0.692155 0.563868
#
# Coordination Sequence:
#
# PCOD8159594 Si02
#       8
#     8   8   8   8   8   8   8   8
#     4  10  22  41  68  90 125 160 210 254 314 377
#     4  12  22  38  57  88 129 170 218 268 311 361
#     4  12  21  39  66  89 126 173 213 258 321 375
#     4  11  22  42  65  92 124 169 208 259 316 380
#     4  11  24  43  67  97 127 160 204 258 324 389
#     4  10  22  39  59  92 121 169 216 258 314 374
#     4  11  20  41  69  91 124 170 207 258 321 385
#     4  11  23  38  60  89 129 168 217 264 310 369
#
# _framework density 20.364182
#
# number of rings (size 3 to 8) (size 9 to 14) (size 15 to 20)
#    0.000    1.000    5.000    3.000    0.000    1.000 
#    0.000    0.625    0.000    0.000    0.000    0.000 
#    0.000    0.000    0.000    0.000    0.000    0.000 
#
# Total GULP energy -396787.207437 kJ/mol
# GULP energy per Si atom -12399.600232 kJ/mol
# Density = 2.031783 g / cm^3
# Si number density = 20.364182 Si / 1000 Ang^3
#
#
#
# Elastic Constant Matrix: (Units=GPa)
#
#
# Indices 1 2 3 4 5 6 
#
# 1 90.4010 26.0583 38.8051 0.0000 0.0000 0.0000
# 2 26.0583 91.5019 35.9957 0.0000 0.0000 0.0000
# 3 38.8051 35.9957 104.4673 0.0000 0.0000 0.0000
# 4 0.0000 0.0000 0.0000 24.7484 0.0000 0.0000
# 5 0.0000 0.0000 0.0000 0.0000 16.5753 0.0000
# 6 0.0000 0.0000 0.0000 0.0000 0.0000 39.3492
#
#
#
# Elastic Compliance Matrix: (Units=1/GPa)
#
#
# Indices 1 2 3 4 5 6 
#
# 1 0.013522 -0.002169 -0.004276 0.000000 0.000000 0.000000
# 2 -0.002169 0.012990 -0.003670 0.000000 0.000000 0.000000
# 3 -0.004276 -0.003670 0.012425 0.000000 0.000000 0.000000
# 4 0.000000 0.000000 0.000000 0.040407 0.000000 0.000000
# 5 0.000000 0.000000 0.000000 0.000000 0.060331 0.000000
# 6 0.000000 0.000000 0.000000 0.000000 0.000000 0.025413
#
#
# Mechanical properties :
#
#
# Convention : Reuss Voigt Hill
#
# Bulk Modulus (GPa) = 53.45286 54.23204 53.84245
# Shear Modulus (GPa) = 26.10220 28.50198 27.30209
#
# Velocity S-wave (km/s) = 3.58407 3.74520 3.66552
# Velocity P-wave (km/s) = 6.59036 6.73728 6.66422
#
# Compressibility (1/GPa) = 0.01870807
#
# Stress axis : x y z
#
# Youngs Moduli (GPa) = 73.95146 76.98068 80.48134
#
# Poissons Ratio (x) = 0.16697 0.34411
# Poissons Ratio (y) = 0.16040 0.29539
# Poissons Ratio (z) = 0.31619 0.28254
#
# Static dielectric constant tensor:
#      x y z
#    x 3.664710 0.000000 0.000000 
#    y 0.000000 3.719950 0.000000 
#    z 0.000000 0.000000 3.575880 
# 
# 
# High freq. dielectric constant tensor:
#      x y z
#    x 1.799410 0.000000 0.000000 
#    y 0.000000 1.801170 0.000000 
#    z 0.000000 0.000000 1.775150 
# 
# From -- ./inp_files/31068.got.cif
#   From: 2010.03.12/outbox.cif.g09.slc.cpg/sg20_16_cif.got.tgz:31068.got - 2010.04.14 01:38:04.
