data_PCOD8159660
_publ_section_title
;
Structure prediction by ZEFSAII (Michael W. Deem and Ramdas Pophale) SiO2 
 PCOD8159660
Probable space group: C 2 2 21
;
_chemical_formula_sum "Si O2"
_cell_formula_units_Z 44
_cell_length_a 9.243335
_cell_length_b 16.140932
_cell_length_c 14.276444
_cell_angle_alpha 90.000000
_cell_angle_beta 90.000000
_cell_angle_gamma 90.000000
_cell_volume 2129.988934
_symmetry_space_group_name_H-M "C 2 2 21"
_symmetry_group_IT_number 20
_symmetry_cell_setting 'orthorhombic'
loop_
_space_group_symop_operation_xyz
x,y,z
-x,-y,1/2+z
x,-y,-z
-x,y,1/2-z
1/2+x,1/2+y,z
1/2-x,1/2-y,1/2+z
1/2+x,1/2-y,-z
1/2-x,1/2+y,1/2-z
loop_
_atom_site_type_symbol
_atom_site_label
_atom_site_fract_x
_atom_site_fract_y
_atom_site_fract_z
Si Si1 0.911636 0.707067 0.658870
Si Si2 0.806626 0.973030 0.898076
Si Si3 0.003576 0.476085 0.140166
Si Si4 0.391999 0.357714 0.168207
Si Si5 0.978744 0.856929 0.532530
Si Si6 0.248739 0.500000 0.500000
O O1 0.746570 0.697777 0.690534
O O2 0.917835 0.773102 0.576021
O O3 0.000000 0.734916 0.750000
O O4 0.964677 0.619538 0.616554
O O5 0.901873 0.889312 0.889570
O O6 0.632188 0.963349 0.897879
O O7 0.853090 0.044081 0.824487
O O8 0.861938 0.000000 0.000000
O O9 0.000000 0.491957 0.250000
O O10 0.851429 0.497744 0.092591
O O11 0.500000 0.334226 0.250000
O O12 0.450554 0.333311 0.066401
O O13 0.846972 0.919393 0.512645
#
# Coordination Sequence:
#
# PCOD8159660 Si02
#       6
#     8   8   8   8   8   4
#     4  10  25  42  64  94 127 170 214 267 322 376
#     4   9  18  40  61  90 121 164 208 256 311 369
#     4  10  23  41  66  92 128 171 209 265 321 379
#     4  10  22  40  65  90 127 171 212 252 324 385
#     4  11  24  41  66  97 126 169 211 268 316 383
#     4  12  24  40  66 100 126 166 222 258 320 380
#
# _framework density 20.657384
#
# number of rings (size 3 to 8) (size 9 to 14) (size 15 to 20)
#    0.000    1.818    3.636    0.000   10.182    2.182 
#    0.000    2.727    0.000    0.000    0.000    0.000 
#    0.000    0.000    0.000    0.000    0.000    0.000 
#
# Total GULP energy -272702.703047 kJ/mol
# GULP energy per Si atom -12395.577411 kJ/mol
# Density = 2.061037 g / cm^3
# Si number density = 20.657384 Si / 1000 Ang^3
#
#
#
# Elastic Constant Matrix: (Units=GPa)
#
#
# Indices 1 2 3 4 5 6 
#
# 1 164.2075 47.3101 64.7996 0.0000 0.0000 0.0000
# 2 47.3101 54.0362 42.9306 0.0000 0.0000 0.0000
# 3 64.7996 42.9306 109.4192 0.0000 0.0000 0.0000
# 4 0.0000 0.0000 0.0000 26.4753 0.0000 0.0000
# 5 0.0000 0.0000 0.0000 0.0000 38.4149 0.0000
# 6 0.0000 0.0000 0.0000 0.0000 0.0000 13.1402
#
#
#
# Elastic Compliance Matrix: (Units=1/GPa)
#
#
# Indices 1 2 3 4 5 6 
#
# 1 0.008853 -0.005210 -0.003199 0.000000 0.000000 0.000000
# 2 -0.005210 0.029953 -0.008667 0.000000 0.000000 0.000000
# 3 -0.003199 -0.008667 0.014434 0.000000 0.000000 0.000000
# 4 0.000000 0.000000 0.000000 0.037771 0.000000 0.000000
# 5 0.000000 0.000000 0.000000 0.000000 0.026032 0.000000
# 6 0.000000 0.000000 0.000000 0.000000 0.000000 0.076102
#
#
# Mechanical properties :
#
#
# Convention : Reuss Voigt Hill
#
# Bulk Modulus (GPa) = 52.38538 70.86039 61.62289
# Shear Modulus (GPa) = 21.39871 27.11427 24.25649
#
# Velocity S-wave (km/s) = 3.22201 3.62687 3.43042
# Velocity P-wave (km/s) = 6.26546 7.20528 6.75174
#
# Compressibility (1/GPa) = 0.01908930
#
# Stress axis : x y z
#
# Youngs Moduli (GPa) = 112.95329 33.38571 69.28071
#
# Poissons Ratio (x) = 0.17393 0.22163
# Poissons Ratio (y) = 0.58846 0.60044
# Poissons Ratio (z) = 0.36133 0.28935
#
# Static dielectric constant tensor:
#      x y z
#    x 3.997400 0.000000 0.000000 
#    y 0.000000 3.630290 0.000000 
#    z 0.000000 0.000000 3.549220 
# 
# 
# High freq. dielectric constant tensor:
#      x y z
#    x 1.828800 0.000000 0.000000 
#    y 0.000000 1.782050 0.000000 
#    z 0.000000 0.000000 1.802610 
# 
# From -- ./inp_files/18798.got.cif
#   From: 2010.03.12/outbox.cif.g09.slc.cpg/sg20_10_cif.got.tgz:18798.got - 2010.04.14 01:38:04.
