data_PCOD8159760
_publ_section_title
;
Structure prediction by ZEFSAII (Michael W. Deem and Ramdas Pophale) SiO2 
 PCOD8159760
Probable space group: C 2 2 21
;
_chemical_formula_sum "Si O2"
_cell_formula_units_Z 52
_cell_length_a 11.595871
_cell_length_b 9.735220
_cell_length_c 20.389597
_cell_angle_alpha 90.000000
_cell_angle_beta 90.000000
_cell_angle_gamma 90.000000
_cell_volume 2301.748070
_symmetry_space_group_name_H-M "C 2 2 21"
_symmetry_group_IT_number 20
_symmetry_cell_setting 'orthorhombic'
loop_
_space_group_symop_operation_xyz
x,y,z
-x,-y,1/2+z
x,-y,-z
-x,y,1/2-z
1/2+x,1/2+y,z
1/2-x,1/2-y,1/2+z
1/2+x,1/2-y,-z
1/2-x,1/2+y,1/2-z
loop_
_atom_site_type_symbol
_atom_site_label
_atom_site_fract_x
_atom_site_fract_y
_atom_site_fract_z
Si Si1 0.505625 0.630493 0.110798
Si Si2 0.823468 0.989330 0.700801
Si Si3 0.744932 0.746823 0.064622
Si Si4 0.500000 0.071843 0.250000
Si Si5 0.194256 0.760996 0.291675
Si Si6 0.150334 0.000000 0.500000
Si Si7 0.366614 0.000000 0.000000
Si Si8 0.090151 0.407814 0.363456
O O1 0.553954 0.512942 0.162025
O O2 0.611900 0.718859 0.081435
O O3 0.434743 0.551660 0.056260
O O4 0.420599 0.742918 0.144101
O O5 0.813470 0.084377 0.764851
O O6 0.720328 0.039000 0.652199
O O7 0.811244 0.827418 0.720950
O O8 0.825108 0.761256 0.130062
O O9 0.760809 0.886123 0.024880
O O10 0.786223 0.626929 0.017600
O O11 0.607649 0.171251 0.248966
O O12 0.497937 0.976672 0.314463
O O13 0.443063 0.955367 0.062710
#
# Coordination Sequence:
#
# PCOD8159760 Si02
#       8
#     8   8   8   4   8   4   4   8
#     4  11  25  44  72  99 137 187 225 287 356 404
#     4  10  24  44  67 102 138 178 227 291 342 418
#     4  11  25  47  67 100 144 176 236 292 337 428
#     4  10  22  42  66 102 138 182 230 282 352 428
#     4  10  23  44  67 100 141 179 225 295 351 406
#     4  12  27  45  68 104 136 178 241 281 342 418
#     4  12  19  49  68  92 146 186 215 301 348 390
#     4  11  24  43  74 100 137 188 232 279 354 425
#
# _framework density 22.591525000000001
#
# number of rings (size 3 to 8) (size 9 to 14) (size 15 to 20)
#    0.000    1.231    6.154    0.462   10.769    1.846 
#    0.000    0.000    0.000    0.000    0.000    0.000 
#    0.000    0.000    0.000    0.000    0.000    0.000 
#
# Total GULP energy -322136.022788 kJ/mol
# GULP energy per Si atom -12389.847030 kJ/mol
# Density = 2.254011 g / cm^3
# Si number density = 22.591525 Si / 1000 Ang^3
#
#
#
# Elastic Constant Matrix: (Units=GPa)
#
#
# Indices 1 2 3 4 5 6 
#
# 1 30.8625 6.3844 5.4170 0.0000 0.0000 0.0000
# 2 6.3844 139.7501 45.2027 0.0000 0.0000 0.0000
# 3 5.4170 45.2027 114.5772 0.0000 0.0000 0.0000
# 4 0.0000 0.0000 0.0000 59.2513 0.0000 0.0000
# 5 0.0000 0.0000 0.0000 0.0000 22.5182 0.0000
# 6 0.0000 0.0000 0.0000 0.0000 0.0000 28.8457
#
#
#
# Elastic Compliance Matrix: (Units=1/GPa)
#
#
# Indices 1 2 3 4 5 6 
#
# 1 0.032832 -0.001144 -0.001101 0.000000 0.000000 0.000000
# 2 -0.001144 0.008242 -0.003198 0.000000 0.000000 0.000000
# 3 -0.001101 -0.003198 0.010041 0.000000 0.000000 0.000000
# 4 0.000000 0.000000 0.000000 0.016877 0.000000 0.000000
# 5 0.000000 0.000000 0.000000 0.000000 0.044408 0.000000
# 6 0.000000 0.000000 0.000000 0.000000 0.000000 0.034667
#
#
# Mechanical properties :
#
#
# Convention : Reuss Voigt Hill
#
# Bulk Modulus (GPa) = 24.85687 44.35535 34.60611
# Shear Modulus (GPa) = 29.17787 37.33543 33.25665
#
# Velocity S-wave (km/s) = 3.59770 4.06967 3.84094
# Velocity P-wave (km/s) = 5.31832 6.46213 5.91793
#
# Compressibility (1/GPa) = 0.04023033
#
# Stress axis : x y z
#
# Youngs Moduli (GPa) = 30.45848 121.32745 99.58867
#
# Poissons Ratio (x) = 0.13877 0.10965
# Poissons Ratio (y) = 0.03484 0.31844
# Poissons Ratio (z) = 0.03353 0.38796
#
# Static dielectric constant tensor:
#      x y z
#    x 4.015260 0.000000 0.000000 
#    y 0.000000 4.376650 0.000000 
#    z 0.000000 0.000000 4.797440 
# 
# 
# High freq. dielectric constant tensor:
#      x y z
#    x 1.866760 0.000000 0.000000 
#    y 0.000000 1.908110 0.000000 
#    z 0.000000 0.000000 1.896160 
# 
# From -- ./inp_files/27536.got.cif
#   From: 2010.03.12/outbox.cif.g09.slc.cpg/sg20_14_cif.got.tgz:27536.got - 2010.04.14 01:38:04.
