data_PCOD8159536
_publ_section_title
;
Structure prediction by ZEFSAII (Michael W. Deem and Ramdas Pophale) SiO2 
 PCOD8159536
Probable space group: C 2 2 21
;
_chemical_formula_sum "Si O2"
_cell_formula_units_Z 56
_cell_length_a 21.803165
_cell_length_b 6.107649
_cell_length_c 22.012074
_cell_angle_alpha 90.000000
_cell_angle_beta 90.000000
_cell_angle_gamma 90.000000
_cell_volume 2931.261583
_symmetry_space_group_name_H-M "C 2 2 21"
_symmetry_group_IT_number 20
_symmetry_cell_setting 'orthorhombic'
loop_
_space_group_symop_operation_xyz
x,y,z
-x,-y,1/2+z
x,-y,-z
-x,y,1/2-z
1/2+x,1/2+y,z
1/2-x,1/2-y,1/2+z
1/2+x,1/2-y,-z
1/2-x,1/2+y,1/2-z
loop_
_atom_site_type_symbol
_atom_site_label
_atom_site_fract_x
_atom_site_fract_y
_atom_site_fract_z
Si Si1 0.500000 0.686313 0.750000
Si Si2 0.870587 0.612681 0.061847
Si Si3 0.928334 0.000000 0.000000
Si Si4 0.106825 0.119700 0.259750
Si Si5 0.426525 0.990354 0.330074
Si Si6 0.505761 0.884101 0.440285
Si Si7 0.690952 0.935718 0.323871
Si Si8 0.185403 0.255393 0.792287
O O1 0.446923 0.542149 0.782555
O O2 0.526279 0.832391 0.804006
O O3 0.820918 0.578599 0.115388
O O4 0.934579 0.510396 0.084594
O O5 0.846493 0.500000 0.000000
O O6 0.883501 0.865161 0.045189
O O7 0.973155 0.860301 0.956883
O O8 0.075648 0.282107 0.212692
O O9 0.135411 0.262519 0.314459
O O10 0.159219 0.979845 0.226779
O O11 0.360326 0.108689 0.336263
O O12 0.450131 0.893889 0.393291
O O13 0.479620 0.000000 0.500000
O O14 0.752822 0.792601 0.329843
O O15 0.697663 0.100403 0.267583
#
# Coordination Sequence:
#
# PCOD8159536 Si02
#       8
#     4   8   4   8   8   8   8   8
#     4  10  22  36  54  92 122 150 186 240 310 360
#     4   9  21  37  59  90 117 151 202 247 298 361
#     4   8  18  40  54  92 118 158 192 234 328 346
#     4  10  22  36  56  88 119 157 191 241 303 356
#     4  10  22  38  56  88 123 148 203 242 291 368
#     4   9  20  38  60  88 121 152 196 244 300 366
#     4  11  21  40  62  85 124 156 207 251 293 365
#     4  10  22  38  60  87 115 165 200 240 310 348
#
# _framework density 19.104402
#
# number of rings (size 3 to 8) (size 9 to 14) (size 15 to 20)
#    0.000    2.571    1.429    0.429    8.000    6.857 
#    2.571    0.000    3.143    0.000    0.000    0.000 
#    0.000    0.000    0.000    0.000    0.000    0.000 
#
# Total GULP energy -347081.556826 kJ/mol
# GULP energy per Si atom -12395.769887 kJ/mol
# Density = 1.906092 g / cm^3
# Si number density = 19.104402 Si / 1000 Ang^3
#
#
#
# Elastic Constant Matrix: (Units=GPa)
#
#
# Indices 1 2 3 4 5 6 
#
# 1 109.8288 48.3132 64.6110 0.0000 0.0000 0.0000
# 2 48.3132 124.2015 42.7534 0.0000 0.0000 0.0000
# 3 64.6110 42.7534 94.8209 0.0000 0.0000 0.0000
# 4 0.0000 0.0000 0.0000 15.4605 0.0000 0.0000
# 5 0.0000 0.0000 0.0000 0.0000 27.7535 0.0000
# 6 0.0000 0.0000 0.0000 0.0000 0.0000 24.8647
#
#
#
# Elastic Compliance Matrix: (Units=1/GPa)
#
#
# Indices 1 2 3 4 5 6 
#
# 1 0.016052 -0.002934 -0.009615 0.000000 0.000000 0.000000
# 2 -0.002934 0.010067 -0.002540 0.000000 0.000000 0.000000
# 3 -0.009615 -0.002540 0.018243 0.000000 0.000000 0.000000
# 4 0.000000 0.000000 0.000000 0.064681 0.000000 0.000000
# 5 0.000000 0.000000 0.000000 0.000000 0.036031 0.000000
# 6 0.000000 0.000000 0.000000 0.000000 0.000000 0.040218
#
#
# Mechanical properties :
#
#
# Convention : Reuss Voigt Hill
#
# Bulk Modulus (GPa) = 70.50033 71.13405 70.81719
# Shear Modulus (GPa) = 22.70680 25.16066 23.93373
#
# Velocity S-wave (km/s) = 3.45130 3.63300 3.54331
# Velocity P-wave (km/s) = 7.27081 7.41036 7.34092
#
# Compressibility (1/GPa) = 0.01418433
#
# Stress axis : x y z
#
# Youngs Moduli (GPa) = 62.29645 99.33352 54.81595
#
# Poissons Ratio (x) = 0.29149 0.52705
# Poissons Ratio (y) = 0.18281 0.13921
# Poissons Ratio (z) = 0.59898 0.25226
#
# Static dielectric constant tensor:
#      x y z
#    x 3.476560 0.000000 0.000000 
#    y 0.000000 3.762300 0.000000 
#    z 0.000000 0.000000 3.245750 
# 
# 
# High freq. dielectric constant tensor:
#      x y z
#    x 1.730290 0.000000 0.000000 
#    y 0.000000 1.764620 0.000000 
#    z 0.000000 0.000000 1.712320 
# 
# From -- ./inp_files/29596.got.cif
#   From: 2010.03.12/outbox.cif.g09.slc.cpg/sg20_15_cif.got.tgz:29596.got - 2010.04.14 01:38:04.
