data_PCOD8159166
_publ_section_title
;
Structure prediction by ZEFSAII (Michael W. Deem and Ramdas Pophale) SiO2 
 PCOD8159166
Probable space group: C 2 2 21
;
_chemical_formula_sum "Si O2"
_cell_formula_units_Z 56
_cell_length_a 4.953404
_cell_length_b 31.006709
_cell_length_c 17.466953
_cell_angle_alpha 90.000000
_cell_angle_beta 90.000000
_cell_angle_gamma 90.000000
_cell_volume 2682.727589
_symmetry_space_group_name_H-M "C 2 2 21"
_symmetry_group_IT_number 20
_symmetry_cell_setting 'orthorhombic'
loop_
_space_group_symop_operation_xyz
x,y,z
-x,-y,1/2+z
x,-y,-z
-x,y,1/2-z
1/2+x,1/2+y,z
1/2-x,1/2-y,1/2+z
1/2+x,1/2-y,-z
1/2-x,1/2+y,1/2-z
loop_
_atom_site_type_symbol
_atom_site_label
_atom_site_fract_x
_atom_site_fract_y
_atom_site_fract_z
Si Si1 0.069910 0.017479 0.336476
Si Si2 0.927787 0.519076 0.917936
Si Si3 0.549523 0.393843 0.589762
Si Si4 0.469771 0.892263 0.015476
Si Si5 0.000729 0.702400 0.558145
Si Si6 0.004219 0.251569 0.898914
Si Si7 0.737671 0.177046 0.201150
O O1 0.036989 0.069014 0.346184
O O2 0.000000 0.005031 0.250000
O O3 0.366914 0.999107 0.354335
O O4 0.870322 0.995478 0.396219
O O5 0.909273 0.570993 0.922002
O O6 0.008157 0.500000 0.000000
O O7 0.264983 0.385333 0.547830
O O8 0.655805 0.350430 0.629658
O O9 0.762823 0.408665 0.526762
O O10 0.538047 0.848859 0.061995
O O11 0.294249 0.711696 0.591294
O O12 0.974325 0.716472 0.470517
O O13 0.788225 0.729463 0.609535
O O14 0.085422 0.279478 0.825524
O O15 0.500000 0.152432 0.250000
O O16 0.000000 0.189280 0.250000
#
# Coordination Sequence:
#
# PCOD8159166 Si02
#       7
#     8   8   8   8   8   8   8
#     4  12  25  43  64  95 135 177 215 262 326 401
#     4  12  23  43  67  95 129 175 221 271 322 384
#     4  12  23  39  62  96 134 168 206 257 330 392
#     4  12  23  38  68  96 129 159 216 277 319 371
#     4  10  21  37  61  88 117 156 197 272 309 354
#     4  10  21  38  60  85 122 158 207 242 312 372
#     4  12  25  39  60  91 134 173 205 247 316 398
#
# _framework density 20.874276999999999
#
# number of rings (size 3 to 8) (size 9 to 14) (size 15 to 20)
#    0.000    0.571    4.286    4.714    4.000    1.143 
#    0.000    0.000    0.000    8.571    0.000    0.000 
#    0.000    0.000    0.000    0.000    0.000    0.000 
#
# Total GULP energy -347279.027460 kJ/mol
# GULP energy per Si atom -12402.822409 kJ/mol
# Density = 2.082677 g / cm^3
# Si number density = 20.874277 Si / 1000 Ang^3
#
#
#
# Elastic Constant Matrix: (Units=GPa)
#
#
# Indices 1 2 3 4 5 6 
#
# 1 79.0059 11.4699 2.0346 0.0000 0.0000 0.0000
# 2 11.4699 122.8132 18.8692 0.0000 0.0000 0.0000
# 3 2.0346 18.8692 51.0870 0.0000 0.0000 0.0000
# 4 0.0000 0.0000 0.0000 15.4555 0.0000 0.0000
# 5 0.0000 0.0000 0.0000 0.0000 30.1631 0.0000
# 6 0.0000 0.0000 0.0000 0.0000 0.0000 30.1240
#
#
#
# Elastic Compliance Matrix: (Units=1/GPa)
#
#
# Indices 1 2 3 4 5 6 
#
# 1 0.012832 -0.001187 -0.000073 0.000000 0.000000 0.000000
# 2 -0.001187 0.008742 -0.003182 0.000000 0.000000 0.000000
# 3 -0.000073 -0.003182 0.020752 0.000000 0.000000 0.000000
# 4 0.000000 0.000000 0.000000 0.064702 0.000000 0.000000
# 5 0.000000 0.000000 0.000000 0.000000 0.033153 0.000000
# 6 0.000000 0.000000 0.000000 0.000000 0.000000 0.033196
#
#
# Mechanical properties :
#
#
# Convention : Reuss Voigt Hill
#
# Bulk Modulus (GPa) = 29.90134 35.29484 32.59809
# Shear Modulus (GPa) = 25.85212 29.85068 27.85140
#
# Velocity S-wave (km/s) = 3.52300 3.78567 3.65669
# Velocity P-wave (km/s) = 5.55917 6.00444 5.78609
#
# Compressibility (1/GPa) = 0.03344331
#
# Stress axis : x y z
#
# Youngs Moduli (GPa) = 77.93313 114.38820 48.18699
#
# Poissons Ratio (x) = 0.13581 0.00349
# Poissons Ratio (y) = 0.09252 0.15331
# Poissons Ratio (z) = 0.00565 0.36394
#
# Static dielectric constant tensor:
#      x y z
#    x 4.027330 0.000000 0.000000 
#    y 0.000000 3.703110 0.000000 
#    z 0.000000 0.000000 3.562640 
# 
# 
# High freq. dielectric constant tensor:
#      x y z
#    x 1.840640 0.000000 0.000000 
#    y 0.000000 1.815840 0.000000 
#    z 0.000000 0.000000 1.789740 
# 
# From -- ./inp_files/17972.got.cif
#   From: 2010.03.12/outbox.cif.g09.slc.cpg/sg20_9_cif.got.tgz:17972.got - 2010.04.14 01:38:04.
