data_PCOD8159451
_publ_section_title
;
Structure prediction by ZEFSAII (Michael W. Deem and Ramdas Pophale) SiO2 
 PCOD8159451
Probable space group: C 2 2 21
;
_chemical_formula_sum "Si O2"
_cell_formula_units_Z 56
_cell_length_a 9.286433
_cell_length_b 19.629437
_cell_length_c 14.285139
_cell_angle_alpha 90.000000
_cell_angle_beta 90.000000
_cell_angle_gamma 90.000000
_cell_volume 2604.001583
_symmetry_space_group_name_H-M "C 2 2 21"
_symmetry_group_IT_number 20
_symmetry_cell_setting 'orthorhombic'
loop_
_space_group_symop_operation_xyz
x,y,z
-x,-y,1/2+z
x,-y,-z
-x,y,1/2-z
1/2+x,1/2+y,z
1/2-x,1/2-y,1/2+z
1/2+x,1/2-y,-z
1/2-x,1/2+y,1/2-z
loop_
_atom_site_type_symbol
_atom_site_label
_atom_site_fract_x
_atom_site_fract_y
_atom_site_fract_z
Si Si1 0.060017 0.044330 0.593589
Si Si2 0.615734 0.853620 0.321705
Si Si3 0.499514 0.816701 0.988753
Si Si4 0.183961 0.810303 0.454694
Si Si5 0.130912 0.613982 0.306524
Si Si6 0.669363 0.258357 0.255893
Si Si7 0.210020 0.980701 0.216294
O O1 0.110057 0.117201 0.557633
O O2 0.058040 0.000000 0.500000
O O3 0.162643 0.013777 0.675011
O O4 0.905268 0.049201 0.643139
O O5 0.500000 0.823021 0.250000
O O6 0.545409 0.861377 0.422786
O O7 0.749879 0.800428 0.325221
O O8 0.657844 0.928875 0.287589
O O9 0.673170 0.813546 0.980192
O O10 0.435061 0.740556 0.998051
O O11 0.429997 0.855309 0.901926
O O12 0.235112 0.784231 0.353506
O O13 0.195623 0.677211 0.246089
O O14 0.250209 0.556138 0.320858
O O15 0.000000 0.579486 0.250000
O O16 0.500000 0.275362 0.250000
#
# Coordination Sequence:
#
# PCOD8159451 Si02
#       7
#     8   8   8   8   8   8   8
#     4  11  26  44  73  97 144 189 235 290 351 424
#     4  12  23  43  70 103 135 182 233 296 343 426
#     4  11  27  41  73 105 139 184 236 297 358 416
#     4  11  24  46  66 106 136 180 239 282 354 426
#     4  10  25  44  66  99 139 185 232 294 351 416
#     4  10  21  42  69  96 138 185 227 290 358 409
#     4  11  25  46  68 104 136 191 239 286 358 422
#
# _framework density 21.505364
#
# number of rings (size 3 to 8) (size 9 to 14) (size 15 to 20)
#    0.000    1.143    2.857    1.286   12.000    1.143 
#    2.571    0.000    0.000    0.000    0.000    0.000 
#    0.000    0.000    0.000    0.000    0.000    0.000 
#
# Total GULP energy -347181.371721 kJ/mol
# GULP energy per Si atom -12399.334704 kJ/mol
# Density = 2.145642 g / cm^3
# Si number density = 21.505364 Si / 1000 Ang^3
#
#
#
# Elastic Constant Matrix: (Units=GPa)
#
#
# Indices 1 2 3 4 5 6 
#
# 1 105.9866 64.8254 31.5782 0.0000 0.0000 0.0000
# 2 64.8254 125.9903 33.7327 0.0000 0.0000 0.0000
# 3 31.5782 33.7327 107.0465 0.0000 0.0000 0.0000
# 4 0.0000 0.0000 0.0000 24.1817 0.0000 0.0000
# 5 0.0000 0.0000 0.0000 0.0000 38.9810 0.0000
# 6 0.0000 0.0000 0.0000 0.0000 0.0000 34.1949
#
#
#
# Elastic Compliance Matrix: (Units=1/GPa)
#
#
# Indices 1 2 3 4 5 6 
#
# 1 0.014171 -0.006741 -0.002056 0.000000 0.000000 0.000000
# 2 -0.006741 0.011875 -0.001754 0.000000 0.000000 0.000000
# 3 -0.002056 -0.001754 0.010501 0.000000 0.000000 0.000000
# 4 0.000000 0.000000 0.000000 0.041354 0.000000 0.000000
# 5 0.000000 0.000000 0.000000 0.000000 0.025654 0.000000
# 6 0.000000 0.000000 0.000000 0.000000 0.000000 0.029244
#
#
# Mechanical properties :
#
#
# Convention : Reuss Voigt Hill
#
# Bulk Modulus (GPa) = 64.74322 66.58846 65.66584
# Shear Modulus (GPa) = 31.43726 33.39731 32.41729
#
# Velocity S-wave (km/s) = 3.82754 3.94506 3.88674
# Velocity P-wave (km/s) = 7.05013 7.19598 7.12343
#
# Compressibility (1/GPa) = 0.01544563
#
# Stress axis : x y z
#
# Youngs Moduli (GPa) = 70.56862 84.21140 95.23021
#
# Poissons Ratio (x) = 0.56764 0.19581
# Poissons Ratio (y) = 0.47568 0.16699
# Poissons Ratio (z) = 0.14510 0.14767
#
# Static dielectric constant tensor:
#      x y z
#    x 3.882030 0.000000 0.000000 
#    y 0.000000 3.872010 0.000000 
#    z 0.000000 0.000000 3.970140 
# 
# 
# High freq. dielectric constant tensor:
#      x y z
#    x 1.845360 0.000000 0.000000 
#    y 0.000000 1.844300 0.000000 
#    z 0.000000 0.000000 1.848770 
# 
# From -- ./inp_files/19208.got.cif
#   From: 2010.03.12/outbox.cif.g09.slc.cpg/sg20_10_cif.got.tgz:19208.got - 2010.04.14 01:38:04.
