data_PCOD8159858
_publ_section_title
;
Structure prediction by ZEFSAII (Michael W. Deem and Ramdas Pophale) SiO2 
 PCOD8159858
Probable space group: C 2 2 21
;
_chemical_formula_sum "Si O2"
_cell_formula_units_Z 40
_cell_length_a 12.394499
_cell_length_b 16.456659
_cell_length_c 8.083323
_cell_angle_alpha 90.000000
_cell_angle_beta 90.000000
_cell_angle_gamma 90.000000
_cell_volume 1648.771911
_symmetry_space_group_name_H-M "C 2 2 21"
_symmetry_group_IT_number 20
_symmetry_cell_setting 'orthorhombic'
loop_
_space_group_symop_operation_xyz
x,y,z
-x,-y,1/2+z
x,-y,-z
-x,y,1/2-z
1/2+x,1/2+y,z
1/2-x,1/2-y,1/2+z
1/2+x,1/2-y,-z
1/2-x,1/2+y,1/2-z
loop_
_atom_site_type_symbol
_atom_site_label
_atom_site_fract_x
_atom_site_fract_y
_atom_site_fract_z
Si Si1 0.658834 0.474453 0.744014
Si Si2 0.095772 0.124458 0.933659
Si Si3 0.385495 0.026627 0.814755
Si Si4 0.212929 0.695068 0.722672
Si Si5 0.368776 0.666501 0.018708
O O1 0.612878 0.425401 0.899596
O O2 0.787919 0.479826 0.725845
O O3 0.627629 0.428537 0.574530
O O4 0.607387 0.565068 0.767986
O O5 0.985919 0.177846 0.932923
O O6 0.194866 0.186714 0.918232
O O7 0.500000 0.995202 0.750000
O O8 0.374634 0.123119 0.791350
O O9 0.373530 0.000000 0.000000
O O10 0.147397 0.778322 0.684573
O O11 0.271270 0.692690 0.900166
#
# Coordination Sequence:
#
# PCOD8159858 Si02
#       5
#     8   8   8   8   8
#     4  10  22  44  72 103 144 182 253 307 360 450
#     4  10  22  46  70 103 144 192 243 306 368 437
#     4  11  25  46  70 100 143 193 242 298 365 445
#     4  11  26  46  67 109 147 187 250 298 367 456
#     4  12  26  43  76 106 148 197 239 314 378 433
#
# _framework density 24.260480999999999
#
# number of rings (size 3 to 8) (size 9 to 14) (size 15 to 20)
#    0.000    1.200    4.000    2.400    2.800   16.800 
#    0.000    0.000    0.000    0.000    0.000    0.000 
#    0.000    0.000    0.000    0.000    0.000    0.000 
#
# Total GULP energy -247891.333624 kJ/mol
# GULP energy per Si atom -12394.566681 kJ/mol
# Density = 2.420526 g / cm^3
# Si number density = 24.260481 Si / 1000 Ang^3
#
#
#
# Elastic Constant Matrix: (Units=GPa)
#
#
# Indices 1 2 3 4 5 6 
#
# 1 144.4063 33.0948 36.8980 0.0000 0.0000 0.0000
# 2 33.0948 82.9933 12.4146 0.0000 0.0000 0.0000
# 3 36.8980 12.4146 41.1396 0.0000 0.0000 0.0000
# 4 0.0000 0.0000 0.0000 44.8920 0.0000 0.0000
# 5 0.0000 0.0000 0.0000 0.0000 48.6768 0.0000
# 6 0.0000 0.0000 0.0000 0.0000 0.0000 26.2742
#
#
#
# Elastic Compliance Matrix: (Units=1/GPa)
#
#
# Indices 1 2 3 4 5 6 
#
# 1 0.009503 -0.002633 -0.007729 0.000000 0.000000 0.000000
# 2 -0.002633 0.013349 -0.001666 0.000000 0.000000 0.000000
# 3 -0.007729 -0.001666 0.031742 0.000000 0.000000 0.000000
# 4 0.000000 0.000000 0.000000 0.022276 0.000000 0.000000
# 5 0.000000 0.000000 0.000000 0.000000 0.020544 0.000000
# 6 0.000000 0.000000 0.000000 0.000000 0.000000 0.038060
#
#
# Mechanical properties :
#
#
# Convention : Reuss Voigt Hill
#
# Bulk Modulus (GPa) = 32.74704 48.15046 40.44875
# Shear Modulus (GPa) = 29.46215 36.37739 32.91977
#
# Velocity S-wave (km/s) = 3.48862 3.87647 3.68765
# Velocity P-wave (km/s) = 5.45478 6.31874 5.90259
#
# Compressibility (1/GPa) = 0.03053711
#
# Stress axis : x y z
#
# Youngs Moduli (GPa) = 105.22728 74.91461 31.50387
#
# Poissons Ratio (x) = 0.19728 0.24348
# Poissons Ratio (y) = 0.27711 0.05249
# Poissons Ratio (z) = 0.81327 0.12482
#
# Static dielectric constant tensor:
#      x y z
#    x 3.977190 0.000000 0.000000 
#    y 0.000000 4.361820 0.000000 
#    z 0.000000 0.000000 4.290310 
# 
# 
# High freq. dielectric constant tensor:
#      x y z
#    x 1.971700 0.000000 0.000000 
#    y 0.000000 1.948410 0.000000 
#    z 0.000000 0.000000 1.973170 
# 
# From -- ./inp_files/7074.got.cif
#   From: 2010.03.12/outbox.cif.g09.slc.cpg/sg20_4_cif.got.tgz:7074.got - 2010.04.14 01:38:04.
