data_PCOD8159794
_publ_section_title
;
Structure prediction by ZEFSAII (Michael W. Deem and Ramdas Pophale) SiO2 
 PCOD8159794
Probable space group: C 2 2 21
;
_chemical_formula_sum "Si O2"
_cell_formula_units_Z 40
_cell_length_a 17.131343
_cell_length_b 9.410637
_cell_length_c 11.941310
_cell_angle_alpha 90.000000
_cell_angle_beta 90.000000
_cell_angle_gamma 90.000000
_cell_volume 1925.140387
_symmetry_space_group_name_H-M "C 2 2 21"
_symmetry_group_IT_number 20
_symmetry_cell_setting 'orthorhombic'
loop_
_space_group_symop_operation_xyz
x,y,z
-x,-y,1/2+z
x,-y,-z
-x,y,1/2-z
1/2+x,1/2+y,z
1/2-x,1/2-y,1/2+z
1/2+x,1/2-y,-z
1/2-x,1/2+y,1/2-z
loop_
_atom_site_type_symbol
_atom_site_label
_atom_site_fract_x
_atom_site_fract_y
_atom_site_fract_z
Si Si1 0.819128 0.904563 0.353225
Si Si2 0.625399 0.297243 0.922211
Si Si3 0.352266 0.911425 0.226281
Si Si4 0.536845 0.840650 0.468477
Si Si5 0.414786 0.787801 0.793591
O O1 0.826673 0.801258 0.461324
O O2 0.728887 0.941841 0.335787
O O3 0.852066 0.827558 0.244205
O O4 0.869162 0.047590 0.367277
O O5 0.660970 0.180485 0.838065
O O6 0.536039 0.261531 0.948838
O O7 0.410427 0.830773 0.141996
O O8 0.391392 0.060435 0.259396
O O9 0.588244 0.785297 0.572138
O O10 0.508576 0.000000 0.500000
O O11 0.500000 0.746196 0.750000
#
# Coordination Sequence:
#
# PCOD8159794 Si02
#       5
#     8   8   8   8   8
#     4  11  26  41  65  98 135 172 204 278 332 380
#     4  11  24  44  62  97 136 168 214 265 333 382
#     4  11  24  41  71  92 129 171 222 269 318 386
#     4  10  22  42  72  96 121 175 226 265 311 392
#     4  11  22  43  68  97 125 170 223 261 322 394
#
# _framework density 20.777704
#
# number of rings (size 3 to 8) (size 9 to 14) (size 15 to 20)
#    0.000    1.200    2.000    4.200   11.200    1.600 
#    0.000    0.000    0.000    0.000    0.000    0.000 
#    0.000    0.000    0.000    0.000    0.000    0.000 
#
# Total GULP energy -248079.772117 kJ/mol
# GULP energy per Si atom -12403.988606 kJ/mol
# Density = 2.073041 g / cm^3
# Si number density = 20.777704 Si / 1000 Ang^3
#
#
#
# Elastic Constant Matrix: (Units=GPa)
#
#
# Indices 1 2 3 4 5 6 
#
# 1 90.4384 30.3740 24.1288 0.0000 0.0000 0.0000
# 2 30.3740 73.3687 42.3057 0.0000 0.0000 0.0000
# 3 24.1288 42.3057 82.4121 0.0000 0.0000 0.0000
# 4 0.0000 0.0000 0.0000 34.8493 0.0000 0.0000
# 5 0.0000 0.0000 0.0000 0.0000 29.3957 0.0000
# 6 0.0000 0.0000 0.0000 0.0000 0.0000 24.4107
#
#
#
# Elastic Compliance Matrix: (Units=1/GPa)
#
#
# Indices 1 2 3 4 5 6 
#
# 1 0.012969 -0.004516 -0.001479 0.000000 0.000000 0.000000
# 2 -0.004516 0.020933 -0.009424 0.000000 0.000000 0.000000
# 3 -0.001479 -0.009424 0.017405 0.000000 0.000000 0.000000
# 4 0.000000 0.000000 0.000000 0.028695 0.000000 0.000000
# 5 0.000000 0.000000 0.000000 0.000000 0.034019 0.000000
# 6 0.000000 0.000000 0.000000 0.000000 0.000000 0.040966
#
#
# Mechanical properties :
#
#
# Convention : Reuss Voigt Hill
#
# Bulk Modulus (GPa) = 48.85337 48.87070 48.86204
# Shear Modulus (GPa) = 25.95434 27.69186 26.82310
#
# Velocity S-wave (km/s) = 3.53816 3.65467 3.59689
# Velocity P-wave (km/s) = 6.34467 6.43278 6.38888
#
# Compressibility (1/GPa) = 0.02046942
#
# Stress axis : x y z
#
# Youngs Moduli (GPa) = 77.10973 47.77055 57.45593
#
# Poissons Ratio (x) = 0.21575 0.08495
# Poissons Ratio (y) = 0.34825 0.54145
# Poissons Ratio (z) = 0.11401 0.45018
#
# Static dielectric constant tensor:
#      x y z
#    x 3.702580 0.000000 0.000000 
#    y 0.000000 3.689080 0.000000 
#    z 0.000000 0.000000 3.972060 
# 
# 
# High freq. dielectric constant tensor:
#      x y z
#    x 1.813580 0.000000 0.000000 
#    y 0.000000 1.803680 0.000000 
#    z 0.000000 0.000000 1.827150 
# 
# From -- ./inp_files/12693.got.cif
#   From: 2010.03.12/outbox.cif.g09.slc.cpg/sg20_7_cif.got.tgz:12693.got - 2010.04.14 01:38:04.
