data_PCOD8159355
_publ_section_title
;
Structure prediction by ZEFSAII (Michael W. Deem and Ramdas Pophale) SiO2 
 PCOD8159355
Probable space group: C 2 2 21
;
_chemical_formula_sum "Si O2"
_cell_formula_units_Z 64
_cell_length_a 11.844371
_cell_length_b 22.174366
_cell_length_c 12.469540
_cell_angle_alpha 90.000000
_cell_angle_beta 90.000000
_cell_angle_gamma 90.000000
_cell_volume 3275.017662
_symmetry_space_group_name_H-M "C 2 2 21"
_symmetry_group_IT_number 20
_symmetry_cell_setting 'orthorhombic'
loop_
_space_group_symop_operation_xyz
x,y,z
-x,-y,1/2+z
x,-y,-z
-x,y,1/2-z
1/2+x,1/2+y,z
1/2-x,1/2-y,1/2+z
1/2+x,1/2-y,-z
1/2-x,1/2+y,1/2-z
loop_
_atom_site_type_symbol
_atom_site_label
_atom_site_fract_x
_atom_site_fract_y
_atom_site_fract_z
Si Si1 0.097517 0.371935 0.472024
Si Si2 0.242446 0.606888 0.327392
Si Si3 0.621153 0.803006 0.052116
Si Si4 0.294957 0.324786 0.867250
Si Si5 0.209863 0.698635 0.719141
Si Si6 0.453897 0.664044 0.437736
Si Si7 0.233008 0.523282 0.608703
Si Si8 0.403928 0.621643 0.670225
O O1 0.158299 0.362118 0.586828
O O2 0.149330 0.326378 0.386172
O O3 0.118325 0.440428 0.427819
O O4 0.968128 0.353114 0.488262
O O5 0.226242 0.626360 0.203620
O O6 0.369004 0.625995 0.362918
O O7 0.213068 0.535679 0.319832
O O8 0.653725 0.824278 0.171354
O O9 0.573880 0.735087 0.053284
O O10 0.729330 0.807143 0.975182
O O11 0.302249 0.269890 0.783872
O O12 0.420813 0.346415 0.893373
O O13 0.341867 0.680900 0.716759
O O14 0.453178 0.634397 0.554229
O O15 0.293850 0.500000 0.500000
O O16 0.313312 0.568204 0.671570
O O17 0.500000 0.600529 0.750000
#
# Coordination Sequence:
#
# PCOD8159355 Si02
#       8
#     8   8   8   8   8   8   8   8
#     4  10  21  40  69  88 119 173 218 258 311 390
#     4  11  22  42  67  93 123 167 225 264 323 378
#     4  12  24  39  62  95 135 169 211 262 330 393
#     4  12  25  37  60  99 137 166 203 275 328 381
#     4  11  21  39  59  92 130 170 210 251 322 397
#     4  12  22  38  61  98 131 167 209 259 329 395
#     4   9  19  42  67  88 117 167 227 259 304 390
#     4  11  22  38  63  92 126 167 213 262 320 377
#
# _framework density 19.541879000000002
#
# number of rings (size 3 to 8) (size 9 to 14) (size 15 to 20)
#    0.000    1.000    7.500    1.500    0.000    2.500 
#    0.000    0.000   30.250    0.000    0.000    0.000 
#    0.000    0.000    0.000    0.000    0.000    0.000 
#
# Total GULP energy -396668.636672 kJ/mol
# GULP energy per Si atom -12395.894896 kJ/mol
# Density = 1.949740 g / cm^3
# Si number density = 19.541879 Si / 1000 Ang^3
#
#
#
# Elastic Constant Matrix: (Units=GPa)
#
#
# Indices 1 2 3 4 5 6 
#
# 1 83.6385 15.8023 19.2075 0.0000 0.0000 0.0000
# 2 15.8023 86.8207 18.1781 0.0000 0.0000 0.0000
# 3 19.2075 18.1781 84.0397 0.0000 0.0000 0.0000
# 4 0.0000 0.0000 0.0000 25.2979 0.0000 0.0000
# 5 0.0000 0.0000 0.0000 0.0000 30.4694 0.0000
# 6 0.0000 0.0000 0.0000 0.0000 0.0000 19.2744
#
#
#
# Elastic Compliance Matrix: (Units=1/GPa)
#
#
# Indices 1 2 3 4 5 6 
#
# 1 0.012885 -0.001811 -0.002553 0.000000 0.000000 0.000000
# 2 -0.001811 0.012319 -0.002251 0.000000 0.000000 0.000000
# 3 -0.002553 -0.002251 0.012970 0.000000 0.000000 0.000000
# 4 0.000000 0.000000 0.000000 0.039529 0.000000 0.000000
# 5 0.000000 0.000000 0.000000 0.000000 0.032820 0.000000
# 6 0.000000 0.000000 0.000000 0.000000 0.000000 0.051882
#
#
# Mechanical properties :
#
#
# Convention : Reuss Voigt Hill
#
# Bulk Modulus (GPa) = 40.09002 40.09719 40.09361
# Shear Modulus (GPa) = 27.18162 28.42906 27.80534
#
# Velocity S-wave (km/s) = 3.73358 3.81829 3.77617
# Velocity P-wave (km/s) = 6.25665 6.32473 6.29078
#
# Compressibility (1/GPa) = 0.02494387
#
# Stress axis : x y z
#
# Youngs Moduli (GPa) = 77.61183 81.17679 77.10381
#
# Poissons Ratio (x) = 0.14698 0.19686
# Poissons Ratio (y) = 0.14052 0.17354
# Poissons Ratio (z) = 0.19816 0.18271
#
# Static dielectric constant tensor:
#      x y z
#    x 3.602050 0.000000 0.000000 
#    y 0.000000 3.806820 0.000000 
#    z 0.000000 0.000000 3.618520 
# 
# 
# High freq. dielectric constant tensor:
#      x y z
#    x 1.746760 0.000000 0.000000 
#    y 0.000000 1.755620 0.000000 
#    z 0.000000 0.000000 1.768450 
# 
# From -- ./inp_files/14482.got.cif
#   From: 2010.03.12/outbox.cif.g09.slc.cpg/sg20_8_cif.got.tgz:14482.got - 2010.04.14 01:38:04.
