data_PCOD8159193
_publ_section_title
;
Structure prediction by ZEFSAII (Michael W. Deem and Ramdas Pophale) SiO2 
 PCOD8159193
Probable space group: C 2 2 21
;
_chemical_formula_sum "Si O2"
_cell_formula_units_Z 64
_cell_length_a 24.360921
_cell_length_b 8.705131
_cell_length_c 15.154659
_cell_angle_alpha 90.000000
_cell_angle_beta 90.000000
_cell_angle_gamma 90.000000
_cell_volume 3213.772891
_symmetry_space_group_name_H-M "C 2 2 21"
_symmetry_group_IT_number 20
_symmetry_cell_setting 'orthorhombic'
loop_
_space_group_symop_operation_xyz
x,y,z
-x,-y,1/2+z
x,-y,-z
-x,y,1/2-z
1/2+x,1/2+y,z
1/2-x,1/2-y,1/2+z
1/2+x,1/2-y,-z
1/2-x,1/2+y,1/2-z
loop_
_atom_site_type_symbol
_atom_site_label
_atom_site_fract_x
_atom_site_fract_y
_atom_site_fract_z
Si Si1 0.188551 0.935498 0.250000
Si Si2 0.388826 0.432623 0.092832
Si Si3 0.191885 0.573868 0.250000
Si Si4 1.000000 0.562181 0.902013
Si Si5 0.888826 0.932623 0.407168
Si Si6 0.387970 0.068403 0.403486
Si Si7 0.112030 0.431597 0.596514
Si Si8 0.500000 0.407164 0.646787
O O1 0.155483 0.989989 0.336126
O O2 0.195359 0.755076 0.250000
O O3 0.155483 0.989989 0.163874
O O4 0.247562 0.010124 0.250000
O O5 0.392840 0.250209 0.088631
O O6 0.447954 0.495402 0.118477
O O7 0.368948 0.500000 0.000000
O O8 0.160672 0.517160 0.161932
O O9 0.160672 0.517159 0.338068
O O10 0.944036 0.497618 0.858816
O O11 1.000000 0.745912 0.903924
O O12 0.055964 0.497618 0.858816
O O13 1.000000 0.500000 0.000000
O O14 0.892841 0.750209 0.411369
O O15 0.868948 0.000000 0.500000
O O16 0.947954 0.995402 0.381522
O O17 0.375887 0.000000 0.500000
O O18 0.124114 0.500000 0.500000
O O19 0.500000 0.372897 0.750000
#
# Coordination Sequence:
#
# PCOD8159193 Si02
#       8
#     8   8   8   8   8   8   8   8
#     4  10  24  43  60  91 117 162 208 252 309 360
#     4  11  22  42  65  89 126 163 201 254 306 367
#     4  10  24  41  64  83 125 158 204 260 305 358
#     4  10  21  38  59  93 126 156 200 244 297 364
#     4  11  22  42  65  89 126 163 201 254 306 367
#     4  10  22  41  62  92 122 163 205 247 309 367
#     4  10  22  41  62  92 122 163 205 247 309 367
#     4  12  24  38  63  98 127 163 206 248 306 369
#
# _framework density 19.914287999999999
#
# number of rings (size 3 to 8) (size 9 to 14) (size 15 to 20)
#    0.000    1.500    1.250    4.125    1.750    5.000 
#    0.000    5.000    0.000    0.000    0.000    0.000 
#    0.000    0.000    0.000    0.000    0.000    0.000 
#
# Total GULP energy -396850.116657 kJ/mol
# GULP energy per Si atom -12401.566146 kJ/mol
# Density = 1.986896 g / cm^3
# Si number density = 19.914288 Si / 1000 Ang^3
#
#
#
# Elastic Constant Matrix: (Units=GPa)
#
#
# Indices 1 2 3 4 5 6 
#
# 1 197.6180 58.6730 92.4490 0.0000 0.0000 0.0000
# 2 58.6730 97.3784 52.2056 0.0000 0.0000 0.0000
# 3 92.4490 52.2056 158.6195 0.0000 0.0000 0.0000
# 4 0.0000 0.0000 0.0000 27.6414 0.0000 0.0000
# 5 0.0000 0.0000 0.0000 0.0000 -232.2978 0.0000
# 6 0.0000 0.0000 0.0000 0.0000 0.0000 44.7313
#
#
#
# Elastic Compliance Matrix: (Units=1/GPa)
#
#
# Indices 1 2 3 4 5 6 
#
# 1 0.007475 -0.002633 -0.003490 0.000000 0.000000 0.000000
# 2 -0.002633 0.013397 -0.002875 0.000000 0.000000 0.000000
# 3 -0.003490 -0.002875 0.009285 0.000000 0.000000 0.000000
# 4 0.000000 0.000000 0.000000 0.036178 0.000000 0.000000
# 5 0.000000 0.000000 0.000000 0.000000 -0.004305 0.000000
# 6 0.000000 0.000000 0.000000 0.000000 0.000000 0.022356
#
#
# Mechanical properties :
#
#
# Convention : Reuss Voigt Hill
#
# Bulk Modulus (GPa) = 82.22947 95.58568 88.90758
# Shear Modulus (GPa) = 46.97803 -15.29913 15.83945
#
# Velocity S-wave (km/s) = 4.86223 -2.77474 2.82331
# Velocity P-wave (km/s) = 8.53833 6.15119 7.44111
#
# Compressibility (1/GPa) = 0.01216109
#
# Stress axis : x y z
#
# Youngs Moduli (GPa) = 133.78712 74.64567 107.70476
#
# Poissons Ratio (x) = 0.19651 0.37589
# Poissons Ratio (y) = 0.35221 0.30963
# Poissons Ratio (z) = 0.46691 0.21459
#
# Static dielectric constant tensor:
#      x y z
#    x 3.373910 0.000000 0.000000 
#    y 0.000000 3.648820 0.000000 
#    z 0.000000 0.000000 3.955270 
# 
# 
# High freq. dielectric constant tensor:
#      x y z
#    x 1.781570 0.000000 0.000000 
#    y 0.000000 1.784770 0.000000 
#    z 0.000000 0.000000 1.788180 
# 
# From -- ./inp_files/22048.got.cif
#   From: 2010.03.12/outbox.cif.g09.slc.cpg/sg20_12_cif.got.tgz:22048.got - 2010.04.14 01:38:04.
