data_PCOD8159559
_publ_section_title
;
Structure prediction by ZEFSAII (Michael W. Deem and Ramdas Pophale) SiO2 
 PCOD8159559
Probable space group: C 2 2 21
;
_chemical_formula_sum "Si O2"
_cell_formula_units_Z 40
_cell_length_a 20.989145
_cell_length_b 9.216051
_cell_length_c 10.462087
_cell_angle_alpha 90.000000
_cell_angle_beta 90.000000
_cell_angle_gamma 90.000000
_cell_volume 2023.755045
_symmetry_space_group_name_H-M "C 2 2 21"
_symmetry_group_IT_number 20
_symmetry_cell_setting 'orthorhombic'
loop_
_space_group_symop_operation_xyz
x,y,z
-x,-y,1/2+z
x,-y,-z
-x,y,1/2-z
1/2+x,1/2+y,z
1/2-x,1/2-y,1/2+z
1/2+x,1/2-y,-z
1/2-x,1/2+y,1/2-z
loop_
_atom_site_type_symbol
_atom_site_label
_atom_site_fract_x
_atom_site_fract_y
_atom_site_fract_z
Si Si1 0.961329 0.500000 0.000000
Si Si2 0.926134 0.336288 0.624742
Si Si3 0.747749 0.000000 0.500000
Si Si4 0.650248 0.710194 0.097334
Si Si5 0.359585 0.937573 0.192643
Si Si6 0.044131 0.985497 0.140421
O O1 0.915346 0.400090 0.089327
O O2 0.004812 0.595934 0.093722
O O3 0.887297 0.322586 0.492901
O O4 0.885020 0.429281 0.722801
O O5 0.938855 0.177663 0.682301
O O6 0.787729 0.852426 0.525869
O O7 0.705330 0.983196 0.374633
O O8 0.661975 0.797940 0.226905
O O9 0.609900 0.570127 0.134826
O O10 0.000000 0.055285 0.250000
O O11 0.010836 0.000000 0.000000
#
# Coordination Sequence:
#
# PCOD8159559 Si02
#       6
#     4   8   4   8   8   8
#     4  11  22  38  66 104 126 157 216 264 324 393
#     4  11  21  40  64  93 130 163 204 261 331 377
#     4  11  26  46  62  94 128 169 232 258 314 397
#     4  11  23  42  64  89 127 174 207 264 319 382
#     4  11  25  40  69  91 127 170 216 268 314 386
#     4  10  22  37  63  94 133 165 205 263 333 394
#
# _framework density 19.765238
#
# number of rings (size 3 to 8) (size 9 to 14) (size 15 to 20)
#    0.000    1.200    5.000    1.800    8.400    0.000 
#    0.000    0.000    0.000    0.000    0.000    0.000 
#    0.000    0.000    0.000    0.000    0.000    0.000 
#
# Total GULP energy -247955.628963 kJ/mol
# GULP energy per Si atom -12397.781448 kJ/mol
# Density = 1.972025 g / cm^3
# Si number density = 19.765238 Si / 1000 Ang^3
#
#
#
# Elastic Constant Matrix: (Units=GPa)
#
#
# Indices 1 2 3 4 5 6 
#
# 1 113.7049 39.5298 49.7755 0.0000 0.0000 0.0000
# 2 39.5298 86.7091 43.7485 0.0000 0.0000 0.0000
# 3 49.7755 43.7485 99.1998 0.0000 0.0000 0.0000
# 4 0.0000 0.0000 0.0000 35.2667 0.0000 0.0000
# 5 0.0000 0.0000 0.0000 0.0000 43.9440 0.0000
# 6 0.0000 0.0000 0.0000 0.0000 0.0000 10.1333
#
#
#
# Elastic Compliance Matrix: (Units=1/GPa)
#
#
# Indices 1 2 3 4 5 6 
#
# 1 0.011884 -0.003099 -0.004597 0.000000 0.000000 0.000000
# 2 -0.003099 0.015641 -0.005343 0.000000 0.000000 0.000000
# 3 -0.004597 -0.005343 0.014744 0.000000 0.000000 0.000000
# 4 0.000000 0.000000 0.000000 0.028355 0.000000 0.000000
# 5 0.000000 0.000000 0.000000 0.000000 0.022756 0.000000
# 6 0.000000 0.000000 0.000000 0.000000 0.000000 0.098684
#
#
# Mechanical properties :
#
#
# Convention : Reuss Voigt Hill
#
# Bulk Modulus (GPa) = 61.75856 62.85793 62.30824
# Shear Modulus (GPa) = 22.36742 28.97279 25.67011
#
# Velocity S-wave (km/s) = 3.36766 3.83279 3.60773
# Velocity P-wave (km/s) = 6.81435 7.17345 6.99620
#
# Compressibility (1/GPa) = 0.01619209
#
# Stress axis : x y z
#
# Youngs Moduli (GPa) = 84.14574 63.93300 67.82642
#
# Poissons Ratio (x) = 0.19811 0.31177
# Poissons Ratio (y) = 0.26074 0.36241
# Poissons Ratio (z) = 0.38678 0.34161
#
# Static dielectric constant tensor:
#      x y z
#    x 3.580010 0.000000 0.000000 
#    y 0.000000 3.514950 0.000000 
#    z 0.000000 0.000000 4.034810 
# 
# 
# High freq. dielectric constant tensor:
#      x y z
#    x 1.765260 0.000000 0.000000 
#    y 0.000000 1.766380 0.000000 
#    z 0.000000 0.000000 1.784360 
# 
# From -- ./inp_files/12776.got.cif
#   From: 2010.03.12/outbox.cif.g09.slc.cpg/sg20_7_cif.got.tgz:12776.got - 2010.04.14 01:38:04.
