data_PCOD8159924
_publ_section_title
;
Structure prediction by ZEFSAII (Michael W. Deem and Ramdas Pophale) SiO2 
 PCOD8159924
Probable space group: C 2 2 21
;
_chemical_formula_sum "Si O2"
_cell_formula_units_Z 44
_cell_length_a 19.813215
_cell_length_b 8.213213
_cell_length_c 13.090242
_cell_angle_alpha 90.000000
_cell_angle_beta 90.000000
_cell_angle_gamma 90.000000
_cell_volume 2130.177110
_symmetry_space_group_name_H-M "C 2 2 21"
_symmetry_group_IT_number 20
_symmetry_cell_setting 'orthorhombic'
loop_
_space_group_symop_operation_xyz
x,y,z
-x,-y,1/2+z
x,-y,-z
-x,y,1/2-z
1/2+x,1/2+y,z
1/2-x,1/2-y,1/2+z
1/2+x,1/2-y,-z
1/2-x,1/2+y,1/2-z
loop_
_atom_site_type_symbol
_atom_site_label
_atom_site_fract_x
_atom_site_fract_y
_atom_site_fract_z
Si Si1 0.375121 0.599884 0.713060
Si Si2 0.500000 0.401604 0.750000
Si Si3 0.038060 0.187184 0.462985
Si Si4 0.667591 0.657600 0.563932
Si Si5 0.708086 0.619984 0.084306
Si Si6 0.400360 0.182828 0.469457
O O1 0.445326 0.510035 0.690043
O O2 0.373323 0.621098 0.833461
O O3 0.311083 0.485699 0.683742
O O4 0.376534 0.767486 0.645876
O O5 0.467159 0.292304 0.839920
O O6 0.112557 0.255404 0.494966
O O7 0.980351 0.292366 0.517867
O O8 0.035620 0.000000 0.500000
O O9 0.692344 0.500000 0.500000
O O10 0.733132 0.751853 0.603647
O O11 0.738091 0.500000 0.000000
O O12 0.638366 0.700336 0.047687
O O13 0.380437 0.000000 0.500000
#
# Coordination Sequence:
#
# PCOD8159924 Si02
#       6
#     8   4   8   8   8   8
#     4  11  21  39  67  91 123 174 222 261 331 403
#     4  12  18  40  70  94 118 166 228 264 326 408
#     4  11  20  38  66  92 123 166 218 269 323 394
#     4  11  23  39  64  97 124 167 220 282 322 388
#     4  10  23  41  60  86 127 173 213 260 328 396
#     4  11  22  39  62  92 126 167 212 266 321 385
#
# _framework density 20.655560000000001
#
# number of rings (size 3 to 8) (size 9 to 14) (size 15 to 20)
#    0.000    1.091    7.273    1.091    0.000    5.091 
#    0.000    4.545    0.000    0.000    0.000    0.000 
#    0.000    0.000    0.000    0.000    0.000    0.000 
#
# Total GULP energy -272671.895144 kJ/mol
# GULP energy per Si atom -12394.177052 kJ/mol
# Density = 2.060855 g / cm^3
# Si number density = 20.655560 Si / 1000 Ang^3
#
#
#
# Elastic Constant Matrix: (Units=GPa)
#
#
# Indices 1 2 3 4 5 6 
#
# 1 114.0785 23.8331 27.2286 0.0000 0.0000 0.0000
# 2 23.8331 70.9859 30.8064 0.0000 0.0000 0.0000
# 3 27.2286 30.8064 129.2789 0.0000 0.0000 0.0000
# 4 0.0000 0.0000 0.0000 20.2465 0.0000 0.0000
# 5 0.0000 0.0000 0.0000 0.0000 16.1724 0.0000
# 6 0.0000 0.0000 0.0000 0.0000 0.0000 17.9489
#
#
#
# Elastic Compliance Matrix: (Units=1/GPa)
#
#
# Indices 1 2 3 4 5 6 
#
# 1 0.009651 -0.002630 -0.001406 0.000000 0.000000 0.000000
# 2 -0.002630 0.016429 -0.003361 0.000000 0.000000 0.000000
# 3 -0.001406 -0.003361 0.008832 0.000000 0.000000 0.000000
# 4 0.000000 0.000000 0.000000 0.049391 0.000000 0.000000
# 5 0.000000 0.000000 0.000000 0.000000 0.061834 0.000000
# 6 0.000000 0.000000 0.000000 0.000000 0.000000 0.055714
#
#
# Mechanical properties :
#
#
# Convention : Reuss Voigt Hill
#
# Bulk Modulus (GPa) = 49.70648 53.11994 51.41321
# Shear Modulus (GPa) = 22.38631 26.37191 24.37911
#
# Velocity S-wave (km/s) = 3.29567 3.57704 3.43923
# Velocity P-wave (km/s) = 6.21278 6.54470 6.38090
#
# Compressibility (1/GPa) = 0.02011810
#
# Stress axis : x y z
#
# Youngs Moduli (GPa) = 103.61678 60.86823 113.22168
#
# Poissons Ratio (x) = 0.16009 0.15918
# Poissons Ratio (y) = 0.27252 0.38053
# Poissons Ratio (z) = 0.14568 0.20458
#
# Static dielectric constant tensor:
#      x y z
#    x 3.809450 0.000000 0.000000 
#    y 0.000000 3.588700 0.000000 
#    z 0.000000 0.000000 3.666990 
# 
# 
# High freq. dielectric constant tensor:
#      x y z
#    x 1.819110 0.000000 0.000000 
#    y 0.000000 1.768240 0.000000 
#    z 0.000000 0.000000 1.813590 
# 
# From -- ./inp_files/21203.got.cif
#   From: 2010.03.12/outbox.cif.g09.slc.cpg/sg20_11_cif.got.tgz:21203.got - 2010.04.14 01:38:04.
