data_PCOD8159540
_publ_section_title
;
Structure prediction by ZEFSAII (Michael W. Deem and Ramdas Pophale) SiO2 
 PCOD8159540
Probable space group: C 2 2 21
;
_chemical_formula_sum "Si O2"
_cell_formula_units_Z 28
_cell_length_a 12.079313
_cell_length_b 8.786009
_cell_length_c 13.524386
_cell_angle_alpha 90.000000
_cell_angle_beta 90.000000
_cell_angle_gamma 90.000000
_cell_volume 1435.328923
_symmetry_space_group_name_H-M "C 2 2 21"
_symmetry_group_IT_number 20
_symmetry_cell_setting 'orthorhombic'
loop_
_space_group_symop_operation_xyz
x,y,z
-x,-y,1/2+z
x,-y,-z
-x,y,1/2-z
1/2+x,1/2+y,z
1/2-x,1/2-y,1/2+z
1/2+x,1/2-y,-z
1/2-x,1/2+y,1/2-z
loop_
_atom_site_type_symbol
_atom_site_label
_atom_site_fract_x
_atom_site_fract_y
_atom_site_fract_z
Si Si1 0.617079 0.178670 0.606946
Si Si2 0.500000 0.405168 0.750000
Si Si3 0.069586 0.333912 0.614881
Si Si4 0.140805 0.818874 0.194699
O O1 0.542962 0.303397 0.660381
O O2 0.617841 0.215118 0.490675
O O3 0.742169 0.183529 0.643168
O O4 0.564552 0.014844 0.628382
O O5 0.400537 0.507994 0.707390
O O6 0.148802 0.259633 0.697607
O O7 0.944674 0.273810 0.626392
#
# Coordination Sequence:
#
# PCOD8159540 Si02
#       4
#     8   4   8   8
#     4  11  21  38  62  82 112 155 187 230 284 330
#     4  10  22  36  60  88 110 148 194 226 278 344
#     4   9  22  39  56  85 116 146 191 231 277 342
#     4  10  22  40  56  83 121 145 183 242 278 327
#
# _framework density 19.507722000000001
#
# number of rings (size 3 to 8) (size 9 to 14) (size 15 to 20)
#    0.000    2.286    0.000    3.429    0.000   11.429 
#    0.000    8.571    0.000    0.000    0.000    0.000 
#    0.000    0.000    0.000    0.000    0.000    0.000 
#
# Total GULP energy -173634.633310 kJ/mol
# GULP energy per Si atom -12402.473808 kJ/mol
# Density = 1.946332 g / cm^3
# Si number density = 19.507722 Si / 1000 Ang^3
#
#
#
# Elastic Constant Matrix: (Units=GPa)
#
#
# Indices 1 2 3 4 5 6 
#
# 1 61.1776 53.2416 74.7385 0.0000 0.0000 0.0000
# 2 53.2416 136.2605 85.8044 0.0000 0.0000 0.0000
# 3 74.7385 85.8044 169.7915 0.0000 0.0000 0.0000
# 4 0.0000 0.0000 0.0000 98.0056 0.0000 0.0000
# 5 0.0000 0.0000 0.0000 0.0000 28.0308 0.0000
# 6 0.0000 0.0000 0.0000 0.0000 0.0000 33.4810
#
#
#
# Elastic Compliance Matrix: (Units=1/GPa)
#
#
# Indices 1 2 3 4 5 6 
#
# 1 0.038907 -0.006480 -0.013851 0.000000 0.000000 0.000000
# 2 -0.006480 0.011844 -0.003133 0.000000 0.000000 0.000000
# 3 -0.013851 -0.003133 0.013570 0.000000 0.000000 0.000000
# 4 0.000000 0.000000 0.000000 0.010204 0.000000 0.000000
# 5 0.000000 0.000000 0.000000 0.000000 0.035675 0.000000
# 6 0.000000 0.000000 0.000000 0.000000 0.000000 0.029868
#
#
# Mechanical properties :
#
#
# Convention : Reuss Voigt Hill
#
# Bulk Modulus (GPa) = 57.49748 88.31097 72.90422
# Shear Modulus (GPa) = 25.93469 42.13314 34.03392
#
# Velocity S-wave (km/s) = 3.65013 4.65243 4.18142
# Velocity P-wave (km/s) = 6.87770 8.61557 7.79522
#
# Compressibility (1/GPa) = 0.01739207
#
# Stress axis : x y z
#
# Youngs Moduli (GPa) = 25.70245 84.43382 73.69297
#
# Poissons Ratio (x) = 0.54712 1.02074
# Poissons Ratio (y) = 0.16655 0.23087
# Poissons Ratio (z) = 0.35601 0.26452
#
# Static dielectric constant tensor:
#      x y z
#    x 3.383110 0.000000 0.000000 
#    y 0.000000 3.780160 0.000000 
#    z 0.000000 0.000000 3.296170 
# 
# 
# High freq. dielectric constant tensor:
#      x y z
#    x 1.752930 0.000000 0.000000 
#    y 0.000000 1.776050 0.000000 
#    z 0.000000 0.000000 1.769280 
# 
# From -- ./inp_files/18099.got.cif
#   From: 2010.03.12/outbox.cif.g09.slc.cpg/sg20_10_cif.got.tgz:18099.got - 2010.04.14 01:38:04.
