data_PCOD8159601
_publ_section_title
;
Structure prediction by ZEFSAII (Michael W. Deem and Ramdas Pophale) SiO2 
 PCOD8159601
Probable space group: C 2 2 21
;
_chemical_formula_sum "Si O2"
_cell_formula_units_Z 60
_cell_length_a 26.574708
_cell_length_b 9.175309
_cell_length_c 11.667511
_cell_angle_alpha 90.000000
_cell_angle_beta 90.000000
_cell_angle_gamma 90.000000
_cell_volume 2844.902712
_symmetry_space_group_name_H-M "C 2 2 21"
_symmetry_group_IT_number 20
_symmetry_cell_setting 'orthorhombic'
loop_
_space_group_symop_operation_xyz
x,y,z
-x,-y,1/2+z
x,-y,-z
-x,y,1/2-z
1/2+x,1/2+y,z
1/2-x,1/2-y,1/2+z
1/2+x,1/2-y,-z
1/2-x,1/2+y,1/2-z
loop_
_atom_site_type_symbol
_atom_site_label
_atom_site_fract_x
_atom_site_fract_y
_atom_site_fract_z
Si Si1 0.242009 0.651584 0.937550
Si Si2 0.147492 0.331717 0.224067
Si Si3 0.120427 0.598550 0.113450
Si Si4 0.226000 0.611317 0.594101
Si Si5 0.186937 0.163116 0.763862
Si Si6 0.095081 0.959990 0.729899
Si Si7 0.038634 0.000000 0.500000
Si Si8 0.469110 0.685808 0.642885
O O1 0.187360 0.660651 0.879759
O O2 0.285087 0.715582 0.851703
O O3 0.254029 0.500000 0.000000
O O4 0.242049 0.758585 0.043007
O O5 0.113694 0.478555 0.214438
O O6 0.176198 0.330347 0.344433
O O7 0.111042 0.193432 0.214834
O O8 0.166506 0.703856 0.155432
O O9 0.070304 0.694579 0.097120
O O10 0.131777 0.500000 0.000000
O O11 0.207261 0.500000 0.500000
O O12 0.270518 0.554887 0.679031
O O13 0.142252 0.064748 0.719608
O O14 0.072392 0.939236 0.603665
O O15 0.055935 0.034008 0.816518
O O16 0.005819 0.860311 0.460287
O O17 0.500000 0.753789 0.750000
#
# Coordination Sequence:
#
# PCOD8159601 Si02
#       8
#     8   8   8   8   8   8   4   8
#     4  11  22  38  62  86 136 176 218 255 302 358
#     4  11  23  38  57 100 128 166 212 260 311 371
#     4  11  23  41  64  92 130 166 204 262 329 391
#     4  11  22  36  55  87 134 170 210 253 297 358
#     4  10  22  39  61  91 127 176 221 256 297 369
#     4  10  22  40  69  91 122 159 216 266 309 388
#     4  10  22  44  72  94 112 154 218 268 330 384
#     4   9  22  46  66  91 122 155 205 274 325 389
#
# _framework density 21.090353
#
# number of rings (size 3 to 8) (size 9 to 14) (size 15 to 20)
#    0.000    1.600    0.000    4.400    4.667    4.267 
#    7.200    0.000    0.000    0.000    0.000    0.000 
#    0.000    0.000    0.000    0.000    0.000    0.000 
#
# Total GULP energy -371685.286486 kJ/mol
# GULP energy per Si atom -12389.509550 kJ/mol
# Density = 2.104235 g / cm^3
# Si number density = 21.090353 Si / 1000 Ang^3
#
#
#
# Elastic Constant Matrix: (Units=GPa)
#
#
# Indices 1 2 3 4 5 6 
#
# 1 87.4609 42.1871 38.1993 0.0000 0.0000 0.0000
# 2 42.1871 113.8992 43.4211 0.0000 0.0000 0.0000
# 3 38.1993 43.4211 99.2074 0.0000 0.0000 0.0000
# 4 0.0000 0.0000 0.0000 35.8118 0.0000 0.0000
# 5 0.0000 0.0000 0.0000 0.0000 27.8221 0.0000
# 6 0.0000 0.0000 0.0000 0.0000 0.0000 29.1753
#
#
#
# Elastic Compliance Matrix: (Units=1/GPa)
#
#
# Indices 1 2 3 4 5 6 
#
# 1 0.015171 -0.004072 -0.004059 0.000000 0.000000 0.000000
# 2 -0.004072 0.011631 -0.003523 0.000000 0.000000 0.000000
# 3 -0.004059 -0.003523 0.013185 0.000000 0.000000 0.000000
# 4 0.000000 0.000000 0.000000 0.027924 0.000000 0.000000
# 5 0.000000 0.000000 0.000000 0.000000 0.035943 0.000000
# 6 0.000000 0.000000 0.000000 0.000000 0.000000 0.034276
#
#
# Mechanical properties :
#
#
# Convention : Reuss Voigt Hill
#
# Bulk Modulus (GPa) = 59.95656 60.90918 60.43287
# Shear Modulus (GPa) = 29.94104 30.34584 30.14344
#
# Velocity S-wave (km/s) = 3.77192 3.79733 3.78465
# Velocity P-wave (km/s) = 6.88912 6.94040 6.91481
#
# Compressibility (1/GPa) = 0.01667874
#
# Stress axis : x y z
#
# Youngs Moduli (GPa) = 65.91724 85.97923 75.84504
#
# Poissons Ratio (x) = 0.35006 0.30788
# Poissons Ratio (y) = 0.26838 0.26719
# Poissons Ratio (z) = 0.26758 0.30289
#
# Static dielectric constant tensor:
#      x y z
#    x 3.842550 0.000000 0.000000 
#    y 0.000000 3.787140 0.000000 
#    z 0.000000 0.000000 3.964440 
# 
# 
# High freq. dielectric constant tensor:
#      x y z
#    x 1.825260 0.000000 0.000000 
#    y 0.000000 1.817920 0.000000 
#    z 0.000000 0.000000 1.837810 
# 
# From -- ./inp_files/17082.got.cif
#   From: 2010.03.12/outbox.cif.g09.slc.cpg/sg20_9_cif.got.tgz:17082.got - 2010.04.14 01:38:04.
