data_PCOD8159703
_publ_section_title
;
Structure prediction by ZEFSAII (Michael W. Deem and Ramdas Pophale) SiO2 
 PCOD8159703
Probable space group: C 2 2 21
;
_chemical_formula_sum "Si O2"
_cell_formula_units_Z 36
_cell_length_a 8.261022
_cell_length_b 19.892362
_cell_length_c 10.225950
_cell_angle_alpha 90.000000
_cell_angle_beta 90.000000
_cell_angle_gamma 90.000000
_cell_volume 1680.443045
_symmetry_space_group_name_H-M "C 2 2 21"
_symmetry_group_IT_number 20
_symmetry_cell_setting 'orthorhombic'
loop_
_space_group_symop_operation_xyz
x,y,z
-x,-y,1/2+z
x,-y,-z
-x,y,1/2-z
1/2+x,1/2+y,z
1/2-x,1/2-y,1/2+z
1/2+x,1/2-y,-z
1/2-x,1/2+y,1/2-z
loop_
_atom_site_type_symbol
_atom_site_label
_atom_site_fract_x
_atom_site_fract_y
_atom_site_fract_z
Si Si1 0.384733 0.896783 0.627060
Si Si2 0.160844 0.000000 0.500000
Si Si3 0.397869 0.701830 0.123175
Si Si4 0.406793 0.859621 0.117210
Si Si5 0.955871 0.118637 0.607969
O O1 0.500000 0.909190 0.750000
O O2 0.267952 0.960684 0.607212
O O3 0.279228 0.829500 0.644620
O O4 0.487976 0.889231 0.497698
O O5 0.048663 0.950717 0.416390
O O6 0.500000 0.683081 0.250000
O O7 0.376451 0.780587 0.103833
O O8 0.490350 0.673788 0.997189
O O9 0.500000 0.877726 0.250000
O O10 0.234835 0.896253 0.106431
O O11 0.000000 0.148049 0.750000
#
# Coordination Sequence:
#
# PCOD8159703 Si02
#       5
#     8   4   8   8   8
#     4  11  24  42  66  93 123 164 212 257 302 363
#     4  10  26  44  60  88 126 166 212 258 308 360
#     4  10  22  41  64  95 130 161 197 249 317 379
#     4  11  23  40  65  96 127 159 202 255 311 372
#     4  11  24  42  64  89 124 166 206 254 311 365
#
# _framework density 21.422922
#
# number of rings (size 3 to 8) (size 9 to 14) (size 15 to 20)
#    0.000    1.333    0.000    5.333    0.000   16.000 
#    0.000    0.000    0.000    0.000    0.000    0.000 
#    0.000    0.000    0.000    0.000    0.000    0.000 
#
# Total GULP energy -223306.083752 kJ/mol
# GULP energy per Si atom -12405.893542 kJ/mol
# Density = 2.137416 g / cm^3
# Si number density = 21.422922 Si / 1000 Ang^3
#
#
#
# Elastic Constant Matrix: (Units=GPa)
#
#
# Indices 1 2 3 4 5 6 
#
# 1 184.7942 60.2813 79.5566 0.0000 0.0000 0.0000
# 2 60.2813 82.6254 58.5767 0.0000 0.0000 0.0000
# 3 79.5566 58.5767 183.0003 0.0000 0.0000 0.0000
# 4 0.0000 0.0000 0.0000 8.8853 0.0000 0.0000
# 5 0.0000 0.0000 0.0000 0.0000 50.3789 0.0000
# 6 0.0000 0.0000 0.0000 0.0000 0.0000 31.5166
#
#
#
# Elastic Compliance Matrix: (Units=1/GPa)
#
#
# Indices 1 2 3 4 5 6 
#
# 1 0.007620 -0.004153 -0.001983 0.000000 0.000000 0.000000
# 2 -0.004153 0.017919 -0.003930 0.000000 0.000000 0.000000
# 3 -0.001983 -0.003930 0.007585 0.000000 0.000000 0.000000
# 4 0.000000 0.000000 0.000000 0.112545 0.000000 0.000000
# 5 0.000000 0.000000 0.000000 0.000000 0.019850 0.000000
# 6 0.000000 0.000000 0.000000 0.000000 0.000000 0.031729
#
#
# Mechanical properties :
#
#
# Convention : Reuss Voigt Hill
#
# Bulk Modulus (GPa) = 76.97988 94.13877 85.55932
# Shear Modulus (GPa) = 22.55181 34.95652 28.75417
#
# Velocity S-wave (km/s) = 3.24805 4.04386 3.66760
# Velocity P-wave (km/s) = 7.07657 8.11431 7.61314
#
# Compressibility (1/GPa) = 0.01299041
#
# Stress axis : x y z
#
# Youngs Moduli (GPa) = 131.23146 55.80575 131.84482
#
# Poissons Ratio (x) = 0.23178 0.26148
# Poissons Ratio (y) = 0.54506 0.51817
# Poissons Ratio (z) = 0.26027 0.21933
#
# Static dielectric constant tensor:
#      x y z
#    x 4.096990 0.000000 0.000000 
#    y 0.000000 3.804350 0.000000 
#    z 0.000000 0.000000 3.926570 
# 
# 
# High freq. dielectric constant tensor:
#      x y z
#    x 1.862390 0.000000 0.000000 
#    y 0.000000 1.838650 0.000000 
#    z 0.000000 0.000000 1.854140 
# 
# From -- ./inp_files/5896.got.cif
#   From: 2010.03.12/outbox.cif.g09.slc.cpg/sg20_3_cif.got.tgz:5896.got - 2010.04.14 01:38:04.
