data_PCOD8159765
_publ_section_title
;
Structure prediction by ZEFSAII (Michael W. Deem and Ramdas Pophale) SiO2 
 PCOD8159765
Probable space group: C 2 2 21
;
_chemical_formula_sum "Si O2"
_cell_formula_units_Z 56
_cell_length_a 9.342496
_cell_length_b 13.998299
_cell_length_c 20.139842
_cell_angle_alpha 90.000000
_cell_angle_beta 90.000000
_cell_angle_gamma 90.000000
_cell_volume 2633.869453
_symmetry_space_group_name_H-M "C 2 2 21"
_symmetry_group_IT_number 20
_symmetry_cell_setting 'orthorhombic'
loop_
_space_group_symop_operation_xyz
x,y,z
-x,-y,1/2+z
x,-y,-z
-x,y,1/2-z
1/2+x,1/2+y,z
1/2-x,1/2-y,1/2+z
1/2+x,1/2-y,-z
1/2-x,1/2+y,1/2-z
loop_
_atom_site_type_symbol
_atom_site_label
_atom_site_fract_x
_atom_site_fract_y
_atom_site_fract_z
Si Si1 0.835799 0.856700 0.374872
Si Si2 0.045363 0.937706 0.890022
Si Si3 0.719033 0.326464 0.788883
Si Si4 0.720666 0.890709 0.509443
Si Si5 0.745257 0.935033 0.840809
Si Si6 0.981949 0.330008 0.880366
Si Si7 0.335826 0.883338 0.259934
O O1 0.735496 0.836751 0.439048
O O2 0.739428 0.873968 0.310878
O O3 0.947286 0.771646 0.365503
O O4 0.924561 0.950551 0.391221
O O5 0.095706 0.891458 0.820711
O O6 0.127036 0.887013 0.951209
O O7 0.873814 0.928109 0.894172
O O8 0.732535 0.349279 0.711452
O O9 0.870172 0.351737 0.822073
O O10 0.676361 0.216176 0.799244
O O11 0.599142 0.832938 0.549252
O O12 0.670450 0.000000 0.500000
O O13 0.598663 0.914933 0.880038
O O14 0.743237 0.036705 0.803715
O O15 0.500000 0.913064 0.250000
#
# Coordination Sequence:
#
# PCOD8159765 Si02
#       7
#     8   8   8   8   8   8   8
#     4  11  23  43  68  91 133 172 220 266 325 388
#     4  10  22  42  66  92 127 176 210 266 323 392
#     4  11  22  40  62  94 136 168 210 261 335 389
#     4   9  23  46  66  86 128 179 222 264 326 380
#     4  12  23  37  66 100 130 162 216 268 329 386
#     4  11  24  42  66  97 128 172 217 276 319 388
#     4  12  25  38  64 102 134 168 217 270 331 399
#
# _framework density 21.261495
#
# number of rings (size 3 to 8) (size 9 to 14) (size 15 to 20)
#    0.000    1.143    2.857    3.429    4.000    2.286 
#    2.571    3.571    0.000    0.000    0.000    0.000 
#    0.000    0.000    0.000    0.000    0.000    0.000 
#
# Total GULP energy -347306.569503 kJ/mol
# GULP energy per Si atom -12403.806054 kJ/mol
# Density = 2.121310 g / cm^3
# Si number density = 21.261495 Si / 1000 Ang^3
#
#
#
# Elastic Constant Matrix: (Units=GPa)
#
#
# Indices 1 2 3 4 5 6 
#
# 1 136.1996 26.1166 40.2428 0.0000 0.0000 0.0000
# 2 26.1166 82.7506 11.6707 0.0000 0.0000 0.0000
# 3 40.2428 11.6707 79.5223 0.0000 0.0000 0.0000
# 4 0.0000 0.0000 0.0000 23.2963 0.0000 0.0000
# 5 0.0000 0.0000 0.0000 0.0000 25.3198 0.0000
# 6 0.0000 0.0000 0.0000 0.0000 0.0000 28.7644
#
#
#
# Elastic Compliance Matrix: (Units=1/GPa)
#
#
# Indices 1 2 3 4 5 6 
#
# 1 0.009026 -0.002251 -0.004237 0.000000 0.000000 0.000000
# 2 -0.002251 0.012901 -0.000754 0.000000 0.000000 0.000000
# 3 -0.004237 -0.000754 0.014830 0.000000 0.000000 0.000000
# 4 0.000000 0.000000 0.000000 0.042925 0.000000 0.000000
# 5 0.000000 0.000000 0.000000 0.000000 0.039495 0.000000
# 6 0.000000 0.000000 0.000000 0.000000 0.000000 0.034765
#
#
# Mechanical properties :
#
#
# Convention : Reuss Voigt Hill
#
# Bulk Modulus (GPa) = 44.89898 50.50361 47.70129
# Shear Modulus (GPa) = 28.43310 30.17225 29.30268
#
# Velocity S-wave (km/s) = 3.66089 3.77119 3.71644
# Velocity P-wave (km/s) = 6.24762 6.53969 6.39533
#
# Compressibility (1/GPa) = 0.02227222
#
# Stress axis : x y z
#
# Youngs Moduli (GPa) = 110.79402 77.51152 67.43067
#
# Poissons Ratio (x) = 0.17448 0.28572
# Poissons Ratio (y) = 0.24940 0.05086
# Poissons Ratio (z) = 0.46946 0.05846
#
# Static dielectric constant tensor:
#      x y z
#    x 3.930350 0.000000 0.000000 
#    y 0.000000 3.878910 0.000000 
#    z 0.000000 0.000000 3.870920 
# 
# 
# High freq. dielectric constant tensor:
#      x y z
#    x 1.838180 0.000000 0.000000 
#    y 0.000000 1.837530 0.000000 
#    z 0.000000 0.000000 1.823950 
# 
# From -- ./inp_files/26715.got.cif
#   From: 2010.03.12/outbox.cif.g09.slc.cpg/sg20_14_cif.got.tgz:26715.got - 2010.04.14 01:38:04.
