data_PCOD8159292
_publ_section_title
;
Structure prediction by ZEFSAII (Michael W. Deem and Ramdas Pophale) SiO2 
 PCOD8159292
Probable space group: C 2 2 21
;
_chemical_formula_sum "Si O2"
_cell_formula_units_Z 44
_cell_length_a 5.206597
_cell_length_b 12.982934
_cell_length_c 32.328452
_cell_angle_alpha 90.000000
_cell_angle_beta 90.000000
_cell_angle_gamma 90.000000
_cell_volume 2185.303306
_symmetry_space_group_name_H-M "C 2 2 21"
_symmetry_group_IT_number 20
_symmetry_cell_setting 'orthorhombic'
loop_
_space_group_symop_operation_xyz
x,y,z
-x,-y,1/2+z
x,-y,-z
-x,y,1/2-z
1/2+x,1/2+y,z
1/2-x,1/2-y,1/2+z
1/2+x,1/2-y,-z
1/2-x,1/2+y,1/2-z
loop_
_atom_site_type_symbol
_atom_site_label
_atom_site_fract_x
_atom_site_fract_y
_atom_site_fract_z
Si Si1 0.902876 0.744560 0.645984
Si Si2 0.373082 0.617150 0.512673
Si Si3 0.879307 0.666984 0.317395
Si Si4 0.000000 0.192328 0.750000
Si Si5 0.873022 0.703928 0.550988
Si Si6 0.875447 0.430636 0.294485
O O1 0.661585 0.801758 0.666839
O O2 0.832599 0.723012 0.599040
O O3 0.988686 0.638017 0.668261
O O4 0.155454 0.816697 0.648809
O O5 0.337297 0.500000 0.500000
O O6 0.644098 0.630565 0.535558
O O7 0.360348 0.686073 0.471539
O O8 0.143589 0.648120 0.543432
O O9 0.809119 0.730051 0.275196
O O10 0.881034 0.547323 0.307353
O O11 0.094949 0.116955 0.713417
O O12 0.000000 0.410292 0.250000
#
# Coordination Sequence:
#
# PCOD8159292 Si02
#       6
#     8   8   8   4   8   8
#     4  11  25  41  59  91 124 156 201 256 302 357
#     4  10  21  39  67  91 121 162 198 240 302 370
#     4  11  24  38  60  84 114 159 200 247 300 356
#     4  10  22  38  58  80 114 148 206 248 298 352
#     4  10  22  40  61  92 126 155 199 248 298 364
#     4  11  23  38  61  82 116 158 203 250 305 352
#
# _framework density 20.134502999999999
#
# number of rings (size 3 to 8) (size 9 to 14) (size 15 to 20)
#    0.000    1.455    2.727    1.636    2.545    2.909 
#    0.000    0.000    0.000    0.000    0.000    0.000 
#    0.000    0.000    0.000    0.000    0.000    0.000 
#
# Total GULP energy -272675.832566 kJ/mol
# GULP energy per Si atom -12394.356026 kJ/mol
# Density = 2.008868 g / cm^3
# Si number density = 20.134503 Si / 1000 Ang^3
#
#
#
# Elastic Constant Matrix: (Units=GPa)
#
#
# Indices 1 2 3 4 5 6 
#
# 1 94.5023 41.0005 16.2492 0.0000 0.0000 0.0000
# 2 41.0005 150.9561 55.0832 0.0000 0.0000 0.0000
# 3 16.2492 55.0832 117.1163 0.0000 0.0000 0.0000
# 4 0.0000 0.0000 0.0000 15.5095 0.0000 0.0000
# 5 0.0000 0.0000 0.0000 0.0000 24.0469 0.0000
# 6 0.0000 0.0000 0.0000 0.0000 0.0000 22.2795
#
#
#
# Elastic Compliance Matrix: (Units=1/GPa)
#
#
# Indices 1 2 3 4 5 6 
#
# 1 0.011998 -0.003201 -0.000159 0.000000 0.000000 0.000000
# 2 -0.003201 0.008851 -0.003719 0.000000 0.000000 0.000000
# 3 -0.000159 -0.003719 0.010310 0.000000 0.000000 0.000000
# 4 0.000000 0.000000 0.000000 0.064476 0.000000 0.000000
# 5 0.000000 0.000000 0.000000 0.000000 0.041585 0.000000
# 6 0.000000 0.000000 0.000000 0.000000 0.000000 0.044884
#
#
# Mechanical properties :
#
#
# Convention : Reuss Voigt Hill
#
# Bulk Modulus (GPa) = 58.82009 65.24892 62.03450
# Shear Modulus (GPa) = 24.76129 29.04998 26.90563
#
# Velocity S-wave (km/s) = 3.51065 3.80254 3.65950
# Velocity P-wave (km/s) = 6.76091 7.19416 6.98089
#
# Compressibility (1/GPa) = 0.01700100
#
# Stress axis : x y z
#
# Youngs Moduli (GPa) = 83.34924 112.98619 96.99681
#
# Poissons Ratio (x) = 0.36161 0.01545
# Poissons Ratio (y) = 0.26676 0.36070
# Poissons Ratio (z) = 0.01328 0.42016
#
# Static dielectric constant tensor:
#      x y z
#    x 3.849710 0.000000 0.000000 
#    y 0.000000 3.593850 0.000000 
#    z 0.000000 0.000000 3.630490 
# 
# 
# High freq. dielectric constant tensor:
#      x y z
#    x 1.792180 0.000000 0.000000 
#    y 0.000000 1.792940 0.000000 
#    z 0.000000 0.000000 1.782600 
# 
# From -- ./inp_files/30688.got.cif
#   From: 2010.03.12/outbox.cif.g09.slc.cpg/sg20_16_cif.got.tgz:30688.got - 2010.04.14 01:38:04.
