data_PCOD8159546
_publ_section_title
;
Structure prediction by ZEFSAII (Michael W. Deem and Ramdas Pophale) SiO2 
 PCOD8159546
Probable space group: C 2 2 21
;
_chemical_formula_sum "Si O2"
_cell_formula_units_Z 48
_cell_length_a 31.461825
_cell_length_b 8.449740
_cell_length_c 9.146637
_cell_angle_alpha 90.000000
_cell_angle_beta 90.000000
_cell_angle_gamma 90.000000
_cell_volume 2431.580773
_symmetry_space_group_name_H-M "C 2 2 21"
_symmetry_group_IT_number 20
_symmetry_cell_setting 'orthorhombic'
loop_
_space_group_symop_operation_xyz
x,y,z
-x,-y,1/2+z
x,-y,-z
-x,y,1/2-z
1/2+x,1/2+y,z
1/2-x,1/2-y,1/2+z
1/2+x,1/2-y,-z
1/2-x,1/2+y,1/2-z
loop_
_atom_site_type_symbol
_atom_site_label
_atom_site_fract_x
_atom_site_fract_y
_atom_site_fract_z
Si Si1 0.702865 0.437389 0.655235
Si Si2 0.880742 0.839991 0.689430
Si Si3 0.958699 0.938027 0.344087
Si Si4 0.135203 0.523700 0.667190
Si Si5 0.406182 0.159432 0.414121
Si Si6 0.768537 0.590066 0.854892
O O1 0.685320 0.500000 0.500000
O O2 0.664080 0.418342 0.768494
O O3 0.735749 0.561334 0.723789
O O4 0.728413 0.277027 0.621268
O O5 0.888090 0.686061 0.789201
O O6 0.880152 0.781462 0.519565
O O7 0.918586 0.963440 0.719430
O O8 0.947680 0.751455 0.356193
O O9 0.000000 0.964352 0.250000
O O10 0.972298 0.000000 0.500000
O O11 0.122154 0.500000 0.500000
O O12 0.121074 0.379892 0.770679
O O13 0.185462 0.526357 0.690686
O O14 0.419481 0.000000 0.500000
O O15 0.752352 0.500000 0.000000
#
# Coordination Sequence:
#
# PCOD8159546 Si02
#       6
#     8   8   8   8   8   8
#     4  11  23  38  57  82 113 151 197 244 289 344
#     4   9  21  39  58  83 112 149 190 233 288 348
#     4  10  22  39  60  86 113 145 186 234 287 343
#     4   9  19  36  58  86 117 152 194 236 280 337
#     4   9  19  39  61  81 113 152 189 228 285 352
#     4  10  22  37  54  82 116 151 192 237 289 342
#
# _framework density 19.740245000000002
#
# number of rings (size 3 to 8) (size 9 to 14) (size 15 to 20)
#    0.000    2.333    0.000    1.000    0.000   14.000 
#    0.000    8.333    0.000    0.000    0.000    0.000 
#    0.000    0.000    0.000    0.000    0.000    0.000 
#
# Total GULP energy -297566.967018 kJ/mol
# GULP energy per Si atom -12398.623626 kJ/mol
# Density = 1.969532 g / cm^3
# Si number density = 19.740245 Si / 1000 Ang^3
#
#
#
# Elastic Constant Matrix: (Units=GPa)
#
#
# Indices 1 2 3 4 5 6 
#
# 1 92.8081 56.8633 62.3718 0.0000 0.0000 0.0000
# 2 56.8633 97.0256 43.8013 0.0000 0.0000 0.0000
# 3 62.3718 43.8013 115.5003 0.0000 0.0000 0.0000
# 4 0.0000 0.0000 0.0000 28.0084 0.0000 0.0000
# 5 0.0000 0.0000 0.0000 0.0000 25.5834 0.0000
# 6 0.0000 0.0000 0.0000 0.0000 0.0000 13.6627
#
#
#
# Elastic Compliance Matrix: (Units=1/GPa)
#
#
# Indices 1 2 3 4 5 6 
#
# 1 0.022021 -0.009094 -0.008443 0.000000 0.000000 0.000000
# 2 -0.009094 0.016191 -0.001229 0.000000 0.000000 0.000000
# 3 -0.008443 -0.001229 0.013683 0.000000 0.000000 0.000000
# 4 0.000000 0.000000 0.000000 0.035704 0.000000 0.000000
# 5 0.000000 0.000000 0.000000 0.000000 0.039088 0.000000
# 6 0.000000 0.000000 0.000000 0.000000 0.000000 0.073192
#
#
# Mechanical properties :
#
#
# Convention : Reuss Voigt Hill
#
# Bulk Modulus (GPa) = 69.62298 70.15628 69.88963
# Shear Modulus (GPa) = 20.64416 22.93740 21.79078
#
# Velocity S-wave (km/s) = 3.23738 3.41245 3.32607
# Velocity P-wave (km/s) = 7.02284 7.15146 7.08744
#
# Compressibility (1/GPa) = 0.01436307
#
# Stress axis : x y z
#
# Youngs Moduli (GPa) = 45.41128 61.76148 73.08140
#
# Poissons Ratio (x) = 0.56168 0.61701
# Poissons Ratio (y) = 0.41298 0.08983
# Poissons Ratio (z) = 0.38340 0.07592
#
# Static dielectric constant tensor:
#      x y z
#    x 3.303070 0.000000 0.000000 
#    y 0.000000 3.800540 0.000000 
#    z 0.000000 0.000000 3.787240 
# 
# 
# High freq. dielectric constant tensor:
#      x y z
#    x 1.744380 0.000000 0.000000 
#    y 0.000000 1.783480 0.000000 
#    z 0.000000 0.000000 1.776810 
# 
# From -- ./inp_files/6521.got.cif
#   From: 2010.03.12/outbox.cif.g09.slc.cpg/sg20_4_cif.got.tgz:6521.got - 2010.04.14 01:38:04.
