data_PCOD8159234
_publ_section_title
;
Structure prediction by ZEFSAII (Michael W. Deem and Ramdas Pophale) SiO2 
 PCOD8159234
Probable space group: C 2 2 21
;
_chemical_formula_sum "Si O2"
_cell_formula_units_Z 56
_cell_length_a 15.028205
_cell_length_b 31.105004
_cell_length_c 5.259333
_cell_angle_alpha 90.000000
_cell_angle_beta 90.000000
_cell_angle_gamma 90.000000
_cell_volume 2458.487710
_symmetry_space_group_name_H-M "C 2 2 21"
_symmetry_group_IT_number 20
_symmetry_cell_setting 'orthorhombic'
loop_
_space_group_symop_operation_xyz
x,y,z
-x,-y,1/2+z
x,-y,-z
-x,y,1/2-z
1/2+x,1/2+y,z
1/2-x,1/2-y,1/2+z
1/2+x,1/2-y,-z
1/2-x,1/2+y,1/2-z
loop_
_atom_site_type_symbol
_atom_site_label
_atom_site_fract_x
_atom_site_fract_y
_atom_site_fract_z
Si Si1 0.284629 0.584101 0.839999
Si Si2 0.500000 0.922189 0.250000
Si Si3 0.662516 0.052270 0.447803
Si Si4 0.626414 0.126740 0.077758
Si Si5 0.782437 0.500000 0.500000
Si Si6 0.643216 0.727067 0.386785
Si Si7 0.053612 0.139048 0.498993
Si Si8 0.645466 0.224727 0.116126
O O1 0.260596 0.560603 0.573177
O O2 0.382587 0.602432 0.881357
O O3 0.210777 0.621237 0.886161
O O4 0.274486 0.543397 0.028248
O O5 0.581681 0.951828 0.346990
O O6 0.465674 0.890780 0.469631
O O7 0.647063 0.098040 0.318959
O O8 0.660420 0.008431 0.264881
O O9 0.611476 0.176345 0.140054
O O10 0.607398 0.678740 0.382205
O O11 0.607373 0.750909 0.637471
O O12 0.748707 0.725450 0.384749
O O13 0.607726 0.751841 0.136279
O O14 0.000000 0.153783 0.750000
O O15 0.000000 0.120995 0.250000
#
# Coordination Sequence:
#
# PCOD8159234 Si02
#       8
#     8   4   8   8   4   8   8   8
#     4  10  23  43  74  99 134 185 237 290 363 443
#     4  10  22  40  62 106 142 186 234 282 360 432
#     4  10  22  41  74 101 144 183 238 296 354 444
#     4  10  21  39  68  95 139 191 237 292 345 427
#     4  10  22  44  76 104 130 182 234 296 364 440
#     4  10  22  41  62 100 136 183 242 295 349 419
#     4  12  27  46  70 106 148 189 237 305 372 430
#     4  10  21  38  70  97 135 184 244 292 340 418
#
# _framework density 22.778230000000001
#
# number of rings (size 3 to 8) (size 9 to 14) (size 15 to 20)
#    0.000    1.714    1.429    1.714    8.000    1.143 
#    3.857    0.714  113.143    0.000    0.000    0.000 
#    0.000    0.000    0.000    0.000    0.000    0.000 
#
# Total GULP energy -346869.482411 kJ/mol
# GULP energy per Si atom -12388.195800 kJ/mol
# Density = 2.272639 g / cm^3
# Si number density = 22.778230 Si / 1000 Ang^3
#
#
#
# Elastic Constant Matrix: (Units=GPa)
#
#
# Indices 1 2 3 4 5 6 
#
# 1 63.4673 41.0841 48.9637 0.0000 0.0000 0.0000
# 2 41.0841 155.4670 47.1532 0.0000 0.0000 0.0000
# 3 48.9637 47.1532 153.9924 0.0000 0.0000 0.0000
# 4 0.0000 0.0000 0.0000 78.5095 0.0000 0.0000
# 5 0.0000 0.0000 0.0000 0.0000 29.4819 0.0000
# 6 0.0000 0.0000 0.0000 0.0000 0.0000 25.4715
#
#
#
# Elastic Compliance Matrix: (Units=1/GPa)
#
#
# Indices 1 2 3 4 5 6 
#
# 1 0.023217 -0.004295 -0.006067 0.000000 0.000000 0.000000
# 2 -0.004295 0.007885 -0.001049 0.000000 0.000000 0.000000
# 3 -0.006067 -0.001049 0.008744 0.000000 0.000000 0.000000
# 4 0.000000 0.000000 0.000000 0.012737 0.000000 0.000000
# 5 0.000000 0.000000 0.000000 0.000000 0.033919 0.000000
# 6 0.000000 0.000000 0.000000 0.000000 0.000000 0.039260
#
#
# Mechanical properties :
#
#
# Convention : Reuss Voigt Hill
#
# Bulk Modulus (GPa) = 58.73889 71.92541 65.33215
# Shear Modulus (GPa) = 32.41294 42.40764 37.41029
#
# Velocity S-wave (km/s) = 3.77633 4.31949 4.05701
# Velocity P-wave (km/s) = 6.69758 7.51813 7.11969
#
# Compressibility (1/GPa) = 0.01702450
#
# Stress axis : x y z
#
# Youngs Moduli (GPa) = 43.07171 126.81617 114.36394
#
# Poissons Ratio (x) = 0.54472 0.69383
# Poissons Ratio (y) = 0.18501 0.11995
# Poissons Ratio (z) = 0.26131 0.13301
#
# Static dielectric constant tensor:
#      x y z
#    x 3.855110 0.000000 0.000000 
#    y 0.000000 4.109630 0.000000 
#    z 0.000000 0.000000 4.677230 
# 
# 
# High freq. dielectric constant tensor:
#      x y z
#    x 1.871170 0.000000 0.000000 
#    y 0.000000 1.907180 0.000000 
#    z 0.000000 0.000000 1.918800 
# 
# From -- ./inp_files/2251.got.cif
#   From: 2010.03.12/outbox.cif.g09.slc.cpg/sg20_2_cif.got.tgz:2251.got - 2010.04.14 01:38:04.
