data_PCOD8159139
_publ_section_title
;
Structure prediction by ZEFSAII (Michael W. Deem and Ramdas Pophale) SiO2 
 PCOD8159139
Probable space group: C 2 2 21
;
_chemical_formula_sum "Si O2"
_cell_formula_units_Z 64
_cell_length_a 22.986062
_cell_length_b 16.290787
_cell_length_c 8.004679
_cell_angle_alpha 90.000000
_cell_angle_beta 90.000000
_cell_angle_gamma 90.000000
_cell_volume 2997.440423
_symmetry_space_group_name_H-M "C 2 2 21"
_symmetry_group_IT_number 20
_symmetry_cell_setting 'orthorhombic'
loop_
_space_group_symop_operation_xyz
x,y,z
-x,-y,1/2+z
x,-y,-z
-x,y,1/2-z
1/2+x,1/2+y,z
1/2-x,1/2-y,1/2+z
1/2+x,1/2-y,-z
1/2-x,1/2+y,1/2-z
loop_
_atom_site_type_symbol
_atom_site_label
_atom_site_fract_x
_atom_site_fract_y
_atom_site_fract_z
Si Si1 0.639071 0.183118 0.761955
Si Si2 0.207860 0.522814 0.810132
Si Si3 0.219062 0.768652 0.999815
Si Si4 0.417369 0.226563 0.077425
Si Si5 0.188202 0.345935 0.709841
Si Si6 0.938423 0.876738 0.302010
Si Si7 0.320442 0.435108 0.360170
Si Si8 0.968559 0.749558 0.577166
O O1 0.661038 0.089461 0.745467
O O2 0.618742 0.224440 0.592363
O O3 0.584858 0.187414 0.891602
O O4 0.692133 0.239044 0.824973
O O5 0.199815 0.442262 0.697154
O O6 0.274328 0.554925 0.790699
O O7 0.195010 0.500000 0.000000
O O8 0.217760 0.690479 0.122990
O O9 0.181210 0.841639 0.076625
O O10 0.283364 0.802685 0.955102
O O11 0.381826 0.168477 0.206676
O O12 0.418195 0.317156 0.152879
O O13 0.484487 0.200858 0.040728
O O14 0.888300 0.946968 0.309168
O O15 0.945578 0.829664 0.479057
O O16 0.000000 0.918095 0.250000
O O17 0.302679 0.500000 0.500000
O O18 0.000000 0.777328 0.750000
#
# Coordination Sequence:
#
# PCOD8159139 Si02
#       8
#     8   8   8   8   8   8   8   8
#     4  11  22  40  66  97 129 174 223 263 339 397
#     4  12  27  42  62  94 141 169 214 288 334 397
#     4  12  23  39  67  90 127 173 223 261 331 407
#     4  10  21  36  69  95 129 169 226 273 320 398
#     4  12  23  40  63  97 126 175 214 273 330 395
#     4  10  21  42  67  97 133 174 226 278 328 396
#     4  12  24  44  64  95 134 172 215 276 338 391
#     4   9  19  39  68  99 128 170 226 279 316 392
#
# _framework density 21.351551000000001
#
# number of rings (size 3 to 8) (size 9 to 14) (size 15 to 20)
#    0.000    1.000    5.000    2.250    0.000    1.000 
#    0.000    1.250    8.250    0.000    0.000    0.000 
#    0.000    0.000    0.000    0.000    0.000    0.000 
#
# Total GULP energy -396636.607253 kJ/mol
# GULP energy per Si atom -12394.893977 kJ/mol
# Density = 2.130295 g / cm^3
# Si number density = 21.351551 Si / 1000 Ang^3
#
#
#
# Elastic Constant Matrix: (Units=GPa)
#
#
# Indices 1 2 3 4 5 6 
#
# 1 125.1395 14.2796 12.1328 0.0000 0.0000 0.0000
# 2 14.2796 64.4361 7.8008 0.0000 0.0000 0.0000
# 3 12.1328 7.8008 66.7931 0.0000 0.0000 0.0000
# 4 0.0000 0.0000 0.0000 15.7439 0.0000 0.0000
# 5 0.0000 0.0000 0.0000 0.0000 37.6015 0.0000
# 6 0.0000 0.0000 0.0000 0.0000 0.0000 24.7269
#
#
#
# Elastic Compliance Matrix: (Units=1/GPa)
#
#
# Indices 1 2 3 4 5 6 
#
# 1 0.008310 -0.001683 -0.001313 0.000000 0.000000 0.000000
# 2 -0.001683 0.016083 -0.001573 0.000000 0.000000 0.000000
# 3 -0.001313 -0.001573 0.015394 0.000000 0.000000 0.000000
# 4 0.000000 0.000000 0.000000 0.063517 0.000000 0.000000
# 5 0.000000 0.000000 0.000000 0.000000 0.026595 0.000000
# 6 0.000000 0.000000 0.000000 0.000000 0.000000 0.040442
#
#
# Mechanical properties :
#
#
# Convention : Reuss Voigt Hill
#
# Bulk Modulus (GPa) = 32.62643 36.08833 34.35738
# Shear Modulus (GPa) = 26.35832 30.42481 28.39157
#
# Velocity S-wave (km/s) = 3.51735 3.77894 3.65049
# Velocity P-wave (km/s) = 5.63998 5.99827 5.82188
#
# Compressibility (1/GPa) = 0.03065000
#
# Stress axis : x y z
#
# Youngs Moduli (GPa) = 120.33115 62.17925 64.96124
#
# Poissons Ratio (x) = 0.10463 0.08530
# Poissons Ratio (y) = 0.20248 0.10216
# Poissons Ratio (z) = 0.15800 0.09778
#
# Static dielectric constant tensor:
#      x y z
#    x 4.343210 0.000000 0.000000 
#    y 0.000000 3.541740 0.000000 
#    z 0.000000 0.000000 4.066170 
# 
# 
# High freq. dielectric constant tensor:
#      x y z
#    x 1.859420 0.000000 0.000000 
#    y 0.000000 1.795650 0.000000 
#    z 0.000000 0.000000 1.849150 
# 
# From -- ./inp_files/10811.got.cif
#   From: 2010.03.12/outbox.cif.g09.slc.cpg/sg20_6_cif.got.tgz:10811.got - 2010.04.14 01:38:04.
