data_PCOD8159853
_publ_section_title
;
Structure prediction by ZEFSAII (Michael W. Deem and Ramdas Pophale) SiO2 
 PCOD8159853
Probable space group: C 2 2 21
;
_chemical_formula_sum "Si O2"
_cell_formula_units_Z 32
_cell_length_a 9.116872
_cell_length_b 12.546449
_cell_length_c 11.963405
_cell_angle_alpha 90.000000
_cell_angle_beta 90.000000
_cell_angle_gamma 90.000000
_cell_volume 1368.426539
_symmetry_space_group_name_H-M "C 2 2 21"
_symmetry_group_IT_number 20
_symmetry_cell_setting 'orthorhombic'
loop_
_space_group_symop_operation_xyz
x,y,z
-x,-y,1/2+z
x,-y,-z
-x,y,1/2-z
1/2+x,1/2+y,z
1/2-x,1/2-y,1/2+z
1/2+x,1/2-y,-z
1/2-x,1/2+y,1/2-z
loop_
_atom_site_type_symbol
_atom_site_label
_atom_site_fract_x
_atom_site_fract_y
_atom_site_fract_z
Si Si1 0.000000 0.498115 0.250000
Si Si2 0.088031 0.315552 0.091831
Si Si3 0.838293 0.165686 0.066953
Si Si4 0.785533 0.104427 0.308969
Si Si5 0.457371 0.500000 0.500000
O O1 0.088307 0.424645 0.161529
O O2 0.113772 0.575862 0.312194
O O3 0.185994 0.225259 0.151859
O O4 0.917043 0.281342 0.078253
O O5 0.169581 0.330636 0.972667
O O6 0.847706 0.099973 0.182852
O O7 0.939161 0.102340 0.978132
O O8 0.860965 0.017916 0.389264
#
# Coordination Sequence:
#
# PCOD8159853 Si02
#       5
#     4   8   8   8   4
#     4  12  26  46  78 102 154 196 250 304 378 436
#     4  11  25  46  71 106 150 196 246 315 363 448
#     4  11  24  45  71 107 151 189 255 306 372 441
#     4  11  26  45  71 111 145 193 252 308 366 455
#     4  10  22  44  70  98 142 192 242 308 368 434
#
# _framework density 23.384520999999999
#
# number of rings (size 3 to 8) (size 9 to 14) (size 15 to 20)
#    0.000    1.000    2.500    3.750   10.500    0.000 
#    0.000    0.000    0.000    0.000    0.000    0.000 
#    0.000    0.000    0.000    0.000    0.000    0.000 
#
# Total GULP energy -198349.565433 kJ/mol
# GULP energy per Si atom -12396.847840 kJ/mol
# Density = 2.333130 g / cm^3
# Si number density = 23.384521 Si / 1000 Ang^3
#
#
#
# Elastic Constant Matrix: (Units=GPa)
#
#
# Indices 1 2 3 4 5 6 
#
# 1 118.3732 16.0939 48.9136 0.0000 0.0000 0.0000
# 2 16.0939 44.6917 12.3704 0.0000 0.0000 0.0000
# 3 48.9136 12.3704 130.1006 0.0000 0.0000 0.0000
# 4 0.0000 0.0000 0.0000 23.0409 0.0000 0.0000
# 5 0.0000 0.0000 0.0000 0.0000 49.6662 0.0000
# 6 0.0000 0.0000 0.0000 0.0000 0.0000 36.4161
#
#
#
# Elastic Compliance Matrix: (Units=1/GPa)
#
#
# Indices 1 2 3 4 5 6 
#
# 1 0.010312 -0.002712 -0.003619 0.000000 0.000000 0.000000
# 2 -0.002712 0.023693 -0.001233 0.000000 0.000000 0.000000
# 3 -0.003619 -0.001233 0.009164 0.000000 0.000000 0.000000
# 4 0.000000 0.000000 0.000000 0.043401 0.000000 0.000000
# 5 0.000000 0.000000 0.000000 0.000000 0.020134 0.000000
# 6 0.000000 0.000000 0.000000 0.000000 0.000000 0.027460
#
#
# Mechanical properties :
#
#
# Convention : Reuss Voigt Hill
#
# Bulk Modulus (GPa) = 35.66159 49.76902 42.71531
# Shear Modulus (GPa) = 31.51770 36.21049 33.86409
#
# Velocity S-wave (km/s) = 3.67522 3.93934 3.80957
# Velocity P-wave (km/s) = 5.77000 6.48231 6.13650
#
# Compressibility (1/GPa) = 0.02804138
#
# Stress axis : x y z
#
# Youngs Moduli (GPa) = 96.97419 42.20586 109.11898
#
# Poissons Ratio (x) = 0.11445 0.39492
# Poissons Ratio (y) = 0.26296 0.13458
# Poissons Ratio (z) = 0.35096 0.05205
#
# Static dielectric constant tensor:
#      x y z
#    x 4.269680 0.000000 0.000000 
#    y 0.000000 4.108520 0.000000 
#    z 0.000000 0.000000 4.271800 
# 
# 
# High freq. dielectric constant tensor:
#      x y z
#    x 1.932890 0.000000 0.000000 
#    y 0.000000 1.918170 0.000000 
#    z 0.000000 0.000000 1.919970 
# 
# From -- ./inp_files/12510.got.cif
#   From: 2010.03.12/outbox.cif.g09.slc.cpg/sg20_7_cif.got.tgz:12510.got - 2010.04.14 01:38:04.
