data_PCOD8159014
_publ_section_title
;
Structure prediction by ZEFSAII (Michael W. Deem and Ramdas Pophale) SiO2 
 PCOD8159014
Probable space group: C 2 2 21
;
_chemical_formula_sum "Si O2"
_cell_formula_units_Z 40
_cell_length_a 22.195402
_cell_length_b 9.826791
_cell_length_c 8.675716
_cell_angle_alpha 90.000000
_cell_angle_beta 90.000000
_cell_angle_gamma 90.000000
_cell_volume 1892.256744
_symmetry_space_group_name_H-M "C 2 2 21"
_symmetry_group_IT_number 20
_symmetry_cell_setting 'orthorhombic'
loop_
_space_group_symop_operation_xyz
x,y,z
-x,-y,1/2+z
x,-y,-z
-x,y,1/2-z
1/2+x,1/2+y,z
1/2-x,1/2-y,1/2+z
1/2+x,1/2-y,-z
1/2-x,1/2+y,1/2-z
loop_
_atom_site_type_symbol
_atom_site_label
_atom_site_fract_x
_atom_site_fract_y
_atom_site_fract_z
Si Si1 0.793252 0.149981 0.927670
Si Si2 0.000000 0.272014 0.750000
Si Si3 0.693238 0.653031 0.937901
Si Si4 0.586955 0.855688 0.986904
Si Si5 0.500000 0.775731 0.250000
Si Si6 0.579223 0.346508 0.507480
O O1 0.794342 0.142747 0.742994
O O2 0.855815 0.223713 0.981035
O O3 0.743154 0.256400 0.979538
O O4 0.780765 0.000000 0.000000
O O5 0.948279 0.363988 0.675423
O O6 0.971116 0.177242 0.879538
O O7 0.629825 0.724582 0.983196
O O8 0.691911 0.500000 0.000000
O O9 0.535802 0.859537 0.120423
O O10 0.622953 0.000000 0.000000
O O11 0.552444 0.686026 0.326163
O O12 0.599309 0.500000 0.500000
#
# Coordination Sequence:
#
# PCOD8159014 Si02
#       6
#     8   4   8   8   4   8
#     4  11  25  47  71 100 138 178 230 285 342 413
#     4  10  20  42  62  98 133 176 223 268 337 400
#     4  12  27  46  73 101 134 180 231 289 347 407
#     4  11  24  43  68  98 138 179 226 275 338 401
#     4  10  24  38  66 100 133 184 219 278 321 422
#     4  10  21  38  66  98 138 171 219 272 341 398
#
# _framework density 21.138781000000002
#
# number of rings (size 3 to 8) (size 9 to 14) (size 15 to 20)
#    0.000    1.200    2.000    3.000    8.400    3.200 
#    0.000    1.000    0.000    0.000    0.000    0.000 
#    0.000    0.000    0.000    0.000    0.000    0.000 
#
# Total GULP energy -247827.620717 kJ/mol
# GULP energy per Si atom -12391.381036 kJ/mol
# Density = 2.109067 g / cm^3
# Si number density = 21.138781 Si / 1000 Ang^3
#
#
#
# Elastic Constant Matrix: (Units=GPa)
#
#
# Indices 1 2 3 4 5 6 
#
# 1 126.2820 57.7899 49.8700 0.0000 0.0000 0.0000
# 2 57.7899 138.5031 45.0685 0.0000 0.0000 0.0000
# 3 49.8700 45.0685 138.9488 0.0000 0.0000 0.0000
# 4 0.0000 0.0000 0.0000 21.9053 0.0000 0.0000
# 5 0.0000 0.0000 0.0000 0.0000 -25.4740 0.0000
# 6 0.0000 0.0000 0.0000 0.0000 0.0000 32.6166
#
#
#
# Elastic Compliance Matrix: (Units=1/GPa)
#
#
# Indices 1 2 3 4 5 6 
#
# 1 0.010593 -0.003558 -0.002648 0.000000 0.000000 0.000000
# 2 -0.003558 0.009267 -0.001729 0.000000 0.000000 0.000000
# 3 -0.002648 -0.001729 0.008708 0.000000 0.000000 0.000000
# 4 0.000000 0.000000 0.000000 0.045651 0.000000 0.000000
# 5 0.000000 0.000000 0.000000 0.000000 -0.039256 0.000000
# 6 0.000000 0.000000 0.000000 0.000000 0.000000 0.030659
#
#
# Mechanical properties :
#
#
# Convention : Reuss Voigt Hill
#
# Bulk Modulus (GPa) = 78.74963 78.79896 78.77429
# Shear Modulus (GPa) = 58.32623 22.54327 40.43475
#
# Velocity S-wave (km/s) = 5.25851 3.26918 4.37833
# Velocity P-wave (km/s) = 8.61416 7.18387 7.93132
#
# Compressibility (1/GPa) = 0.01269847
#
# Stress axis : x y z
#
# Youngs Moduli (GPa) = 94.40439 107.90694 114.83796
#
# Poissons Ratio (x) = 0.38396 0.30406
# Poissons Ratio (y) = 0.33591 0.19853
# Poissons Ratio (z) = 0.24996 0.18655
#
# Static dielectric constant tensor:
#      x y z
#    x 3.975200 0.000000 0.000000 
#    y 0.000000 3.781200 0.000000 
#    z 0.000000 0.000000 4.024060 
# 
# 
# High freq. dielectric constant tensor:
#      x y z
#    x 1.842640 0.000000 0.000000 
#    y 0.000000 1.819090 0.000000 
#    z 0.000000 0.000000 1.845010 
# 
# From -- ./inp_files/6175.got.cif
#   From: 2010.03.12/outbox.cif.g09.slc.cpg/sg20_4_cif.got.tgz:6175.got - 2010.04.14 01:38:04.
