data_PCOD8159045
_publ_section_title
;
Structure prediction by ZEFSAII (Michael W. Deem and Ramdas Pophale) SiO2 
 PCOD8159045
Probable space group: C 2 2 21
;
_chemical_formula_sum "Si O2"
_cell_formula_units_Z 40
_cell_length_a 30.281391
_cell_length_b 6.473646
_cell_length_c 9.849394
_cell_angle_alpha 90.000000
_cell_angle_beta 90.000000
_cell_angle_gamma 90.000000
_cell_volume 1930.786612
_symmetry_space_group_name_H-M "C 2 2 21"
_symmetry_group_IT_number 20
_symmetry_cell_setting 'orthorhombic'
loop_
_space_group_symop_operation_xyz
x,y,z
-x,-y,1/2+z
x,-y,-z
-x,y,1/2-z
1/2+x,1/2+y,z
1/2-x,1/2-y,1/2+z
1/2+x,1/2-y,-z
1/2-x,1/2+y,1/2-z
loop_
_atom_site_type_symbol
_atom_site_label
_atom_site_fract_x
_atom_site_fract_y
_atom_site_fract_z
Si Si1 0.036765 0.395344 0.639771
Si Si2 0.184974 0.500000 0.500000
Si Si3 0.814992 0.880392 0.641927
Si Si4 0.884968 0.305605 0.182873
Si Si5 0.768462 0.139903 0.871959
Si Si6 0.437844 0.500000 0.000000
O O1 0.022763 0.500000 0.500000
O O2 0.083597 0.489873 0.697084
O O3 0.036168 0.152157 0.602777
O O4 0.000000 0.444815 0.750000
O O5 0.156268 0.653437 0.587910
O O6 0.214791 0.628177 0.396594
O O7 0.864179 0.792753 0.679593
O O8 0.784104 0.675062 0.645560
O O9 0.818883 0.000000 0.500000
O O10 0.794407 0.048636 0.744468
O O11 0.910798 0.129301 0.106744
O O12 0.778422 0.000000 0.000000
#
# Coordination Sequence:
#
# PCOD8159045 Si02
#       6
#     8   4   8   8   8   4
#     4  10  23  45  72 102 132 172 220 273 344 406
#     4  12  20  42  72  94 119 188 235 266 316 400
#     4  12  25  42  63 101 137 177 228 284 343 386
#     4  11  22  41  69  95 134 174 224 273 330 406
#     4  12  24  44  66  91 136 182 234 277 329 403
#     4  10  20  42  72  96 129 180 221 266 326 418
#
# _framework density 20.716944999999999
#
# number of rings (size 3 to 8) (size 9 to 14) (size 15 to 20)
#    0.000    0.800    6.000    3.600    0.000    3.200 
#    3.600    0.000    0.000    0.000    0.000    0.000 
#    0.000    0.000    0.000    0.000    0.000    0.000 
#
# Total GULP energy -247812.398723 kJ/mol
# GULP energy per Si atom -12390.619936 kJ/mol
# Density = 2.066979 g / cm^3
# Si number density = 20.716945 Si / 1000 Ang^3
#
#
#
# Elastic Constant Matrix: (Units=GPa)
#
#
# Indices 1 2 3 4 5 6 
#
# 1 89.6054 26.9261 44.4586 0.0000 0.0000 0.0000
# 2 26.9261 104.2146 40.1671 0.0000 0.0000 0.0000
# 3 44.4586 40.1671 130.9668 0.0000 0.0000 0.0000
# 4 0.0000 0.0000 0.0000 28.8406 0.0000 0.0000
# 5 0.0000 0.0000 0.0000 0.0000 36.1825 0.0000
# 6 0.0000 0.0000 0.0000 0.0000 0.0000 5.8657
#
#
#
# Elastic Compliance Matrix: (Units=1/GPa)
#
#
# Indices 1 2 3 4 5 6 
#
# 1 0.013776 -0.001992 -0.004065 0.000000 0.000000 0.000000
# 2 -0.001992 0.011170 -0.002749 0.000000 0.000000 0.000000
# 3 -0.004065 -0.002749 0.009859 0.000000 0.000000 0.000000
# 4 0.000000 0.000000 0.000000 0.034673 0.000000 0.000000
# 5 0.000000 0.000000 0.000000 0.000000 0.027638 0.000000
# 6 0.000000 0.000000 0.000000 0.000000 0.000000 0.170484
#
#
# Mechanical properties :
#
#
# Convention : Reuss Voigt Hill
#
# Bulk Modulus (GPa) = 58.17237 60.87670 59.52453
# Shear Modulus (GPa) = 17.18543 28.39342 22.78942
#
# Velocity S-wave (km/s) = 2.88329 3.70610 3.32028
# Velocity P-wave (km/s) = 6.26299 6.91103 6.59497
#
# Compressibility (1/GPa) = 0.01719029
#
# Stress axis : x y z
#
# Youngs Moduli (GPa) = 72.59104 89.52486 101.43199
#
# Poissons Ratio (x) = 0.17837 0.41236
# Poissons Ratio (y) = 0.14463 0.27889
# Poissons Ratio (z) = 0.29511 0.24615
#
# Static dielectric constant tensor:
#      x y z
#    x 3.758450 0.000000 0.000000 
#    y 0.000000 4.090390 0.000000 
#    z 0.000000 0.000000 3.790390 
# 
# 
# High freq. dielectric constant tensor:
#      x y z
#    x 1.797330 0.000000 0.000000 
#    y 0.000000 1.828320 0.000000 
#    z 0.000000 0.000000 1.808400 
# 
# From -- ./inp_files/12198.got.cif
#   From: 2010.03.12/outbox.cif.g09.slc.cpg/sg20_7_cif.got.tgz:12198.got - 2010.04.14 01:38:04.
