data_PCOD8159883
_publ_section_title
;
Structure prediction by ZEFSAII (Michael W. Deem and Ramdas Pophale) SiO2 
 PCOD8159883
Probable space group: C 2 2 21
;
_chemical_formula_sum "Si O2"
_cell_formula_units_Z 44
_cell_length_a 12.947325
_cell_length_b 6.627473
_cell_length_c 25.040162
_cell_angle_alpha 90.000000
_cell_angle_beta 90.000000
_cell_angle_gamma 90.000000
_cell_volume 2148.647394
_symmetry_space_group_name_H-M "C 2 2 21"
_symmetry_group_IT_number 20
_symmetry_cell_setting 'orthorhombic'
loop_
_space_group_symop_operation_xyz
x,y,z
-x,-y,1/2+z
x,-y,-z
-x,y,1/2-z
1/2+x,1/2+y,z
1/2-x,1/2-y,1/2+z
1/2+x,1/2-y,-z
1/2-x,1/2+y,1/2-z
loop_
_atom_site_type_symbol
_atom_site_label
_atom_site_fract_x
_atom_site_fract_y
_atom_site_fract_z
Si Si1 0.752975 0.619795 0.949912
Si Si2 0.611597 0.935439 0.735209
Si Si3 0.839619 0.500000 0.500000
Si Si4 0.607093 0.246997 0.641478
Si Si5 0.247438 0.110442 0.675765
Si Si6 0.108705 0.206730 0.088771
O O1 0.732276 0.851677 0.965210
O O2 0.835648 0.610279 0.902416
O O3 0.645004 0.510796 0.933575
O O4 0.801998 0.500000 0.000000
O O5 0.500000 0.842462 0.750000
O O6 0.682800 0.763308 0.711437
O O7 0.594117 0.120010 0.695090
O O8 0.662785 0.011927 0.789418
O O9 0.908750 0.633873 0.540389
O O10 0.671421 0.444780 0.652997
O O11 0.496244 0.320215 0.620890
O O12 0.298463 0.221630 0.626182
#
# Coordination Sequence:
#
# PCOD8159883 Si02
#       6
#     8   8   4   8   8   8
#     4  10  23  45  67  99 137 171 219 274 324 395
#     4  12  26  43  68  99 133 179 217 274 333 388
#     4  10  22  46  68  96 142 170 214 282 324 388
#     4  12  25  42  71  97 132 178 223 266 334 396
#     4  12  25  43  67  98 138 173 221 274 326 397
#     4  11  24  43  68 100 133 175 223 268 332 393
#
# _framework density 20.477997999999999
#
# number of rings (size 3 to 8) (size 9 to 14) (size 15 to 20)
#    0.000    0.727    7.273    0.000    1.273    5.091 
#    4.909    0.000    0.000    0.000    0.000    0.000 
#    0.000    0.000    0.000    0.000    0.000    0.000 
#
# Total GULP energy -272897.191701 kJ/mol
# GULP energy per Si atom -12404.417805 kJ/mol
# Density = 2.043139 g / cm^3
# Si number density = 20.477998 Si / 1000 Ang^3
#
#
#
# Elastic Constant Matrix: (Units=GPa)
#
#
# Indices 1 2 3 4 5 6 
#
# 1 94.7298 26.6876 13.9737 0.0000 0.0000 0.0000
# 2 26.6876 86.3311 18.0974 0.0000 0.0000 0.0000
# 3 13.9737 18.0974 70.2434 0.0000 0.0000 0.0000
# 4 0.0000 0.0000 0.0000 35.1829 0.0000 0.0000
# 5 0.0000 0.0000 0.0000 0.0000 17.3702 0.0000
# 6 0.0000 0.0000 0.0000 0.0000 0.0000 17.8613
#
#
#
# Elastic Compliance Matrix: (Units=1/GPa)
#
#
# Indices 1 2 3 4 5 6 
#
# 1 0.011706 -0.003309 -0.001476 0.000000 0.000000 0.000000
# 2 -0.003309 0.013180 -0.002737 0.000000 0.000000 0.000000
# 3 -0.001476 -0.002737 0.015235 0.000000 0.000000 0.000000
# 4 0.000000 0.000000 0.000000 0.028423 0.000000 0.000000
# 5 0.000000 0.000000 0.000000 0.000000 0.057570 0.000000
# 6 0.000000 0.000000 0.000000 0.000000 0.000000 0.055987
#
#
# Mechanical properties :
#
#
# Convention : Reuss Voigt Hill
#
# Bulk Modulus (GPa) = 39.87896 40.98020 40.42958
# Shear Modulus (GPa) = 24.33017 26.91924 25.62471
#
# Velocity S-wave (km/s) = 3.45064 3.62960 3.54125
# Velocity P-wave (km/s) = 5.94914 6.13356 6.04205
#
# Compressibility (1/GPa) = 0.02507588
#
# Stress axis : x y z
#
# Youngs Moduli (GPa) = 85.42327 75.87154 65.63778
#
# Poissons Ratio (x) = 0.25109 0.09689
# Poissons Ratio (y) = 0.28270 0.17968
# Poissons Ratio (z) = 0.12610 0.20769
#
# Static dielectric constant tensor:
#      x y z
#    x 3.591240 0.000000 0.000000 
#    y 0.000000 3.767470 0.000000 
#    z 0.000000 0.000000 4.309650 
# 
# 
# High freq. dielectric constant tensor:
#      x y z
#    x 1.791650 0.000000 0.000000 
#    y 0.000000 1.804570 0.000000 
#    z 0.000000 0.000000 1.826370 
# 
# From -- ./inp_files/30383.got.cif
#   From: 2010.03.12/outbox.cif.g09.slc.cpg/sg20_16_cif.got.tgz:30383.got - 2010.04.14 01:38:04.
