data_PCOD8159072
_publ_section_title
;
Structure prediction by ZEFSAII (Michael W. Deem and Ramdas Pophale) SiO2 
 PCOD8159072
Probable space group: C 2 2 21
;
_chemical_formula_sum "Si O2"
_cell_formula_units_Z 32
_cell_length_a 32.218358
_cell_length_b 5.497018
_cell_length_c 7.350770
_cell_angle_alpha 90.000000
_cell_angle_beta 90.000000
_cell_angle_gamma 90.000000
_cell_volume 1301.857341
_symmetry_space_group_name_H-M "C 2 2 21"
_symmetry_group_IT_number 20
_symmetry_cell_setting 'orthorhombic'
loop_
_space_group_symop_operation_xyz
x,y,z
-x,-y,1/2+z
x,-y,-z
-x,y,1/2-z
1/2+x,1/2+y,z
1/2-x,1/2-y,1/2+z
1/2+x,1/2-y,-z
1/2-x,1/2+y,1/2-z
loop_
_atom_site_type_symbol
_atom_site_label
_atom_site_fract_x
_atom_site_fract_y
_atom_site_fract_z
Si Si1 0.198378 0.137916 0.220349
Si Si2 0.034746 0.756386 0.104905
Si Si3 0.831851 0.500000 0.000000
Si Si4 0.118297 0.874858 0.308912
Si Si5 0.759054 0.500000 0.500000
O O1 0.198002 0.321072 0.392602
O O2 0.210670 0.259979 0.024264
O O3 0.152436 0.029586 0.197116
O O4 0.233776 0.965409 0.309381
O O5 0.077926 0.838507 0.190454
O O6 0.000000 0.690573 0.250000
O O7 0.041157 0.500000 0.000000
O O8 0.019166 0.000000 0.000000
O O9 0.861456 0.616073 0.151932
O O10 0.106359 0.000000 0.500000
#
# Coordination Sequence:
#
# PCOD8159072 Si02
#       5
#     8   8   4   8   4
#     4  11  24  44  66 105 143 202 252 326 380 460
#     4  12  29  51  82 122 161 204 255 316 389 469
#     4  10  20  44  70 100 145 198 247 316 390 452
#     4  10  24  46  76 106 152 198 256 313 392 460
#     4  12  24  44  68  96 151 196 265 312 392 446
#
# _framework density 24.580262999999999
#
# number of rings (size 3 to 8) (size 9 to 14) (size 15 to 20)
#    0.000    1.000    3.750    3.000    8.750    2.000 
#    0.000    0.000    0.000    0.000    0.000    0.000 
#    0.000    0.000    0.000    0.000    0.000    0.000 
#
# Total GULP energy -198265.487531 kJ/mol
# GULP energy per Si atom -12391.592971 kJ/mol
# Density = 2.452432 g / cm^3
# Si number density = 24.580263 Si / 1000 Ang^3
#
#
#
# Elastic Constant Matrix: (Units=GPa)
#
#
# Indices 1 2 3 4 5 6 
#
# 1 170.4403 38.9229 66.7144 0.0000 0.0000 0.0000
# 2 38.9229 101.3716 29.2492 0.0000 0.0000 0.0000
# 3 66.7144 29.2492 106.6250 0.0000 0.0000 0.0000
# 4 0.0000 0.0000 0.0000 50.2393 0.0000 0.0000
# 5 0.0000 0.0000 0.0000 0.0000 46.8216 0.0000
# 6 0.0000 0.0000 0.0000 0.0000 0.0000 -21.9087
#
#
#
# Elastic Compliance Matrix: (Units=1/GPa)
#
#
# Indices 1 2 3 4 5 6 
#
# 1 0.008055 -0.001780 -0.004552 0.000000 0.000000 0.000000
# 2 -0.001780 0.011106 -0.001933 0.000000 0.000000 0.000000
# 3 -0.004552 -0.001933 0.012757 0.000000 0.000000 0.000000
# 4 0.000000 0.000000 0.000000 0.019905 0.000000 0.000000
# 5 0.000000 0.000000 0.000000 0.000000 0.021358 0.000000
# 6 0.000000 0.000000 0.000000 0.000000 0.000000 -0.045644
#
#
# Mechanical properties :
#
#
# Convention : Reuss Voigt Hill
#
# Bulk Modulus (GPa) = 64.98167 72.02331 68.50249
# Shear Modulus (GPa) = 101.63558 31.26712 66.45135
#
# Velocity S-wave (km/s) = 6.43725 3.57044 5.20511
# Velocity P-wave (km/s) = 9.04129 6.80898 8.00335
#
# Compressibility (1/GPa) = 0.01538895
#
# Stress axis : x y z
#
# Youngs Moduli (GPa) = 124.14194 90.04363 78.38791
#
# Poissons Ratio (x) = 0.16024 0.35682
# Poissons Ratio (y) = 0.22091 0.15153
# Poissons Ratio (z) = 0.56509 0.17406
#
# Static dielectric constant tensor:
#      x y z
#    x 4.259870 0.000000 0.000000 
#    y 0.000000 4.008260 0.000000 
#    z 0.000000 0.000000 4.442180 
# 
# 
# High freq. dielectric constant tensor:
#      x y z
#    x 1.981030 0.000000 0.000000 
#    y 0.000000 1.996700 0.000000 
#    z 0.000000 0.000000 1.978860 
# 
# From -- ./inp_files/11271.got.cif
#   From: 2010.03.12/outbox.cif.g09.slc.cpg/sg20_6_cif.got.tgz:11271.got - 2010.04.14 01:38:04.
