data_PCOD8159081
_publ_section_title
;
Structure prediction by ZEFSAII (Michael W. Deem and Ramdas Pophale) SiO2 
 PCOD8159081
Probable space group: C 2 2 21
;
_chemical_formula_sum "Si O2"
_cell_formula_units_Z 40
_cell_length_a 11.606868
_cell_length_b 9.124430
_cell_length_c 17.212446
_cell_angle_alpha 90.000000
_cell_angle_beta 90.000000
_cell_angle_gamma 90.000000
_cell_volume 1822.902246
_symmetry_space_group_name_H-M "C 2 2 21"
_symmetry_group_IT_number 20
_symmetry_cell_setting 'orthorhombic'
loop_
_space_group_symop_operation_xyz
x,y,z
-x,-y,1/2+z
x,-y,-z
-x,y,1/2-z
1/2+x,1/2+y,z
1/2-x,1/2-y,1/2+z
1/2+x,1/2-y,-z
1/2-x,1/2+y,1/2-z
loop_
_atom_site_type_symbol
_atom_site_label
_atom_site_fract_x
_atom_site_fract_y
_atom_site_fract_z
Si Si1 0.650222 0.138692 0.952485
Si Si2 0.804119 0.716483 0.174743
Si Si3 0.679063 0.620428 0.935315
Si Si4 0.579902 0.964013 0.410474
Si Si5 0.120211 0.989837 0.221876
O O1 0.749533 0.213501 0.902396
O O2 0.542997 0.113914 0.892371
O O3 0.617000 0.243046 0.025148
O O4 0.698905 0.000000 0.000000
O O5 0.904973 0.607796 0.144113
O O6 0.850065 0.846467 0.227781
O O7 0.715482 0.617874 0.225541
O O8 0.809445 0.644320 0.900091
O O9 0.598740 0.562433 0.866498
O O10 0.699107 0.500000 0.000000
O O11 0.558812 0.000000 0.500000
O O12 0.000000 0.058471 0.250000
#
# Coordination Sequence:
#
# PCOD8159081 Si02
#       5
#     8   8   8   8   8
#     4  11  23  39  74 101 126 180 228 270 347 398
#     4  11  25  48  62 102 138 172 227 281 334 409
#     4  10  20  46  66  94 140 173 226 286 322 406
#     4   9  19  40  69  92 134 168 212 287 328 387
#     4  11  27  43  70  97 139 178 223 280 345 396
#
# _framework density 21.94303
#
# number of rings (size 3 to 8) (size 9 to 14) (size 15 to 20)
#    0.000    1.600    6.000    0.000    8.400    3.200 
#    0.000    2.000    0.000    0.000    0.000    0.000 
#    0.000    0.000    0.000    0.000    0.000    0.000 
#
# Total GULP energy -247806.134887 kJ/mol
# GULP energy per Si atom -12390.306744 kJ/mol
# Density = 2.189309 g / cm^3
# Si number density = 21.943030 Si / 1000 Ang^3
#
#
#
# Elastic Constant Matrix: (Units=GPa)
#
#
# Indices 1 2 3 4 5 6 
#
# 1 54.1620 24.0123 13.4810 0.0000 0.0000 0.0000
# 2 24.0123 90.5799 8.5057 0.0000 0.0000 0.0000
# 3 13.4810 8.5057 64.1705 0.0000 0.0000 0.0000
# 4 0.0000 0.0000 0.0000 52.2485 0.0000 0.0000
# 5 0.0000 0.0000 0.0000 0.0000 25.5512 0.0000
# 6 0.0000 0.0000 0.0000 0.0000 0.0000 22.0073
#
#
#
# Elastic Compliance Matrix: (Units=1/GPa)
#
#
# Indices 1 2 3 4 5 6 
#
# 1 0.021830 -0.005424 -0.003867 0.000000 0.000000 0.000000
# 2 -0.005424 0.012527 -0.000521 0.000000 0.000000 0.000000
# 3 -0.003867 -0.000521 0.016465 0.000000 0.000000 0.000000
# 4 0.000000 0.000000 0.000000 0.019139 0.000000 0.000000
# 5 0.000000 0.000000 0.000000 0.000000 0.039137 0.000000
# 6 0.000000 0.000000 0.000000 0.000000 0.000000 0.045439
#
#
# Mechanical properties :
#
#
# Convention : Reuss Voigt Hill
#
# Bulk Modulus (GPa) = 32.05349 33.43450 32.74400
# Shear Modulus (GPa) = 27.09125 30.82229 28.95677
#
# Velocity S-wave (km/s) = 3.51752 3.75193 3.63662
# Velocity P-wave (km/s) = 5.58002 5.83433 5.70859
#
# Compressibility (1/GPa) = 0.03119785
#
# Stress axis : x y z
#
# Youngs Moduli (GPa) = 45.80772 79.82901 60.73509
#
# Poissons Ratio (x) = 0.43299 0.23487
# Poissons Ratio (y) = 0.24846 0.03164
# Poissons Ratio (z) = 0.17715 0.04159
#
# Static dielectric constant tensor:
#      x y z
#    x 4.202050 0.000000 0.000000 
#    y 0.000000 4.002970 0.000000 
#    z 0.000000 0.000000 3.661700 
# 
# 
# High freq. dielectric constant tensor:
#      x y z
#    x 1.853430 0.000000 0.000000 
#    y 0.000000 1.859660 0.000000 
#    z 0.000000 0.000000 1.861940 
# 
# From -- ./inp_files/24090.got.cif
#   From: 2010.03.12/outbox.cif.g09.slc.cpg/sg20_13_cif.got.tgz:24090.got - 2010.04.14 01:38:04.
