data_PCOD8159246
_publ_section_title
;
Structure prediction by ZEFSAII (Michael W. Deem and Ramdas Pophale) SiO2 
 PCOD8159246
Probable space group: C 2 2 21
;
_chemical_formula_sum "Si O2"
_cell_formula_units_Z 44
_cell_length_a 8.398237
_cell_length_b 11.669373
_cell_length_c 21.236445
_cell_angle_alpha 90.000000
_cell_angle_beta 90.000000
_cell_angle_gamma 90.000000
_cell_volume 2081.217483
_symmetry_space_group_name_H-M "C 2 2 21"
_symmetry_group_IT_number 20
_symmetry_cell_setting 'orthorhombic'
loop_
_space_group_symop_operation_xyz
x,y,z
-x,-y,1/2+z
x,-y,-z
-x,y,1/2-z
1/2+x,1/2+y,z
1/2-x,1/2-y,1/2+z
1/2+x,1/2-y,-z
1/2-x,1/2+y,1/2-z
loop_
_atom_site_type_symbol
_atom_site_label
_atom_site_fract_x
_atom_site_fract_y
_atom_site_fract_z
Si Si1 0.094663 0.637386 0.638033
Si Si2 0.198818 0.649752 0.155486
Si Si3 0.781952 0.117385 0.518164
Si Si4 0.000000 0.475429 0.750000
Si Si5 0.041763 0.257626 0.561066
Si Si6 0.709041 0.058499 0.932807
O O1 0.151309 0.763480 0.662312
O O2 0.232169 0.598358 0.590448
O O3 0.082305 0.553465 0.697048
O O4 0.932049 0.634851 0.597823
O O5 0.257853 0.546055 0.112207
O O6 0.143523 0.602936 0.223382
O O7 0.035190 0.703968 0.126832
O O8 0.635620 0.137601 0.470368
O O9 0.897237 0.227105 0.512836
O O10 0.870390 0.000000 0.500000
O O11 0.140110 0.141217 0.566213
O O12 0.664333 0.000000 0.000000
#
# Coordination Sequence:
#
# PCOD8159246 Si02
#       6
#     8   8   8   4   8   8
#     4  10  21  39  61  84 113 153 197 238 292 347
#     4  10  23  41  60  85 118 156 197 247 295 345
#     4  11  21  36  58  87 118 150 187 234 291 351
#     4  10  22  40  60  82 114 154 202 252 292 334
#     4  11  23  36  59  90 121 154 191 233 292 362
#     4  11  21  37  61  91 124 154 186 237 297 359
#
# _framework density 21.141472
#
# number of rings (size 3 to 8) (size 9 to 14) (size 15 to 20)
#    0.000    1.455    0.000    7.636    0.000    4.364 
#    0.000    5.455    0.000    0.000    0.000    0.000 
#    0.000    0.000    0.000    0.000    0.000    0.000 
#
# Total GULP energy -272654.459451 kJ/mol
# GULP energy per Si atom -12393.384520 kJ/mol
# Density = 2.109335 g / cm^3
# Si number density = 21.141472 Si / 1000 Ang^3
#
#
#
# Elastic Constant Matrix: (Units=GPa)
#
#
# Indices 1 2 3 4 5 6 
#
# 1 69.9707 34.5208 32.3887 0.0000 0.0000 0.0000
# 2 34.5208 107.6671 40.1230 0.0000 0.0000 0.0000
# 3 32.3887 40.1230 88.6608 0.0000 0.0000 0.0000
# 4 0.0000 0.0000 0.0000 31.6203 0.0000 0.0000
# 5 0.0000 0.0000 0.0000 0.0000 17.2348 0.0000
# 6 0.0000 0.0000 0.0000 0.0000 0.0000 53.3107
#
#
#
# Elastic Compliance Matrix: (Units=1/GPa)
#
#
# Indices 1 2 3 4 5 6 
#
# 1 0.018611 -0.004130 -0.004930 0.000000 0.000000 0.000000
# 2 -0.004130 0.012089 -0.003962 0.000000 0.000000 0.000000
# 3 -0.004930 -0.003962 0.014873 0.000000 0.000000 0.000000
# 4 0.000000 0.000000 0.000000 0.031625 0.000000 0.000000
# 5 0.000000 0.000000 0.000000 0.000000 0.058022 0.000000
# 6 0.000000 0.000000 0.000000 0.000000 0.000000 0.018758
#
#
# Mechanical properties :
#
#
# Convention : Reuss Voigt Hill
#
# Bulk Modulus (GPa) = 51.20582 53.37374 52.28978
# Shear Modulus (GPa) = 26.80517 31.05090 28.92803
#
# Velocity S-wave (km/s) = 3.56461 3.83655 3.70308
# Velocity P-wave (km/s) = 6.41990 6.70270 6.56282
#
# Compressibility (1/GPa) = 0.01952903
#
# Stress axis : x y z
#
# Youngs Moduli (GPa) = 53.73079 82.72311 67.23699
#
# Poissons Ratio (x) = 0.34166 0.33147
# Poissons Ratio (y) = 0.22191 0.26638
# Poissons Ratio (z) = 0.26488 0.32773
#
# Static dielectric constant tensor:
#      x y z
#    x 3.860890 0.000000 0.000000 
#    y 0.000000 3.999350 0.000000 
#    z 0.000000 0.000000 3.812010 
# 
# 
# High freq. dielectric constant tensor:
#      x y z
#    x 1.821710 0.000000 0.000000 
#    y 0.000000 1.847300 0.000000 
#    z 0.000000 0.000000 1.817100 
# 
# From -- ./inp_files/28650.got.cif
#   From: 2010.03.12/outbox.cif.g09.slc.cpg/sg20_15_cif.got.tgz:28650.got - 2010.04.14 01:38:04.
