data_PCOD8159481
_publ_section_title
;
Structure prediction by ZEFSAII (Michael W. Deem and Ramdas Pophale) SiO2 
 PCOD8159481
Probable space group: C 2 2 21
;
_chemical_formula_sum "Si O2"
_cell_formula_units_Z 60
_cell_length_a 25.521965
_cell_length_b 13.422468
_cell_length_c 8.059620
_cell_angle_alpha 90.000000
_cell_angle_beta 90.000000
_cell_angle_gamma 90.000000
_cell_volume 2760.965958
_symmetry_space_group_name_H-M "C 2 2 21"
_symmetry_group_IT_number 20
_symmetry_cell_setting 'orthorhombic'
loop_
_space_group_symop_operation_xyz
x,y,z
-x,-y,1/2+z
x,-y,-z
-x,y,1/2-z
1/2+x,1/2+y,z
1/2-x,1/2-y,1/2+z
1/2+x,1/2-y,-z
1/2-x,1/2+y,1/2-z
loop_
_atom_site_type_symbol
_atom_site_label
_atom_site_fract_x
_atom_site_fract_y
_atom_site_fract_z
Si Si1 0.312775 0.726633 0.476895
Si Si2 0.880373 0.105804 0.705205
Si Si3 0.839982 0.000000 0.000000
Si Si4 0.497931 0.188827 0.937692
Si Si5 0.200973 0.205796 0.403792
Si Si6 0.485036 0.398598 0.436056
Si Si7 0.389825 0.197537 0.097208
Si Si8 0.606356 0.889887 0.935520
O O1 0.329062 0.636889 0.600594
O O2 0.259256 0.763494 0.555176
O O3 0.304991 0.688574 0.291405
O O4 0.356898 0.812463 0.466771
O O5 0.922914 0.080718 0.565477
O O6 0.902145 0.196768 0.817529
O O7 0.873025 0.011577 0.829073
O O8 0.805840 0.099728 0.007294
O O9 0.500000 0.150740 0.750000
O O10 0.501481 0.308698 0.941330
O O11 0.441155 0.156421 0.004367
O O12 0.545085 0.138868 0.041460
O O13 0.159492 0.287909 0.472853
O O14 0.513376 0.500000 0.500000
O O15 0.500000 0.370868 0.250000
O O16 0.377767 0.116583 0.240983
O O17 0.618005 0.000000 0.000000
#
# Coordination Sequence:
#
# PCOD8159481 Si02
#       8
#     8   8   4   8   8   8   8   8
#     4  11  23  45  67  95 132 176 216 279 342 396
#     4  10  22  39  63  90 132 170 217 268 337 388
#     4  10  24  38  64 100 124 174 218 274 322 410
#     4  12  23  41  63  95 133 175 219 276 334 393
#     4  11  24  43  70  95 133 172 222 272 339 406
#     4  12  24  37  59  91 129 174 217 268 323 401
#     4  10  21  43  67  89 132 174 212 274 333 391
#     4  11  24  43  70  97 129 175 228 278 336 399
#
# _framework density 21.731524
#
# number of rings (size 3 to 8) (size 9 to 14) (size 15 to 20)
#    0.000    1.067    4.000    4.000    3.733    2.133 
#    0.000    2.000    0.000    0.000    0.000    0.000 
#    0.000    0.000    0.000    0.000    0.000    0.000 
#
# Total GULP energy -371936.098562 kJ/mol
# GULP energy per Si atom -12397.869952 kJ/mol
# Density = 2.168206 g / cm^3
# Si number density = 21.731524 Si / 1000 Ang^3
#
#
#
# Elastic Constant Matrix: (Units=GPa)
#
#
# Indices 1 2 3 4 5 6 
#
# 1 116.9307 11.8449 22.0895 0.0000 0.0000 0.0000
# 2 11.8449 71.2294 20.9020 0.0000 0.0000 0.0000
# 3 22.0895 20.9020 117.2062 0.0000 0.0000 0.0000
# 4 0.0000 0.0000 0.0000 33.6258 0.0000 0.0000
# 5 0.0000 0.0000 0.0000 0.0000 36.2723 0.0000
# 6 0.0000 0.0000 0.0000 0.0000 0.0000 12.5689
#
#
#
# Elastic Compliance Matrix: (Units=1/GPa)
#
#
# Indices 1 2 3 4 5 6 
#
# 1 0.008941 -0.001047 -0.001498 0.000000 0.000000 0.000000
# 2 -0.001047 0.014937 -0.002466 0.000000 0.000000 0.000000
# 3 -0.001498 -0.002466 0.009254 0.000000 0.000000 0.000000
# 4 0.000000 0.000000 0.000000 0.029739 0.000000 0.000000
# 5 0.000000 0.000000 0.000000 0.000000 0.027569 0.000000
# 6 0.000000 0.000000 0.000000 0.000000 0.000000 0.079562
#
#
# Mechanical properties :
#
#
# Convention : Reuss Voigt Hill
#
# Bulk Modulus (GPa) = 43.27411 46.11547 44.69479
# Shear Modulus (GPa) = 26.63410 33.19539 29.91475
#
# Velocity S-wave (km/s) = 3.50465 3.91259 3.71423
# Velocity P-wave (km/s) = 6.02769 6.45583 6.24543
#
# Compressibility (1/GPa) = 0.02310850
#
# Stress axis : x y z
#
# Youngs Moduli (GPa) = 111.84171 66.94765 108.05886
#
# Poissons Ratio (x) = 0.07011 0.16191
# Poissons Ratio (y) = 0.11712 0.26652
# Poissons Ratio (z) = 0.16758 0.16512
#
# Static dielectric constant tensor:
#      x y z
#    x 4.029370 0.000000 0.000000 
#    y 0.000000 3.700830 0.000000 
#    z 0.000000 0.000000 4.075760 
# 
# 
# High freq. dielectric constant tensor:
#      x y z
#    x 1.857210 0.000000 0.000000 
#    y 0.000000 1.828140 0.000000 
#    z 0.000000 0.000000 1.866610 
# 
# From -- ./inp_files/10784.got.cif
#   From: 2010.03.12/outbox.cif.g09.slc.cpg/sg20_6_cif.got.tgz:10784.got - 2010.04.14 01:38:04.
