data_PCOD8159140
_publ_section_title
;
Structure prediction by ZEFSAII (Michael W. Deem and Ramdas Pophale) SiO2 
 PCOD8159140
Probable space group: C 2 2 21
;
_chemical_formula_sum "Si O2"
_cell_formula_units_Z 48
_cell_length_a 8.940096
_cell_length_b 17.464634
_cell_length_c 14.562841
_cell_angle_alpha 90.000000
_cell_angle_beta 90.000000
_cell_angle_gamma 90.000000
_cell_volume 2273.776527
_symmetry_space_group_name_H-M "C 2 2 21"
_symmetry_group_IT_number 20
_symmetry_cell_setting 'orthorhombic'
loop_
_space_group_symop_operation_xyz
x,y,z
-x,-y,1/2+z
x,-y,-z
-x,y,1/2-z
1/2+x,1/2+y,z
1/2-x,1/2-y,1/2+z
1/2+x,1/2-y,-z
1/2-x,1/2+y,1/2-z
loop_
_atom_site_type_symbol
_atom_site_label
_atom_site_fract_x
_atom_site_fract_y
_atom_site_fract_z
Si Si1 0.000000 0.231076 0.250000
Si Si2 0.855577 0.805321 0.018440
Si Si3 0.585678 0.351946 0.157494
Si Si4 0.028066 0.681455 0.928214
Si Si5 0.500000 0.064399 0.250000
Si Si6 0.224322 0.316765 0.826521
Si Si7 0.853088 0.460832 0.095572
O O1 0.962483 0.285214 0.165125
O O2 0.152656 0.181197 0.243363
O O3 0.702043 0.797165 0.073964
O O4 0.968186 0.860062 0.073566
O O5 0.814107 0.839705 0.919223
O O6 0.937229 0.722357 0.010856
O O7 0.500000 0.376827 0.250000
O O8 0.642835 0.265013 0.166392
O O9 0.719828 0.409318 0.135592
O O10 0.996780 0.591233 0.931220
O O11 0.393585 0.116977 0.311008
O O12 0.402684 0.016299 0.177641
O O13 0.801733 0.500000 0.000000
#
# Coordination Sequence:
#
# PCOD8159140 Si02
#       7
#     4   8   8   8   4   8   8
#     4  10  21  36  70  97 134 168 248 280 351 394
#     4  11  22  39  74 101 137 176 255 291 354 413
#     4  12  25  46  74 106 143 194 252 303 362 446
#     4  11  21  40  67 105 134 186 227 301 348 438
#     4  12  29  48  72 109 156 190 242 300 385 440
#     4  11  23  44  72 110 139 191 242 308 347 436
#     4  12  28  48  70 104 157 196 234 301 393 443
#
# _framework density 21.110253
#
# number of rings (size 3 to 8) (size 9 to 14) (size 15 to 20)
#    0.000    0.667    5.833    2.500    2.333    2.667 
#    4.500    0.833    0.000    0.000    0.000    0.000 
#    0.000    0.000    0.000    0.000    0.000    0.000 
#
# Total GULP energy -297487.808929 kJ/mol
# GULP energy per Si atom -12395.325372 kJ/mol
# Density = 2.106221 g / cm^3
# Si number density = 21.110253 Si / 1000 Ang^3
#
#
#
# Elastic Constant Matrix: (Units=GPa)
#
#
# Indices 1 2 3 4 5 6 
#
# 1 149.0798 68.3585 46.4850 0.0000 0.0000 0.0000
# 2 68.3585 115.2566 54.4023 0.0000 0.0000 0.0000
# 3 46.4850 54.4023 119.9184 0.0000 0.0000 0.0000
# 4 0.0000 0.0000 0.0000 27.8155 0.0000 0.0000
# 5 0.0000 0.0000 0.0000 0.0000 46.3861 0.0000
# 6 0.0000 0.0000 0.0000 0.0000 0.0000 39.0215
#
#
#
# Elastic Compliance Matrix: (Units=1/GPa)
#
#
# Indices 1 2 3 4 5 6 
#
# 1 0.009399 -0.004905 -0.001418 0.000000 0.000000 0.000000
# 2 -0.004905 0.013600 -0.004268 0.000000 0.000000 0.000000
# 3 -0.001418 -0.004268 0.010825 0.000000 0.000000 0.000000
# 4 0.000000 0.000000 0.000000 0.035951 0.000000 0.000000
# 5 0.000000 0.000000 0.000000 0.000000 0.021558 0.000000
# 6 0.000000 0.000000 0.000000 0.000000 0.000000 0.025627
#
#
# Mechanical properties :
#
#
# Convention : Reuss Voigt Hill
#
# Bulk Modulus (GPa) = 79.10810 80.30516 79.70663
# Shear Modulus (GPa) = 35.12254 36.97855 36.05055
#
# Velocity S-wave (km/s) = 4.08335 4.18986 4.13695
# Velocity P-wave (km/s) = 7.73220 7.84410 7.78835
#
# Compressibility (1/GPa) = 0.01264093
#
# Stress axis : x y z
#
# Youngs Moduli (GPa) = 106.39113 73.52732 92.37714
#
# Poissons Ratio (x) = 0.36067 0.13101
# Poissons Ratio (y) = 0.52188 0.39431
# Poissons Ratio (z) = 0.15088 0.31385
#
# Static dielectric constant tensor:
#      x y z
#    x 4.306460 0.000000 0.000000 
#    y 0.000000 3.630250 0.000000 
#    z 0.000000 0.000000 4.043340 
# 
# 
# High freq. dielectric constant tensor:
#      x y z
#    x 1.851570 0.000000 0.000000 
#    y 0.000000 1.795830 0.000000 
#    z 0.000000 0.000000 1.839970 
# 
# From -- ./inp_files/18936.got.cif
#   From: 2010.03.12/outbox.cif.g09.slc.cpg/sg20_10_cif.got.tgz:18936.got - 2010.04.14 01:38:04.
