data_PCOD8159176
_publ_section_title
;
Structure prediction by ZEFSAII (Michael W. Deem and Ramdas Pophale) SiO2 
 PCOD8159176
Probable space group: C 2 2 21
;
_chemical_formula_sum "Si O2"
_cell_formula_units_Z 40
_cell_length_a 10.332038
_cell_length_b 9.420502
_cell_length_c 20.279675
_cell_angle_alpha 90.000000
_cell_angle_beta 90.000000
_cell_angle_gamma 90.000000
_cell_volume 1973.881295
_symmetry_space_group_name_H-M "C 2 2 21"
_symmetry_group_IT_number 20
_symmetry_cell_setting 'orthorhombic'
loop_
_space_group_symop_operation_xyz
x,y,z
-x,-y,1/2+z
x,-y,-z
-x,y,1/2-z
1/2+x,1/2+y,z
1/2-x,1/2-y,1/2+z
1/2+x,1/2-y,-z
1/2-x,1/2+y,1/2-z
loop_
_atom_site_type_symbol
_atom_site_label
_atom_site_fract_x
_atom_site_fract_y
_atom_site_fract_z
Si Si1 0.375888 0.542537 0.425314
Si Si2 0.293509 0.682273 0.238452
Si Si3 0.451481 0.318931 0.319280
Si Si4 0.516034 0.237089 0.842266
Si Si5 0.634124 0.053165 0.343775
O O1 0.397594 0.500000 0.500000
O O2 0.448027 0.431618 0.377690
O O3 0.442094 0.696605 0.412650
O O4 0.223489 0.552544 0.408755
O O5 0.193103 0.763072 0.191896
O O6 0.355425 0.778757 0.297130
O O7 0.413597 0.649458 0.189708
O O8 0.225422 0.549636 0.277137
O O9 0.500000 0.386578 0.250000
O O10 0.546909 0.192872 0.341006
O O11 0.457269 0.081970 0.848139
#
# Coordination Sequence:
#
# PCOD8159176 Si02
#       5
#     8   8   8   8   8
#     4  11  25  43  60  87 126 172 215 260 315 383
#     4   9  20  33  62  98 123 149 197 256 318 371
#     4  10  22  39  63  93 127 159 207 268 323 374
#     4  10  21  37  64  91 126 161 203 253 318 375
#     4  10  22  40  63  91 124 163 205 264 317 379
#
# _framework density 20.264645000000002
#
# number of rings (size 3 to 8) (size 9 to 14) (size 15 to 20)
#    0.000    2.000    2.000    0.000   14.000    1.600 
#    3.600    0.000    0.000    0.000    0.000    0.000 
#    0.000    0.000    0.000    0.000    0.000    0.000 
#
# Total GULP energy -247768.795599 kJ/mol
# GULP energy per Si atom -12388.439780 kJ/mol
# Density = 2.021852 g / cm^3
# Si number density = 20.264645 Si / 1000 Ang^3
#
#
#
# Elastic Constant Matrix: (Units=GPa)
#
#
# Indices 1 2 3 4 5 6 
#
# 1 95.7503 42.2875 37.8944 0.0000 0.0000 0.0000
# 2 42.2875 99.0394 50.6651 0.0000 0.0000 0.0000
# 3 37.8944 50.6651 126.3429 0.0000 0.0000 0.0000
# 4 0.0000 0.0000 0.0000 21.8528 0.0000 0.0000
# 5 0.0000 0.0000 0.0000 0.0000 20.3587 0.0000
# 6 0.0000 0.0000 0.0000 0.0000 0.0000 30.5804
#
#
#
# Elastic Compliance Matrix: (Units=1/GPa)
#
#
# Indices 1 2 3 4 5 6 
#
# 1 0.013322 -0.004585 -0.002157 0.000000 0.000000 0.000000
# 2 -0.004585 0.014281 -0.004352 0.000000 0.000000 0.000000
# 3 -0.002157 -0.004352 0.010307 0.000000 0.000000 0.000000
# 4 0.000000 0.000000 0.000000 0.045761 0.000000 0.000000
# 5 0.000000 0.000000 0.000000 0.000000 0.049119 0.000000
# 6 0.000000 0.000000 0.000000 0.000000 0.000000 0.032701
#
#
# Mechanical properties :
#
#
# Convention : Reuss Voigt Hill
#
# Bulk Modulus (GPa) = 63.60169 64.75852 64.18011
# Shear Modulus (GPa) = 25.91762 27.24410 26.58086
#
# Velocity S-wave (km/s) = 3.58013 3.67060 3.62565
# Velocity P-wave (km/s) = 6.96731 7.07038 7.01903
#
# Compressibility (1/GPa) = 0.01572285
#
# Stress axis : x y z
#
# Youngs Moduli (GPa) = 75.06130 70.02443 97.02087
#
# Poissons Ratio (x) = 0.32105 0.20930
# Poissons Ratio (y) = 0.34414 0.42220
# Poissons Ratio (z) = 0.16193 0.30472
#
# Static dielectric constant tensor:
#      x y z
#    x 4.103720 0.000000 0.000000 
#    y 0.000000 3.569340 0.000000 
#    z 0.000000 0.000000 3.360380 
# 
# 
# High freq. dielectric constant tensor:
#      x y z
#    x 1.818520 0.000000 0.000000 
#    y 0.000000 1.785110 0.000000 
#    z 0.000000 0.000000 1.749630 
# 
# From -- ./inp_files/27090.got.cif
#   From: 2010.03.12/outbox.cif.g09.slc.cpg/sg20_14_cif.got.tgz:27090.got - 2010.04.14 01:38:04.
