data_PCOD8159769
_publ_section_title
;
Structure prediction by ZEFSAII (Michael W. Deem and Ramdas Pophale) SiO2 
 PCOD8159769
Probable space group: C 2 2 21
;
_chemical_formula_sum "Si O2"
_cell_formula_units_Z 44
_cell_length_a 7.629847
_cell_length_b 29.706057
_cell_length_c 8.315151
_cell_angle_alpha 90.000000
_cell_angle_beta 90.000000
_cell_angle_gamma 90.000000
_cell_volume 1884.651175
_symmetry_space_group_name_H-M "C 2 2 21"
_symmetry_group_IT_number 20
_symmetry_cell_setting 'orthorhombic'
loop_
_space_group_symop_operation_xyz
x,y,z
-x,-y,1/2+z
x,-y,-z
-x,y,1/2-z
1/2+x,1/2+y,z
1/2-x,1/2-y,1/2+z
1/2+x,1/2-y,-z
1/2-x,1/2+y,1/2-z
loop_
_atom_site_type_symbol
_atom_site_label
_atom_site_fract_x
_atom_site_fract_y
_atom_site_fract_z
Si Si1 0.255030 0.500000 0.000000
Si Si2 0.500000 0.037759 0.750000
Si Si3 0.771901 0.613611 0.839298
Si Si4 0.679802 0.728246 0.057595
Si Si5 0.000000 0.251324 0.750000
Si Si6 0.000000 0.693587 0.750000
Si Si7 0.000000 0.846643 0.750000
Si Si8 0.905915 0.904886 0.009909
O O1 0.133860 0.505712 0.843756
O O2 0.383070 0.542317 0.023000
O O3 0.398936 0.071054 0.874435
O O4 0.717179 0.611543 0.652058
O O5 0.608363 0.607506 0.956222
O O6 0.872018 0.661328 0.858584
O O7 0.605457 0.775188 0.125737
O O8 0.587086 0.684114 0.117799
O O9 0.883642 0.723517 0.113366
O O10 0.647342 0.726053 0.862361
O O11 0.140121 0.877744 0.653670
#
# Coordination Sequence:
#
# PCOD8159769 Si02
#       8
#     4   4   8   8   4   4   4   8
#     4  10  22  42  66  98 134 188 236 296 384 440
#     4   9  20  41  65  94 132 172 232 288 356 447
#     4   9  21  40  65  96 133 180 238 291 363 429
#     4  11  27  45  74 102 148 193 250 291 375 430
#     4  12  28  52  71 113 143 205 241 311 352 454
#     4  10  22  42  68 102 131 197 232 306 352 436
#     4  11  26  43  62 109 142 190 239 311 358 437
#     4  10  23  40  66  98 137 182 238 303 360 447
#
# _framework density 23.346494
#
# number of rings (size 3 to 8) (size 9 to 14) (size 15 to 20)
#    0.000    1.818    0.000    2.182   10.182    5.091 
#    0.000    0.909    0.000    0.000    0.000    0.000 
#    0.000    0.000    0.000    0.000    0.000    0.000 
#
# Total GULP energy -272556.871918 kJ/mol
# GULP energy per Si atom -12388.948724 kJ/mol
# Density = 2.329336 g / cm^3
# Si number density = 23.346494 Si / 1000 Ang^3
#
#
#
# Elastic Constant Matrix: (Units=GPa)
#
#
# Indices 1 2 3 4 5 6 
#
# 1 104.6002 46.1859 32.3330 0.0000 0.0000 0.0000
# 2 46.1859 161.7792 49.5484 0.0000 0.0000 0.0000
# 3 32.3330 49.5484 111.8970 0.0000 0.0000 0.0000
# 4 0.0000 0.0000 0.0000 333.6864 0.0000 0.0000
# 5 0.0000 0.0000 0.0000 0.0000 47.5207 0.0000
# 6 0.0000 0.0000 0.0000 0.0000 0.0000 18.2628
#
#
#
# Elastic Compliance Matrix: (Units=1/GPa)
#
#
# Indices 1 2 3 4 5 6 
#
# 1 0.011364 -0.002590 -0.002137 0.000000 0.000000 0.000000
# 2 -0.002590 0.007741 -0.002680 0.000000 0.000000 0.000000
# 3 -0.002137 -0.002680 0.010741 0.000000 0.000000 0.000000
# 4 0.000000 0.000000 0.000000 0.002997 0.000000 0.000000
# 5 0.000000 0.000000 0.000000 0.000000 0.021043 0.000000
# 6 0.000000 0.000000 0.000000 0.000000 0.000000 0.054756
#
#
# Mechanical properties :
#
#
# Convention : Reuss Voigt Hill
#
# Bulk Modulus (GPa) = 66.51728 70.49011 68.50370
# Shear Modulus (GPa) = 38.92054 96.57459 67.74756
#
# Velocity S-wave (km/s) = 4.08742 6.43860 5.39271
# Velocity P-wave (km/s) = 7.12946 9.24839 8.25718
#
# Compressibility (1/GPa) = 0.01503369
#
# Stress axis : x y z
#
# Youngs Moduli (GPa) = 87.99470 129.17720 93.10313
#
# Poissons Ratio (x) = 0.33455 0.19896
# Poissons Ratio (y) = 0.22790 0.24947
# Poissons Ratio (z) = 0.18804 0.34613
#
# Static dielectric constant tensor:
#      x y z
#    x -9.508330 0.000000 0.000000 
#    y 0.000000 4.248310 0.000000 
#    z 0.000000 0.000000 4.067610 
# 
# 
# High freq. dielectric constant tensor:
#      x y z
#    x 1.928980 0.000000 0.000000 
#    y 0.000000 1.926770 0.000000 
#    z 0.000000 0.000000 1.920560 
# 
# From -- ./inp_files/6427.got.cif
#   From: 2010.03.12/outbox.cif.g09.slc.cpg/sg20_4_cif.got.tgz:6427.got - 2010.04.14 01:38:04.
