data_PCOD8159013
_publ_section_title
;
Structure prediction by ZEFSAII (Michael W. Deem and Ramdas Pophale) SiO2 
 PCOD8159013
Probable space group: C 2 2 21
;
_chemical_formula_sum "Si O2"
_cell_formula_units_Z 56
_cell_length_a 21.718405
_cell_length_b 8.235298
_cell_length_c 14.394871
_cell_angle_alpha 90.000000
_cell_angle_beta 90.000000
_cell_angle_gamma 90.000000
_cell_volume 2574.631176
_symmetry_space_group_name_H-M "C 2 2 21"
_symmetry_group_IT_number 20
_symmetry_cell_setting 'orthorhombic'
loop_
_space_group_symop_operation_xyz
x,y,z
-x,-y,1/2+z
x,-y,-z
-x,y,1/2-z
1/2+x,1/2+y,z
1/2-x,1/2-y,1/2+z
1/2+x,1/2-y,-z
1/2-x,1/2+y,1/2-z
loop_
_atom_site_type_symbol
_atom_site_label
_atom_site_fract_x
_atom_site_fract_y
_atom_site_fract_z
Si Si1 0.240345 0.180187 0.376145
Si Si2 0.000000 0.511091 0.250000
Si Si3 0.069010 0.957888 0.727820
Si Si4 0.107462 0.839441 0.547107
Si Si5 0.663069 0.000000 0.000000
Si Si6 0.392058 0.820416 0.337472
Si Si7 0.708370 0.991595 0.284409
Si Si8 0.600990 0.206979 0.356909
O O1 0.179676 0.139515 0.433408
O O2 0.243752 0.374606 0.357387
O O3 0.298461 0.119892 0.434594
O O4 0.241286 0.084612 0.277788
O O5 0.043259 0.401281 0.187315
O O6 0.041120 0.620934 0.317320
O O7 0.071815 0.817408 0.645720
O O8 0.099780 0.874322 0.819257
O O9 0.000000 0.011619 0.750000
O O10 0.106381 0.113815 0.690081
O O11 0.094904 0.702127 0.469645
O O12 0.080647 0.000000 0.500000
O O13 0.621346 0.128116 0.943190
O O14 0.335112 0.876472 0.275813
O O15 0.665731 0.121568 0.336500
#
# Coordination Sequence:
#
# PCOD8159013 Si02
#       8
#     8   4   8   8   4   8   8   8
#     4  11  22  42  65  95 132 180 218 270 345 392
#     4  10  20  42  62  92 138 178 218 278 346 404
#     4  11  21  40  67  93 130 176 224 279 342 401
#     4  10  22  39  64  93 128 171 222 281 325 395
#     4  10  24  42  66 102 146 172 216 296 332 396
#     4  10  21  40  64  96 131 178 219 270 349 407
#     4  10  24  39  66  93 131 177 221 271 341 407
#     4  10  23  42  64  96 133 172 234 285 335 405
#
# _framework density 21.750688
#
# number of rings (size 3 to 8) (size 9 to 14) (size 15 to 20)
#    0.000    1.714    3.571    0.000    4.000    1.714 
#    0.000    1.429    0.000    3.429    0.000    0.000 
#    0.000    0.000    0.000    0.000    0.000    0.000 
#
# Total GULP energy -347013.810312 kJ/mol
# GULP energy per Si atom -12393.350368 kJ/mol
# Density = 2.170118 g / cm^3
# Si number density = 21.750688 Si / 1000 Ang^3
#
#
#
# Elastic Constant Matrix: (Units=GPa)
#
#
# Indices 1 2 3 4 5 6 
#
# 1 79.4903 34.3932 38.0980 0.0000 0.0000 0.0000
# 2 34.3932 116.7166 46.3442 0.0000 0.0000 0.0000
# 3 38.0980 46.3442 101.4364 0.0000 0.0000 0.0000
# 4 0.0000 0.0000 0.0000 30.3866 0.0000 0.0000
# 5 0.0000 0.0000 0.0000 0.0000 33.7276 0.0000
# 6 0.0000 0.0000 0.0000 0.0000 0.0000 27.4106
#
#
#
# Elastic Compliance Matrix: (Units=1/GPa)
#
#
# Indices 1 2 3 4 5 6 
#
# 1 0.016087 -0.002860 -0.004735 0.000000 0.000000 0.000000
# 2 -0.002860 0.010975 -0.003940 0.000000 0.000000 0.000000
# 3 -0.004735 -0.003940 0.013437 0.000000 0.000000 0.000000
# 4 0.000000 0.000000 0.000000 0.032909 0.000000 0.000000
# 5 0.000000 0.000000 0.000000 0.000000 0.029649 0.000000
# 6 0.000000 0.000000 0.000000 0.000000 0.000000 0.036482
#
#
# Mechanical properties :
#
#
# Convention : Reuss Voigt Hill
#
# Bulk Modulus (GPa) = 57.37850 59.47936 58.42893
# Shear Modulus (GPa) = 29.68757 30.22548 29.95653
#
# Velocity S-wave (km/s) = 3.69847 3.73182 3.71518
# Velocity P-wave (km/s) = 6.68398 6.78041 6.73237
#
# Compressibility (1/GPa) = 0.01742813
#
# Stress axis : x y z
#
# Youngs Moduli (GPa) = 62.16104 91.11586 74.42125
#
# Poissons Ratio (x) = 0.26061 0.35241
# Poissons Ratio (y) = 0.17780 0.29322
# Poissons Ratio (z) = 0.29435 0.35900
#
# Static dielectric constant tensor:
#      x y z
#    x 3.755510 0.000000 0.000000 
#    y 0.000000 4.018020 0.000000 
#    z 0.000000 0.000000 4.221050 
# 
# 
# High freq. dielectric constant tensor:
#      x y z
#    x 1.848220 0.000000 0.000000 
#    y 0.000000 1.854710 0.000000 
#    z 0.000000 0.000000 1.850670 
# 
# From -- ./inp_files/21799.got.cif
#   From: 2010.03.12/outbox.cif.g09.slc.cpg/sg20_11_cif.got.tgz:21799.got - 2010.04.14 01:38:04.
