data_PCOD8159732
_publ_section_title
;
Structure prediction by ZEFSAII (Michael W. Deem and Ramdas Pophale) SiO2 
 PCOD8159732
Probable space group: C 2 2 21
;
_chemical_formula_sum "Si O2"
_cell_formula_units_Z 32
_cell_length_a 8.647469
_cell_length_b 12.207686
_cell_length_c 14.641576
_cell_angle_alpha 90.000000
_cell_angle_beta 90.000000
_cell_angle_gamma 90.000000
_cell_volume 1545.646554
_symmetry_space_group_name_H-M "C 2 2 21"
_symmetry_group_IT_number 20
_symmetry_cell_setting 'orthorhombic'
loop_
_space_group_symop_operation_xyz
x,y,z
-x,-y,1/2+z
x,-y,-z
-x,y,1/2-z
1/2+x,1/2+y,z
1/2-x,1/2-y,1/2+z
1/2+x,1/2-y,-z
1/2-x,1/2+y,1/2-z
loop_
_atom_site_type_symbol
_atom_site_label
_atom_site_fract_x
_atom_site_fract_y
_atom_site_fract_z
Si Si1 0.116225 0.458927 0.601710
Si Si2 0.685924 0.723941 0.599225
Si Si3 0.668199 0.830770 0.279611
Si Si4 0.638029 0.197923 0.081635
O O1 0.144749 0.500000 0.500000
O O2 0.226425 0.352900 0.616134
O O3 0.157498 0.550980 0.674037
O O4 0.936913 0.418075 0.614412
O O5 0.723025 0.657030 0.691090
O O6 0.502787 0.713017 0.575681
O O7 0.789067 0.677240 0.517425
O O8 0.500000 0.788691 0.250000
O O9 0.733349 0.740040 0.348725
#
# Coordination Sequence:
#
# PCOD8159732 Si02
#       4
#     8   8   8   8
#     4  10  22  42  74  93 139 191 227 283 371 401
#     4  10  22  41  72  98 139 184 235 296 341 423
#     4  12  23  41  71 101 142 185 231 287 353 421
#     4  10  22  43  70 102 138 183 237 291 348 422
#
# _framework density 20.703310999999999
#
# number of rings (size 3 to 8) (size 9 to 14) (size 15 to 20)
#    1.500    0.000    2.500    3.750    3.500    0.000 
#    0.000    2.500   22.000    0.000    0.000    0.000 
#    0.000    0.000    0.000    0.000    0.000    0.000 
#
# Total GULP energy -198291.503652 kJ/mol
# GULP energy per Si atom -12393.218978 kJ/mol
# Density = 2.065619 g / cm^3
# Si number density = 20.703311 Si / 1000 Ang^3
#
#
#
# Elastic Constant Matrix: (Units=GPa)
#
#
# Indices 1 2 3 4 5 6 
#
# 1 83.8422 30.5124 48.2573 0.0000 0.0000 0.0000
# 2 30.5124 8.5642 18.5085 0.0000 0.0000 0.0000
# 3 48.2573 18.5085 136.2928 0.0000 0.0000 0.0000
# 4 0.0000 0.0000 0.0000 44.3872 0.0000 0.0000
# 5 0.0000 0.0000 0.0000 0.0000 47.8931 0.0000
# 6 0.0000 0.0000 0.0000 0.0000 0.0000 36.3871
#
#
#
# Elastic Compliance Matrix: (Units=1/GPa)
#
#
# Indices 1 2 3 4 5 6 
#
# 1 -0.035568 0.140839 -0.006532 0.000000 0.000000 0.000000
# 2 0.140839 -0.392412 0.003422 0.000000 0.000000 0.000000
# 3 -0.006532 0.003422 0.009185 0.000000 0.000000 0.000000
# 4 0.000000 0.000000 0.000000 0.022529 0.000000 0.000000
# 5 0.000000 0.000000 0.000000 0.000000 0.020880 0.000000
# 6 0.000000 0.000000 0.000000 0.000000 0.000000 0.027482
#
#
# Mechanical properties :
#
#
# Convention : Reuss Voigt Hill
#
# Bulk Modulus (GPa) = -6.97659 47.02839 20.02590
# Shear Modulus (GPa) = -7.45000 34.49487 13.52244
#
# Velocity S-wave (km/s) = -1.89902 4.08628 2.55846
# Velocity P-wave (km/s) = 2.86103 6.71031 4.29202
#
# Compressibility (1/GPa) = -0.14333648
#
# Stress axis : x y z
#
# Youngs Moduli (GPa) = -28.11516 -2.54834 108.86987
#
# Poissons Ratio (x) = 0.35891 0.71117
# Poissons Ratio (y) = 3.95971 -0.37260
# Poissons Ratio (z) = -0.18366 0.00872
#
# Static dielectric constant tensor:
#      x y z
#    x 3.699760 0.000000 0.000000 
#    y 0.000000 3.545700 0.000000 
#    z 0.000000 0.000000 3.875660 
# 
# 
# High freq. dielectric constant tensor:
#      x y z
#    x 1.800280 0.000000 0.000000 
#    y 0.000000 1.787170 0.000000 
#    z 0.000000 0.000000 1.826230 
# 
# From -- ./inp_files/18292.got.cif
#   From: 2010.03.12/outbox.cif.g09.slc.cpg/sg20_10_cif.got.tgz:18292.got - 2010.04.14 01:38:04.
