data_PCOD8159877
_publ_section_title
;
Structure prediction by ZEFSAII (Michael W. Deem and Ramdas Pophale) SiO2 
 PCOD8159877
Probable space group: C 2 2 21
;
_chemical_formula_sum "Si O2"
_cell_formula_units_Z 44
_cell_length_a 8.969133
_cell_length_b 10.951547
_cell_length_c 22.243718
_cell_angle_alpha 90.000000
_cell_angle_beta 90.000000
_cell_angle_gamma 90.000000
_cell_volume 2184.908811
_symmetry_space_group_name_H-M "C 2 2 21"
_symmetry_group_IT_number 20
_symmetry_cell_setting 'orthorhombic'
loop_
_space_group_symop_operation_xyz
x,y,z
-x,-y,1/2+z
x,-y,-z
-x,y,1/2-z
1/2+x,1/2+y,z
1/2-x,1/2-y,1/2+z
1/2+x,1/2-y,-z
1/2-x,1/2+y,1/2-z
loop_
_atom_site_type_symbol
_atom_site_label
_atom_site_fract_x
_atom_site_fract_y
_atom_site_fract_z
Si Si1 0.000000 0.757090 0.250000
Si Si2 0.752915 0.850433 0.827981
Si Si3 0.359909 0.740833 0.555078
Si Si4 0.244157 0.869848 0.328980
Si Si5 0.000000 0.736534 0.750000
Si Si6 0.335405 0.500000 0.500000
Si Si7 0.311307 0.789455 0.942807
O O1 0.884322 0.668020 0.282827
O O2 0.911939 0.844782 0.204386
O O3 0.733192 0.757743 0.883858
O O4 0.909518 0.821909 0.796053
O O5 0.754536 0.990061 0.850706
O O6 0.419530 0.601342 0.540906
O O7 0.512519 0.813847 0.558972
O O8 0.249082 0.784385 0.501612
O O9 0.384946 0.848884 0.285757
O O10 0.254840 0.778241 0.385077
O O11 0.242975 0.570896 0.448238
#
# Coordination Sequence:
#
# PCOD8159877 Si02
#       7
#     4   8   8   8   4   4   8
#     4  10  22  46  58  96 132 168 208 256 330 346
#     4  11  23  42  67  95 128 165 215 260 309 383
#     4  10  23  43  66  95 123 173 205 260 324 366
#     4  11  23  42  67  95 128 165 215 260 309 383
#     4  10  26  42  62 100 124 176 204 260 318 366
#     4   8  24  44  60  96 140 156 206 274 306 376
#     4  10  23  43  66  95 123 173 205 260 324 366
#
# _framework density 20.138141000000001
#
# number of rings (size 3 to 8) (size 9 to 14) (size 15 to 20)
#    1.091    0.727    1.818    1.091    2.545    6.545 
#   13.091    0.000    0.000    0.000    0.000    0.000 
#    0.000    0.000    0.000    0.000    0.000    0.000 
#
# Total GULP energy -272570.454379 kJ/mol
# GULP energy per Si atom -12389.566108 kJ/mol
# Density = 2.009231 g / cm^3
# Si number density = 20.138141 Si / 1000 Ang^3
#
#
#
# Elastic Constant Matrix: (Units=GPa)
#
#
# Indices 1 2 3 4 5 6 
#
# 1 81.4878 -2.3230 14.6344 0.0000 0.0000 0.0000
# 2 -2.3230 91.6244 20.2293 0.0000 0.0000 0.0000
# 3 14.6344 20.2293 103.2979 0.0000 0.0000 0.0000
# 4 0.0000 0.0000 0.0000 31.2194 0.0000 0.0000
# 5 0.0000 0.0000 0.0000 0.0000 27.4351 0.0000
# 6 0.0000 0.0000 0.0000 0.0000 0.0000 15.3523
#
#
#
# Elastic Compliance Matrix: (Units=1/GPa)
#
#
# Indices 1 2 3 4 5 6 
#
# 1 0.012641 0.000748 -0.001937 0.000000 0.000000 0.000000
# 2 0.000748 0.011452 -0.002349 0.000000 0.000000 0.000000
# 3 -0.001937 -0.002349 0.010415 0.000000 0.000000 0.000000
# 4 0.000000 0.000000 0.000000 0.032031 0.000000 0.000000
# 5 0.000000 0.000000 0.000000 0.000000 0.036450 0.000000
# 6 0.000000 0.000000 0.000000 0.000000 0.000000 0.065137
#
#
# Mechanical properties :
#
#
# Convention : Reuss Voigt Hill
#
# Bulk Modulus (GPa) = 36.45348 37.94352 37.19850
# Shear Modulus (GPa) = 27.12300 31.05932 29.09116
#
# Velocity S-wave (km/s) = 3.67392 3.93149 3.80489
# Velocity P-wave (km/s) = 6.01149 6.28421 6.14936
#
# Compressibility (1/GPa) = 0.02743223
#
# Stress axis : x y z
#
# Youngs Moduli (GPa) = 79.10739 87.32379 96.01391
#
# Poissons Ratio (x) = -0.06534 0.18602
# Poissons Ratio (y) = -0.05919 0.22550
# Poissons Ratio (z) = 0.15326 0.20509
#
# Static dielectric constant tensor:
#      x y z
#    x 3.629410 0.000000 0.000000 
#    y 0.000000 3.384830 0.000000 
#    z 0.000000 0.000000 3.693540 
# 
# 
# High freq. dielectric constant tensor:
#      x y z
#    x 1.789840 0.000000 0.000000 
#    y 0.000000 1.773520 0.000000 
#    z 0.000000 0.000000 1.791610 
# 
# From -- ./inp_files/28677.got.cif
#   From: 2010.03.12/outbox.cif.g09.slc.cpg/sg20_15_cif.got.tgz:28677.got - 2010.04.14 01:38:04.
