data_PCOD8159317
_publ_section_title
;
Structure prediction by ZEFSAII (Michael W. Deem and Ramdas Pophale) SiO2 
 PCOD8159317
Probable space group: C 2 2 21
;
_chemical_formula_sum "Si O2"
_cell_formula_units_Z 28
_cell_length_a 7.782555
_cell_length_b 12.393635
_cell_length_c 12.902702
_cell_angle_alpha 90.000000
_cell_angle_beta 90.000000
_cell_angle_gamma 90.000000
_cell_volume 1244.519103
_symmetry_space_group_name_H-M "C 2 2 21"
_symmetry_group_IT_number 20
_symmetry_cell_setting 'orthorhombic'
loop_
_space_group_symop_operation_xyz
x,y,z
-x,-y,1/2+z
x,-y,-z
-x,y,1/2-z
1/2+x,1/2+y,z
1/2-x,1/2-y,1/2+z
1/2+x,1/2-y,-z
1/2-x,1/2+y,1/2-z
loop_
_atom_site_type_symbol
_atom_site_label
_atom_site_fract_x
_atom_site_fract_y
_atom_site_fract_z
Si Si1 0.239534 0.156919 0.683477
Si Si2 0.593335 0.891343 0.389222
Si Si3 0.291671 0.881299 0.884645
Si Si4 0.500000 0.524725 0.250000
O O1 0.314964 0.174063 0.798205
O O2 0.395022 0.144900 0.599674
O O3 0.136160 0.266741 0.656365
O O4 0.117761 0.052790 0.678414
O O5 0.710715 0.873885 0.490230
O O6 0.586096 0.018315 0.355849
O O7 0.104289 0.901707 0.832109
#
# Coordination Sequence:
#
# PCOD8159317 Si02
#       4
#     8   8   8   4
#     4  10  21  40  63  89 124 161 204 257 308 363
#     4   9  21  40  61  92 125 162 206 248 315 371
#     4  10  21  41  64  91 129 162 203 259 302 362
#     4  10  22  38  64  94 120 162 214 250 302 368
#
# _framework density 22.498650000000001
#
# number of rings (size 3 to 8) (size 9 to 14) (size 15 to 20)
#    0.000    2.286    0.000    1.714    0.000   11.429 
#    0.000   25.714    0.000    0.000    0.000    0.000 
#    0.000    0.000    0.000    0.000    0.000    0.000 
#
# Total GULP energy -173472.940589 kJ/mol
# GULP energy per Si atom -12390.924328 kJ/mol
# Density = 2.244744 g / cm^3
# Si number density = 22.498650 Si / 1000 Ang^3
#
#
#
# Elastic Constant Matrix: (Units=GPa)
#
#
# Indices 1 2 3 4 5 6 
#
# 1 72.0927 13.0512 40.2046 0.0000 0.0000 0.0000
# 2 13.0512 94.7074 44.6588 0.0000 0.0000 0.0000
# 3 40.2046 44.6588 122.7030 0.0000 0.0000 0.0000
# 4 0.0000 0.0000 0.0000 32.4602 0.0000 0.0000
# 5 0.0000 0.0000 0.0000 0.0000 41.5594 0.0000
# 6 0.0000 0.0000 0.0000 0.0000 0.0000 23.8720
#
#
#
# Elastic Compliance Matrix: (Units=1/GPa)
#
#
# Indices 1 2 3 4 5 6 
#
# 1 0.016982 0.000342 -0.005689 0.000000 0.000000 0.000000
# 2 0.000342 0.012753 -0.004754 0.000000 0.000000 0.000000
# 3 -0.005689 -0.004754 0.011744 0.000000 0.000000 0.000000
# 4 0.000000 0.000000 0.000000 0.030807 0.000000 0.000000
# 5 0.000000 0.000000 0.000000 0.000000 0.024062 0.000000
# 6 0.000000 0.000000 0.000000 0.000000 0.000000 0.041890
#
#
# Mechanical properties :
#
#
# Convention : Reuss Voigt Hill
#
# Bulk Modulus (GPa) = 46.99624 53.92581 50.46103
# Shear Modulus (GPa) = 30.20581 32.35087 31.27834
#
# Velocity S-wave (km/s) = 3.66807 3.79608 3.73263
# Velocity P-wave (km/s) = 6.23486 6.57527 6.40733
#
# Compressibility (1/GPa) = 0.02127830
#
# Stress axis : x y z
#
# Youngs Moduli (GPa) = 58.88748 78.41095 85.15043
#
# Poissons Ratio (x) = -0.02684 0.48440
# Poissons Ratio (y) = -0.02016 0.40479
# Poissons Ratio (z) = 0.33499 0.37275
#
# Static dielectric constant tensor:
#      x y z
#    x 3.952430 0.000000 0.000000 
#    y 0.000000 4.127600 0.000000 
#    z 0.000000 0.000000 3.945570 
# 
# 
# High freq. dielectric constant tensor:
#      x y z
#    x 1.863440 0.000000 0.000000 
#    y 0.000000 1.898980 0.000000 
#    z 0.000000 0.000000 1.874810 
# 
# From -- ./inp_files/12419.got.cif
#   From: 2010.03.12/outbox.cif.g09.slc.cpg/sg20_7_cif.got.tgz:12419.got - 2010.04.14 01:38:04.
