data_PCOD8159293
_publ_section_title
;
Structure prediction by ZEFSAII (Michael W. Deem and Ramdas Pophale) SiO2 
 PCOD8159293
Probable space group: C 2 2 21
;
_chemical_formula_sum "Si O2"
_cell_formula_units_Z 64
_cell_length_a 18.253853
_cell_length_b 11.524207
_cell_length_c 15.343127
_cell_angle_alpha 90.000000
_cell_angle_beta 90.000000
_cell_angle_gamma 90.000000
_cell_volume 3227.598309
_symmetry_space_group_name_H-M "C 2 2 21"
_symmetry_group_IT_number 20
_symmetry_cell_setting 'orthorhombic'
loop_
_space_group_symop_operation_xyz
x,y,z
-x,-y,1/2+z
x,-y,-z
-x,y,1/2-z
1/2+x,1/2+y,z
1/2-x,1/2-y,1/2+z
1/2+x,1/2-y,-z
1/2-x,1/2+y,1/2-z
loop_
_atom_site_type_symbol
_atom_site_label
_atom_site_fract_x
_atom_site_fract_y
_atom_site_fract_z
Si Si1 0.017889 0.303291 0.387394
Si Si2 0.256362 0.568886 0.421352
Si Si3 0.429925 0.584902 0.209748
Si Si4 0.177192 0.953510 0.405626
Si Si5 0.935583 0.452987 0.809566
Si Si6 0.858814 0.236431 0.336793
Si Si7 0.116562 0.706420 0.446552
Si Si8 0.291834 0.045049 0.746242
O O1 0.043463 0.213160 0.315785
O O2 0.045052 0.430141 0.361656
O O3 0.060118 0.268571 0.475465
O O4 0.928330 0.294334 0.388248
O O5 0.296240 0.500000 0.500000
O O6 0.299411 0.689833 0.405739
O O7 0.177504 0.606621 0.461738
O O8 0.249442 0.480965 0.337930
O O9 0.500000 0.515557 0.250000
O O10 0.396047 0.516406 0.129011
O O11 0.374483 0.614138 0.287737
O O12 0.158969 0.819465 0.413584
O O13 0.241758 0.982903 0.337555
O O14 0.200909 0.000000 0.500000
O O15 0.933640 0.341710 0.870457
O O16 0.863056 0.463102 0.749713
O O17 0.000000 0.414848 0.750000
O O18 0.820766 0.323252 0.266976
#
# Coordination Sequence:
#
# PCOD8159293 Si02
#       8
#     8   8   8   8   8   8   8   8
#     4  11  20  41  68  91 121 169 220 267 317 406
#     4  11  24  42  66  99 135 172 221 279 340 399
#     4  10  21  39  67  91 121 174 223 266 320 399
#     4  12  24  42  64  93 136 174 223 275 333 399
#     4  11  21  41  65  90 126 163 212 267 335 390
#     4  11  21  41  67  96 125 170 225 265 335 397
#     4  11  24  39  64  94 126 171 217 270 331 391
#     4  11  22  42  66  93 132 167 216 277 326 406
#
# _framework density 19.828986
#
# number of rings (size 3 to 8) (size 9 to 14) (size 15 to 20)
#    0.000    1.000    6.250    2.250    0.000    0.500 
#    6.750    1.250    0.000    0.000    0.000    0.000 
#    0.000    0.000    0.000    0.000    0.000    0.000 
#
# Total GULP energy -396453.858028 kJ/mol
# GULP energy per Si atom -12389.183063 kJ/mol
# Density = 1.978385 g / cm^3
# Si number density = 19.828986 Si / 1000 Ang^3
#
#
#
# Elastic Constant Matrix: (Units=GPa)
#
#
# Indices 1 2 3 4 5 6 
#
# 1 103.7456 30.1448 61.9518 0.0000 0.0000 0.0000
# 2 30.1448 73.5089 36.0927 0.0000 0.0000 0.0000
# 3 61.9518 36.0927 125.3462 0.0000 0.0000 0.0000
# 4 0.0000 0.0000 0.0000 23.6937 0.0000 0.0000
# 5 0.0000 0.0000 0.0000 0.0000 38.2111 0.0000
# 6 0.0000 0.0000 0.0000 0.0000 0.0000 79.6736
#
#
#
# Elastic Compliance Matrix: (Units=1/GPa)
#
#
# Indices 1 2 3 4 5 6 
#
# 1 0.014139 -0.002757 -0.006194 0.000000 0.000000 0.000000
# 2 -0.002757 0.016381 -0.003354 0.000000 0.000000 0.000000
# 3 -0.006194 -0.003354 0.012005 0.000000 0.000000 0.000000
# 4 0.000000 0.000000 0.000000 0.042205 0.000000 0.000000
# 5 0.000000 0.000000 0.000000 0.000000 0.026170 0.000000
# 6 0.000000 0.000000 0.000000 0.000000 0.000000 0.012551
#
#
# Mechanical properties :
#
#
# Convention : Reuss Voigt Hill
#
# Bulk Modulus (GPa) = 55.82039 62.10884 58.96462
# Shear Modulus (GPa) = 32.46019 39.94311 36.20165
#
# Velocity S-wave (km/s) = 4.05038 4.49305 4.27745
# Velocity P-wave (km/s) = 7.07716 7.63590 7.36183
#
# Compressibility (1/GPa) = 0.01791460
#
# Stress axis : x y z
#
# Youngs Moduli (GPa) = 70.72681 61.04525 83.29664
#
# Poissons Ratio (x) = 0.16829 0.51596
# Poissons Ratio (y) = 0.19498 0.27941
# Poissons Ratio (z) = 0.43810 0.20477
#
# Static dielectric constant tensor:
#      x y z
#    x 3.892200 0.000000 0.000000 
#    y 0.000000 3.438920 0.000000 
#    z 0.000000 0.000000 1.568960 
# 
# 
# High freq. dielectric constant tensor:
#      x y z
#    x 1.782970 0.000000 0.000000 
#    y 0.000000 1.763660 0.000000 
#    z 0.000000 0.000000 1.768670 
# 
# From -- ./inp_files/21511.got.cif
#   From: 2010.03.12/outbox.cif.g09.slc.cpg/sg20_11_cif.got.tgz:21511.got - 2010.04.14 01:38:04.
