data_PCOD8159826
_publ_section_title
;
Structure prediction by ZEFSAII (Michael W. Deem and Ramdas Pophale) SiO2 
 PCOD8159826
Probable space group: C 2 2 21
;
_chemical_formula_sum "Si O2"
_cell_formula_units_Z 44
_cell_length_a 9.485473
_cell_length_b 28.234179
_cell_length_c 7.774354
_cell_angle_alpha 90.000000
_cell_angle_beta 90.000000
_cell_angle_gamma 90.000000
_cell_volume 2082.085060
_symmetry_space_group_name_H-M "C 2 2 21"
_symmetry_group_IT_number 20
_symmetry_cell_setting 'orthorhombic'
loop_
_space_group_symop_operation_xyz
x,y,z
-x,-y,1/2+z
x,-y,-z
-x,y,1/2-z
1/2+x,1/2+y,z
1/2-x,1/2-y,1/2+z
1/2+x,1/2-y,-z
1/2-x,1/2+y,1/2-z
loop_
_atom_site_type_symbol
_atom_site_label
_atom_site_fract_x
_atom_site_fract_y
_atom_site_fract_z
Si Si1 0.100654 0.603657 0.090879
Si Si2 0.658573 0.203089 0.233132
Si Si3 0.000000 0.641288 0.750000
Si Si4 0.374928 0.563093 0.954847
Si Si5 0.253225 0.799927 0.113967
Si Si6 0.500000 0.512419 0.250000
Si Si7 0.000000 0.854414 0.250000
O O1 0.166629 0.655506 0.121811
O O2 0.000000 0.587617 0.250000
O O3 0.009301 0.607155 0.916199
O O4 0.227632 0.566032 0.060506
O O5 0.500000 0.222374 0.250000
O O6 0.710890 0.188992 0.419708
O O7 0.755269 0.243455 0.147700
O O8 0.135733 0.675128 0.740116
O O9 0.369388 0.523903 0.798391
O O10 0.407573 0.614277 0.879710
O O11 0.504582 0.546775 0.082380
O O12 0.099375 0.820912 0.140302
#
# Coordination Sequence:
#
# PCOD8159826 Si02
#       7
#     8   8   4   8   8   4   4
#     4  11  23  43  67 102 141 189 239 287 360 438
#     4  11  24  41  60  96 141 196 251 294 351 404
#     4  12  22  42  65  96 143 193 236 305 344 412
#     4  10  22  43  71 102 135 170 230 293 367 440
#     4  12  24  40  63  95 145 193 249 306 342 407
#     4   9  22  44  73  96 134 164 210 305 362 439
#     4  11  24  40  70 104 133 193 246 292 356 431
#
# _framework density 21.132663000000001
#
# number of rings (size 3 to 8) (size 9 to 14) (size 15 to 20)
#    0.000    1.091    6.364    1.091    2.545    0.000 
#    3.273    0.000    8.000    0.000    0.000    0.000 
#    0.000    0.000    0.000    0.000    0.000    0.000 
#
# Total GULP energy -272626.770095 kJ/mol
# GULP energy per Si atom -12392.125913 kJ/mol
# Density = 2.108456 g / cm^3
# Si number density = 21.132663 Si / 1000 Ang^3
#
#
#
# Elastic Constant Matrix: (Units=GPa)
#
#
# Indices 1 2 3 4 5 6 
#
# 1 100.3773 32.9425 52.4890 0.0000 0.0000 0.0000
# 2 32.9425 73.5896 35.5157 0.0000 0.0000 0.0000
# 3 52.4890 35.5157 139.4049 0.0000 0.0000 0.0000
# 4 0.0000 0.0000 0.0000 35.1167 0.0000 0.0000
# 5 0.0000 0.0000 0.0000 0.0000 47.4788 0.0000
# 6 0.0000 0.0000 0.0000 0.0000 0.0000 32.7069
#
#
#
# Elastic Compliance Matrix: (Units=1/GPa)
#
#
# Indices 1 2 3 4 5 6 
#
# 1 0.013390 -0.004060 -0.004007 0.000000 0.000000 0.000000
# 2 -0.004060 0.016725 -0.002732 0.000000 0.000000 0.000000
# 3 -0.004007 -0.002732 0.009378 0.000000 0.000000 0.000000
# 4 0.000000 0.000000 0.000000 0.028476 0.000000 0.000000
# 5 0.000000 0.000000 0.000000 0.000000 0.021062 0.000000
# 6 0.000000 0.000000 0.000000 0.000000 0.000000 0.030575
#
#
# Mechanical properties :
#
#
# Convention : Reuss Voigt Hill
#
# Bulk Modulus (GPa) = 55.88420 61.69627 58.79023
# Shear Modulus (GPa) = 33.97401 35.88878 34.93140
#
# Velocity S-wave (km/s) = 4.01391 4.12547 4.07007
# Velocity P-wave (km/s) = 6.92703 7.20769 7.06875
#
# Compressibility (1/GPa) = 0.01789414
#
# Stress axis : x y z
#
# Youngs Moduli (GPa) = 74.68003 59.79045 106.62914
#
# Poissons Ratio (x) = 0.24276 0.42730
# Poissons Ratio (y) = 0.30322 0.29133
# Poissons Ratio (z) = 0.29927 0.16336
#
# Static dielectric constant tensor:
#      x y z
#    x 3.559330 0.000000 0.000000 
#    y 0.000000 3.789450 0.000000 
#    z 0.000000 0.000000 3.970310 
# 
# 
# High freq. dielectric constant tensor:
#      x y z
#    x 1.804820 0.000000 0.000000 
#    y 0.000000 1.823610 0.000000 
#    z 0.000000 0.000000 1.842190 
# 
# From -- ./inp_files/6415.got.cif
#   From: 2010.03.12/outbox.cif.g09.slc.cpg/sg20_4_cif.got.tgz:6415.got - 2010.04.14 01:38:04.
