data_PCOD8159780
_publ_section_title
;
Structure prediction by ZEFSAII (Michael W. Deem and Ramdas Pophale) SiO2 
 PCOD8159780
Probable space group: C 2 2 21
;
_chemical_formula_sum "Si O2"
_cell_formula_units_Z 28
_cell_length_a 11.925856
_cell_length_b 8.605519
_cell_length_c 13.311540
_cell_angle_alpha 90.000000
_cell_angle_beta 90.000000
_cell_angle_gamma 90.000000
_cell_volume 1366.139129
_symmetry_space_group_name_H-M "C 2 2 21"
_symmetry_group_IT_number 20
_symmetry_cell_setting 'orthorhombic'
loop_
_space_group_symop_operation_xyz
x,y,z
-x,-y,1/2+z
x,-y,-z
-x,y,1/2-z
1/2+x,1/2+y,z
1/2-x,1/2-y,1/2+z
1/2+x,1/2-y,-z
1/2-x,1/2+y,1/2-z
loop_
_atom_site_type_symbol
_atom_site_label
_atom_site_fract_x
_atom_site_fract_y
_atom_site_fract_z
Si Si1 0.089512 0.329194 0.985103
Si Si2 0.624418 0.000000 0.500000
Si Si3 0.216433 0.874512 0.169180
Si Si4 0.116265 0.810644 0.801610
O O1 0.112562 0.218975 0.079588
O O2 0.145997 0.500000 0.000000
O O3 0.139688 0.251835 0.886170
O O4 0.955080 0.352649 0.971177
O O5 0.698259 0.040808 0.595049
O O6 0.283427 0.791084 0.257274
O O7 0.137844 0.006960 0.217487
O O8 0.000000 0.760812 0.750000
#
# Coordination Sequence:
#
# PCOD8159780 Si02
#       4
#     8   4   8   8
#     4  10  22  44  64  92 130 170 209 267 321 374
#     4  10  22  42  68  86 136 168 210 266 320 376
#     4  12  24  44  65  97 131 172 213 265 326 376
#     4  12  24  41  65  99 128 167 223 264 315 390
#
# _framework density 20.495715000000001
#
# number of rings (size 3 to 8) (size 9 to 14) (size 15 to 20)
#    0.857    0.000    5.714    1.714    0.000    2.286 
#    5.143    0.000    0.000    0.000    0.000    0.000 
#    0.000    0.000    0.000    0.000    0.000    0.000 
#
# Total GULP energy -173617.135422 kJ/mol
# GULP energy per Si atom -12401.223959 kJ/mol
# Density = 2.044907 g / cm^3
# Si number density = 20.495715 Si / 1000 Ang^3
#
#
#
# Elastic Constant Matrix: (Units=GPa)
#
#
# Indices 1 2 3 4 5 6 
#
# 1 69.9758 12.3999 9.3499 0.0000 0.0000 0.0000
# 2 12.3999 101.1344 -0.8747 0.0000 0.0000 0.0000
# 3 9.3499 -0.8747 29.0963 0.0000 0.0000 0.0000
# 4 0.0000 0.0000 0.0000 44.1033 0.0000 0.0000
# 5 0.0000 0.0000 0.0000 0.0000 19.7341 0.0000
# 6 0.0000 0.0000 0.0000 0.0000 0.0000 35.9979
#
#
#
# Elastic Compliance Matrix: (Units=1/GPa)
#
#
# Indices 1 2 3 4 5 6 
#
# 1 0.015295 -0.001918 -0.004973 0.000000 0.000000 0.000000
# 2 -0.001918 0.010131 0.000921 0.000000 0.000000 0.000000
# 3 -0.004973 0.000921 0.035994 0.000000 0.000000 0.000000
# 4 0.000000 0.000000 0.000000 0.022674 0.000000 0.000000
# 5 0.000000 0.000000 0.000000 0.000000 0.050674 0.000000
# 6 0.000000 0.000000 0.000000 0.000000 0.000000 0.027779
#
#
# Mechanical properties :
#
#
# Convention : Reuss Voigt Hill
#
# Bulk Modulus (GPa) = 20.21004 26.88408 23.54706
# Shear Modulus (GPa) = 26.18065 31.92248 29.05156
#
# Velocity S-wave (km/s) = 3.57791 3.95082 3.76898
# Velocity P-wave (km/s) = 5.19140 5.82730 5.51852
#
# Compressibility (1/GPa) = 0.04948037
#
# Stress axis : x y z
#
# Youngs Moduli (GPa) = 65.38086 98.70693 27.78225
#
# Poissons Ratio (x) = 0.18935 0.13815
# Poissons Ratio (y) = 0.12542 -0.02559
# Poissons Ratio (z) = 0.32511 -0.09091
#
# Static dielectric constant tensor:
#      x y z
#    x 3.759230 0.000000 0.000000 
#    y 0.000000 3.798680 0.000000 
#    z 0.000000 0.000000 3.495580 
# 
# 
# High freq. dielectric constant tensor:
#      x y z
#    x 1.804870 0.000000 0.000000 
#    y 0.000000 1.806120 0.000000 
#    z 0.000000 0.000000 1.795950 
# 
# From -- ./inp_files/14594.got.cif
#   From: 2010.03.12/outbox.cif.g09.slc.cpg/sg20_8_cif.got.tgz:14594.got - 2010.04.14 01:38:04.
