data_PCOD8159469
_publ_section_title
;
Structure prediction by ZEFSAII (Michael W. Deem and Ramdas Pophale) SiO2 
 PCOD8159469
Probable space group: C 2 2 21
;
_chemical_formula_sum "Si O2"
_cell_formula_units_Z 56
_cell_length_a 11.033395
_cell_length_b 14.634831
_cell_length_c 17.255842
_cell_angle_alpha 90.000000
_cell_angle_beta 90.000000
_cell_angle_gamma 90.000000
_cell_volume 2786.333097
_symmetry_space_group_name_H-M "C 2 2 21"
_symmetry_group_IT_number 20
_symmetry_cell_setting 'orthorhombic'
loop_
_space_group_symop_operation_xyz
x,y,z
-x,-y,1/2+z
x,-y,-z
-x,y,1/2-z
1/2+x,1/2+y,z
1/2-x,1/2-y,1/2+z
1/2+x,1/2-y,-z
1/2-x,1/2+y,1/2-z
loop_
_atom_site_type_symbol
_atom_site_label
_atom_site_fract_x
_atom_site_fract_y
_atom_site_fract_z
Si Si1 0.701762 0.500000 0.000000
Si Si2 0.776602 0.915482 0.801180
Si Si3 0.546336 0.197724 0.165596
Si Si4 0.019894 0.158381 0.964663
Si Si5 0.687645 0.899204 0.634076
Si Si6 0.000000 0.195457 0.250000
Si Si7 0.373096 0.758877 0.395473
Si Si8 0.267885 0.563925 0.931195
O O1 0.619909 0.581180 0.969576
O O2 0.789353 0.474747 0.929973
O O3 0.680816 0.843678 0.836537
O O4 0.732974 0.941837 0.715059
O O5 0.907632 0.868865 0.797009
O O6 0.790572 0.005880 0.853209
O O7 0.500000 0.229198 0.250000
O O8 0.545713 0.287095 0.113450
O O9 0.455258 0.119974 0.134711
O O10 0.888489 0.113031 0.962191
O O11 0.032401 0.223786 0.039606
O O12 0.755610 0.805472 0.611552
O O13 0.936512 0.261073 0.311897
O O14 0.334421 0.861224 0.415251
O O15 0.218988 0.500000 0.000000
#
# Coordination Sequence:
#
# PCOD8159469 Si02
#       8
#     4   8   8   8   8   4   8   8
#     4  10  22  40  62  96 124 164 206 262 310 366
#     4  10  23  40  66  93 127 166 211 271 310 365
#     4  10  21  43  63  89 127 169 205 255 321 379
#     4  11  22  38  66  94 125 163 214 256 313 382
#     4   9  20  43  63  89 130 164 206 257 318 377
#     4  10  22  46  66  88 128 172 214 258 324 376
#     4  10  22  42  64  90 126 168 208 261 318 379
#     4  12  23  40  64  98 126 162 216 263 316 376
#
# _framework density 20.098101
#
# number of rings (size 3 to 8) (size 9 to 14) (size 15 to 20)
#    0.000    1.714    2.143    1.714    4.000    1.143 
#    7.714    0.000    0.000    0.000    0.000    0.000 
#    0.000    0.000    0.000    0.000    0.000    0.000 
#
# Total GULP energy -347295.257988 kJ/mol
# GULP energy per Si atom -12403.402071 kJ/mol
# Density = 2.005236 g / cm^3
# Si number density = 20.098101 Si / 1000 Ang^3
#
#
#
# Elastic Constant Matrix: (Units=GPa)
#
#
# Indices 1 2 3 4 5 6 
#
# 1 98.8539 46.3483 43.4009 0.0000 0.0000 0.0000
# 2 46.3483 119.2555 83.3267 0.0000 0.0000 0.0000
# 3 43.4009 83.3267 135.6577 0.0000 0.0000 0.0000
# 4 0.0000 0.0000 0.0000 44.9294 0.0000 0.0000
# 5 0.0000 0.0000 0.0000 0.0000 30.6138 0.0000
# 6 0.0000 0.0000 0.0000 0.0000 0.0000 1377.9153
#
#
#
# Elastic Compliance Matrix: (Units=1/GPa)
#
#
# Indices 1 2 3 4 5 6 
#
# 1 0.012615 -0.003649 -0.001795 0.000000 0.000000 0.000000
# 2 -0.003649 0.015746 -0.008504 0.000000 0.000000 0.000000
# 3 -0.001795 -0.008504 0.013169 0.000000 0.000000 0.000000
# 4 0.000000 0.000000 0.000000 0.022257 0.000000 0.000000
# 5 0.000000 0.000000 0.000000 0.000000 0.032665 0.000000
# 6 0.000000 0.000000 0.000000 0.000000 0.000000 0.000726
#
#
# Mechanical properties :
#
#
# Convention : Reuss Voigt Hill
#
# Bulk Modulus (GPa) = 73.34423 77.76879 75.55651
# Shear Modulus (GPa) = 38.57516 302.73777 170.65647
#
# Velocity S-wave (km/s) = 4.38578 12.28646 9.22475
# Velocity P-wave (km/s) = 7.88791 15.49370 12.29377
#
# Compressibility (1/GPa) = 0.01363434
#
# Stress axis : x y z
#
# Youngs Moduli (GPa) = 79.27357 63.51009 75.93412
#
# Poissons Ratio (x) = 0.23173 0.13627
# Poissons Ratio (y) = 0.28924 0.64576
# Poissons Ratio (z) = 0.14226 0.54011
#
# Static dielectric constant tensor:
#      x y z
#    x 3.685170 0.000000 0.000000 
#    y 0.000000 3.498490 0.000000 
#    z 0.000000 0.000000 2.015350 
# 
# 
# High freq. dielectric constant tensor:
#      x y z
#    x 1.788440 0.000000 0.000000 
#    y 0.000000 1.772380 0.000000 
#    z 0.000000 0.000000 1.802970 
# 
# From -- ./inp_files/20080.got.cif
#   From: 2010.03.12/outbox.cif.g09.slc.cpg/sg20_11_cif.got.tgz:20080.got - 2010.04.14 01:38:04.
