data_PCOD8159078
_publ_section_title
;
Structure prediction by ZEFSAII (Michael W. Deem and Ramdas Pophale) SiO2 
 PCOD8159078
Probable space group: C 2 2 21
;
_chemical_formula_sum "Si O2"
_cell_formula_units_Z 52
_cell_length_a 8.962966
_cell_length_b 16.150398
_cell_length_c 18.287989
_cell_angle_alpha 90.000000
_cell_angle_beta 90.000000
_cell_angle_gamma 90.000000
_cell_volume 2647.286409
_symmetry_space_group_name_H-M "C 2 2 21"
_symmetry_group_IT_number 20
_symmetry_cell_setting 'orthorhombic'
loop_
_space_group_symop_operation_xyz
x,y,z
-x,-y,1/2+z
x,-y,-z
-x,y,1/2-z
1/2+x,1/2+y,z
1/2-x,1/2-y,1/2+z
1/2+x,1/2-y,-z
1/2-x,1/2+y,1/2-z
loop_
_atom_site_type_symbol
_atom_site_label
_atom_site_fract_x
_atom_site_fract_y
_atom_site_fract_z
Si Si1 0.988142 0.000000 0.500000
Si Si2 0.153613 0.383923 0.325406
Si Si3 0.854178 0.831788 0.455358
Si Si4 0.638976 0.218713 0.418890
Si Si5 0.670111 0.163637 0.834510
Si Si6 0.730495 0.992280 0.079524
Si Si7 0.517220 0.065468 0.333033
O O1 0.890489 0.918334 0.493923
O O2 0.094150 0.985231 0.571372
O O3 0.281851 0.353179 0.378072
O O4 0.217776 0.372468 0.244061
O O5 0.109675 0.479913 0.337016
O O6 0.008901 0.325528 0.337269
O O7 0.736486 0.786108 0.507512
O O8 0.996618 0.774651 0.439249
O O9 0.741826 0.252779 0.352788
O O10 0.591312 0.129945 0.388019
O O11 0.722244 0.102845 0.898275
O O12 0.651123 0.050671 0.138558
O O13 0.649822 0.000000 0.000000
O O14 0.500000 0.098227 0.250000
#
# Coordination Sequence:
#
# PCOD8159078 Si02
#       7
#     4   8   8   8   8   8   8
#     4  10  22  42  64  94 122 174 226 256 312 400
#     4  10  22  44  71  87 124 179 215 261 322 398
#     4  12  26  41  65  97 131 173 219 271 325 387
#     4  12  27  40  64 101 137 163 219 278 331 377
#     4  10  20  45  64  94 126 170 214 261 329 394
#     4   9  19  38  68  87 122 171 216 263 314 387
#     4  11  23  41  66  98 127 167 222 267 325 392
#
# _framework density 19.642755999999999
#
# number of rings (size 3 to 8) (size 9 to 14) (size 15 to 20)
#    0.462    0.923    4.615    1.846   10.769    0.000 
#    0.000    0.000    0.000    0.000    0.000    0.000 
#    0.000    0.000    0.000    0.000    0.000    0.000 
#
# Total GULP energy -322294.403777 kJ/mol
# GULP energy per Si atom -12395.938607 kJ/mol
# Density = 1.959805 g / cm^3
# Si number density = 19.642756 Si / 1000 Ang^3
#
#
#
# Elastic Constant Matrix: (Units=GPa)
#
#
# Indices 1 2 3 4 5 6 
#
# 1 96.1282 47.5285 46.0356 0.0000 0.0000 0.0000
# 2 47.5285 93.2249 32.1651 0.0000 0.0000 0.0000
# 3 46.0356 32.1651 109.6744 0.0000 0.0000 0.0000
# 4 0.0000 0.0000 0.0000 31.8883 0.0000 0.0000
# 5 0.0000 0.0000 0.0000 0.0000 39.8884 0.0000
# 6 0.0000 0.0000 0.0000 0.0000 0.0000 28.8335
#
#
#
# Elastic Compliance Matrix: (Units=1/GPa)
#
#
# Indices 1 2 3 4 5 6 
#
# 1 0.015876 -0.006447 -0.004773 0.000000 0.000000 0.000000
# 2 -0.006447 0.014553 -0.001562 0.000000 0.000000 0.000000
# 3 -0.004773 -0.001562 0.011579 0.000000 0.000000 0.000000
# 4 0.000000 0.000000 0.000000 0.031360 0.000000 0.000000
# 5 0.000000 0.000000 0.000000 0.000000 0.025070 0.000000
# 6 0.000000 0.000000 0.000000 0.000000 0.000000 0.034682
#
#
# Mechanical properties :
#
#
# Convention : Reuss Voigt Hill
#
# Bulk Modulus (GPa) = 60.81264 61.16510 60.98887
# Shear Modulus (GPa) = 30.45707 31.67527 31.06617
#
# Velocity S-wave (km/s) = 3.94197 4.02004 3.98120
# Velocity P-wave (km/s) = 7.19343 7.26319 7.22839
#
# Compressibility (1/GPa) = 0.01644395
#
# Stress axis : x y z
#
# Youngs Moduli (GPa) = 62.98660 68.71631 86.35980
#
# Poissons Ratio (x) = 0.44304 0.41221
# Poissons Ratio (y) = 0.40609 0.13487
# Poissons Ratio (z) = 0.30065 0.10732
#
# Static dielectric constant tensor:
#      x y z
#    x 3.582780 0.000000 0.000000 
#    y 0.000000 3.537500 0.000000 
#    z 0.000000 0.000000 3.659190 
# 
# 
# High freq. dielectric constant tensor:
#      x y z
#    x 1.764460 0.000000 0.000000 
#    y 0.000000 1.759460 0.000000 
#    z 0.000000 0.000000 1.773660 
# 
# From -- ./inp_files/23696.got.cif
#   From: 2010.03.12/outbox.cif.g09.slc.cpg/sg20_12_cif.got.tgz:23696.got - 2010.04.14 01:38:04.
