data_PCOD8159169
_publ_section_title
;
Structure prediction by ZEFSAII (Michael W. Deem and Ramdas Pophale) SiO2 
 PCOD8159169
Probable space group: C 2 2 21
;
_chemical_formula_sum "Si O2"
_cell_formula_units_Z 60
_cell_length_a 18.635006
_cell_length_b 11.908085
_cell_length_c 13.630564
_cell_angle_alpha 90.000000
_cell_angle_beta 90.000000
_cell_angle_gamma 90.000000
_cell_volume 3024.720775
_symmetry_space_group_name_H-M "C 2 2 21"
_symmetry_group_IT_number 20
_symmetry_cell_setting 'orthorhombic'
loop_
_space_group_symop_operation_xyz
x,y,z
-x,-y,1/2+z
x,-y,-z
-x,y,1/2-z
1/2+x,1/2+y,z
1/2-x,1/2-y,1/2+z
1/2+x,1/2-y,-z
1/2-x,1/2+y,1/2-z
loop_
_atom_site_type_symbol
_atom_site_label
_atom_site_fract_x
_atom_site_fract_y
_atom_site_fract_z
Si Si1 0.500000 0.327642 0.750000
Si Si2 0.651708 0.368703 0.007089
Si Si3 0.633509 0.213419 0.556370
Si Si4 0.508300 0.615900 0.459529
Si Si5 0.731631 0.780710 0.836135
Si Si6 0.184055 0.476663 0.105628
Si Si7 0.739930 0.746323 0.611535
Si Si8 0.077623 0.611359 0.730580
O O1 0.506904 0.406178 0.844605
O O2 0.569616 0.246548 0.742108
O O3 0.566167 0.350105 0.011795
O O4 0.685174 0.309747 0.910732
O O5 0.670973 0.500000 0.000000
O O6 0.684759 0.309651 0.103370
O O7 0.565065 0.285899 0.523514
O O8 0.685202 0.272552 0.635669
O O9 0.678914 0.194750 0.456731
O O10 0.606315 0.100218 0.616398
O O11 0.540141 0.500000 0.500000
O O12 0.716762 0.755995 0.723064
O O13 0.712623 0.908329 0.853262
O O14 0.248135 0.386215 0.087349
O O15 0.130631 0.430831 0.187016
O O16 0.146198 0.500000 0.000000
O O17 0.000000 0.551735 0.750000
#
# Coordination Sequence:
#
# PCOD8159169 Si02
#       8
#     4   8   8   8   8   8   8   8
#     4   8  18  36  64  86 114 172 202 248 306 378
#     4  10  23  43  63  90 128 173 206 258 321 385
#     4  10  21  39  62  90 123 162 210 261 308 382
#     4  10  21  37  61  93 123 157 214 257 311 374
#     4  11  25  39  63  95 127 166 213 260 325 370
#     4  12  22  39  65  93 126 161 214 264 316 365
#     4  11  24  41  62  96 127 165 210 265 316 383
#     4   9  20  39  66  90 119 167 216 249 312 389
#
# _framework density 19.836542000000001
#
# number of rings (size 3 to 8) (size 9 to 14) (size 15 to 20)
#    0.400    1.333    4.000    0.800    5.600    0.000 
#    4.800    2.667    0.000    0.000    0.000    0.000 
#    0.000    0.000    0.000    0.000    0.000    0.000 
#
# Total GULP energy -371646.232213 kJ/mol
# GULP energy per Si atom -12388.207740 kJ/mol
# Density = 1.979139 g / cm^3
# Si number density = 19.836542 Si / 1000 Ang^3
#
#
#
# Elastic Constant Matrix: (Units=GPa)
#
#
# Indices 1 2 3 4 5 6 
#
# 1 103.3965 26.8825 33.6563 0.0000 0.0000 0.0000
# 2 26.8825 82.9984 24.3556 0.0000 0.0000 0.0000
# 3 33.6563 24.3556 108.8216 0.0000 0.0000 0.0000
# 4 0.0000 0.0000 0.0000 33.9564 0.0000 0.0000
# 5 0.0000 0.0000 0.0000 0.0000 20.1235 0.0000
# 6 0.0000 0.0000 0.0000 0.0000 0.0000 0.9036
#
#
#
# Elastic Compliance Matrix: (Units=1/GPa)
#
#
# Indices 1 2 3 4 5 6 
#
# 1 0.011343 -0.002830 -0.002875 0.000000 0.000000 0.000000
# 2 -0.002830 0.013602 -0.002169 0.000000 0.000000 0.000000
# 3 -0.002875 -0.002169 0.010564 0.000000 0.000000 0.000000
# 4 0.000000 0.000000 0.000000 0.029450 0.000000 0.000000
# 5 0.000000 0.000000 0.000000 0.000000 0.049693 0.000000
# 6 0.000000 0.000000 0.000000 0.000000 0.000000 1.106659
#
#
# Mechanical properties :
#
#
# Convention : Reuss Voigt Hill
#
# Bulk Modulus (GPa) = 50.60540 51.66724 51.13632
# Shear Modulus (GPa) = 4.02044 25.01817 14.51930
#
# Velocity S-wave (km/s) = 1.42520 3.55521 2.70839
# Velocity P-wave (km/s) = 5.31741 6.55406 5.96786
#
# Compressibility (1/GPa) = 0.01976074
#
# Stress axis : x y z
#
# Youngs Moduli (GPa) = 88.15909 73.52079 94.66238
#
# Poissons Ratio (x) = 0.20809 0.27213
# Poissons Ratio (y) = 0.24952 0.20531
# Poissons Ratio (z) = 0.25343 0.15945
#
# Static dielectric constant tensor:
#      x y z
#    x 3.705840 0.000000 0.000000 
#    y 0.000000 3.644460 0.000000 
#    z 0.000000 0.000000 4.136350 
# 
# 
# High freq. dielectric constant tensor:
#      x y z
#    x 1.773610 0.000000 0.000000 
#    y 0.000000 1.749730 0.000000 
#    z 0.000000 0.000000 1.785400 
# 
# From -- ./inp_files/21876.got.cif
#   From: 2010.03.12/outbox.cif.g09.slc.cpg/sg20_11_cif.got.tgz:21876.got - 2010.04.14 01:38:04.
