data_PCOD8159518
_publ_section_title
;
Structure prediction by ZEFSAII (Michael W. Deem and Ramdas Pophale) SiO2 
 PCOD8159518
Probable space group: C 2 2 21
;
_chemical_formula_sum "Si O2"
_cell_formula_units_Z 32
_cell_length_a 11.812733
_cell_length_b 7.223254
_cell_length_c 15.101758
_cell_angle_alpha 90.000000
_cell_angle_beta 90.000000
_cell_angle_gamma 90.000000
_cell_volume 1288.578204
_symmetry_space_group_name_H-M "C 2 2 21"
_symmetry_group_IT_number 20
_symmetry_cell_setting 'orthorhombic'
loop_
_space_group_symop_operation_xyz
x,y,z
-x,-y,1/2+z
x,-y,-z
-x,y,1/2-z
1/2+x,1/2+y,z
1/2-x,1/2-y,1/2+z
1/2+x,1/2-y,-z
1/2-x,1/2+y,1/2-z
loop_
_atom_site_type_symbol
_atom_site_label
_atom_site_fract_x
_atom_site_fract_y
_atom_site_fract_z
Si Si1 0.528415 0.091776 0.843028
Si Si2 0.114478 0.978429 0.768226
Si Si3 0.732505 0.548881 0.598354
Si Si4 0.793883 0.475207 0.902299
O O1 0.500000 0.988325 0.750000
O O2 0.566169 0.300350 0.820557
O O3 0.633733 0.001928 0.895113
O O4 0.415700 0.075779 0.902462
O O5 0.208412 0.074095 0.831726
O O6 0.000000 0.101540 0.750000
O O7 0.170314 0.926067 0.673248
O O8 0.689172 0.500000 0.500000
O O9 0.698946 0.759236 0.622348
O O10 0.741336 0.500000 0.000000
#
# Coordination Sequence:
#
# PCOD8159518 Si02
#       4
#     8   8   8   8
#     4  10  21  45  75  97 141 189 235 296 362 423
#     4  10  24  45  70 103 144 192 234 298 356 429
#     4  11  25  44  71 108 142 188 244 297 358 436
#     4  11  25  45  76 105 143 194 239 301 367 423
#
# _framework density 24.833573000000001
#
# number of rings (size 3 to 8) (size 9 to 14) (size 15 to 20)
#    0.000    1.500    2.500    0.750    7.000    2.000 
#    9.000    0.000    0.000    0.000    0.000    0.000 
#    0.000    0.000    0.000    0.000    0.000    0.000 
#
# Total GULP energy -198238.779212 kJ/mol
# GULP energy per Si atom -12389.923701 kJ/mol
# Density = 2.477705 g / cm^3
# Si number density = 24.833573 Si / 1000 Ang^3
#
#
#
# Elastic Constant Matrix: (Units=GPa)
#
#
# Indices 1 2 3 4 5 6 
#
# 1 213.2262 22.0759 76.4414 0.0000 0.0000 0.0000
# 2 22.0759 59.0540 -5.0496 0.0000 0.0000 0.0000
# 3 76.4414 -5.0496 184.2500 0.0000 0.0000 0.0000
# 4 0.0000 0.0000 0.0000 23.0146 0.0000 0.0000
# 5 0.0000 0.0000 0.0000 0.0000 19.7521 0.0000
# 6 0.0000 0.0000 0.0000 0.0000 0.0000 17.4734
#
#
#
# Elastic Compliance Matrix: (Units=1/GPa)
#
#
# Indices 1 2 3 4 5 6 
#
# 1 0.005828 -0.002391 -0.002483 0.000000 0.000000 0.000000
# 2 -0.002391 0.017954 0.001484 0.000000 0.000000 0.000000
# 3 -0.002483 0.001484 0.006498 0.000000 0.000000 0.000000
# 4 0.000000 0.000000 0.000000 0.043451 0.000000 0.000000
# 5 0.000000 0.000000 0.000000 0.000000 0.050628 0.000000
# 6 0.000000 0.000000 0.000000 0.000000 0.000000 0.057230
#
#
# Mechanical properties :
#
#
# Convention : Reuss Voigt Hill
#
# Bulk Modulus (GPa) = 42.55329 71.49618 57.02473
# Shear Modulus (GPa) = 25.48396 36.25221 30.86808
#
# Velocity S-wave (km/s) = 3.20690 3.82489 3.52944
# Velocity P-wave (km/s) = 5.55741 6.95406 6.29459
#
# Compressibility (1/GPa) = 0.02349995
#
# Stress axis : x y z
#
# Youngs Moduli (GPa) = 171.59592 55.69694 153.88541
#
# Poissons Ratio (x) = 0.13316 0.38214
# Poissons Ratio (y) = 0.41026 -0.22836
# Poissons Ratio (z) = 0.42612 -0.08265
#
# Static dielectric constant tensor:
#      x y z
#    x 5.355470 0.000000 0.000000 
#    y 0.000000 3.924190 0.000000 
#    z 0.000000 0.000000 4.624410 
# 
# 
# High freq. dielectric constant tensor:
#      x y z
#    x 2.007010 0.000000 0.000000 
#    y 0.000000 1.949410 0.000000 
#    z 0.000000 0.000000 1.995360 
# 
# From -- ./inp_files/18182.got.cif
#   From: 2010.03.12/outbox.cif.g09.slc.cpg/sg20_10_cif.got.tgz:18182.got - 2010.04.14 01:38:04.
