data_PCOD8159096
_publ_section_title
;
Structure prediction by ZEFSAII (Michael W. Deem and Ramdas Pophale) SiO2 
 PCOD8159096
Probable space group: C 2 2 21
;
_chemical_formula_sum "Si O2"
_cell_formula_units_Z 64
_cell_length_a 6.557017
_cell_length_b 24.953503
_cell_length_c 22.347419
_cell_angle_alpha 90.000000
_cell_angle_beta 90.000000
_cell_angle_gamma 90.000000
_cell_volume 3656.496840
_symmetry_space_group_name_H-M "C 2 2 21"
_symmetry_group_IT_number 20
_symmetry_cell_setting 'orthorhombic'
loop_
_space_group_symop_operation_xyz
x,y,z
-x,-y,1/2+z
x,-y,-z
-x,y,1/2-z
1/2+x,1/2+y,z
1/2-x,1/2-y,1/2+z
1/2+x,1/2-y,-z
1/2-x,1/2+y,1/2-z
loop_
_atom_site_type_symbol
_atom_site_label
_atom_site_fract_x
_atom_site_fract_y
_atom_site_fract_z
Si Si1 0.854007 0.017984 0.405353
Si Si2 0.806393 0.911411 0.878404
Si Si3 0.778860 0.714054 0.081722
Si Si4 0.892187 0.839119 0.689127
Si Si5 0.044808 0.807770 0.482674
Si Si6 0.795780 0.086693 0.523760
Si Si7 0.426011 0.863776 0.521405
Si Si8 0.583642 0.933717 0.690443
O O1 0.824873 0.061668 0.457807
O O2 0.679047 0.023813 0.355411
O O3 0.072835 0.031893 0.375379
O O4 0.848470 0.957234 0.426643
O O5 0.728519 0.904554 0.946261
O O6 0.615587 0.907190 0.836154
O O7 0.951310 0.862479 0.859684
O O8 0.716330 0.709502 0.152192
O O9 0.933553 0.764028 0.070844
O O10 0.903523 0.660036 0.066344
O O11 0.578844 0.717027 0.038729
O O12 0.738789 0.886327 0.708460
O O13 0.000000 0.817563 0.750000
O O14 0.284371 0.817222 0.495555
O O15 0.939106 0.862705 0.461322
O O16 0.557358 0.104481 0.529089
O O17 0.500000 0.963622 0.750000
#
# Coordination Sequence:
#
# PCOD8159096 Si02
#       8
#     8   8   8   8   8   8   8   8
#     4  10  21  34  50  80 113 142 180 224 265 329
#     4  11  18  33  54  77 113 143 171 219 272 322
#     4  11  21  32  53  81 110 144 184 221 274 339
#     4  11  21  32  51  82 117 140 175 226 272 335
#     4  11  20  33  52  77 109 148 180 224 272 325
#     4  10  21  35  49  77 115 144 180 219 271 329
#     4  11  18  33  54  75 111 144 175 218 269 327
#     4  11  20  33  54  80 109 145 178 215 275 329
#
# _framework density 17.503091999999999
#
# number of rings (size 3 to 8) (size 9 to 14) (size 15 to 20)
#    0.000    1.250    7.500    1.500    0.000    1.000 
#    0.000    0.000    0.000    0.000    0.000    5.250 
#    0.000    0.000    0.000    0.000    0.000    0.000 
#
# Total GULP energy -396521.317703 kJ/mol
# GULP energy per Si atom -12391.291178 kJ/mol
# Density = 1.746325 g / cm^3
# Si number density = 17.503092 Si / 1000 Ang^3
#
#
#
# Elastic Constant Matrix: (Units=GPa)
#
#
# Indices 1 2 3 4 5 6 
#
# 1 92.5420 30.9596 26.9643 0.0000 0.0000 0.0000
# 2 30.9596 89.4306 44.9431 0.0000 0.0000 0.0000
# 3 26.9643 44.9431 87.7110 0.0000 0.0000 0.0000
# 4 0.0000 0.0000 0.0000 22.6925 0.0000 0.0000
# 5 0.0000 0.0000 0.0000 0.0000 25.6154 0.0000
# 6 0.0000 0.0000 0.0000 0.0000 0.0000 11.8449
#
#
#
# Elastic Compliance Matrix: (Units=1/GPa)
#
#
# Indices 1 2 3 4 5 6 
#
# 1 0.012527 -0.003234 -0.002194 0.000000 0.000000 0.000000
# 2 -0.003234 0.015895 -0.007150 0.000000 0.000000 0.000000
# 3 -0.002194 -0.007150 0.015739 0.000000 0.000000 0.000000
# 4 0.000000 0.000000 0.000000 0.044067 0.000000 0.000000
# 5 0.000000 0.000000 0.000000 0.000000 0.039039 0.000000
# 6 0.000000 0.000000 0.000000 0.000000 0.000000 0.084425
#
#
# Mechanical properties :
#
#
# Convention : Reuss Voigt Hill
#
# Bulk Modulus (GPa) = 52.61885 52.82417 52.72151
# Shear Modulus (GPa) = 20.56056 23.15166 21.85611
#
# Velocity S-wave (km/s) = 3.43108 3.64086 3.53753
# Velocity P-wave (km/s) = 6.76936 6.92242 6.84632
#
# Compressibility (1/GPa) = 0.01900460
#
# Stress axis : x y z
#
# Youngs Moduli (GPa) = 79.82671 62.91362 63.53507
#
# Poissons Ratio (x) = 0.20347 0.13939
# Poissons Ratio (y) = 0.25817 0.45429
# Poissons Ratio (z) = 0.17513 0.44985
#
# Static dielectric constant tensor:
#      x y z
#    x 3.660800 0.000000 0.000000 
#    y 0.000000 2.980720 0.000000 
#    z 0.000000 0.000000 3.427590 
# 
# 
# High freq. dielectric constant tensor:
#      x y z
#    x 1.702530 0.000000 0.000000 
#    y 0.000000 1.642390 0.000000 
#    z 0.000000 0.000000 1.644220 
# 
# From -- ./inp_files/28515.got.cif
#   From: 2010.03.12/outbox.cif.g09.slc.cpg/sg20_15_cif.got.tgz:28515.got - 2010.04.14 01:38:04.
