data_PCOD8159657
_publ_section_title
;
Structure prediction by ZEFSAII (Michael W. Deem and Ramdas Pophale) SiO2 
 PCOD8159657
Probable space group: C 2 2 21
;
_chemical_formula_sum "Si O2"
_cell_formula_units_Z 32
_cell_length_a 8.476957
_cell_length_b 17.056668
_cell_length_c 10.283247
_cell_angle_alpha 90.000000
_cell_angle_beta 90.000000
_cell_angle_gamma 90.000000
_cell_volume 1486.840711
_symmetry_space_group_name_H-M "C 2 2 21"
_symmetry_group_IT_number 20
_symmetry_cell_setting 'orthorhombic'
loop_
_space_group_symop_operation_xyz
x,y,z
-x,-y,1/2+z
x,-y,-z
-x,y,1/2-z
1/2+x,1/2+y,z
1/2-x,1/2-y,1/2+z
1/2+x,1/2-y,-z
1/2-x,1/2+y,1/2-z
loop_
_atom_site_type_symbol
_atom_site_label
_atom_site_fract_x
_atom_site_fract_y
_atom_site_fract_z
Si Si1 0.785552 0.542205 0.816830
Si Si2 0.000000 0.233186 0.250000
Si Si3 0.280456 0.397730 0.839778
Si Si4 0.914678 0.625347 0.586987
Si Si5 0.976445 0.000000 0.500000
O O1 0.793730 0.451063 0.773564
O O2 0.776580 0.596590 0.686914
O O3 0.941424 0.563973 0.898550
O O4 0.632596 0.554563 0.907191
O O5 0.154220 0.181281 0.276019
O O6 0.031655 0.287072 0.123788
O O7 0.144082 0.375242 0.940535
O O8 0.421870 0.443216 0.910428
#
# Coordination Sequence:
#
# PCOD8159657 Si02
#       5
#     8   4   8   8   4
#     4  10  22  40  64  98 129 170 219 270 323 385
#     4  10  24  44  64 102 138 172 218 268 342 390
#     4  12  22  44  69 100 131 176 222 276 324 392
#     4  10  25  43  66  96 144 170 219 275 329 396
#     4  12  22  34  72 102 126 164 226 284 314 386
#
# _framework density 21.522144000000001
#
# number of rings (size 3 to 8) (size 9 to 14) (size 15 to 20)
#    0.000    1.500    5.000    0.000    7.000    4.000 
#    0.000    0.000    0.000    0.000    0.000    0.000 
#    0.000    0.000    0.000    0.000    0.000    0.000 
#
# Total GULP energy -198407.777513 kJ/mol
# GULP energy per Si atom -12400.486095 kJ/mol
# Density = 2.147316 g / cm^3
# Si number density = 21.522144 Si / 1000 Ang^3
#
#
#
# Elastic Constant Matrix: (Units=GPa)
#
#
# Indices 1 2 3 4 5 6 
#
# 1 103.7827 61.6447 47.8301 0.0000 0.0000 0.0000
# 2 61.6447 149.7131 41.0745 0.0000 0.0000 0.0000
# 3 47.8301 41.0745 77.8029 0.0000 0.0000 0.0000
# 4 0.0000 0.0000 0.0000 25.5664 0.0000 0.0000
# 5 0.0000 0.0000 0.0000 0.0000 47.1579 0.0000
# 6 0.0000 0.0000 0.0000 0.0000 0.0000 46.6768
#
#
#
# Elastic Compliance Matrix: (Units=1/GPa)
#
#
# Indices 1 2 3 4 5 6 
#
# 1 0.015617 -0.004439 -0.007257 0.000000 0.000000 0.000000
# 2 -0.004439 0.009073 -0.002061 0.000000 0.000000 0.000000
# 3 -0.007257 -0.002061 0.018402 0.000000 0.000000 0.000000
# 4 0.000000 0.000000 0.000000 0.039114 0.000000 0.000000
# 5 0.000000 0.000000 0.000000 0.000000 0.021205 0.000000
# 6 0.000000 0.000000 0.000000 0.000000 0.000000 0.021424
#
#
# Mechanical properties :
#
#
# Convention : Reuss Voigt Hill
#
# Bulk Modulus (GPa) = 64.19361 70.26638 67.22999
# Shear Modulus (GPa) = 31.73770 35.93017 33.83394
#
# Velocity S-wave (km/s) = 3.84429 4.09032 3.96921
# Velocity P-wave (km/s) = 7.04246 7.41802 7.23268
#
# Compressibility (1/GPa) = 0.01557787
#
# Stress axis : x y z
#
# Youngs Moduli (GPa) = 64.03336 110.22107 54.34142
#
# Poissons Ratio (x) = 0.48930 0.39435
# Poissons Ratio (y) = 0.28426 0.11198
# Poissons Ratio (z) = 0.46469 0.22713
#
# Static dielectric constant tensor:
#      x y z
#    x 3.935240 0.000000 0.000000 
#    y 0.000000 3.829100 0.000000 
#    z 0.000000 0.000000 4.142690 
# 
# 
# High freq. dielectric constant tensor:
#      x y z
#    x 1.842490 0.000000 0.000000 
#    y 0.000000 1.829690 0.000000 
#    z 0.000000 0.000000 1.852230 
# 
# From -- ./inp_files/12601.got.cif
#   From: 2010.03.12/outbox.cif.g09.slc.cpg/sg20_7_cif.got.tgz:12601.got - 2010.04.14 01:38:04.
