data_PCOD8159328
_publ_section_title
;
Structure prediction by ZEFSAII (Michael W. Deem and Ramdas Pophale) SiO2 
 PCOD8159328
Probable space group: C 2 2 21
;
_chemical_formula_sum "Si O2"
_cell_formula_units_Z 52
_cell_length_a 9.069228
_cell_length_b 17.316516
_cell_length_c 16.425996
_cell_angle_alpha 90.000000
_cell_angle_beta 90.000000
_cell_angle_gamma 90.000000
_cell_volume 2579.660486
_symmetry_space_group_name_H-M "C 2 2 21"
_symmetry_group_IT_number 20
_symmetry_cell_setting 'orthorhombic'
loop_
_space_group_symop_operation_xyz
x,y,z
-x,-y,1/2+z
x,-y,-z
-x,y,1/2-z
1/2+x,1/2+y,z
1/2-x,1/2-y,1/2+z
1/2+x,1/2-y,-z
1/2-x,1/2+y,1/2-z
loop_
_atom_site_type_symbol
_atom_site_label
_atom_site_fract_x
_atom_site_fract_y
_atom_site_fract_z
Si Si1 0.989805 0.838548 0.954806
Si Si2 0.245746 0.147230 0.159598
Si Si3 0.343350 0.026464 0.273002
Si Si4 0.500000 0.122447 0.750000
Si Si5 0.277051 0.927150 0.548618
Si Si6 0.042739 0.286635 0.911191
Si Si7 0.821411 0.244313 0.185920
O O1 0.153613 0.859144 0.924448
O O2 0.890922 0.912069 0.982980
O O3 0.901172 0.810752 0.876515
O O4 0.988350 0.778825 0.027978
O O5 0.242544 0.060826 0.199720
O O6 0.407164 0.176512 0.136531
O O7 0.175273 0.208881 0.222939
O O8 0.500000 0.065433 0.250000
O O9 0.276391 0.058290 0.355247
O O10 0.367484 0.933670 0.282616
O O11 0.587168 0.175114 0.684940
O O12 0.379905 0.852582 0.533237
O O13 0.343169 0.000000 0.500000
O O14 0.153052 0.247167 0.845372
#
# Coordination Sequence:
#
# PCOD8159328 Si02
#       7
#     8   8   8   4   8   8   8
#     4  11  24  39  65  95 132 169 216 271 338 391
#     4  12  19  42  69  94 126 177 224 263 322 414
#     4  10  21  40  64  92 124 172 220 263 329 396
#     4  10  22  38  62  98 118 156 222 278 316 370
#     4  11  24  43  62  91 134 174 214 272 338 392
#     4  11  23  40  66  98 131 170 219 271 339 394
#     4  11  21  40  67  95 124 168 223 272 311 387
#
# _framework density 20.157689999999999
#
# number of rings (size 3 to 8) (size 9 to 14) (size 15 to 20)
#    0.462    0.615    6.154    2.308    2.154    1.231 
#    2.769    0.769    0.000    0.000    0.000    0.000 
#    0.000    0.000    0.000    0.000    0.000    0.000 
#
# Total GULP energy -322093.062067 kJ/mol
# GULP energy per Si atom -12388.194695 kJ/mol
# Density = 2.011181 g / cm^3
# Si number density = 20.157690 Si / 1000 Ang^3
#
#
#
# Elastic Constant Matrix: (Units=GPa)
#
#
# Indices 1 2 3 4 5 6 
#
# 1 56.9218 23.6640 4.3934 0.0000 0.0000 0.0000
# 2 23.6640 103.9274 17.8384 0.0000 0.0000 0.0000
# 3 4.3934 17.8384 50.2478 0.0000 0.0000 0.0000
# 4 0.0000 0.0000 0.0000 29.3713 0.0000 0.0000
# 5 0.0000 0.0000 0.0000 0.0000 26.5957 0.0000
# 6 0.0000 0.0000 0.0000 0.0000 0.0000 3.3709
#
#
#
# Elastic Compliance Matrix: (Units=1/GPa)
#
#
# Indices 1 2 3 4 5 6 
#
# 1 0.019406 -0.004395 -0.000136 0.000000 0.000000 0.000000
# 2 -0.004395 0.011242 -0.003607 0.000000 0.000000 0.000000
# 3 -0.000136 -0.003607 0.021194 0.000000 0.000000 0.000000
# 4 0.000000 0.000000 0.000000 0.034047 0.000000 0.000000
# 5 0.000000 0.000000 0.000000 0.000000 0.037600 0.000000
# 6 0.000000 0.000000 0.000000 0.000000 0.000000 0.296660
#
#
# Mechanical properties :
#
#
# Convention : Reuss Voigt Hill
#
# Bulk Modulus (GPa) = 28.11775 33.65430 30.88602
# Shear Modulus (GPa) = 11.15375 22.88100 17.01737
#
# Velocity S-wave (km/s) = 2.35484 3.37278 2.90869
# Velocity P-wave (km/s) = 4.62308 5.64794 5.16101
#
# Compressibility (1/GPa) = 0.03556472
#
# Stress axis : x y z
#
# Youngs Moduli (GPa) = 51.53128 88.95266 47.18387
#
# Poissons Ratio (x) = 0.39097 0.00644
# Poissons Ratio (y) = 0.22649 0.17018
# Poissons Ratio (z) = 0.00703 0.32082
#
# Static dielectric constant tensor:
#      x y z
#    x 3.945800 0.000000 0.000000 
#    y 0.000000 3.824570 0.000000 
#    z 0.000000 0.000000 3.603860 
# 
# 
# High freq. dielectric constant tensor:
#      x y z
#    x 1.792660 0.000000 0.000000 
#    y 0.000000 1.777820 0.000000 
#    z 0.000000 0.000000 1.774660 
# 
# From -- ./inp_files/23685.got.cif
#   From: 2010.03.12/outbox.cif.g09.slc.cpg/sg20_12_cif.got.tgz:23685.got - 2010.04.14 01:38:04.
