data_PCOD8159616
_publ_section_title
;
Structure prediction by ZEFSAII (Michael W. Deem and Ramdas Pophale) SiO2 
 PCOD8159616
Probable space group: C 2 2 21
;
_chemical_formula_sum "Si O2"
_cell_formula_units_Z 36
_cell_length_a 7.341029
_cell_length_b 18.291340
_cell_length_c 13.588966
_cell_angle_alpha 90.000000
_cell_angle_beta 90.000000
_cell_angle_gamma 90.000000
_cell_volume 1824.689085
_symmetry_space_group_name_H-M "C 2 2 21"
_symmetry_group_IT_number 20
_symmetry_cell_setting 'orthorhombic'
loop_
_space_group_symop_operation_xyz
x,y,z
-x,-y,1/2+z
x,-y,-z
-x,y,1/2-z
1/2+x,1/2+y,z
1/2-x,1/2-y,1/2+z
1/2+x,1/2-y,-z
1/2-x,1/2+y,1/2-z
loop_
_atom_site_type_symbol
_atom_site_label
_atom_site_fract_x
_atom_site_fract_y
_atom_site_fract_z
Si Si1 0.540804 0.073496 0.951312
Si Si2 0.207778 0.119168 0.260833
Si Si3 0.000000 0.504534 0.750000
Si Si4 0.744079 0.334505 0.950944
Si Si5 0.670368 0.677624 0.471316
O O1 0.478238 0.059517 0.840623
O O2 0.363407 0.097756 0.012223
O O3 0.701552 0.133268 0.953909
O O4 0.619112 0.000000 0.000000
O O5 0.323031 0.045281 0.264769
O O6 0.263207 0.169704 0.167741
O O7 0.241464 0.166325 0.359516
O O8 0.000000 0.093814 0.250000
O O9 0.536470 0.349363 0.982540
O O10 0.823486 0.262367 0.001210
#
# Coordination Sequence:
#
# PCOD8159616 Si02
#       5
#     8   8   4   8   8
#     4  12  24  42  68  98 129 174 215 268 326 392
#     4  10  22  39  65  93 129 178 213 264 336 385
#     4  12  24  42  66  98 138 168 216 268 334 384
#     4  11  23  42  67  97 133 171 220 271 327 387
#     4  11  23  42  67  97 133 171 220 271 327 387
#
# _framework density 19.729388
#
# number of rings (size 3 to 8) (size 9 to 14) (size 15 to 20)
#    0.000    0.889    6.667    0.000    0.000    4.444 
#    0.000    2.222    0.000    0.000    0.000    0.000 
#    0.000    0.000    0.000    0.000    0.000    0.000 
#
# Total GULP energy -223284.698706 kJ/mol
# GULP energy per Si atom -12404.705484 kJ/mol
# Density = 1.968448 g / cm^3
# Si number density = 19.729388 Si / 1000 Ang^3
#
#
#
# Elastic Constant Matrix: (Units=GPa)
#
#
# Indices 1 2 3 4 5 6 
#
# 1 85.8196 24.3098 15.0326 0.0000 0.0000 0.0000
# 2 24.3098 77.5951 37.8220 0.0000 0.0000 0.0000
# 3 15.0326 37.8220 99.8706 0.0000 0.0000 0.0000
# 4 0.0000 0.0000 0.0000 40.1121 0.0000 0.0000
# 5 0.0000 0.0000 0.0000 0.0000 25.0324 0.0000
# 6 0.0000 0.0000 0.0000 0.0000 0.0000 19.2181
#
#
#
# Elastic Compliance Matrix: (Units=1/GPa)
#
#
# Indices 1 2 3 4 5 6 
#
# 1 0.012808 -0.003768 -0.000501 0.000000 0.000000 0.000000
# 2 -0.003768 0.016914 -0.005838 0.000000 0.000000 0.000000
# 3 -0.000501 -0.005838 0.012299 0.000000 0.000000 0.000000
# 4 0.000000 0.000000 0.000000 0.024930 0.000000 0.000000
# 5 0.000000 0.000000 0.000000 0.000000 0.039948 0.000000
# 6 0.000000 0.000000 0.000000 0.000000 0.000000 0.052034
#
#
# Mechanical properties :
#
#
# Convention : Reuss Voigt Hill
#
# Bulk Modulus (GPa) = 45.85892 46.40156 46.13024
# Shear Modulus (GPa) = 26.82169 29.28058 28.05114
#
# Velocity S-wave (km/s) = 3.69111 3.85659 3.77476
# Velocity P-wave (km/s) = 6.43896 6.58796 6.51388
#
# Compressibility (1/GPa) = 0.02180601
#
# Stress axis : x y z
#
# Youngs Moduli (GPa) = 78.07911 59.12358 81.30547
#
# Poissons Ratio (x) = 0.22280 0.04071
# Poissons Ratio (y) = 0.29424 0.47468
# Poissons Ratio (z) = 0.03909 0.34517
#
# Static dielectric constant tensor:
#      x y z
#    x 3.769820 0.000000 0.000000 
#    y 0.000000 3.423330 0.000000 
#    z 0.000000 0.000000 3.840720 
# 
# 
# High freq. dielectric constant tensor:
#      x y z
#    x 1.784030 0.000000 0.000000 
#    y 0.000000 1.756430 0.000000 
#    z 0.000000 0.000000 1.778360 
# 
# From -- ./inp_files/18439.got.cif
#   From: 2010.03.12/outbox.cif.g09.slc.cpg/sg20_10_cif.got.tgz:18439.got - 2010.04.14 01:38:04.
