data_PCOD8159984
_publ_section_title
;
Structure prediction by ZEFSAII (Michael W. Deem and Ramdas Pophale) SiO2 
 PCOD8159984
Probable space group: C 2 2 21
;
_chemical_formula_sum "Si O2"
_cell_formula_units_Z 52
_cell_length_a 12.427990
_cell_length_b 7.290030
_cell_length_c 27.536322
_cell_angle_alpha 90.000000
_cell_angle_beta 90.000000
_cell_angle_gamma 90.000000
_cell_volume 2494.802337
_symmetry_space_group_name_H-M "C 2 2 21"
_symmetry_group_IT_number 20
_symmetry_cell_setting 'orthorhombic'
loop_
_space_group_symop_operation_xyz
x,y,z
-x,-y,1/2+z
x,-y,-z
-x,y,1/2-z
1/2+x,1/2+y,z
1/2-x,1/2-y,1/2+z
1/2+x,1/2-y,-z
1/2-x,1/2+y,1/2-z
loop_
_atom_site_type_symbol
_atom_site_label
_atom_site_fract_x
_atom_site_fract_y
_atom_site_fract_z
Si Si1 0.868687 0.000000 0.500000
Si Si2 0.369320 0.698831 0.109315
Si Si3 0.388243 0.264032 0.225473
Si Si4 0.700017 0.709464 0.497747
Si Si5 0.996306 0.525163 0.351804
Si Si6 0.026893 0.158799 0.574741
Si Si7 0.271775 0.068779 0.310478
O O1 0.798645 0.172343 0.483269
O O2 0.935150 0.045772 0.547736
O O3 0.330540 0.767452 0.056756
O O4 0.410694 0.488826 0.107640
O O5 0.270887 0.705151 0.147414
O O6 0.461727 0.836209 0.126458
O O7 0.500000 0.335883 0.250000
O O8 0.419625 0.103760 0.187698
O O9 0.301916 0.186314 0.263466
O O10 0.325685 0.429442 0.199889
O O11 0.736792 0.500000 0.500000
O O12 0.601314 0.749307 0.533526
O O13 0.978445 0.679568 0.392866
O O14 0.881297 0.472024 0.328703
#
# Coordination Sequence:
#
# PCOD8159984 Si02
#       7
#     4   8   8   8   8   8   8
#     4  12  22  40  66  86 126 182 212 264 336 362
#     4  11  22  43  65  95 133 172 214 271 324 386
#     4  10  23  43  66  95 132 163 215 279 321 394
#     4  10  23  43  63  95 134 170 225 265 314 390
#     4  11  24  42  66  94 132 167 217 268 327 390
#     4  11  23  43  62  96 134 168 221 273 313 391
#     4  11  23  43  68  99 127 172 218 265 335 394
#
# _framework density 20.843335
#
# number of rings (size 3 to 8) (size 9 to 14) (size 15 to 20)
#    0.000    1.231    3.846    2.769    0.000    4.923 
#    6.923    0.000    0.000    0.000    0.000    0.000 
#    0.000    0.000    0.000    0.000    0.000    0.000 
#
# Total GULP energy -322440.999375 kJ/mol
# GULP energy per Si atom -12401.576899 kJ/mol
# Density = 2.079589 g / cm^3
# Si number density = 20.843335 Si / 1000 Ang^3
#
#
#
# Elastic Constant Matrix: (Units=GPa)
#
#
# Indices 1 2 3 4 5 6 
#
# 1 113.5158 35.7711 50.1798 0.0000 0.0000 0.0000
# 2 35.7711 49.1100 36.6018 0.0000 0.0000 0.0000
# 3 50.1798 36.6018 129.2170 0.0000 0.0000 0.0000
# 4 0.0000 0.0000 0.0000 26.6762 0.0000 0.0000
# 5 0.0000 0.0000 0.0000 0.0000 -138.7366 0.0000
# 6 0.0000 0.0000 0.0000 0.0000 0.0000 46.4038
#
#
#
# Elastic Compliance Matrix: (Units=1/GPa)
#
#
# Indices 1 2 3 4 5 6 
#
# 1 0.012190 -0.006783 -0.002813 0.000000 0.000000 0.000000
# 2 -0.006783 0.029586 -0.005746 0.000000 0.000000 0.000000
# 3 -0.002813 -0.005746 0.010459 0.000000 0.000000 0.000000
# 4 0.000000 0.000000 0.000000 0.037487 0.000000 0.000000
# 5 0.000000 0.000000 0.000000 0.000000 -0.007208 0.000000
# 6 0.000000 0.000000 0.000000 0.000000 0.000000 0.021550
#
#
# Mechanical properties :
#
#
# Convention : Reuss Voigt Hill
#
# Bulk Modulus (GPa) = 46.40138 59.66093 53.03116
# Shear Modulus (GPa) = 35.22846 -1.84531 16.69158
#
# Velocity S-wave (km/s) = 4.11561 -0.94194 2.83293
# Velocity P-wave (km/s) = 6.70035 5.24430 6.01653
#
# Compressibility (1/GPa) = 0.02155108
#
# Stress axis : x y z
#
# Youngs Moduli (GPa) = 82.03407 33.79998 95.61287
#
# Poissons Ratio (x) = 0.22926 0.26892
# Poissons Ratio (y) = 0.55643 0.54943
# Poissons Ratio (z) = 0.23072 0.19423
#
# Static dielectric constant tensor:
#      x y z
#    x 3.833880 0.000000 0.000000 
#    y 0.000000 3.616010 0.000000 
#    z 0.000000 0.000000 3.996500 
# 
# 
# High freq. dielectric constant tensor:
#      x y z
#    x 1.821680 0.000000 0.000000 
#    y 0.000000 1.804420 0.000000 
#    z 0.000000 0.000000 1.834690 
# 
# From -- ./inp_files/30283.got.cif
#   From: 2010.03.12/outbox.cif.g09.slc.cpg/sg20_16_cif.got.tgz:30283.got - 2010.04.14 01:38:04.
