data_PCOD8159003
_publ_section_title
;
Structure prediction by ZEFSAII (Michael W. Deem and Ramdas Pophale) SiO2 
 PCOD8159003
Probable space group: C 2 2 21
;
_chemical_formula_sum "Si O2"
_cell_formula_units_Z 52
_cell_length_a 7.925894
_cell_length_b 19.954003
_cell_length_c 15.301071
_cell_angle_alpha 90.000000
_cell_angle_beta 90.000000
_cell_angle_gamma 90.000000
_cell_volume 2419.915066
_symmetry_space_group_name_H-M "C 2 2 21"
_symmetry_group_IT_number 20
_symmetry_cell_setting 'orthorhombic'
loop_
_space_group_symop_operation_xyz
x,y,z
-x,-y,1/2+z
x,-y,-z
-x,y,1/2-z
1/2+x,1/2+y,z
1/2-x,1/2-y,1/2+z
1/2+x,1/2-y,-z
1/2-x,1/2+y,1/2-z
loop_
_atom_site_type_symbol
_atom_site_label
_atom_site_fract_x
_atom_site_fract_y
_atom_site_fract_z
Si Si1 0.721378 0.950774 0.425900
Si Si2 0.000000 0.250397 0.750000
Si Si3 0.328786 0.049850 0.570348
Si Si4 0.118160 0.809521 0.068692
Si Si5 0.201390 0.490955 0.750385
Si Si6 0.787981 0.826432 0.971267
Si Si7 0.191083 0.844984 0.728367
O O1 0.524517 0.964997 0.424950
O O2 0.757735 0.872543 0.436210
O O3 0.785005 0.969132 0.329487
O O4 0.803009 0.000000 0.500000
O O5 0.040051 0.204825 0.835069
O O6 0.168098 0.294789 0.730495
O O7 0.242320 0.032161 0.663142
O O8 0.307340 0.126689 0.541152
O O9 0.243251 0.000000 0.500000
O O10 0.217156 0.748033 0.027037
O O11 0.979973 0.826386 0.997849
O O12 0.283363 0.418605 0.734818
O O13 0.000000 0.483639 0.750000
O O14 0.772677 0.854094 0.873952
O O15 0.000000 0.818964 0.750000
#
# Coordination Sequence:
#
# PCOD8159003 Si02
#       7
#     8   4   8   8   8   8   8
#     4  10  24  41  68  97 134 176 229 281 343 405
#     4  10  26  48  68  94 148 174 224 280 340 410
#     4  10  20  41  68  98 134 178 222 282 339 406
#     4  11  26  45  64  97 130 182 222 282 343 403
#     4  10  21  40  68  99 138 175 223 283 342 397
#     4  11  25  42  67  93 135 175 225 278 337 410
#     4  11  24  42  71 104 131 179 228 276 337 410
#
# _framework density 21.488358000000002
#
# number of rings (size 3 to 8) (size 9 to 14) (size 15 to 20)
#    0.000    1.538    2.308    0.923    6.462    1.846 
#    0.000    0.769    0.000    0.000    0.000    0.000 
#    0.000    0.000    0.000    0.000    0.000    0.000 
#
# Total GULP energy -322274.254290 kJ/mol
# GULP energy per Si atom -12395.163627 kJ/mol
# Density = 2.143945 g / cm^3
# Si number density = 21.488358 Si / 1000 Ang^3
#
#
#
# Elastic Constant Matrix: (Units=GPa)
#
#
# Indices 1 2 3 4 5 6 
#
# 1 50.4802 7.5599 15.6923 0.0000 0.0000 0.0000
# 2 7.5599 138.5615 53.2969 0.0000 0.0000 0.0000
# 3 15.6923 53.2969 124.0263 0.0000 0.0000 0.0000
# 4 0.0000 0.0000 0.0000 34.0840 0.0000 0.0000
# 5 0.0000 0.0000 0.0000 0.0000 25.9082 0.0000
# 6 0.0000 0.0000 0.0000 0.0000 0.0000 30.6789
#
#
#
# Elastic Compliance Matrix: (Units=1/GPa)
#
#
# Indices 1 2 3 4 5 6 
#
# 1 0.020623 -0.000146 -0.002547 0.000000 0.000000 0.000000
# 2 -0.000146 0.008647 -0.003697 0.000000 0.000000 0.000000
# 3 -0.002547 -0.003697 0.009974 0.000000 0.000000 0.000000
# 4 0.000000 0.000000 0.000000 0.029339 0.000000 0.000000
# 5 0.000000 0.000000 0.000000 0.000000 0.038598 0.000000
# 6 0.000000 0.000000 0.000000 0.000000 0.000000 0.032596
#
#
# Mechanical properties :
#
#
# Convention : Reuss Voigt Hill
#
# Bulk Modulus (GPa) = 37.78624 51.79623 44.79123
# Shear Modulus (GPa) = 30.98310 33.90215 32.44263
#
# Velocity S-wave (km/s) = 3.80130 3.97633 3.88980
# Velocity P-wave (km/s) = 6.07365 6.72594 6.40810
#
# Compressibility (1/GPa) = 0.02646466
#
# Stress axis : x y z
#
# Youngs Moduli (GPa) = 48.48903 115.64492 100.26152
#
# Poissons Ratio (x) = 0.01684 0.25534
# Poissons Ratio (y) = 0.00706 0.37071
# Poissons Ratio (z) = 0.12349 0.42759
#
# Static dielectric constant tensor:
#      x y z
#    x 3.722720 0.000000 0.000000 
#    y 0.000000 3.477850 0.000000 
#    z 0.000000 0.000000 4.168440 
# 
# 
# High freq. dielectric constant tensor:
#      x y z
#    x 1.833490 0.000000 0.000000 
#    y 0.000000 1.848580 0.000000 
#    z 0.000000 0.000000 1.856170 
# 
# From -- ./inp_files/19136.got.cif
#   From: 2010.03.12/outbox.cif.g09.slc.cpg/sg20_10_cif.got.tgz:19136.got - 2010.04.14 01:38:04.
