data_PCOD8159390
_publ_section_title
;
Structure prediction by ZEFSAII (Michael W. Deem and Ramdas Pophale) SiO2 
 PCOD8159390
Probable space group: C 2 2 21
;
_chemical_formula_sum "Si O2"
_cell_formula_units_Z 40
_cell_length_a 10.905195
_cell_length_b 10.699700
_cell_length_c 14.762613
_cell_angle_alpha 90.000000
_cell_angle_beta 90.000000
_cell_angle_gamma 90.000000
_cell_volume 1722.535859
_symmetry_space_group_name_H-M "C 2 2 21"
_symmetry_group_IT_number 20
_symmetry_cell_setting 'orthorhombic'
loop_
_space_group_symop_operation_xyz
x,y,z
-x,-y,1/2+z
x,-y,-z
-x,y,1/2-z
1/2+x,1/2+y,z
1/2-x,1/2-y,1/2+z
1/2+x,1/2-y,-z
1/2-x,1/2+y,1/2-z
loop_
_atom_site_type_symbol
_atom_site_label
_atom_site_fract_x
_atom_site_fract_y
_atom_site_fract_z
Si Si1 0.641665 0.288941 0.561054
Si Si2 0.452398 0.557241 0.347592
Si Si3 0.911541 0.560353 0.833108
Si Si4 0.191663 0.684181 0.373631
Si Si5 0.174845 0.184089 0.810137
O O1 0.562330 0.413233 0.581337
O O2 0.557402 0.172588 0.597242
O O3 0.671670 0.281050 0.455082
O O4 0.773213 0.282266 0.614536
O O5 0.500000 0.603164 0.250000
O O6 0.332242 0.638213 0.371739
O O7 0.433255 0.405897 0.349597
O O8 0.899452 0.432671 0.890315
O O9 0.780740 0.584896 0.784373
O O10 0.000000 0.546548 0.750000
O O11 0.140186 0.744557 0.281234
#
# Coordination Sequence:
#
# PCOD8159390 Si02
#       5
#     8   8   8   8   8
#     4  10  21  41  67  98 137 183 237 294 360 419
#     4  11  21  43  71  92 144 198 224 302 375 405
#     4   9  19  38  68  88 131 183 229 288 364 413
#     4  11  21  41  67 103 136 180 254 292 347 451
#     4   9  22  39  66  96 135 186 236 281 362 433
#
# _framework density 23.221575000000001
#
# number of rings (size 3 to 8) (size 9 to 14) (size 15 to 20)
#    1.200    0.800    2.000    2.400    0.000    0.800 
#   10.800    0.000    0.000    0.000    0.000    0.000 
#    0.000    0.000    0.000    0.000    0.000    0.000 
#
# Total GULP energy -247764.542034 kJ/mol
# GULP energy per Si atom -12388.227102 kJ/mol
# Density = 2.316872 g / cm^3
# Si number density = 23.221575 Si / 1000 Ang^3
#
#
#
# Elastic Constant Matrix: (Units=GPa)
#
#
# Indices 1 2 3 4 5 6 
#
# 1 61.7327 27.6434 21.2131 0.0000 0.0000 0.0000
# 2 27.6434 73.9687 16.8294 0.0000 0.0000 0.0000
# 3 21.2131 16.8294 94.2999 0.0000 0.0000 0.0000
# 4 0.0000 0.0000 0.0000 23.4819 0.0000 0.0000
# 5 0.0000 0.0000 0.0000 0.0000 33.3314 0.0000
# 6 0.0000 0.0000 0.0000 0.0000 0.0000 29.2388
#
#
#
# Elastic Compliance Matrix: (Units=1/GPa)
#
#
# Indices 1 2 3 4 5 6 
#
# 1 0.020433 -0.006869 -0.003371 0.000000 0.000000 0.000000
# 2 -0.006869 0.016401 -0.001382 0.000000 0.000000 0.000000
# 3 -0.003371 -0.001382 0.011609 0.000000 0.000000 0.000000
# 4 0.000000 0.000000 0.000000 0.042586 0.000000 0.000000
# 5 0.000000 0.000000 0.000000 0.000000 0.030002 0.000000
# 6 0.000000 0.000000 0.000000 0.000000 0.000000 0.034201
#
#
# Mechanical properties :
#
#
# Convention : Reuss Voigt Hill
#
# Bulk Modulus (GPa) = 39.68262 40.15259 39.91760
# Shear Modulus (GPa) = 26.75582 28.16479 27.46031
#
# Velocity S-wave (km/s) = 3.39808 3.48641 3.44253
# Velocity P-wave (km/s) = 5.70278 5.79097 5.74705
#
# Compressibility (1/GPa) = 0.02519995
#
# Stress axis : x y z
#
# Youngs Moduli (GPa) = 48.94015 60.97265 86.13808
#
# Poissons Ratio (x) = 0.41884 0.29033
# Poissons Ratio (y) = 0.33619 0.11902
# Poissons Ratio (z) = 0.16496 0.08425
#
# Static dielectric constant tensor:
#      x y z
#    x 4.049380 0.000000 0.000000 
#    y 0.000000 4.087060 0.000000 
#    z 0.000000 0.000000 3.807730 
# 
# 
# High freq. dielectric constant tensor:
#      x y z
#    x 1.903050 0.000000 0.000000 
#    y 0.000000 1.908380 0.000000 
#    z 0.000000 0.000000 1.901790 
# 
# From -- ./inp_files/19670.got.cif
#   From: 2010.03.12/outbox.cif.g09.slc.cpg/sg20_10_cif.got.tgz:19670.got - 2010.04.14 01:38:04.
