data_PCOD8159736
_publ_section_title
;
Structure prediction by ZEFSAII (Michael W. Deem and Ramdas Pophale) SiO2 
 PCOD8159736
Probable space group: C 2 2 21
;
_chemical_formula_sum "Si O2"
_cell_formula_units_Z 40
_cell_length_a 8.799051
_cell_length_b 8.799060
_cell_length_c 23.088807
_cell_angle_alpha 90.000000
_cell_angle_beta 90.000000
_cell_angle_gamma 90.000000
_cell_volume 1787.613425
_symmetry_space_group_name_H-M "C 2 2 21"
_symmetry_group_IT_number 20
_symmetry_cell_setting 'orthorhombic'
loop_
_space_group_symop_operation_xyz
x,y,z
-x,-y,1/2+z
x,-y,-z
-x,y,1/2-z
1/2+x,1/2+y,z
1/2-x,1/2-y,1/2+z
1/2+x,1/2-y,-z
1/2-x,1/2+y,1/2-z
loop_
_atom_site_type_symbol
_atom_site_label
_atom_site_fract_x
_atom_site_fract_y
_atom_site_fract_z
Si Si1 0.936601 0.436600 0.625000
Si Si2 0.929052 0.764413 0.579441
Si Si3 0.235586 0.070950 0.170560
Si Si4 0.743851 0.665175 0.476537
Si Si5 0.334825 0.256150 0.273463
O O1 0.901971 0.613113 0.616488
O O2 0.882067 0.343874 0.568854
O O3 0.843874 0.382066 0.681145
O O4 0.113115 0.401968 0.633512
O O5 0.902508 0.902506 0.625000
O O6 0.805203 0.772989 0.527822
O O7 0.098016 0.762182 0.554029
O O8 0.227010 0.194798 0.222178
O O9 0.237818 0.901985 0.195971
O O10 0.697361 0.500000 0.500000
O O11 0.500000 0.302639 0.250000
#
# Coordination Sequence:
#
# PCOD8159736 Si02
#       5
#     8   8   8   8   8
#     4  10  22  42  62  88 124 162 206 260 310 370
#     4  11  23  40  65  91 124 166 208 257 314 372
#     4  11  23  40  65  91 124 166 208 257 314 372
#     4  10  23  40  62  94 127 160 208 259 311 374
#     4  10  23  40  62  94 127 160 208 259 311 374
#
# _framework density 22.376203
#
# number of rings (size 3 to 8) (size 9 to 14) (size 15 to 20)
#    0.000    1.600    0.000    3.600    0.000   12.800 
#    0.000    0.000    0.000    0.000    0.000    0.000 
#    0.000    0.000    0.000    0.000    0.000    0.000 
#
# Total GULP energy -248049.343692 kJ/mol
# GULP energy per Si atom -12402.467185 kJ/mol
# Density = 2.232527 g / cm^3
# Si number density = 22.376203 Si / 1000 Ang^3
#
#
#
# Elastic Constant Matrix: (Units=GPa)
#
#
# Indices 1 2 3 4 5 6 
#
# 1 85.6722 55.9929 65.8060 0.0000 0.0000 0.0000
# 2 55.9929 85.6751 65.8081 0.0000 0.0000 0.0000
# 3 65.8060 65.8081 148.4586 0.0000 0.0000 0.0000
# 4 0.0000 0.0000 0.0000 40.4362 0.0000 0.0000
# 5 0.0000 0.0000 0.0000 0.0000 40.4359 0.0000
# 6 0.0000 0.0000 0.0000 0.0000 0.0000 28.0111
#
#
#
# Elastic Compliance Matrix: (Units=1/GPa)
#
#
# Indices 1 2 3 4 5 6 
#
# 1 0.022847 -0.010845 -0.005320 0.000000 0.000000 0.000000
# 2 -0.010845 0.022846 -0.005320 0.000000 0.000000 0.000000
# 3 -0.005320 -0.005320 0.011452 0.000000 0.000000 0.000000
# 4 0.000000 0.000000 0.000000 0.024730 0.000000 0.000000
# 5 0.000000 0.000000 0.000000 0.000000 0.024730 0.000000
# 6 0.000000 0.000000 0.000000 0.000000 0.000000 0.035700
#
#
# Mechanical properties :
#
#
# Convention : Reuss Voigt Hill
#
# Bulk Modulus (GPa) = 70.54513 77.22443 73.88478
# Shear Modulus (GPa) = 26.31573 30.58990 28.45282
#
# Velocity S-wave (km/s) = 3.43309 3.70141 3.56977
# Velocity P-wave (km/s) = 6.87824 7.27007 7.07687
#
# Compressibility (1/GPa) = 0.01417532
#
# Stress axis : x y z
#
# Youngs Moduli (GPa) = 43.77011 43.77094 87.32105
#
# Poissons Ratio (x) = 0.47471 0.46451
# Poissons Ratio (y) = 0.47470 0.46453
# Poissons Ratio (z) = 0.23284 0.23285
#
# Static dielectric constant tensor:
#      x y z
#    x 3.780460 0.000000 0.000000 
#    y 0.000000 3.780460 0.000000 
#    z 0.000000 0.000000 4.387920 
# 
# 
# High freq. dielectric constant tensor:
#      x y z
#    x 1.870090 0.000000 0.000000 
#    y 0.000000 1.870090 0.000000 
#    z 0.000000 0.000000 1.907590 
# 
# From -- ./inp_files/28598.got.cif
#   From: 2010.03.12/outbox.cif.g09.slc.cpg/sg20_15_cif.got.tgz:28598.got - 2010.04.14 01:38:04.
