data_PCOD8159187
_publ_section_title
;
Structure prediction by ZEFSAII (Michael W. Deem and Ramdas Pophale) SiO2 
 PCOD8159187
Probable space group: C 2 2 21
;
_chemical_formula_sum "Si O2"
_cell_formula_units_Z 48
_cell_length_a 9.519275
_cell_length_b 17.756934
_cell_length_c 13.473107
_cell_angle_alpha 90.000000
_cell_angle_beta 90.000000
_cell_angle_gamma 90.000000
_cell_volume 2277.401554
_symmetry_space_group_name_H-M "C 2 2 21"
_symmetry_group_IT_number 20
_symmetry_cell_setting 'orthorhombic'
loop_
_space_group_symop_operation_xyz
x,y,z
-x,-y,1/2+z
x,-y,-z
-x,y,1/2-z
1/2+x,1/2+y,z
1/2-x,1/2-y,1/2+z
1/2+x,1/2-y,-z
1/2-x,1/2+y,1/2-z
loop_
_atom_site_type_symbol
_atom_site_label
_atom_site_fract_x
_atom_site_fract_y
_atom_site_fract_z
Si Si1 0.641264 0.700011 0.117532
Si Si2 0.100252 0.915553 0.386096
Si Si3 0.899747 0.084447 0.113904
Si Si4 0.147946 0.647639 0.228435
Si Si5 0.647947 0.852361 0.228435
Si Si6 0.141264 0.799989 0.117532
O O1 0.516425 0.643567 0.150273
O O2 0.786444 0.673560 0.166913
O O3 0.605702 0.782230 0.158331
O O4 0.663633 0.701165 1.000000
O O5 0.136601 0.900164 0.500000
O O6 0.244572 0.907249 0.326407
O O7 0.983574 0.856434 0.349727
O O8 0.041266 0.000000 0.369724
O O9 0.755427 0.092751 0.173592
O O10 0.105702 0.717770 0.158332
O O11 0.000000 0.605297 0.250000
O O12 0.500000 0.894703 0.250000
O O13 0.713555 0.826440 0.333087
#
# Coordination Sequence:
#
# PCOD8159187 Si02
#       6
#     8   8   8   8   8   8
#     4  10  21  38  59  84 116 155 197 236 279 340
#     4  10  22  41  63  85 113 153 197 238 283 340
#     4  10  22  41  63  85 113 153 197 238 283 340
#     4  11  22  35  57  88 119 151 188 237 293 342
#     4  11  22  35  57  88 119 151 188 237 293 342
#     4  10  21  38  59  84 116 155 197 236 279 340
#
# _framework density 21.076651999999999
#
# number of rings (size 3 to 8) (size 9 to 14) (size 15 to 20)
#    0.000    1.667    0.000    6.000    0.000    8.667 
#    0.000    0.000    0.000    4.000    0.000    0.000 
#    0.000    0.000    0.000    0.000    0.000    0.000 
#
# Total GULP energy -297624.997726 kJ/mol
# GULP energy per Si atom -12401.041572 kJ/mol
# Density = 2.102868 g / cm^3
# Si number density = 21.076652 Si / 1000 Ang^3
#
#
#
# Elastic Constant Matrix: (Units=GPa)
#
#
# Indices 1 2 3 4 5 6 
#
# 1 130.6968 18.3346 46.0346 0.0000 0.0000 0.0000
# 2 18.3346 81.7081 24.7797 0.0000 0.0000 0.0000
# 3 46.0346 24.7797 111.5784 0.0000 0.0000 0.0000
# 4 0.0000 0.0000 0.0000 -40.1966 0.0000 0.0000
# 5 0.0000 0.0000 0.0000 0.0000 30.9191 0.0000
# 6 0.0000 0.0000 0.0000 0.0000 0.0000 11.8197
#
#
#
# Elastic Compliance Matrix: (Units=1/GPa)
#
#
# Indices 1 2 3 4 5 6 
#
# 1 0.009022 -0.000960 -0.003509 0.000000 0.000000 0.000000
# 2 -0.000960 0.013225 -0.002541 0.000000 0.000000 0.000000
# 3 -0.003509 -0.002541 0.010974 0.000000 0.000000 0.000000
# 4 0.000000 0.000000 0.000000 -0.024878 0.000000 0.000000
# 5 0.000000 0.000000 0.000000 0.000000 0.032342 0.000000
# 6 0.000000 0.000000 0.000000 0.000000 0.000000 0.084605
#
#
# Mechanical properties :
#
#
# Convention : Reuss Voigt Hill
#
# Bulk Modulus (GPa) = 52.08101 55.80900 53.94501
# Shear Modulus (GPa) = 34.31456 16.16408 25.23932
#
# Velocity S-wave (km/s) = 4.03933 2.77233 3.46425
# Velocity P-wave (km/s) = 6.82047 6.06501 6.45380
#
# Compressibility (1/GPa) = 0.01920086
#
# Stress axis : x y z
#
# Youngs Moduli (GPa) = 110.84067 75.61599 91.12199
#
# Poissons Ratio (x) = 0.07261 0.31975
# Poissons Ratio (y) = 0.10644 0.23152
# Poissons Ratio (z) = 0.38894 0.19212
#
# Static dielectric constant tensor:
#      x y z
#    x 3.866820 0.000000 0.000000 
#    y 0.000000 3.648380 0.000000 
#    z 0.000000 0.000000 3.931830 
# 
# 
# High freq. dielectric constant tensor:
#      x y z
#    x 1.827800 0.000000 0.000000 
#    y 0.000000 1.805560 0.000000 
#    z 0.000000 0.000000 1.844760 
# 
# From -- ./inp_files/19035.got.cif
#   From: 2010.03.12/outbox.cif.g09.slc.cpg/sg20_10_cif.got.tgz:19035.got - 2010.04.14 01:38:04.
