data_PCOD8159362
_publ_section_title
;
Structure prediction by ZEFSAII (Michael W. Deem and Ramdas Pophale) SiO2 
 PCOD8159362
Probable space group: C 2 2 21
;
_chemical_formula_sum "Si O2"
_cell_formula_units_Z 56
_cell_length_a 19.616046
_cell_length_b 8.412091
_cell_length_c 15.133851
_cell_angle_alpha 90.000000
_cell_angle_beta 90.000000
_cell_angle_gamma 90.000000
_cell_volume 2497.266477
_symmetry_space_group_name_H-M "C 2 2 21"
_symmetry_group_IT_number 20
_symmetry_cell_setting 'orthorhombic'
loop_
_space_group_symop_operation_xyz
x,y,z
-x,-y,1/2+z
x,-y,-z
-x,y,1/2-z
1/2+x,1/2+y,z
1/2-x,1/2-y,1/2+z
1/2+x,1/2-y,-z
1/2-x,1/2+y,1/2-z
loop_
_atom_site_type_symbol
_atom_site_label
_atom_site_fract_x
_atom_site_fract_y
_atom_site_fract_z
Si Si1 0.111403 0.282839 0.892725
Si Si2 0.255432 0.296019 0.661946
Si Si3 0.388384 0.274652 0.863145
Si Si4 0.107880 0.957913 0.807524
Si Si5 0.159339 0.484903 0.238340
Si Si6 0.253798 0.319947 0.974422
Si Si7 0.021699 0.172862 0.042524
O O1 0.110044 0.449889 0.839674
O O2 0.187039 0.246959 0.928971
O O3 0.089245 0.139922 0.827250
O O4 0.058750 0.292956 0.974516
O O5 0.313898 0.427882 0.667336
O O6 0.192224 0.357030 0.719655
O O7 0.281709 0.127194 0.698524
O O8 0.229299 0.280791 0.561795
O O9 0.405676 0.419153 0.795657
O O10 0.385532 0.109425 0.809561
O O11 0.315870 0.308561 0.906839
O O12 0.445992 0.262692 0.937896
O O13 0.063477 0.835746 0.866234
O O14 0.238446 0.500000 0.000000
O O15 0.017669 0.000000 0.000000
#
# Coordination Sequence:
#
# PCOD8159362 Si02
#       7
#     8   8   8   8   8   8   8
#     4  11  22  42  71 104 132 178 231 276 340 409
#     4  11  22  40  67 100 139 174 221 278 340 397
#     4  11  25  43  69 101 139 180 226 283 344 401
#     4  10  21  40  73  97 129 179 225 277 331 411
#     4  11  24  40  69 104 139 177 223 284 343 406
#     4  12  24  38  68 102 140 179 224 289 331 396
#     4  10  22  44  72  99 132 179 230 280 338 410
#
# _framework density 22.424520999999999
#
# number of rings (size 3 to 8) (size 9 to 14) (size 15 to 20)
#    0.000    1.143    2.857    4.286    2.000    1.714 
#    0.000    0.000   25.143    0.000    0.000    0.000 
#    0.000    0.000    0.000    0.000    0.000    0.000 
#
# Total GULP energy -347303.172562 kJ/mol
# GULP energy per Si atom -12403.684734 kJ/mol
# Density = 2.237348 g / cm^3
# Si number density = 22.424521 Si / 1000 Ang^3
#
#
#
# Elastic Constant Matrix: (Units=GPa)
#
#
# Indices 1 2 3 4 5 6 
#
# 1 105.9123 17.8198 49.9390 0.0000 0.0000 0.0000
# 2 17.8198 81.8618 35.1599 0.0000 0.0000 0.0000
# 3 49.9390 35.1599 116.2242 0.0000 0.0000 0.0000
# 4 0.0000 0.0000 0.0000 32.4060 0.0000 0.0000
# 5 0.0000 0.0000 0.0000 0.0000 39.1128 0.0000
# 6 0.0000 0.0000 0.0000 0.0000 0.0000 21.7156
#
#
#
# Elastic Compliance Matrix: (Units=1/GPa)
#
#
# Indices 1 2 3 4 5 6 
#
# 1 0.011855 -0.000451 -0.004957 0.000000 0.000000 0.000000
# 2 -0.000451 0.014057 -0.004059 0.000000 0.000000 0.000000
# 3 -0.004957 -0.004059 0.011962 0.000000 0.000000 0.000000
# 4 0.000000 0.000000 0.000000 0.030858 0.000000 0.000000
# 5 0.000000 0.000000 0.000000 0.000000 0.025567 0.000000
# 6 0.000000 0.000000 0.000000 0.000000 0.000000 0.046050
#
#
# Mechanical properties :
#
#
# Convention : Reuss Voigt Hill
#
# Bulk Modulus (GPa) = 52.79962 56.64839 54.72400
# Shear Modulus (GPa) = 30.19368 32.05218 31.12293
#
# Velocity S-wave (km/s) = 3.67339 3.78476 3.72949
# Velocity P-wave (km/s) = 6.44890 6.66452 6.55760
#
# Compressibility (1/GPa) = 0.01893953
#
# Stress axis : x y z
#
# Youngs Moduli (GPa) = 84.35130 71.13820 83.59876
#
# Poissons Ratio (x) = 0.03212 0.41443
# Poissons Ratio (y) = 0.03808 0.33929
# Poissons Ratio (z) = 0.41816 0.28872
#
# Static dielectric constant tensor:
#      x y z
#    x 3.802080 0.000000 0.000000 
#    y 0.000000 3.838440 0.000000 
#    z 0.000000 0.000000 4.348190 
# 
# 
# High freq. dielectric constant tensor:
#      x y z
#    x 1.862000 0.000000 0.000000 
#    y 0.000000 1.874870 0.000000 
#    z 0.000000 0.000000 1.900950 
# 
# From -- ./inp_files/21765.got.cif
#   From: 2010.03.12/outbox.cif.g09.slc.cpg/sg20_11_cif.got.tgz:21765.got - 2010.04.14 01:38:04.
