data_PCOD8159722
_publ_section_title
;
Structure prediction by ZEFSAII (Michael W. Deem and Ramdas Pophale) SiO2 
 PCOD8159722
Probable space group: C 2 2 21
;
_chemical_formula_sum "Si O2"
_cell_formula_units_Z 44
_cell_length_a 28.374425
_cell_length_b 5.155913
_cell_length_c 12.793893
_cell_angle_alpha 90.000000
_cell_angle_beta 90.000000
_cell_angle_gamma 90.000000
_cell_volume 1871.696224
_symmetry_space_group_name_H-M "C 2 2 21"
_symmetry_group_IT_number 20
_symmetry_cell_setting 'orthorhombic'
loop_
_space_group_symop_operation_xyz
x,y,z
-x,-y,1/2+z
x,-y,-z
-x,y,1/2-z
1/2+x,1/2+y,z
1/2-x,1/2-y,1/2+z
1/2+x,1/2-y,-z
1/2-x,1/2+y,1/2-z
loop_
_atom_site_type_symbol
_atom_site_label
_atom_site_fract_x
_atom_site_fract_y
_atom_site_fract_z
Si Si1 0.206807 0.500000 0.500000
Si Si2 0.597657 0.597622 0.298205
Si Si3 0.477225 0.000000 0.500000
Si Si4 0.310912 0.317926 0.187558
Si Si5 0.224649 0.397046 0.892221
Si Si6 0.945745 0.606381 0.285259
Si Si7 0.458609 0.500000 0.000000
O O1 0.173520 0.354282 0.585832
O O2 0.239758 0.324206 0.427810
O O3 0.654300 0.566392 0.306310
O O4 0.584516 0.898116 0.281416
O O5 0.574681 0.488522 0.401717
O O6 0.577228 0.392700 0.213303
O O7 0.442785 0.002633 0.598361
O O8 0.509415 0.249955 0.498912
O O9 0.256565 0.384629 0.163749
O O10 0.313108 0.186261 0.303551
O O11 0.199465 0.500000 0.000000
O O12 0.000000 0.616745 0.250000
#
# Coordination Sequence:
#
# PCOD8159722 Si02
#       7
#     4   8   4   8   8   8   4
#     4  10  22  41  68  97 136 176 236 275 356 417
#     4  12  27  41  71 105 140 172 233 292 345 408
#     4  12  24  43  76  88 135 180 231 266 350 421
#     4  11  24  42  70 101 140 179 232 298 349 420
#     4  10  22  43  69  97 133 190 228 280 356 428
#     4  12  24  48  67 100 135 184 224 281 354 419
#     4  12  22  40  68 107 125 176 223 291 340 404
#
# _framework density 23.508089999999999
#
# number of rings (size 3 to 8) (size 9 to 14) (size 15 to 20)
#    0.000    0.727    5.455    1.636    6.364    0.727 
#    1.636    0.000    0.000    0.000    0.000    0.000 
#    0.000    0.000    0.000    0.000    0.000    0.000 
#
# Total GULP energy -272667.228673 kJ/mol
# GULP energy per Si atom -12393.964940 kJ/mol
# Density = 2.345458 g / cm^3
# Si number density = 23.508090 Si / 1000 Ang^3
#
#
#
# Elastic Constant Matrix: (Units=GPa)
#
#
# Indices 1 2 3 4 5 6 
#
# 1 52.7674 0.8725 7.3133 0.0000 0.0000 0.0000
# 2 0.8725 83.0953 -4.5616 0.0000 0.0000 0.0000
# 3 7.3133 -4.5616 111.2392 0.0000 0.0000 0.0000
# 4 0.0000 0.0000 0.0000 36.2837 0.0000 0.0000
# 5 0.0000 0.0000 0.0000 0.0000 30.7892 0.0000
# 6 0.0000 0.0000 0.0000 0.0000 0.0000 28.6543
#
#
#
# Elastic Compliance Matrix: (Units=1/GPa)
#
#
# Indices 1 2 3 4 5 6 
#
# 1 0.019131 -0.000271 -0.001269 0.000000 0.000000 0.000000
# 2 -0.000271 0.012065 0.000513 0.000000 0.000000 0.000000
# 3 -0.001269 0.000513 0.009094 0.000000 0.000000 0.000000
# 4 0.000000 0.000000 0.000000 0.027561 0.000000 0.000000
# 5 0.000000 0.000000 0.000000 0.000000 0.032479 0.000000
# 6 0.000000 0.000000 0.000000 0.000000 0.000000 0.034899
#
#
# Mechanical properties :
#
#
# Convention : Reuss Voigt Hill
#
# Bulk Modulus (GPa) = 26.15256 28.26113 27.20684
# Shear Modulus (GPa) = 33.32699 35.37728 34.35214
#
# Velocity S-wave (km/s) = 3.76930 3.88351 3.82683
# Velocity P-wave (km/s) = 5.48567 5.67070 5.57895
#
# Compressibility (1/GPa) = 0.03823718
#
# Stress axis : x y z
#
# Youngs Moduli (GPa) = 52.26998 82.88192 109.96169
#
# Poissons Ratio (x) = 0.02242 0.13953
# Poissons Ratio (y) = 0.01414 -0.05636
# Poissons Ratio (z) = 0.06632 -0.04248
#
# Static dielectric constant tensor:
#      x y z
#    x 3.794950 0.000000 0.000000 
#    y 0.000000 4.354930 0.000000 
#    z 0.000000 0.000000 4.931980 
# 
# 
# High freq. dielectric constant tensor:
#      x y z
#    x 1.897590 0.000000 0.000000 
#    y 0.000000 1.938150 0.000000 
#    z 0.000000 0.000000 1.951260 
# 
# From -- ./inp_files/22137.got.cif
#   From: 2010.03.12/outbox.cif.g09.slc.cpg/sg20_12_cif.got.tgz:22137.got - 2010.04.14 01:38:04.
