data_PCOD8159303
_publ_section_title
;
Structure prediction by ZEFSAII (Michael W. Deem and Ramdas Pophale) SiO2 
 PCOD8159303
Probable space group: C 2 2 21
;
_chemical_formula_sum "Si O2"
_cell_formula_units_Z 48
_cell_length_a 8.894987
_cell_length_b 28.723886
_cell_length_c 9.189719
_cell_angle_alpha 90.000000
_cell_angle_beta 90.000000
_cell_angle_gamma 90.000000
_cell_volume 2347.960271
_symmetry_space_group_name_H-M "C 2 2 21"
_symmetry_group_IT_number 20
_symmetry_cell_setting 'orthorhombic'
loop_
_space_group_symop_operation_xyz
x,y,z
-x,-y,1/2+z
x,-y,-z
-x,y,1/2-z
1/2+x,1/2+y,z
1/2-x,1/2-y,1/2+z
1/2+x,1/2-y,-z
1/2-x,1/2+y,1/2-z
loop_
_atom_site_type_symbol
_atom_site_label
_atom_site_fract_x
_atom_site_fract_y
_atom_site_fract_z
Si Si1 0.619325 0.973900 0.646915
Si Si2 0.928133 0.212005 0.594484
Si Si3 0.413054 0.126222 0.110579
Si Si4 0.610694 0.468715 0.638352
Si Si5 0.557906 0.371752 0.897067
Si Si6 0.073801 0.291697 0.404873
O O1 0.500000 0.002185 0.750000
O O2 0.534645 0.927297 0.588269
O O3 0.748317 0.958464 0.758948
O O4 0.674750 0.000000 0.500000
O O5 0.975668 0.161232 0.534014
O O6 0.750110 0.218546 0.604338
O O7 0.000000 0.217987 0.750000
O O8 0.993646 0.251355 0.492471
O O9 0.500000 0.147569 0.250000
O O10 0.234464 0.123199 0.125864
O O11 0.459077 0.158174 0.975881
O O12 0.653389 0.500000 0.500000
O O13 0.500000 0.496118 0.750000
O O14 0.529408 0.421092 0.584143
O O15 0.500000 0.346809 0.750000
O O16 0.000000 0.294036 0.250000
#
# Coordination Sequence:
#
# PCOD8159303 Si02
#       6
#     8   8   8   8   8   8
#     4  11  23  43  65  95 130 169 215 265 324 389
#     4  11  24  42  64  95 129 169 210 267 317 384
#     4  10  22  40  64  88 124 169 207 257 316 379
#     4  11  22  40  65  96 127 171 215 266 325 381
#     4  10  21  40  61  91 125 161 212 257 316 372
#     4  11  24  43  65  95 129 165 215 264 322 384
#
# _framework density 20.443276000000001
#
# number of rings (size 3 to 8) (size 9 to 14) (size 15 to 20)
#    0.000    1.333    3.333    3.000    0.000    6.667 
#    3.000    0.000    0.000    0.000    0.000    0.000 
#    0.000    0.000    0.000    0.000    0.000    0.000 
#
# Total GULP energy -297344.676026 kJ/mol
# GULP energy per Si atom -12389.361501 kJ/mol
# Density = 2.039675 g / cm^3
# Si number density = 20.443276 Si / 1000 Ang^3
#
#
#
# Elastic Constant Matrix: (Units=GPa)
#
#
# Indices 1 2 3 4 5 6 
#
# 1 91.6704 56.2330 64.5315 0.0000 0.0000 0.0000
# 2 56.2330 109.5505 87.2900 0.0000 0.0000 0.0000
# 3 64.5315 87.2900 177.9079 0.0000 0.0000 0.0000
# 4 0.0000 0.0000 0.0000 62.9844 0.0000 0.0000
# 5 0.0000 0.0000 0.0000 0.0000 41.2138 0.0000
# 6 0.0000 0.0000 0.0000 0.0000 0.0000 22.8340
#
#
#
# Elastic Compliance Matrix: (Units=1/GPa)
#
#
# Indices 1 2 3 4 5 6 
#
# 1 0.016888 -0.006219 -0.003074 0.000000 0.000000 0.000000
# 2 -0.006219 0.017278 -0.006222 0.000000 0.000000 0.000000
# 3 -0.003074 -0.006222 0.009789 0.000000 0.000000 0.000000
# 4 0.000000 0.000000 0.000000 0.015877 0.000000 0.000000
# 5 0.000000 0.000000 0.000000 0.000000 0.024264 0.000000
# 6 0.000000 0.000000 0.000000 0.000000 0.000000 0.043794
#
#
# Mechanical properties :
#
#
# Convention : Reuss Voigt Hill
#
# Bulk Modulus (GPa) = 77.37242 88.35976 82.86609
# Shear Modulus (GPa) = 30.63225 36.81139 33.72182
#
# Velocity S-wave (km/s) = 3.87512 4.24802 4.06585
# Velocity P-wave (km/s) = 7.61259 8.20833 7.91607
#
# Compressibility (1/GPa) = 0.01292450
#
# Stress axis : x y z
#
# Youngs Moduli (GPa) = 59.21493 57.87780 102.16025
#
# Poissons Ratio (x) = 0.35994 0.31406
# Poissons Ratio (y) = 0.36826 0.63559
# Poissons Ratio (z) = 0.18204 0.36009
#
# Static dielectric constant tensor:
#      x y z
#    x 3.584570 0.000000 0.000000 
#    y 0.000000 3.870050 0.000000 
#    z 0.000000 0.000000 3.993460 
# 
# 
# High freq. dielectric constant tensor:
#      x y z
#    x 1.814170 0.000000 0.000000 
#    y 0.000000 1.793130 0.000000 
#    z 0.000000 0.000000 1.804450 
# 
# From -- ./inp_files/6509.got.cif
#   From: 2010.03.12/outbox.cif.g09.slc.cpg/sg20_4_cif.got.tgz:6509.got - 2010.04.14 01:38:04.
