data_PCOD8159464
_publ_section_title
;
Structure prediction by ZEFSAII (Michael W. Deem and Ramdas Pophale) SiO2 
 PCOD8159464
Probable space group: C 2 2 21
;
_chemical_formula_sum "Si O2"
_cell_formula_units_Z 52
_cell_length_a 17.776616
_cell_length_b 9.029677
_cell_length_c 14.433133
_cell_angle_alpha 90.000000
_cell_angle_beta 90.000000
_cell_angle_gamma 90.000000
_cell_volume 2316.764662
_symmetry_space_group_name_H-M "C 2 2 21"
_symmetry_group_IT_number 20
_symmetry_cell_setting 'orthorhombic'
loop_
_space_group_symop_operation_xyz
x,y,z
-x,-y,1/2+z
x,-y,-z
-x,y,1/2-z
1/2+x,1/2+y,z
1/2-x,1/2-y,1/2+z
1/2+x,1/2-y,-z
1/2-x,1/2+y,1/2-z
loop_
_atom_site_type_symbol
_atom_site_label
_atom_site_fract_x
_atom_site_fract_y
_atom_site_fract_z
Si Si1 0.874916 0.500000 0.000000
Si Si2 0.000000 0.914204 0.750000
Si Si3 0.852235 0.608642 0.583697
Si Si4 0.514970 0.169905 0.615464
Si Si5 0.849329 0.673377 0.303720
Si Si6 0.500000 0.908564 0.750000
Si Si7 0.256600 0.846449 0.868238
Si Si8 0.383431 0.459522 0.393557
O O1 0.823047 0.432215 0.919950
O O2 0.925905 0.640508 0.967149
O O3 0.953131 0.799450 0.816990
O O4 0.049480 0.014086 0.819400
O O5 0.860336 0.500000 0.500000
O O6 0.928208 0.712177 0.586964
O O7 0.843099 0.500538 0.671936
O O8 0.776782 0.706707 0.575028
O O9 0.506941 0.008498 0.659275
O O10 0.928169 0.697419 0.251078
O O11 0.782896 0.711909 0.232206
O O12 0.854661 0.787475 0.390658
O O13 0.186920 0.953639 0.853380
O O14 0.405275 0.500000 0.500000
#
# Coordination Sequence:
#
# PCOD8159464 Si02
#       8
#     4   4   8   8   8   4   8   8
#     4  12  24  42  74 110 152 194 250 320 382 458
#     4  11  25  46  76 106 150 196 260 308 388 454
#     4  11  23  44  72 102 136 193 252 299 370 462
#     4  10  21  42  72 103 139 191 248 303 366 463
#     4  11  24  42  71  96 147 188 247 304 374 455
#     4   9  19  38  64 100 124 184 240 292 350 442
#     4  12  25  45  69 108 147 190 248 315 386 439
#     4  12  26  47  72 107 150 199 244 322 392 448
#
# _framework density 22.445094000000001
#
# number of rings (size 3 to 8) (size 9 to 14) (size 15 to 20)
#    0.000    0.923    4.615    2.308    0.000    1.231 
#    5.538    0.000    0.000    0.000    0.000    0.000 
#    0.000    0.000    0.000    0.000    0.000    0.000 
#
# Total GULP energy -322155.910028 kJ/mol
# GULP energy per Si atom -12390.611924 kJ/mol
# Density = 2.239401 g / cm^3
# Si number density = 22.445094 Si / 1000 Ang^3
#
#
#
# Elastic Constant Matrix: (Units=GPa)
#
#
# Indices 1 2 3 4 5 6 
#
# 1 110.2181 25.0415 48.5399 0.0000 0.0000 0.0000
# 2 25.0415 76.2493 12.9104 0.0000 0.0000 0.0000
# 3 48.5399 12.9104 86.3475 0.0000 0.0000 0.0000
# 4 0.0000 0.0000 0.0000 30.8392 0.0000 0.0000
# 5 0.0000 0.0000 0.0000 0.0000 38.8572 0.0000
# 6 0.0000 0.0000 0.0000 0.0000 0.0000 31.6063
#
#
#
# Elastic Compliance Matrix: (Units=1/GPa)
#
#
# Indices 1 2 3 4 5 6 
#
# 1 0.012710 -0.003041 -0.006690 0.000000 0.000000 0.000000
# 2 -0.003041 0.014183 -0.000411 0.000000 0.000000 0.000000
# 3 -0.006690 -0.000411 0.015403 0.000000 0.000000 0.000000
# 4 0.000000 0.000000 0.000000 0.032426 0.000000 0.000000
# 5 0.000000 0.000000 0.000000 0.000000 0.025735 0.000000
# 6 0.000000 0.000000 0.000000 0.000000 0.000000 0.031639
#
#
# Mechanical properties :
#
#
# Convention : Reuss Voigt Hill
#
# Bulk Modulus (GPa) = 45.43024 49.53316 47.48170
# Shear Modulus (GPa) = 31.30466 32.68208 31.99337
#
# Velocity S-wave (km/s) = 3.73865 3.82001 3.77955
# Velocity P-wave (km/s) = 6.23869 6.44773 6.34407
#
# Compressibility (1/GPa) = 0.02201177
#
# Stress axis : x y z
#
# Youngs Moduli (GPa) = 78.67593 70.50534 64.92032
#
# Poissons Ratio (x) = 0.21444 0.43434
# Poissons Ratio (y) = 0.23929 0.02667
# Poissons Ratio (z) = 0.52637 0.02897
#
# Static dielectric constant tensor:
#      x y z
#    x 4.217690 0.000000 0.000000 
#    y 0.000000 4.659200 0.000000 
#    z 0.000000 0.000000 4.004060 
# 
# 
# High freq. dielectric constant tensor:
#      x y z
#    x 1.876940 0.000000 0.000000 
#    y 0.000000 1.886620 0.000000 
#    z 0.000000 0.000000 1.883410 
# 
# From -- ./inp_files/21741.got.cif
#   From: 2010.03.12/outbox.cif.g09.slc.cpg/sg20_11_cif.got.tgz:21741.got - 2010.04.14 01:38:04.
