data_PCOD8159687
_publ_section_title
;
Structure prediction by ZEFSAII (Michael W. Deem and Ramdas Pophale) SiO2 
 PCOD8159687
Probable space group: C 2 2 21
;
_chemical_formula_sum "Si O2"
_cell_formula_units_Z 44
_cell_length_a 5.330892
_cell_length_b 30.192004
_cell_length_c 12.282164
_cell_angle_alpha 90.000000
_cell_angle_beta 90.000000
_cell_angle_gamma 90.000000
_cell_volume 1976.818135
_symmetry_space_group_name_H-M "C 2 2 21"
_symmetry_group_IT_number 20
_symmetry_cell_setting 'orthorhombic'
loop_
_space_group_symop_operation_xyz
x,y,z
-x,-y,1/2+z
x,-y,-z
-x,y,1/2-z
1/2+x,1/2+y,z
1/2-x,1/2-y,1/2+z
1/2+x,1/2-y,-z
1/2-x,1/2+y,1/2-z
loop_
_atom_site_type_symbol
_atom_site_label
_atom_site_fract_x
_atom_site_fract_y
_atom_site_fract_z
Si Si1 0.171605 0.092404 0.923949
Si Si2 0.319769 0.051439 0.521747
Si Si3 0.155694 0.782619 0.619301
Si Si4 0.413149 0.383831 0.869471
Si Si5 0.500000 0.342972 0.250000
Si Si6 0.842629 0.762921 0.132863
O O1 0.429540 0.065565 0.914710
O O2 0.928312 0.060504 0.904587
O O3 0.175579 0.128756 0.829656
O O4 0.144810 0.115291 0.043782
O O5 0.294842 0.080380 0.410201
O O6 0.341062 0.000000 0.500000
O O7 0.203567 0.834818 0.632494
O O8 0.387604 0.756538 0.675601
O O9 0.156125 0.766518 0.495961
O O10 0.885426 0.769196 0.671207
O O11 0.500000 0.398552 0.750000
O O12 0.310521 0.312595 0.179382
#
# Coordination Sequence:
#
# PCOD8159687 Si02
#       6
#     8   8   8   8   4   8
#     4  10  25  43  70 101 135 183 218 296 347 425
#     4  10  23  48  72 102 137 176 233 289 359 427
#     4  10  22  41  58  93 127 181 224 272 335 386
#     4  10  24  44  68  98 136 177 229 283 340 414
#     4  12  24  46  66 106 142 184 234 284 356 410
#     4  10  23  37  63  88 135 176 228 273 317 407
#
# _framework density 22.257989999999999
#
# number of rings (size 3 to 8) (size 9 to 14) (size 15 to 20)
#    1.091    0.727    1.818    0.545    5.091    5.818 
#    1.636    1.818    0.000    0.000    0.000    0.000 
#    0.000    0.000    0.000    0.000    0.000    0.000 
#
# Total GULP energy -272755.346134 kJ/mol
# GULP energy per Si atom -12397.970279 kJ/mol
# Density = 2.220733 g / cm^3
# Si number density = 22.257990 Si / 1000 Ang^3
#
#
#
# Elastic Constant Matrix: (Units=GPa)
#
#
# Indices 1 2 3 4 5 6 
#
# 1 171.0820 88.0146 66.5926 0.0000 0.0000 0.0000
# 2 88.0146 184.6022 35.9815 0.0000 0.0000 0.0000
# 3 66.5926 35.9815 69.2901 0.0000 0.0000 0.0000
# 4 0.0000 0.0000 0.0000 21.7126 0.0000 0.0000
# 5 0.0000 0.0000 0.0000 0.0000 30.8931 0.0000
# 6 0.0000 0.0000 0.0000 0.0000 0.0000 16.3104
#
#
#
# Elastic Compliance Matrix: (Units=1/GPa)
#
#
# Indices 1 2 3 4 5 6 
#
# 1 0.011127 -0.003583 -0.008833 0.000000 0.000000 0.000000
# 2 -0.003583 0.007181 -0.000285 0.000000 0.000000 0.000000
# 3 -0.008833 -0.000285 0.023069 0.000000 0.000000 0.000000
# 4 0.000000 0.000000 0.000000 0.046056 0.000000 0.000000
# 5 0.000000 0.000000 0.000000 0.000000 0.032370 0.000000
# 6 0.000000 0.000000 0.000000 0.000000 0.000000 0.061311
#
#
# Mechanical properties :
#
#
# Convention : Reuss Voigt Hill
#
# Bulk Modulus (GPa) = 62.60066 89.57241 76.08653
# Shear Modulus (GPa) = 23.60260 29.40893 26.50577
#
# Velocity S-wave (km/s) = 3.25993 3.63888 3.45460
# Velocity P-wave (km/s) = 6.50812 7.61482 7.08311
#
# Compressibility (1/GPa) = 0.01597427
#
# Stress axis : x y z
#
# Youngs Moduli (GPa) = 89.87337 139.25392 43.34802
#
# Poissons Ratio (x) = 0.49900 0.38288
# Poissons Ratio (y) = 0.32205 0.01236
# Poissons Ratio (z) = 0.79383 0.03971
#
# Static dielectric constant tensor:
#      x y z
#    x 4.068890 0.000000 0.000000 
#    y 0.000000 3.755450 0.000000 
#    z 0.000000 0.000000 4.110740 
# 
# 
# High freq. dielectric constant tensor:
#      x y z
#    x 1.872390 0.000000 0.000000 
#    y 0.000000 1.862660 0.000000 
#    z 0.000000 0.000000 1.900710 
# 
# From -- ./inp_files/17723.got.cif
#   From: 2010.03.12/outbox.cif.g09.slc.cpg/sg20_9_cif.got.tgz:17723.got - 2010.04.14 01:38:04.
