data_PCOD8159694
_publ_section_title
;
Structure prediction by ZEFSAII (Michael W. Deem and Ramdas Pophale) SiO2 
 PCOD8159694
Probable space group: C 2 2 21
;
_chemical_formula_sum "Si O2"
_cell_formula_units_Z 64
_cell_length_a 14.094764
_cell_length_b 18.318888
_cell_length_c 12.410303
_cell_angle_alpha 90.000000
_cell_angle_beta 90.000000
_cell_angle_gamma 90.000000
_cell_volume 3204.345237
_symmetry_space_group_name_H-M "C 2 2 21"
_symmetry_group_IT_number 20
_symmetry_cell_setting 'orthorhombic'
loop_
_space_group_symop_operation_xyz
x,y,z
-x,-y,1/2+z
x,-y,-z
-x,y,1/2-z
1/2+x,1/2+y,z
1/2-x,1/2-y,1/2+z
1/2+x,1/2-y,-z
1/2-x,1/2+y,1/2-z
loop_
_atom_site_type_symbol
_atom_site_label
_atom_site_fract_x
_atom_site_fract_y
_atom_site_fract_z
Si Si1 0.352994 0.787227 0.452512
Si Si2 0.260994 0.423284 0.959209
Si Si3 0.424972 0.775458 0.011725
Si Si4 0.920002 0.130440 0.894436
Si Si5 0.750822 0.861075 0.508273
Si Si6 0.104039 0.233236 0.261165
Si Si7 0.621197 0.422234 0.166675
Si Si8 0.171169 0.920073 0.779041
O O1 0.306910 0.858663 0.501841
O O2 0.465381 0.793514 0.472227
O O3 0.310032 0.714152 0.504391
O O4 0.331933 0.779807 0.323268
O O5 0.266270 0.424980 0.829655
O O6 0.217491 0.500000 0.000000
O O7 0.364307 0.413956 0.013529
O O8 0.415875 0.716854 0.916461
O O9 0.362861 0.847518 0.988891
O O10 0.367765 0.741722 0.114799
O O11 0.871981 0.122669 0.777609
O O12 0.027319 0.100473 0.899046
O O13 0.785444 0.909275 0.406190
O O14 0.763246 0.905969 0.617800
O O15 0.100242 0.148108 0.229356
O O16 0.000000 0.266287 0.250000
O O17 0.611756 0.506809 0.200264
#
# Coordination Sequence:
#
# PCOD8159694 Si02
#       8
#     8   8   8   8   8   8   8   8
#     4  10  22  41  62  95 126 167 219 270 317 388
#     4  12  24  42  65  90 130 171 216 261 326 394
#     4  11  21  41  65  96 124 165 226 270 323 380
#     4  11  23  40  63  96 126 167 205 270 334 385
#     4  11  23  40  64  88 130 173 210 269 326 388
#     4   9  20  34  61  91 124 160 210 260 322 383
#     4  11  25  41  58  95 136 166 209 263 335 398
#     4  11  23  39  60  94 128 173 208 263 322 401
#
# _framework density 19.972878999999999
#
# number of rings (size 3 to 8) (size 9 to 14) (size 15 to 20)
#    0.000    1.250    5.000    0.375    3.500    2.000 
#    0.000    1.250    0.000    0.000    0.000    0.000 
#    0.000    0.000    0.000    0.000    0.000    0.000 
#
# Total GULP energy -396624.211807 kJ/mol
# GULP energy per Si atom -12394.506619 kJ/mol
# Density = 1.992742 g / cm^3
# Si number density = 19.972879 Si / 1000 Ang^3
#
#
#
# Elastic Constant Matrix: (Units=GPa)
#
#
# Indices 1 2 3 4 5 6 
#
# 1 83.9657 29.0393 35.6125 0.0000 0.0000 0.0000
# 2 29.0393 92.4197 52.9496 0.0000 0.0000 0.0000
# 3 35.6125 52.9496 132.2261 0.0000 0.0000 0.0000
# 4 0.0000 0.0000 0.0000 31.4574 0.0000 0.0000
# 5 0.0000 0.0000 0.0000 0.0000 21.6345 0.0000
# 6 0.0000 0.0000 0.0000 0.0000 0.0000 27.5125
#
#
#
# Elastic Compliance Matrix: (Units=1/GPa)
#
#
# Indices 1 2 3 4 5 6 
#
# 1 0.014024 -0.002910 -0.002612 0.000000 0.000000 0.000000
# 2 -0.002910 0.014646 -0.005081 0.000000 0.000000 0.000000
# 3 -0.002612 -0.005081 0.010301 0.000000 0.000000 0.000000
# 4 0.000000 0.000000 0.000000 0.031789 0.000000 0.000000
# 5 0.000000 0.000000 0.000000 0.000000 0.046223 0.000000
# 6 0.000000 0.000000 0.000000 0.000000 0.000000 0.036347
#
#
# Mechanical properties :
#
#
# Convention : Reuss Voigt Hill
#
# Bulk Modulus (GPa) = 56.29156 60.42381 58.35768
# Shear Modulus (GPa) = 27.70757 28.85489 28.28123
#
# Velocity S-wave (km/s) = 3.72863 3.80505 3.76704
# Velocity P-wave (km/s) = 6.83975 7.04437 6.94281
#
# Compressibility (1/GPa) = 0.01776465
#
# Stress axis : x y z
#
# Youngs Moduli (GPa) = 71.30750 68.27966 97.07904
#
# Poissons Ratio (x) = 0.19870 0.25354
# Poissons Ratio (y) = 0.20751 0.49326
# Poissons Ratio (z) = 0.18623 0.34693
#
# Static dielectric constant tensor:
#      x y z
#    x 3.402820 0.000000 0.000000 
#    y 0.000000 3.545450 0.000000 
#    z 0.000000 0.000000 3.991500 
# 
# 
# High freq. dielectric constant tensor:
#      x y z
#    x 1.755960 0.000000 0.000000 
#    y 0.000000 1.768910 0.000000 
#    z 0.000000 0.000000 1.797560 
# 
# From -- ./inp_files/15335.got.cif
#   From: 2010.03.12/outbox.cif.g09.slc.cpg/sg20_8_cif.got.tgz:15335.got - 2010.04.14 01:38:04.
