data_PCOD8159025
_publ_section_title
;
Structure prediction by ZEFSAII (Michael W. Deem and Ramdas Pophale) SiO2 
 PCOD8159025
Probable space group: C 2 2 21
;
_chemical_formula_sum "Si O2"
_cell_formula_units_Z 40
_cell_length_a 11.013214
_cell_length_b 19.372499
_cell_length_c 7.757972
_cell_angle_alpha 90.000000
_cell_angle_beta 90.000000
_cell_angle_gamma 90.000000
_cell_volume 1655.190302
_symmetry_space_group_name_H-M "C 2 2 21"
_symmetry_group_IT_number 20
_symmetry_cell_setting 'orthorhombic'
loop_
_space_group_symop_operation_xyz
x,y,z
-x,-y,1/2+z
x,-y,-z
-x,y,1/2-z
1/2+x,1/2+y,z
1/2-x,1/2-y,1/2+z
1/2+x,1/2-y,-z
1/2-x,1/2+y,1/2-z
loop_
_atom_site_type_symbol
_atom_site_label
_atom_site_fract_x
_atom_site_fract_y
_atom_site_fract_z
Si Si1 0.707574 0.758950 0.192018
Si Si2 0.364549 0.161148 0.376524
Si Si3 0.254829 0.000000 0.000000
Si Si4 0.500000 0.660696 0.250000
Si Si5 0.588806 0.866318 0.411971
Si Si6 0.679220 0.447772 0.653620
O O1 0.830060 0.713585 0.219476
O O2 0.593515 0.708912 0.145111
O O3 0.679184 0.803088 0.367094
O O4 0.718209 0.812247 0.036442
O O5 0.508089 0.155202 0.418525
O O6 0.314662 0.084510 0.341525
O O7 0.165361 0.014866 0.160948
O O8 0.338119 0.934714 0.045308
O O9 0.421353 0.611635 0.124617
O O10 0.500000 0.880144 0.250000
O O11 0.664463 0.500000 0.500000
#
# Coordination Sequence:
#
# PCOD8159025 Si02
#       6
#     8   8   4   4   8   8
#     4  10  20  42  66  96 135 173 220 288 327 405
#     4  10  22  40  66  94 134 169 221 271 342 391
#     4  12  28  42  74  98 138 186 226 272 346 408
#     4  10  22  44  70  98 134 178 228 284 342 402
#     4  10  22  40  65  98 138 176 220 279 332 401
#     4  11  26  47  68 100 135 180 231 286 331 410
#
# _framework density 24.166404
#
# number of rings (size 3 to 8) (size 9 to 14) (size 15 to 20)
#    0.000    1.600    3.000    2.400   11.200    0.000 
#    0.000    0.000    0.000    0.000    0.000    0.000 
#    0.000    0.000    0.000    0.000    0.000    0.000 
#
# Total GULP energy -247971.228464 kJ/mol
# GULP energy per Si atom -12398.561423 kJ/mol
# Density = 2.411140 g / cm^3
# Si number density = 24.166404 Si / 1000 Ang^3
#
#
#
# Elastic Constant Matrix: (Units=GPa)
#
#
# Indices 1 2 3 4 5 6 
#
# 1 77.7425 35.7163 2.5052 0.0000 0.0000 0.0000
# 2 35.7163 132.9111 22.5077 0.0000 0.0000 0.0000
# 3 2.5052 22.5077 82.5429 0.0000 0.0000 0.0000
# 4 0.0000 0.0000 0.0000 41.1222 0.0000 0.0000
# 5 0.0000 0.0000 0.0000 0.0000 25.8385 0.0000
# 6 0.0000 0.0000 0.0000 0.0000 0.0000 11.0391
#
#
#
# Elastic Compliance Matrix: (Units=1/GPa)
#
#
# Indices 1 2 3 4 5 6 
#
# 1 0.014709 -0.004065 0.000662 0.000000 0.000000 0.000000
# 2 -0.004065 0.009011 -0.002334 0.000000 0.000000 0.000000
# 3 0.000662 -0.002334 0.012731 0.000000 0.000000 0.000000
# 4 0.000000 0.000000 0.000000 0.024318 0.000000 0.000000
# 5 0.000000 0.000000 0.000000 0.000000 0.038702 0.000000
# 6 0.000000 0.000000 0.000000 0.000000 0.000000 0.090587
#
#
# Mechanical properties :
#
#
# Convention : Reuss Voigt Hill
#
# Bulk Modulus (GPa) = 40.03474 46.07279 43.05377
# Shear Modulus (GPa) = 23.82569 31.09780 27.46174
#
# Velocity S-wave (km/s) = 3.14331 3.59112 3.37465
# Velocity P-wave (km/s) = 5.45675 6.02503 5.74792
#
# Compressibility (1/GPa) = 0.02497831
#
# Stress axis : x y z
#
# Youngs Moduli (GPa) = 67.98528 110.97125 78.54716
#
# Poissons Ratio (x) = 0.45107 -0.05199
# Poissons Ratio (y) = 0.27634 0.18332
# Poissons Ratio (z) = -0.04500 0.25899
#
# Static dielectric constant tensor:
#      x y z
#    x 4.223010 0.000000 0.000000 
#    y 0.000000 4.535720 0.000000 
#    z 0.000000 0.000000 4.524370 
# 
# 
# High freq. dielectric constant tensor:
#      x y z
#    x 1.953310 0.000000 0.000000 
#    y 0.000000 1.970080 0.000000 
#    z 0.000000 0.000000 1.967580 
# 
# From -- ./inp_files/7123.got.cif
#   From: 2010.03.12/outbox.cif.g09.slc.cpg/sg20_4_cif.got.tgz:7123.got - 2010.04.14 01:38:04.
