data_PCOD8159206
_publ_section_title
;
Structure prediction by ZEFSAII (Michael W. Deem and Ramdas Pophale) SiO2 
 PCOD8159206
Probable space group: C 2 2 21
;
_chemical_formula_sum "Si O2"
_cell_formula_units_Z 56
_cell_length_a 24.782155
_cell_length_b 5.099145
_cell_length_c 21.510105
_cell_angle_alpha 90.000000
_cell_angle_beta 90.000000
_cell_angle_gamma 90.000000
_cell_volume 2718.184684
_symmetry_space_group_name_H-M "C 2 2 21"
_symmetry_group_IT_number 20
_symmetry_cell_setting 'orthorhombic'
loop_
_space_group_symop_operation_xyz
x,y,z
-x,-y,1/2+z
x,-y,-z
-x,y,1/2-z
1/2+x,1/2+y,z
1/2-x,1/2-y,1/2+z
1/2+x,1/2-y,-z
1/2-x,1/2+y,1/2-z
loop_
_atom_site_type_symbol
_atom_site_label
_atom_site_fract_x
_atom_site_fract_y
_atom_site_fract_z
Si Si1 0.726192 0.540157 0.431286
Si Si2 0.561613 0.454750 0.757393
Si Si3 0.934728 0.500000 0.000000
Si Si4 0.599553 0.468559 0.894466
Si Si5 0.836424 0.461253 0.631813
Si Si6 0.622163 0.051730 0.269420
Si Si7 0.988584 0.000000 0.500000
Si Si8 0.159407 0.461464 0.595890
O O1 0.750451 0.500000 0.500000
O O2 0.773255 0.503394 0.380954
O O3 0.702156 0.831584 0.430060
O O4 0.679005 0.332640 0.417606
O O5 0.500000 0.518201 0.750000
O O6 0.573460 0.507591 0.828312
O O7 0.574738 0.162014 0.735720
O O8 0.596320 0.663761 0.718186
O O9 0.898060 0.503488 0.937909
O O10 0.973120 0.250054 0.998515
O O11 0.629922 0.193345 0.900149
O O12 0.643382 0.698966 0.902705
O O13 0.550208 0.489917 0.941071
O O14 0.841846 0.457275 0.706828
O O15 0.657078 0.988426 0.330115
#
# Coordination Sequence:
#
# PCOD8159206 Si02
#       8
#     8   8   4   8   8   8   4   8
#     4  12  24  42  66  92 122 170 203 255 318 364
#     4  10  21  38  61  90 122 163 208 247 306 363
#     4  12  26  42  59  88 131 162 212 258 296 372
#     4  10  23  40  61  96 126 157 210 253 299 382
#     4  10  23  43  65  95 127 156 206 262 313 365
#     4  10  23  40  63  90 124 161 201 263 307 357
#     4  12  26  40  65  90 125 176 204 246 318 358
#     4  12  25  44  65  91 128 161 217 254 303 374
#
# _framework density 20.601987000000001
#
# number of rings (size 3 to 8) (size 9 to 14) (size 15 to 20)
#    0.000    1.143    1.429    3.857    6.000    1.143 
#    0.000    0.000    0.000    0.000    0.000    0.000 
#    0.000    0.000    0.000    0.000    0.000    0.000 
#
# Total GULP energy -347307.781363 kJ/mol
# GULP energy per Si atom -12403.849334 kJ/mol
# Density = 2.055510 g / cm^3
# Si number density = 20.601987 Si / 1000 Ang^3
#
#
#
# Elastic Constant Matrix: (Units=GPa)
#
#
# Indices 1 2 3 4 5 6 
#
# 1 87.6774 18.0401 50.1252 0.0000 0.0000 0.0000
# 2 18.0401 92.3522 36.9096 0.0000 0.0000 0.0000
# 3 50.1252 36.9096 92.1907 0.0000 0.0000 0.0000
# 4 0.0000 0.0000 0.0000 23.9737 0.0000 0.0000
# 5 0.0000 0.0000 0.0000 0.0000 192.9976 0.0000
# 6 0.0000 0.0000 0.0000 0.0000 0.0000 32.8159
#
#
#
# Elastic Compliance Matrix: (Units=1/GPa)
#
#
# Indices 1 2 3 4 5 6 
#
# 1 0.016564 0.000433 -0.009180 0.000000 0.000000 0.000000
# 2 0.000433 0.012902 -0.005401 0.000000 0.000000 0.000000
# 3 -0.009180 -0.005401 0.018000 0.000000 0.000000 0.000000
# 4 0.000000 0.000000 0.000000 0.041712 0.000000 0.000000
# 5 0.000000 0.000000 0.000000 0.000000 0.005181 0.000000
# 6 0.000000 0.000000 0.000000 0.000000 0.000000 0.030473
#
#
# Mechanical properties :
#
#
# Convention : Reuss Voigt Hill
#
# Bulk Modulus (GPa) = 52.15974 53.59669 52.87821
# Shear Modulus (GPa) = 31.34418 61.10048 46.22233
#
# Velocity S-wave (km/s) = 3.90476 5.45178 4.74179
# Velocity P-wave (km/s) = 6.76035 8.10562 7.46336
#
# Compressibility (1/GPa) = 0.01917187
#
# Stress axis : x y z
#
# Youngs Moduli (GPa) = 60.37070 77.50696 55.55412
#
# Poissons Ratio (x) = -0.03357 0.50996
# Poissons Ratio (y) = -0.02614 0.30005
# Poissons Ratio (z) = 0.55418 0.41861
#
# Static dielectric constant tensor:
#      x y z
#    x 3.479290 0.000000 0.000000 
#    y 0.000000 3.163770 0.000000 
#    z 0.000000 0.000000 3.947300 
# 
# 
# High freq. dielectric constant tensor:
#      x y z
#    x 1.802680 0.000000 0.000000 
#    y 0.000000 1.827810 0.000000 
#    z 0.000000 0.000000 1.812330 
# 
# From -- ./inp_files/29526.got.cif
#   From: 2010.03.12/outbox.cif.g09.slc.cpg/sg20_15_cif.got.tgz:29526.got - 2010.04.14 01:38:04.
