data_PCOD8159175
_publ_section_title
;
Structure prediction by ZEFSAII (Michael W. Deem and Ramdas Pophale) SiO2 
 PCOD8159175
Probable space group: C 2 2 21
;
_chemical_formula_sum "Si O2"
_cell_formula_units_Z 40
_cell_length_a 17.350786
_cell_length_b 10.190879
_cell_length_c 11.573747
_cell_angle_alpha 90.000000
_cell_angle_beta 90.000000
_cell_angle_gamma 90.000000
_cell_volume 2046.467175
_symmetry_space_group_name_H-M "C 2 2 21"
_symmetry_group_IT_number 20
_symmetry_cell_setting 'orthorhombic'
loop_
_space_group_symop_operation_xyz
x,y,z
-x,-y,1/2+z
x,-y,-z
-x,y,1/2-z
1/2+x,1/2+y,z
1/2-x,1/2-y,1/2+z
1/2+x,1/2-y,-z
1/2-x,1/2+y,1/2-z
loop_
_atom_site_type_symbol
_atom_site_label
_atom_site_fract_x
_atom_site_fract_y
_atom_site_fract_z
Si Si1 0.761759 0.498438 0.663042
Si Si2 0.609575 0.350417 0.337019
Si Si3 0.197053 0.596376 0.403629
Si Si4 0.818533 0.706367 0.506182
Si Si5 0.055104 0.877239 0.077894
O O1 0.677087 0.549944 0.626415
O O2 0.771971 0.494019 0.799690
O O3 0.823016 0.602746 0.611163
O O4 0.776492 0.356992 0.605786
O O5 0.635887 0.199508 0.352274
O O6 0.586952 0.388136 0.207322
O O7 0.537192 0.366440 0.422254
O O8 0.159355 0.500000 0.500000
O O9 0.270244 0.665711 0.460863
O O10 0.906046 0.748129 0.478182
O O11 0.079989 0.000000 0.000000
#
# Coordination Sequence:
#
# PCOD8159175 Si02
#       5
#     8   8   8   8   8
#     4  10  21  39  63  92 122 163 214 262 312 377
#     4  10  23  40  60  94 129 159 215 266 311 389
#     4  11  22  38  64  94 125 167 214 265 315 379
#     4  10  21  37  64  88 122 164 208 259 314 379
#     4  11  22  41  62  90 127 168 204 265 331 370
#
# _framework density 19.545878999999999
#
# number of rings (size 3 to 8) (size 9 to 14) (size 15 to 20)
#    0.000    1.600    2.000    3.000    8.400    0.000 
#    3.600    0.000    0.000    0.000    0.000    0.000 
#    0.000    0.000    0.000    0.000    0.000    0.000 
#
# Total GULP energy -247980.651287 kJ/mol
# GULP energy per Si atom -12399.032564 kJ/mol
# Density = 1.950139 g / cm^3
# Si number density = 19.545879 Si / 1000 Ang^3
#
#
#
# Elastic Constant Matrix: (Units=GPa)
#
#
# Indices 1 2 3 4 5 6 
#
# 1 121.0662 58.9556 46.2309 0.0000 0.0000 0.0000
# 2 58.9556 100.5867 58.8784 0.0000 0.0000 0.0000
# 3 46.2309 58.8784 122.8479 0.0000 0.0000 0.0000
# 4 0.0000 0.0000 0.0000 43.9784 0.0000 0.0000
# 5 0.0000 0.0000 0.0000 0.0000 26.8429 0.0000
# 6 0.0000 0.0000 0.0000 0.0000 0.0000 31.0600
#
#
#
# Elastic Compliance Matrix: (Units=1/GPa)
#
#
# Indices 1 2 3 4 5 6 
#
# 1 0.011771 -0.005985 -0.001561 0.000000 0.000000 0.000000
# 2 -0.005985 0.016862 -0.005829 0.000000 0.000000 0.000000
# 3 -0.001561 -0.005829 0.011521 0.000000 0.000000 0.000000
# 4 0.000000 0.000000 0.000000 0.022738 0.000000 0.000000
# 5 0.000000 0.000000 0.000000 0.000000 0.037254 0.000000
# 6 0.000000 0.000000 0.000000 0.000000 0.000000 0.032196
#
#
# Mechanical properties :
#
#
# Convention : Reuss Voigt Hill
#
# Bulk Modulus (GPa) = 74.60955 74.73673 74.67314
# Shear Modulus (GPa) = 30.56978 32.40532 31.48755
#
# Velocity S-wave (km/s) = 3.95904 4.07616 4.01803
# Velocity P-wave (km/s) = 7.69110 7.77644 7.73389
#
# Compressibility (1/GPa) = 0.01340311
#
# Stress axis : x y z
#
# Youngs Moduli (GPa) = 84.95680 59.30569 86.79538
#
# Poissons Ratio (x) = 0.35496 0.13549
# Poissons Ratio (y) = 0.50849 0.50594
# Poissons Ratio (z) = 0.13262 0.34570
#
# Static dielectric constant tensor:
#      x y z
#    x 3.540780 0.000000 0.000000 
#    y 0.000000 3.561400 0.000000 
#    z 0.000000 0.000000 3.662740 
# 
# 
# High freq. dielectric constant tensor:
#      x y z
#    x 1.743870 0.000000 0.000000 
#    y 0.000000 1.763680 0.000000 
#    z 0.000000 0.000000 1.773110 
# 
# From -- ./inp_files/12715.got.cif
#   From: 2010.03.12/outbox.cif.g09.slc.cpg/sg20_7_cif.got.tgz:12715.got - 2010.04.14 01:38:04.
