data_PCOD8159859
_publ_section_title
;
Structure prediction by ZEFSAII (Michael W. Deem and Ramdas Pophale) SiO2 
 PCOD8159859
Probable space group: C 2 2 21
;
_chemical_formula_sum "Si O2"
_cell_formula_units_Z 48
_cell_length_a 7.884725
_cell_length_b 12.411350
_cell_length_c 22.781782
_cell_angle_alpha 90.000000
_cell_angle_beta 90.000000
_cell_angle_gamma 90.000000
_cell_volume 2229.427046
_symmetry_space_group_name_H-M "C 2 2 21"
_symmetry_group_IT_number 20
_symmetry_cell_setting 'orthorhombic'
loop_
_space_group_symop_operation_xyz
x,y,z
-x,-y,1/2+z
x,-y,-z
-x,y,1/2-z
1/2+x,1/2+y,z
1/2-x,1/2-y,1/2+z
1/2+x,1/2-y,-z
1/2-x,1/2+y,1/2-z
loop_
_atom_site_type_symbol
_atom_site_label
_atom_site_fract_x
_atom_site_fract_y
_atom_site_fract_z
Si Si1 0.228706 0.114628 0.029494
Si Si2 0.999313 0.978079 0.883239
Si Si3 0.794322 0.648632 0.331627
Si Si4 0.211800 0.000000 0.500000
Si Si5 0.090758 0.697723 0.040270
Si Si6 0.500000 0.995030 0.750000
Si Si7 0.335475 0.378935 0.290409
O O1 0.392564 0.182593 0.043078
O O2 0.137314 0.106364 0.092604
O O3 0.114065 0.183021 0.985041
O O4 0.268457 0.000000 0.000000
O O5 0.879653 0.920702 0.834543
O O6 0.899077 0.015873 0.941392
O O7 0.102632 0.076226 0.853566
O O8 0.775248 0.754966 0.292150
O O9 0.831137 0.689868 0.396057
O O10 0.947552 0.576940 0.306037
O O11 0.327426 0.105835 0.500214
O O12 0.332369 0.061207 0.767218
O O13 0.500000 0.392420 0.250000
#
# Coordination Sequence:
#
# PCOD8159859 Si02
#       7
#     8   8   8   4   8   4   8
#     4  12  24  43  67 105 143 190 231 283 352 429
#     4  11  24  46  71 104 145 182 234 293 354 431
#     4  11  25  46  70 105 136 185 237 295 357 418
#     4  10  22  44  72 104 142 186 230 284 356 436
#     4  11  24  43  69 103 147 183 232 287 353 431
#     4  12  26  50  72 102 134 184 250 296 354 424
#     4  12  26  48  75 101 142 187 239 301 361 415
#
# _framework density 21.530196
#
# number of rings (size 3 to 8) (size 9 to 14) (size 15 to 20)
#    0.000    0.667    4.167    4.000    2.333    1.333 
#    9.000    0.000    0.000    0.000    0.000    0.000 
#    0.000    0.000    0.000    0.000    0.000    0.000 
#
# Total GULP energy -297556.228506 kJ/mol
# GULP energy per Si atom -12398.176188 kJ/mol
# Density = 2.148119 g / cm^3
# Si number density = 21.530196 Si / 1000 Ang^3
#
#
#
# Elastic Constant Matrix: (Units=GPa)
#
#
# Indices 1 2 3 4 5 6 
#
# 1 120.4641 35.3791 24.0872 0.0000 0.0000 0.0000
# 2 35.3791 111.4087 25.5445 0.0000 0.0000 0.0000
# 3 24.0872 25.5445 71.7672 0.0000 0.0000 0.0000
# 4 0.0000 0.0000 0.0000 34.2228 0.0000 0.0000
# 5 0.0000 0.0000 0.0000 0.0000 33.0886 0.0000
# 6 0.0000 0.0000 0.0000 0.0000 0.0000 40.5431
#
#
#
# Elastic Compliance Matrix: (Units=1/GPa)
#
#
# Indices 1 2 3 4 5 6 
#
# 1 0.009492 -0.002487 -0.002301 0.000000 0.000000 0.000000
# 2 -0.002487 0.010425 -0.002876 0.000000 0.000000 0.000000
# 3 -0.002301 -0.002876 0.015730 0.000000 0.000000 0.000000
# 4 0.000000 0.000000 0.000000 0.029220 0.000000 0.000000
# 5 0.000000 0.000000 0.000000 0.000000 0.030222 0.000000
# 6 0.000000 0.000000 0.000000 0.000000 0.000000 0.024665
#
#
# Mechanical properties :
#
#
# Convention : Reuss Voigt Hill
#
# Bulk Modulus (GPa) = 49.21300 52.62906 50.92103
# Shear Modulus (GPa) = 35.24765 36.14618 35.69691
#
# Velocity S-wave (km/s) = 4.05053 4.10183 4.07626
# Velocity P-wave (km/s) = 6.69201 6.85060 6.77177
#
# Compressibility (1/GPa) = 0.02031984
#
# Stress axis : x y z
#
# Youngs Moduli (GPa) = 105.35698 95.92267 63.57377
#
# Poissons Ratio (x) = 0.23853 0.14625
# Poissons Ratio (y) = 0.26199 0.18284
# Poissons Ratio (z) = 0.24238 0.27588
#
# Static dielectric constant tensor:
#      x y z
#    x 4.187480 0.000000 0.000000 
#    y 0.000000 3.968400 0.000000 
#    z 0.000000 0.000000 3.769540 
# 
# 
# High freq. dielectric constant tensor:
#      x y z
#    x 1.860060 0.000000 0.000000 
#    y 0.000000 1.856180 0.000000 
#    z 0.000000 0.000000 1.841810 
# 
# From -- ./inp_files/28745.got.cif
#   From: 2010.03.12/outbox.cif.g09.slc.cpg/sg20_15_cif.got.tgz:28745.got - 2010.04.14 01:38:04.
