data_PCOD8159408
_publ_section_title
;
Structure prediction by ZEFSAII (Michael W. Deem and Ramdas Pophale) SiO2 
 PCOD8159408
Probable space group: C 2 2 21
;
_chemical_formula_sum "Si O2"
_cell_formula_units_Z 60
_cell_length_a 5.266321
_cell_length_b 17.368344
_cell_length_c 29.321239
_cell_angle_alpha 90.000000
_cell_angle_beta 90.000000
_cell_angle_gamma 90.000000
_cell_volume 2681.933823
_symmetry_space_group_name_H-M "C 2 2 21"
_symmetry_group_IT_number 20
_symmetry_cell_setting 'orthorhombic'
loop_
_space_group_symop_operation_xyz
x,y,z
-x,-y,1/2+z
x,-y,-z
-x,y,1/2-z
1/2+x,1/2+y,z
1/2-x,1/2-y,1/2+z
1/2+x,1/2-y,-z
1/2-x,1/2+y,1/2-z
loop_
_atom_site_type_symbol
_atom_site_label
_atom_site_fract_x
_atom_site_fract_y
_atom_site_fract_z
Si Si1 0.664865 0.151719 0.530987
Si Si2 0.306116 0.848361 0.391591
Si Si3 0.018575 0.580854 0.378315
Si Si4 0.459639 0.494907 0.099146
Si Si5 0.944391 0.000000 0.500000
Si Si6 0.022057 0.708235 0.801730
Si Si7 0.517593 0.194404 0.199749
Si Si8 0.027371 0.275919 0.561441
O O1 0.454969 0.116208 0.564804
O O2 0.576342 0.209896 0.491648
O O3 0.786778 0.077900 0.507426
O O4 0.828910 0.206234 0.564065
O O5 0.471145 0.851880 0.344203
O O6 0.253189 0.759194 0.406807
O O7 0.054373 0.903392 0.389111
O O8 0.264809 0.529127 0.389007
O O9 0.948816 0.643267 0.416940
O O10 0.768792 0.529959 0.371706
O O11 0.056804 0.622572 0.330755
O O12 0.394324 0.512384 0.045876
O O13 0.304862 0.741304 0.806637
O O14 0.000000 0.672545 0.750000
O O15 0.796304 0.769603 0.810252
O O16 0.500000 0.160041 0.250000
#
# Coordination Sequence:
#
# PCOD8159408 Si02
#       8
#     8   8   8   8   4   8   8   8
#     4  12  26  43  64 102 140 187 232 290 344 412
#     4  12  26  44  67  99 141 184 232 287 341 421
#     4  12  26  45  68 101 137 178 229 283 341 414
#     4  12  29  43  67  95 142 189 225 273 355 404
#     4  12  26  48  62  94 144 186 234 278 346 422
#     4  10  22  42  72 106 135 175 229 294 353 406
#     4  10  21  41  73 106 135 170 226 292 353 405
#     4  12  25  39  68  99 134 179 235 286 337 395
#
# _framework density 22.371915000000001
#
# number of rings (size 3 to 8) (size 9 to 14) (size 15 to 20)
#    0.000    0.533    5.333    2.400    5.600    0.533 
#    0.000    0.667    0.000    1.600    0.000    0.000 
#    0.000    0.000    0.000    0.000    0.000    0.000 
#
# Total GULP energy -371646.916758 kJ/mol
# GULP energy per Si atom -12388.230559 kJ/mol
# Density = 2.232100 g / cm^3
# Si number density = 22.371915 Si / 1000 Ang^3
#
#
#
# Elastic Constant Matrix: (Units=GPa)
#
#
# Indices 1 2 3 4 5 6 
#
# 1 87.1170 33.6075 11.8952 0.0000 0.0000 0.0000
# 2 33.6075 104.3411 33.9628 0.0000 0.0000 0.0000
# 3 11.8952 33.9628 122.0759 0.0000 0.0000 0.0000
# 4 0.0000 0.0000 0.0000 24.1859 0.0000 0.0000
# 5 0.0000 0.0000 0.0000 0.0000 28.9134 0.0000
# 6 0.0000 0.0000 0.0000 0.0000 0.0000 23.3886
#
#
#
# Elastic Compliance Matrix: (Units=1/GPa)
#
#
# Indices 1 2 3 4 5 6 
#
# 1 0.013109 -0.004186 -0.000113 0.000000 0.000000 0.000000
# 2 -0.004186 0.011875 -0.002896 0.000000 0.000000 0.000000
# 3 -0.000113 -0.002896 0.009008 0.000000 0.000000 0.000000
# 4 0.000000 0.000000 0.000000 0.041346 0.000000 0.000000
# 5 0.000000 0.000000 0.000000 0.000000 0.034586 0.000000
# 6 0.000000 0.000000 0.000000 0.000000 0.000000 0.042756
#
#
# Mechanical properties :
#
#
# Convention : Reuss Voigt Hill
#
# Bulk Modulus (GPa) = 51.01163 52.49609 51.75386
# Shear Modulus (GPa) = 28.80133 30.90214 29.85174
#
# Velocity S-wave (km/s) = 3.59191 3.72061 3.65682
# Velocity P-wave (km/s) = 6.32879 6.47868 6.40417
#
# Compressibility (1/GPa) = 0.01960337
#
# Stress axis : x y z
#
# Youngs Moduli (GPa) = 76.28405 84.21298 111.00907
#
# Poissons Ratio (x) = 0.35248 0.01253
# Poissons Ratio (y) = 0.31929 0.32146
# Poissons Ratio (z) = 0.00861 0.24387
#
# Static dielectric constant tensor:
#      x y z
#    x 4.042780 0.000000 0.000000 
#    y 0.000000 3.876260 0.000000 
#    z 0.000000 0.000000 4.553890 
# 
# 
# High freq. dielectric constant tensor:
#      x y z
#    x 1.879860 0.000000 0.000000 
#    y 0.000000 1.873550 0.000000 
#    z 0.000000 0.000000 1.890870 
# 
# From -- ./inp_files/30830.got.cif
#   From: 2010.03.12/outbox.cif.g09.slc.cpg/sg20_16_cif.got.tgz:30830.got - 2010.04.14 01:38:04.
