data_PCOD8159024
_publ_section_title
;
Structure prediction by ZEFSAII (Michael W. Deem and Ramdas Pophale) SiO2 
 PCOD8159024
Probable space group: C 2 2 21
;
_chemical_formula_sum "Si O2"
_cell_formula_units_Z 60
_cell_length_a 17.594400
_cell_length_b 8.362646
_cell_length_c 18.508768
_cell_angle_alpha 90.000000
_cell_angle_beta 90.000000
_cell_angle_gamma 90.000000
_cell_volume 2723.301254
_symmetry_space_group_name_H-M "C 2 2 21"
_symmetry_group_IT_number 20
_symmetry_cell_setting 'orthorhombic'
loop_
_space_group_symop_operation_xyz
x,y,z
-x,-y,1/2+z
x,-y,-z
-x,y,1/2-z
1/2+x,1/2+y,z
1/2-x,1/2-y,1/2+z
1/2+x,1/2-y,-z
1/2-x,1/2+y,1/2-z
loop_
_atom_site_type_symbol
_atom_site_label
_atom_site_fract_x
_atom_site_fract_y
_atom_site_fract_z
Si Si1 0.846561 0.715066 0.176722
Si Si2 0.358785 0.312610 0.014332
Si Si3 0.952729 0.500000 0.000000
Si Si4 0.672199 0.691405 0.163163
Si Si5 0.314852 0.183515 0.504175
Si Si6 0.586853 0.945174 0.239878
Si Si7 0.071108 0.077288 0.790426
Si Si8 0.567285 0.846393 0.891678
O O1 0.864513 0.789091 0.099410
O O2 0.759081 0.663921 0.182886
O O3 0.892108 0.550309 0.189933
O O4 0.868383 0.846426 0.235409
O O5 0.405642 0.163454 0.978217
O O6 0.385186 0.500000 0.000000
O O7 0.273161 0.285254 0.985134
O O8 0.004089 0.551012 0.067244
O O9 0.638322 0.789249 0.231261
O O10 0.621429 0.533932 0.159253
O O11 0.662331 0.760511 0.083230
O O12 0.371748 0.249489 0.442425
O O13 0.335364 0.000000 0.500000
O O14 0.500000 0.895102 0.250000
O O15 0.607610 0.037249 0.165534
O O16 0.029264 0.208363 0.841944
O O17 0.000000 0.992127 0.750000
#
# Coordination Sequence:
#
# PCOD8159024 Si02
#       8
#     8   8   4   8   8   8   8   8
#     4  10  22  43  65  90 135 175 220 277 345 404
#     4  10  24  44  68  99 139 178 222 291 344 399
#     4  12  22  44  66 100 132 176 230 272 346 406
#     4  11  22  39  66  99 126 168 233 279 333 407
#     4  10  20  42  66  95 132 174 227 282 335 411
#     4  11  21  39  65  89 124 176 220 271 334 407
#     4  11  24  43  63  95 138 175 220 283 343 398
#     4  11  22  42  67  89 130 181 216 269 343 406
#
# _framework density 22.032083
#
# number of rings (size 3 to 8) (size 9 to 14) (size 15 to 20)
#    0.000    1.333    2.000    4.400    0.000    2.667 
#   14.400    0.000    0.000    0.000    0.000    0.000 
#    0.000    0.000    0.000    0.000    0.000    0.000 
#
# Total GULP energy -371688.558705 kJ/mol
# GULP energy per Si atom -12389.618624 kJ/mol
# Density = 2.198194 g / cm^3
# Si number density = 22.032083 Si / 1000 Ang^3
#
#
#
# Elastic Constant Matrix: (Units=GPa)
#
#
# Indices 1 2 3 4 5 6 
#
# 1 117.2538 46.4470 47.7470 0.0000 0.0000 0.0000
# 2 46.4470 110.7446 38.4128 0.0000 0.0000 0.0000
# 3 47.7470 38.4128 92.2377 0.0000 0.0000 0.0000
# 4 0.0000 0.0000 0.0000 33.3862 0.0000 0.0000
# 5 0.0000 0.0000 0.0000 0.0000 30.7545 0.0000
# 6 0.0000 0.0000 0.0000 0.0000 0.0000 3815.6449
#
#
#
# Elastic Compliance Matrix: (Units=1/GPa)
#
#
# Indices 1 2 3 4 5 6 
#
# 1 0.011752 -0.003295 -0.004711 0.000000 0.000000 0.000000
# 2 -0.003295 0.011478 -0.003075 0.000000 0.000000 0.000000
# 3 -0.004711 -0.003075 0.014561 0.000000 0.000000 0.000000
# 4 0.000000 0.000000 0.000000 0.029953 0.000000 0.000000
# 5 0.000000 0.000000 0.000000 0.000000 0.032516 0.000000
# 6 0.000000 0.000000 0.000000 0.000000 0.000000 0.000262
#
#
# Mechanical properties :
#
#
# Convention : Reuss Voigt Hill
#
# Bulk Modulus (GPa) = 63.98103 65.04996 64.51550
# Shear Modulus (GPa) = 39.09530 788.46573 413.78051
#
# Velocity S-wave (km/s) = 4.21702 18.93802 13.71918
# Velocity P-wave (km/s) = 7.26732 22.53413 16.74218
#
# Compressibility (1/GPa) = 0.01562963
#
# Stress axis : x y z
#
# Youngs Moduli (GPa) = 85.09062 87.12272 68.67732
#
# Poissons Ratio (x) = 0.28705 0.32357
# Poissons Ratio (y) = 0.28035 0.21115
# Poissons Ratio (z) = 0.40090 0.26786
#
# Static dielectric constant tensor:
#      x y z
#    x 0.000000 0.000000 0.000000 
#    y 0.000000 0.000000 0.000000 
#    z 0.000000 0.000000 0.000000 
# 
# 
# High freq. dielectric constant tensor:
#      x y z
#    x 1.876910 0.000000 0.000000 
#    y 0.000000 1.858920 0.000000 
#    z 0.000000 0.000000 1.868480 
# 
# From -- ./inp_files/25270.got.cif
#   From: 2010.03.12/outbox.cif.g09.slc.cpg/sg20_13_cif.got.tgz:25270.got - 2010.04.14 01:38:04.
