data_PCOD8159756
_publ_section_title
;
Structure prediction by ZEFSAII (Michael W. Deem and Ramdas Pophale) SiO2 
 PCOD8159756
Probable space group: C 2 2 21
;
_chemical_formula_sum "Si O2"
_cell_formula_units_Z 48
_cell_length_a 10.699971
_cell_length_b 23.966224
_cell_length_c 8.742547
_cell_angle_alpha 90.000000
_cell_angle_beta 90.000000
_cell_angle_gamma 90.000000
_cell_volume 2241.920409
_symmetry_space_group_name_H-M "C 2 2 21"
_symmetry_group_IT_number 20
_symmetry_cell_setting 'orthorhombic'
loop_
_space_group_symop_operation_xyz
x,y,z
-x,-y,1/2+z
x,-y,-z
-x,y,1/2-z
1/2+x,1/2+y,z
1/2-x,1/2-y,1/2+z
1/2+x,1/2-y,-z
1/2-x,1/2+y,1/2-z
loop_
_atom_site_type_symbol
_atom_site_label
_atom_site_fract_x
_atom_site_fract_y
_atom_site_fract_z
Si Si1 0.473721 0.443430 0.922239
Si Si2 0.146999 0.628924 0.786551
Si Si3 0.898536 0.269096 0.118725
Si Si4 0.758675 0.937139 0.453500
Si Si5 0.724642 0.344944 0.587042
Si Si6 0.605962 0.148200 0.362094
O O1 0.500000 0.461819 0.750000
O O2 0.376321 0.393651 0.923910
O O3 0.421886 0.500000 0.000000
O O4 0.599717 0.421088 0.004183
O O5 0.194237 0.685568 0.698675
O O6 0.231849 0.576799 0.726348
O O7 0.000000 0.620543 0.750000
O O8 0.166783 0.638247 0.967026
O O9 0.836202 0.214389 0.048693
O O10 0.000000 0.253531 0.250000
O O11 0.947712 0.300563 0.964650
O O12 0.650295 0.902546 0.534854
O O13 0.732785 0.000000 0.500000
O O14 0.775509 0.335683 0.757407
O O15 0.500000 0.125581 0.250000
#
# Coordination Sequence:
#
# PCOD8159756 Si02
#       6
#     8   8   8   8   8   8
#     4  11  25  44  67  98 134 170 221 288 334 399
#     4  10  23  44  65  95 138 175 218 281 329 403
#     4  10  22  42  65  92 134 169 217 277 330 397
#     4  10  23  43  66  91 135 172 218 277 331 394
#     4  12  23  40  70  96 127 179 227 266 345 404
#     4  11  23  41  64  94 130 171 216 277 328 392
#
# _framework density 21.410215000000001
#
# number of rings (size 3 to 8) (size 9 to 14) (size 15 to 20)
#    0.000    1.333    1.667    4.500    4.667    0.667 
#    9.000    1.667    0.000    0.000    0.000    0.000 
#    0.000    0.000    0.000    0.000    0.000    0.000 
#
# Total GULP energy -297367.014221 kJ/mol
# GULP energy per Si atom -12390.292259 kJ/mol
# Density = 2.136148 g / cm^3
# Si number density = 21.410215 Si / 1000 Ang^3
#
#
#
# Elastic Constant Matrix: (Units=GPa)
#
#
# Indices 1 2 3 4 5 6 
#
# 1 96.3689 44.4525 35.4025 0.0000 0.0000 0.0000
# 2 44.4525 115.3263 34.2992 0.0000 0.0000 0.0000
# 3 35.4025 34.2992 119.2644 0.0000 0.0000 0.0000
# 4 0.0000 0.0000 0.0000 34.1296 0.0000 0.0000
# 5 0.0000 0.0000 0.0000 0.0000 39.9749 0.0000
# 6 0.0000 0.0000 0.0000 0.0000 0.0000 7.6479
#
#
#
# Elastic Compliance Matrix: (Units=1/GPa)
#
#
# Indices 1 2 3 4 5 6 
#
# 1 0.013383 -0.004349 -0.002722 0.000000 0.000000 0.000000
# 2 -0.004349 0.010895 -0.001842 0.000000 0.000000 0.000000
# 3 -0.002722 -0.001842 0.009723 0.000000 0.000000 0.000000
# 4 0.000000 0.000000 0.000000 0.029300 0.000000 0.000000
# 5 0.000000 0.000000 0.000000 0.000000 0.025016 0.000000
# 6 0.000000 0.000000 0.000000 0.000000 0.000000 0.130755
#
#
# Mechanical properties :
#
#
# Convention : Reuss Voigt Hill
#
# Bulk Modulus (GPa) = 61.82672 62.14089 61.98381
# Shear Modulus (GPa) = 20.63652 30.80418 25.72035
#
# Velocity S-wave (km/s) = 3.10798 3.79722 3.46976
# Velocity P-wave (km/s) = 6.46678 6.95069 6.71310
#
# Compressibility (1/GPa) = 0.01617424
#
# Stress axis : x y z
#
# Youngs Moduli (GPa) = 74.72317 91.78286 102.85363
#
# Poissons Ratio (x) = 0.39915 0.27995
# Poissons Ratio (y) = 0.32496 0.18950
# Poissons Ratio (z) = 0.20339 0.16911
#
# Static dielectric constant tensor:
#      x y z
#    x 3.803620 0.000000 0.000000 
#    y 0.000000 3.860600 0.000000 
#    z 0.000000 0.000000 4.726530 
# 
# 
# High freq. dielectric constant tensor:
#      x y z
#    x 1.827980 0.000000 0.000000 
#    y 0.000000 1.834460 0.000000 
#    z 0.000000 0.000000 1.861230 
# 
# From -- ./inp_files/7369.got.cif
#   From: 2010.03.12/outbox.cif.g09.slc.cpg/sg20_4_cif.got.tgz:7369.got - 2010.04.14 01:38:04.
