data_PCOD8159980
_publ_section_title
;
Structure prediction by ZEFSAII (Michael W. Deem and Ramdas Pophale) SiO2 
 PCOD8159980
Probable space group: C 2 2 21
;
_chemical_formula_sum "Si O2"
_cell_formula_units_Z 40
_cell_length_a 12.964820
_cell_length_b 9.350793
_cell_length_c 15.250703
_cell_angle_alpha 90.000000
_cell_angle_beta 90.000000
_cell_angle_gamma 90.000000
_cell_volume 1848.863284
_symmetry_space_group_name_H-M "C 2 2 21"
_symmetry_group_IT_number 20
_symmetry_cell_setting 'orthorhombic'
loop_
_space_group_symop_operation_xyz
x,y,z
-x,-y,1/2+z
x,-y,-z
-x,y,1/2-z
1/2+x,1/2+y,z
1/2-x,1/2-y,1/2+z
1/2+x,1/2-y,-z
1/2-x,1/2+y,1/2-z
loop_
_atom_site_type_symbol
_atom_site_label
_atom_site_fract_x
_atom_site_fract_y
_atom_site_fract_z
Si Si1 0.879434 0.898428 0.083385
Si Si2 0.384355 0.149833 0.789256
Si Si3 0.603810 0.413632 0.088730
Si Si4 0.306201 0.838560 0.030530
Si Si5 0.707456 0.445750 0.751761
O O1 0.825291 0.979833 0.161746
O O2 0.993525 0.844186 0.110898
O O3 0.819965 0.754931 0.056142
O O4 0.879636 0.000000 0.000000
O O5 0.500000 0.151358 0.750000
O O6 0.394997 0.175503 0.894869
O O7 0.307936 0.274563 0.753522
O O8 0.325647 0.998267 0.770816
O O9 0.695447 0.297264 0.075410
O O10 0.631728 0.514324 0.169720
O O11 0.588056 0.500000 0.000000
O O12 0.297596 0.000000 0.000000
#
# Coordination Sequence:
#
# PCOD8159980 Si02
#       5
#     8   8   8   8   8
#     4  11  21  39  67  94 125 172 227 269 332 403
#     4  11  25  46  69  98 136 182 223 280 342 396
#     4   9  21  39  65  90 125 176 213 264 337 394
#     4  10  23  43  60  95 137 169 221 280 337 399
#     4  11  24  42  69 100 134 173 229 281 330 410
#
# _framework density 21.634914999999999
#
# number of rings (size 3 to 8) (size 9 to 14) (size 15 to 20)
#    0.000    1.600    2.000    1.800   11.200    0.000 
#    7.200    3.000    0.000    0.000    0.000    0.000 
#    0.000    0.000    0.000    0.000    0.000    0.000 
#
# Total GULP energy -247789.995674 kJ/mol
# GULP energy per Si atom -12389.499784 kJ/mol
# Density = 2.158567 g / cm^3
# Si number density = 21.634915 Si / 1000 Ang^3
#
#
#
# Elastic Constant Matrix: (Units=GPa)
#
#
# Indices 1 2 3 4 5 6 
#
# 1 94.7561 28.4518 7.6755 0.0000 0.0000 0.0000
# 2 28.4518 71.5080 -12.4936 0.0000 0.0000 0.0000
# 3 7.6755 -12.4936 87.1582 0.0000 0.0000 0.0000
# 4 0.0000 0.0000 0.0000 31.8893 0.0000 0.0000
# 5 0.0000 0.0000 0.0000 0.0000 34.6891 0.0000
# 6 0.0000 0.0000 0.0000 0.0000 0.0000 24.6451
#
#
#
# Elastic Compliance Matrix: (Units=1/GPa)
#
#
# Indices 1 2 3 4 5 6 
#
# 1 0.012262 -0.005198 -0.001825 0.000000 0.000000 0.000000
# 2 -0.005198 0.016547 0.002830 0.000000 0.000000 0.000000
# 3 -0.001825 0.002830 0.012040 0.000000 0.000000 0.000000
# 4 0.000000 0.000000 0.000000 0.031358 0.000000 0.000000
# 5 0.000000 0.000000 0.000000 0.000000 0.028828 0.000000
# 6 0.000000 0.000000 0.000000 0.000000 0.000000 0.040576
#
#
# Mechanical properties :
#
#
# Convention : Reuss Voigt Hill
#
# Bulk Modulus (GPa) = 30.80461 33.40998 32.10729
# Shear Modulus (GPa) = 31.09120 33.56393 32.32756
#
# Velocity S-wave (km/s) = 3.79500 3.94303 3.86972
# Velocity P-wave (km/s) = 5.78550 6.01715 5.90246
#
# Compressibility (1/GPa) = 0.03246268
#
# Stress axis : x y z
#
# Youngs Moduli (GPa) = 81.55345 60.43434 83.05851
#
# Poissons Ratio (x) = 0.31412 0.15157
# Poissons Ratio (y) = 0.42389 -0.23502
# Poissons Ratio (z) = 0.14883 -0.17101
#
# Static dielectric constant tensor:
#      x y z
#    x 4.418500 0.000000 0.000000 
#    y 0.000000 3.830370 0.000000 
#    z 0.000000 0.000000 4.189200 
# 
# 
# High freq. dielectric constant tensor:
#      x y z
#    x 1.846830 0.000000 0.000000 
#    y 0.000000 1.824500 0.000000 
#    z 0.000000 0.000000 1.875500 
# 
# From -- ./inp_files/18538.got.cif
#   From: 2010.03.12/outbox.cif.g09.slc.cpg/sg20_10_cif.got.tgz:18538.got - 2010.04.14 01:38:04.
