data_PCOD8159424
_publ_section_title
;
Structure prediction by ZEFSAII (Michael W. Deem and Ramdas Pophale) SiO2 
 PCOD8159424
Probable space group: C 2 2 21
;
_chemical_formula_sum "Si O2"
_cell_formula_units_Z 40
_cell_length_a 24.309486
_cell_length_b 8.527989
_cell_length_c 9.020544
_cell_angle_alpha 90.000000
_cell_angle_beta 90.000000
_cell_angle_gamma 90.000000
_cell_volume 1870.058261
_symmetry_space_group_name_H-M "C 2 2 21"
_symmetry_group_IT_number 20
_symmetry_cell_setting 'orthorhombic'
loop_
_space_group_symop_operation_xyz
x,y,z
-x,-y,1/2+z
x,-y,-z
-x,y,1/2-z
1/2+x,1/2+y,z
1/2-x,1/2-y,1/2+z
1/2+x,1/2-y,-z
1/2-x,1/2+y,1/2-z
loop_
_atom_site_type_symbol
_atom_site_label
_atom_site_fract_x
_atom_site_fract_y
_atom_site_fract_z
Si Si1 0.711637 0.878861 0.781865
Si Si2 0.401016 0.900747 0.852637
Si Si3 0.077066 0.297760 0.182763
Si Si4 0.473391 0.318627 0.972387
Si Si5 0.801552 0.276551 0.397302
O O1 0.656838 0.823831 0.694957
O O2 0.765557 0.855157 0.682614
O O3 0.709558 0.061651 0.814514
O O4 0.716305 0.779956 0.932250
O O5 0.422523 0.016377 0.722266
O O6 0.444776 0.761940 0.884454
O O7 0.390930 0.000000 0.000000
O O8 0.065887 0.195382 0.329421
O O9 0.134019 0.237210 0.114129
O O10 0.030436 0.271550 0.059107
O O11 0.485319 0.500000 0.000000
#
# Coordination Sequence:
#
# PCOD8159424 Si02
#       5
#     8   8   8   8   8
#     4  10  23  41  65  96 127 169 213 269 325 387
#     4   9  20  42  67  90 124 176 219 260 319 407
#     4   9  21  45  60  91 130 169 214 269 318 406
#     4  10  21  42  64  94 131 166 215 274 334 382
#     4  10  23  43  64  94 130 165 219 268 322 394
#
# _framework density 21.389707000000001
#
# number of rings (size 3 to 8) (size 9 to 14) (size 15 to 20)
#    0.000    2.400    0.000    0.000    8.400    1.600 
#   50.400    0.000    0.000    0.000    0.000    0.000 
#    0.000    0.000    0.000    0.000    0.000    0.000 
#
# Total GULP energy -248055.491729 kJ/mol
# GULP energy per Si atom -12402.774586 kJ/mol
# Density = 2.134102 g / cm^3
# Si number density = 21.389707 Si / 1000 Ang^3
#
#
#
# Elastic Constant Matrix: (Units=GPa)
#
#
# Indices 1 2 3 4 5 6 
#
# 1 127.3310 46.6143 29.9490 0.0000 0.0000 0.0000
# 2 46.6143 67.0328 28.8098 0.0000 0.0000 0.0000
# 3 29.9490 28.8098 37.3219 0.0000 0.0000 0.0000
# 4 0.0000 0.0000 0.0000 25.3563 0.0000 0.0000
# 5 0.0000 0.0000 0.0000 0.0000 46.8446 0.0000
# 6 0.0000 0.0000 0.0000 0.0000 0.0000 34.0931
#
#
#
# Elastic Compliance Matrix: (Units=1/GPa)
#
#
# Indices 1 2 3 4 5 6 
#
# 1 0.010992 -0.005766 -0.004370 0.000000 0.000000 0.000000
# 2 -0.005766 0.025349 -0.014941 0.000000 0.000000 0.000000
# 3 -0.004370 -0.014941 0.041834 0.000000 0.000000 0.000000
# 4 0.000000 0.000000 0.000000 0.039438 0.000000 0.000000
# 5 0.000000 0.000000 0.000000 0.000000 0.021347 0.000000
# 6 0.000000 0.000000 0.000000 0.000000 0.000000 0.029331
#
#
# Mechanical properties :
#
#
# Convention : Reuss Voigt Hill
#
# Bulk Modulus (GPa) = 35.68637 49.15912 42.42275
# Shear Modulus (GPa) = 21.95054 29.67964 25.81509
#
# Velocity S-wave (km/s) = 3.20694 3.72905 3.47781
# Velocity P-wave (km/s) = 5.51659 6.44776 6.00026
#
# Compressibility (1/GPa) = 0.02802190
#
# Stress axis : x y z
#
# Youngs Moduli (GPa) = 90.97397 39.44949 23.90415
#
# Poissons Ratio (x) = 0.22746 0.10446
# Poissons Ratio (y) = 0.52453 0.35715
# Poissons Ratio (z) = 0.39755 0.58940
#
# Static dielectric constant tensor:
#      x y z
#    x 3.986540 0.000000 0.000000 
#    y 0.000000 3.649790 0.000000 
#    z 0.000000 0.000000 3.957660 
# 
# 
# High freq. dielectric constant tensor:
#      x y z
#    x 1.847100 0.000000 0.000000 
#    y 0.000000 1.816590 0.000000 
#    z 0.000000 0.000000 1.842970 
# 
# From -- ./inp_files/6066.got.cif
#   From: 2010.03.12/outbox.cif.g09.slc.cpg/sg20_4_cif.got.tgz:6066.got - 2010.04.14 01:38:04.
