data_PCOD8159264
_publ_section_title
;
Structure prediction by ZEFSAII (Michael W. Deem and Ramdas Pophale) SiO2 
 PCOD8159264
Probable space group: C 2 2 21
;
_chemical_formula_sum "Si O2"
_cell_formula_units_Z 44
_cell_length_a 21.732899
_cell_length_b 10.707563
_cell_length_c 9.238878
_cell_angle_alpha 90.000000
_cell_angle_beta 90.000000
_cell_angle_gamma 90.000000
_cell_volume 2149.945903
_symmetry_space_group_name_H-M "C 2 2 21"
_symmetry_group_IT_number 20
_symmetry_cell_setting 'orthorhombic'
loop_
_space_group_symop_operation_xyz
x,y,z
-x,-y,1/2+z
x,-y,-z
-x,y,1/2-z
1/2+x,1/2+y,z
1/2-x,1/2-y,1/2+z
1/2+x,1/2-y,-z
1/2-x,1/2+y,1/2-z
loop_
_atom_site_type_symbol
_atom_site_label
_atom_site_fract_x
_atom_site_fract_y
_atom_site_fract_z
Si Si1 0.000000 0.841649 0.750000
Si Si2 0.283461 0.233596 0.984001
Si Si3 0.941306 0.000000 0.500000
Si Si4 0.746911 0.000000 0.000000
Si Si5 0.659237 0.079555 0.260538
Si Si6 0.882928 0.316352 0.243086
Si Si7 0.857193 0.781245 0.442510
O O1 0.054952 0.752905 0.694125
O O2 0.016986 0.929413 0.884136
O O3 0.308445 0.130039 0.094849
O O4 0.285643 0.376328 0.044560
O O5 0.324719 0.238897 0.840725
O O6 0.215461 0.189849 0.936866
O O7 0.896157 0.094720 0.581739
O O8 0.708807 0.965754 0.857274
O O9 0.621512 0.193228 0.190053
O O10 0.613081 0.964574 0.292916
O O11 0.872673 0.292704 0.411651
#
# Coordination Sequence:
#
# PCOD8159264 Si02
#       7
#     4   8   4   4   8   8   8
#     4  10  26  48  66  88 134 180 226 270 320 382
#     4  11  23  36  63  98 133 167 211 274 336 384
#     4  10  24  43  70  94 123 178 220 272 322 396
#     4  10  22  37  58  94 145 168 204 270 334 416
#     4  11  21  38  60  94 131 173 213 256 339 398
#     4  11  22  43  61  90 132 172 220 270 321 389
#     4  10  21  39  63  92 129 169 208 270 342 392
#
# _framework density 20.465630999999998
#
# number of rings (size 3 to 8) (size 9 to 14) (size 15 to 20)
#    0.000    1.455    3.636    2.727    2.545    5.091 
#    0.000    8.182    0.000    0.000    0.000    0.000 
#    0.000    0.000    0.000    0.000    0.000    0.000 
#
# Total GULP energy -272729.116324 kJ/mol
# GULP energy per Si atom -12396.778015 kJ/mol
# Density = 2.041905 g / cm^3
# Si number density = 20.465631 Si / 1000 Ang^3
#
#
#
# Elastic Constant Matrix: (Units=GPa)
#
#
# Indices 1 2 3 4 5 6 
#
# 1 118.8615 69.0423 32.0474 0.0000 0.0000 0.0000
# 2 69.0423 166.9427 37.7646 0.0000 0.0000 0.0000
# 3 32.0474 37.7646 57.2078 0.0000 0.0000 0.0000
# 4 0.0000 0.0000 0.0000 41.1733 0.0000 0.0000
# 5 0.0000 0.0000 0.0000 0.0000 27.7930 0.0000
# 6 0.0000 0.0000 0.0000 0.0000 0.0000 41.0194
#
#
#
# Elastic Compliance Matrix: (Units=1/GPa)
#
#
# Indices 1 2 3 4 5 6 
#
# 1 0.011798 -0.003978 -0.003983 0.000000 0.000000 0.000000
# 2 -0.003978 0.008383 -0.003305 0.000000 0.000000 0.000000
# 3 -0.003983 -0.003305 0.021893 0.000000 0.000000 0.000000
# 4 0.000000 0.000000 0.000000 0.024288 0.000000 0.000000
# 5 0.000000 0.000000 0.000000 0.000000 0.035980 0.000000
# 6 0.000000 0.000000 0.000000 0.000000 0.000000 0.024379
#
#
# Mechanical properties :
#
#
# Convention : Reuss Voigt Hill
#
# Bulk Modulus (GPa) = 51.17386 68.96897 60.07141
# Shear Modulus (GPa) = 32.09913 35.60766 33.85339
#
# Velocity S-wave (km/s) = 3.96465 4.17571 4.07155
# Velocity P-wave (km/s) = 6.78358 7.55128 7.17770
#
# Compressibility (1/GPa) = 0.01954123
#
# Stress axis : x y z
#
# Youngs Moduli (GPa) = 84.76138 119.28819 45.67608
#
# Poissons Ratio (x) = 0.47456 0.18192
# Poissons Ratio (y) = 0.33720 0.15098
# Poissons Ratio (z) = 0.33760 0.39429
#
# Static dielectric constant tensor:
#      x y z
#    x 3.608510 0.000000 0.000000 
#    y 0.000000 4.460800 0.000000 
#    z 0.000000 0.000000 3.697970 
# 
# 
# High freq. dielectric constant tensor:
#      x y z
#    x 1.766570 0.000000 0.000000 
#    y 0.000000 1.826880 0.000000 
#    z 0.000000 0.000000 1.802300 
# 
# From -- ./inp_files/10615.got.cif
#   From: 2010.03.12/outbox.cif.g09.slc.cpg/sg20_6_cif.got.tgz:10615.got - 2010.04.14 01:38:04.
