data_PCOD8159512
_publ_section_title
;
Structure prediction by ZEFSAII (Michael W. Deem and Ramdas Pophale) SiO2 
 PCOD8159512
Probable space group: C 2 2 21
;
_chemical_formula_sum "Si O2"
_cell_formula_units_Z 64
_cell_length_a 9.383821
_cell_length_b 17.962600
_cell_length_c 17.668085
_cell_angle_alpha 90.000000
_cell_angle_beta 90.000000
_cell_angle_gamma 90.000000
_cell_volume 2978.093946
_symmetry_space_group_name_H-M "C 2 2 21"
_symmetry_group_IT_number 20
_symmetry_cell_setting 'orthorhombic'
loop_
_space_group_symop_operation_xyz
x,y,z
-x,-y,1/2+z
x,-y,-z
-x,y,1/2-z
1/2+x,1/2+y,z
1/2-x,1/2-y,1/2+z
1/2+x,1/2-y,-z
1/2-x,1/2+y,1/2-z
loop_
_atom_site_type_symbol
_atom_site_label
_atom_site_fract_x
_atom_site_fract_y
_atom_site_fract_z
Si Si1 0.287794 0.923401 0.953071
Si Si2 0.160216 0.924302 0.275642
Si Si3 0.861170 0.683928 0.787427
Si Si4 0.018446 0.671782 0.552139
Si Si5 0.234149 0.926798 0.446390
Si Si6 0.653009 0.047053 0.282985
Si Si7 0.986520 0.844724 0.956499
Si Si8 0.131929 0.146264 0.294515
O O1 0.352580 0.931238 0.870118
O O2 0.126215 0.895262 0.951740
O O3 0.386799 0.858382 0.984686
O O4 0.299953 0.000000 0.000000
O O5 0.217250 0.842541 0.254491
O O6 0.184806 0.950567 0.362146
O O7 0.000000 0.931833 0.250000
O O8 0.253108 0.973592 0.219281
O O9 0.874512 0.667957 0.876429
O O10 0.858914 0.769952 0.766726
O O11 0.000000 0.646027 0.750000
O O12 0.972417 0.757410 0.536095
O O13 0.879930 0.619695 0.560434
O O14 0.109289 0.871835 0.473850
O O15 0.251852 0.000000 0.500000
O O16 0.500000 0.029121 0.250000
O O17 0.720389 0.109424 0.228872
O O18 0.889548 0.860330 0.883651
O O19 0.000000 0.107076 0.250000
#
# Coordination Sequence:
#
# PCOD8159512 Si02
#       8
#     8   8   8   8   8   8   8   8
#     4  12  27  44  72 102 140 184 232 286 350 417
#     4  12  28  45  71 101 136 180 238 293 345 411
#     4  10  21  44  72  98 134 182 227 277 340 408
#     4  11  25  46  71 103 143 185 229 282 349 418
#     4  12  27  44  72 102 140 184 232 286 350 417
#     4  12  28  45  71 101 136 180 238 293 345 411
#     4  11  25  46  71 103 143 185 229 282 349 418
#     4  10  21  44  72  98 134 182 227 277 340 408
#
# _framework density 21.490255999999999
#
# number of rings (size 3 to 8) (size 9 to 14) (size 15 to 20)
#    0.000    0.750    2.500    3.750   10.500    1.500 
#    0.000    0.000    0.000    0.000    0.000    0.000 
#    0.000    0.000    0.000    0.000    0.000    0.000 
#
# Total GULP energy -396794.369711 kJ/mol
# GULP energy per Si atom -12399.824053 kJ/mol
# Density = 2.144134 g / cm^3
# Si number density = 21.490256 Si / 1000 Ang^3
#
#
#
# Elastic Constant Matrix: (Units=GPa)
#
#
# Indices 1 2 3 4 5 6 
#
# 1 125.8862 39.3261 28.2300 0.0000 0.0000 0.0000
# 2 39.3261 88.6300 20.3127 0.0000 0.0000 0.0000
# 3 28.2300 20.3127 88.3294 0.0000 0.0000 0.0000
# 4 0.0000 0.0000 0.0000 30.9226 0.0000 0.0000
# 5 0.0000 0.0000 0.0000 0.0000 35.4644 0.0000
# 6 0.0000 0.0000 0.0000 0.0000 0.0000 103.2074
#
#
#
# Elastic Compliance Matrix: (Units=1/GPa)
#
#
# Indices 1 2 3 4 5 6 
#
# 1 0.009613 -0.003759 -0.002208 0.000000 0.000000 0.000000
# 2 -0.003759 0.013381 -0.001876 0.000000 0.000000 0.000000
# 3 -0.002208 -0.001876 0.012458 0.000000 0.000000 0.000000
# 4 0.000000 0.000000 0.000000 0.032339 0.000000 0.000000
# 5 0.000000 0.000000 0.000000 0.000000 0.028197 0.000000
# 6 0.000000 0.000000 0.000000 0.000000 0.000000 0.009689
#
#
# Mechanical properties :
#
#
# Convention : Reuss Voigt Hill
#
# Bulk Modulus (GPa) = 50.59082 53.17592 51.88337
# Shear Modulus (GPa) = 39.07705 48.25064 43.66385
#
# Velocity S-wave (km/s) = 4.26885 4.74353 4.51244
# Velocity P-wave (km/s) = 6.92025 7.40266 7.16551
#
# Compressibility (1/GPa) = 0.01976643
#
# Stress axis : x y z
#
# Youngs Moduli (GPa) = 104.02332 74.73363 80.26844
#
# Poissons Ratio (x) = 0.28096 0.17722
# Poissons Ratio (y) = 0.39107 0.15055
# Poissons Ratio (z) = 0.22966 0.14017
#
# Static dielectric constant tensor:
#      x y z
#    x 5.129680 0.000000 0.000000 
#    y 0.000000 4.077660 0.000000 
#    z 0.000000 0.000000 3.948310 
# 
# 
# High freq. dielectric constant tensor:
#      x y z
#    x 1.846820 0.000000 0.000000 
#    y 0.000000 1.857290 0.000000 
#    z 0.000000 0.000000 1.855090 
# 
# From -- ./inp_files/23907.got.cif
#   From: 2010.03.12/outbox.cif.g09.slc.cpg/sg20_12_cif.got.tgz:23907.got - 2010.04.14 01:38:04.
