data_PCOD8159631
_publ_section_title
;
Structure prediction by ZEFSAII (Michael W. Deem and Ramdas Pophale) SiO2 
 PCOD8159631
Probable space group: C 2 2 21
;
_chemical_formula_sum "Si O2"
_cell_formula_units_Z 40
_cell_length_a 14.045128
_cell_length_b 12.760982
_cell_length_c 11.366092
_cell_angle_alpha 90.000000
_cell_angle_beta 90.000000
_cell_angle_gamma 90.000000
_cell_volume 2037.140414
_symmetry_space_group_name_H-M "C 2 2 21"
_symmetry_group_IT_number 20
_symmetry_cell_setting 'orthorhombic'
loop_
_space_group_symop_operation_xyz
x,y,z
-x,-y,1/2+z
x,-y,-z
-x,y,1/2-z
1/2+x,1/2+y,z
1/2-x,1/2-y,1/2+z
1/2+x,1/2-y,-z
1/2-x,1/2+y,1/2-z
loop_
_atom_site_type_symbol
_atom_site_label
_atom_site_fract_x
_atom_site_fract_y
_atom_site_fract_z
Si Si1 0.411451 0.372391 0.176127
Si Si2 0.520215 0.889378 0.939331
Si Si3 0.483421 0.319136 0.930758
Si Si4 0.350771 0.157813 0.227622
Si Si5 0.137478 0.099352 0.232138
O O1 0.500000 0.327369 0.250000
O O2 0.334241 0.280786 0.196687
O O3 0.377966 0.481953 0.224468
O O4 0.441707 0.382922 0.040872
O O5 0.611966 0.861155 0.859935
O O6 0.423866 0.895589 0.863302
O O7 0.509123 0.800556 0.039061
O O8 0.539693 0.000000 0.000000
O O9 0.401786 0.319722 0.830203
O O10 0.578027 0.380229 0.886941
O O11 0.248563 0.106970 0.209090
#
# Coordination Sequence:
#
# PCOD8159631 Si02
#       5
#     8   8   8   8   8
#     4  11  20  43  66  82 128 171 191 255 317 362
#     4  10  22  41  63  80 127 170 200 255 311 365
#     4  10  22  40  60  92 122 160 208 252 304 366
#     4  10  23  42  58  93 121 163 211 247 313 373
#     4  11  24  36  66  98 120 155 213 262 295 368
#
# _framework density 19.635366999999999
#
# number of rings (size 3 to 8) (size 9 to 14) (size 15 to 20)
#    0.000    1.600    6.000    0.600    0.000   11.200 
#    3.600    0.000    0.000    0.000    0.000    0.000 
#    0.000    0.000    0.000    0.000    0.000    0.000 
#
# Total GULP energy -247995.892829 kJ/mol
# GULP energy per Si atom -12399.794641 kJ/mol
# Density = 1.959068 g / cm^3
# Si number density = 19.635367 Si / 1000 Ang^3
#
#
#
# Elastic Constant Matrix: (Units=GPa)
#
#
# Indices 1 2 3 4 5 6 
#
# 1 122.9476 37.6645 36.6835 0.0000 0.0000 0.0000
# 2 37.6645 152.6890 60.5001 0.0000 0.0000 0.0000
# 3 36.6835 60.5001 100.8634 0.0000 0.0000 0.0000
# 4 0.0000 0.0000 0.0000 34.0495 0.0000 0.0000
# 5 0.0000 0.0000 0.0000 0.0000 11.0655 0.0000
# 6 0.0000 0.0000 0.0000 0.0000 0.0000 20.1005
#
#
#
# Elastic Compliance Matrix: (Units=1/GPa)
#
#
# Indices 1 2 3 4 5 6 
#
# 1 0.009302 -0.001252 -0.002633 0.000000 0.000000 0.000000
# 2 -0.001252 0.008759 -0.004799 0.000000 0.000000 0.000000
# 3 -0.002633 -0.004799 0.013750 0.000000 0.000000 0.000000
# 4 0.000000 0.000000 0.000000 0.029369 0.000000 0.000000
# 5 0.000000 0.000000 0.000000 0.000000 0.090371 0.000000
# 6 0.000000 0.000000 0.000000 0.000000 0.000000 0.049750
#
#
# Mechanical properties :
#
#
# Convention : Reuss Voigt Hill
#
# Bulk Modulus (GPa) = 69.22250 71.79957 70.51104
# Shear Modulus (GPa) = 22.37301 29.15324 25.76313
#
# Velocity S-wave (km/s) = 3.37920 3.85740 3.62619
# Velocity P-wave (km/s) = 7.11026 7.51567 7.31577
#
# Compressibility (1/GPa) = 0.01444617
#
# Stress axis : x y z
#
# Youngs Moduli (GPa) = 107.49897 114.16198 72.72555
#
# Poissons Ratio (x) = 0.14288 0.19145
# Poissons Ratio (y) = 0.13454 0.34901
# Poissons Ratio (z) = 0.28299 0.54786
#
# Static dielectric constant tensor:
#      x y z
#    x 2.991070 0.000000 0.000000 
#    y 0.000000 3.490870 0.000000 
#    z 0.000000 0.000000 3.731630 
# 
# 
# High freq. dielectric constant tensor:
#      x y z
#    x 1.749160 0.000000 0.000000 
#    y 0.000000 1.772780 0.000000 
#    z 0.000000 0.000000 1.773570 
# 
# From -- ./inp_files/14870.got.cif
#   From: 2010.03.12/outbox.cif.g09.slc.cpg/sg20_8_cif.got.tgz:14870.got - 2010.04.14 01:38:04.
