data_PCOD8159044
_publ_section_title
;
Structure prediction by ZEFSAII (Michael W. Deem and Ramdas Pophale) SiO2 
 PCOD8159044
Probable space group: C 2 2 21
;
_chemical_formula_sum "Si O2"
_cell_formula_units_Z 40
_cell_length_a 14.121116
_cell_length_b 9.889903
_cell_length_c 14.256121
_cell_angle_alpha 90.000000
_cell_angle_beta 90.000000
_cell_angle_gamma 90.000000
_cell_volume 1990.959499
_symmetry_space_group_name_H-M "C 2 2 21"
_symmetry_group_IT_number 20
_symmetry_cell_setting 'orthorhombic'
loop_
_space_group_symop_operation_xyz
x,y,z
-x,-y,1/2+z
x,-y,-z
-x,y,1/2-z
1/2+x,1/2+y,z
1/2-x,1/2-y,1/2+z
1/2+x,1/2-y,-z
1/2-x,1/2+y,1/2-z
loop_
_atom_site_type_symbol
_atom_site_label
_atom_site_fract_x
_atom_site_fract_y
_atom_site_fract_z
Si Si1 0.000000 0.172395 0.750000
Si Si2 0.342627 0.754778 0.253629
Si Si3 0.556658 0.861978 0.587359
Si Si4 0.812807 0.957504 0.307746
Si Si5 0.771876 0.500000 0.000000
Si Si6 0.002218 0.336300 0.388873
O O1 0.055061 0.260257 0.673117
O O2 0.077380 0.078566 0.798016
O O3 0.256356 0.859350 0.249236
O O4 0.297432 0.606851 0.265755
O O5 0.403570 0.789331 0.345645
O O6 0.408939 0.762816 0.161460
O O7 0.662964 0.884628 0.548355
O O8 0.497934 0.801003 0.499393
O O9 0.513666 0.002776 0.624247
O O10 0.792931 0.939993 0.418253
#
# Coordination Sequence:
#
# PCOD8159044 Si02
#       6
#     4   8   8   8   4   8
#     4  12  26  40  66 104 134 174 226 282 322 398
#     4  11  22  42  67  97 131 179 218 277 326 403
#     4  10  20  42  70  98 130 177 222 273 332 406
#     4  12  26  42  68  95 142 174 227 270 339 386
#     4  10  22  46  66  94 130 188 214 276 334 404
#     4   9  20  40  68  96 135 175 219 273 339 384
#
# _framework density 20.090816
#
# number of rings (size 3 to 8) (size 9 to 14) (size 15 to 20)
#    0.000    1.600    4.000    3.600    5.600    0.000 
#    0.000    0.000    0.000    0.000    0.000    0.000 
#    0.000    0.000    0.000    0.000    0.000    0.000 
#
# Total GULP energy -247997.728961 kJ/mol
# GULP energy per Si atom -12399.886448 kJ/mol
# Density = 2.004509 g / cm^3
# Si number density = 20.090816 Si / 1000 Ang^3
#
#
#
# Elastic Constant Matrix: (Units=GPa)
#
#
# Indices 1 2 3 4 5 6 
#
# 1 132.1872 53.5329 48.8670 0.0000 0.0000 0.0000
# 2 53.5329 121.6950 52.1042 0.0000 0.0000 0.0000
# 3 48.8670 52.1042 124.3332 0.0000 0.0000 0.0000
# 4 0.0000 0.0000 0.0000 16.9875 0.0000 0.0000
# 5 0.0000 0.0000 0.0000 0.0000 40.3959 0.0000
# 6 0.0000 0.0000 0.0000 0.0000 0.0000 21.6925
#
#
#
# Elastic Compliance Matrix: (Units=1/GPa)
#
#
# Indices 1 2 3 4 5 6 
#
# 1 0.009800 -0.003244 -0.002492 0.000000 0.000000 0.000000
# 2 -0.003244 0.011088 -0.003372 0.000000 0.000000 0.000000
# 3 -0.002492 -0.003372 0.010435 0.000000 0.000000 0.000000
# 4 0.000000 0.000000 0.000000 0.058867 0.000000 0.000000
# 5 0.000000 0.000000 0.000000 0.000000 0.024755 0.000000
# 6 0.000000 0.000000 0.000000 0.000000 0.000000 0.046099
#
#
# Mechanical properties :
#
#
# Convention : Reuss Voigt Hill
#
# Bulk Modulus (GPa) = 76.29142 76.35818 76.32480
# Shear Modulus (GPa) = 27.22883 30.72926 28.97904
#
# Velocity S-wave (km/s) = 3.68542 3.91515 3.80202
# Velocity P-wave (km/s) = 7.49436 7.65029 7.57272
#
# Compressibility (1/GPa) = 0.01310763
#
# Stress axis : x y z
#
# Youngs Moduli (GPa) = 102.03965 90.18916 95.82754
#
# Poissons Ratio (x) = 0.29257 0.23884
# Poissons Ratio (y) = 0.33101 0.32309
# Poissons Ratio (z) = 0.25432 0.30408
#
# Static dielectric constant tensor:
#      x y z
#    x 3.596190 0.000000 0.000000 
#    y 0.000000 3.492250 0.000000 
#    z 0.000000 0.000000 3.826200 
# 
# 
# High freq. dielectric constant tensor:
#      x y z
#    x 1.785170 0.000000 0.000000 
#    y 0.000000 1.769490 0.000000 
#    z 0.000000 0.000000 1.794850 
# 
# From -- ./inp_files/20522.got.cif
#   From: 2010.03.12/outbox.cif.g09.slc.cpg/sg20_11_cif.got.tgz:20522.got - 2010.04.14 01:38:04.
