data_PCOD8159085
_publ_section_title
;
Structure prediction by ZEFSAII (Michael W. Deem and Ramdas Pophale) SiO2 
 PCOD8159085
Probable space group: C 2 2 21
;
_chemical_formula_sum "Si O2"
_cell_formula_units_Z 28
_cell_length_a 28.731558
_cell_length_b 7.248214
_cell_length_c 5.752531
_cell_angle_alpha 90.000000
_cell_angle_beta 90.000000
_cell_angle_gamma 90.000000
_cell_volume 1197.978852
_symmetry_space_group_name_H-M "C 2 2 21"
_symmetry_group_IT_number 20
_symmetry_cell_setting 'orthorhombic'
loop_
_space_group_symop_operation_xyz
x,y,z
-x,-y,1/2+z
x,-y,-z
-x,y,1/2-z
1/2+x,1/2+y,z
1/2-x,1/2-y,1/2+z
1/2+x,1/2-y,-z
1/2-x,1/2+y,1/2-z
loop_
_atom_site_type_symbol
_atom_site_label
_atom_site_fract_x
_atom_site_fract_y
_atom_site_fract_z
Si Si1 0.899653 0.698385 0.389017
Si Si2 0.189382 0.762152 0.848910
Si Si3 0.025973 0.000000 0.000000
Si Si4 0.140631 0.500000 0.500000
Si Si5 0.734602 0.500000 0.500000
O O1 0.908240 0.500000 0.500000
O O2 0.853285 0.801217 0.479125
O O3 0.943998 0.820617 0.443183
O O4 0.892041 0.659073 0.114254
O O5 0.174428 0.594311 0.683426
O O6 0.201343 0.955462 0.720884
O O7 0.235385 0.686449 0.976407
O O8 0.000000 0.037801 0.250000
#
# Coordination Sequence:
#
# PCOD8159085 Si02
#       5
#     8   8   4   4   4
#     4  10  25  48  77 105 153 199 249 312 404 460
#     4  11  24  41  63 105 141 208 246 320 367 445
#     4  12  32  51  83 126 150 190 262 328 402 490
#     4  10  20  46  71  99 140 204 249 297 394 454
#     4  12  24  39  66  99 156 188 275 305 360 438
#
# _framework density 23.372699000000001
#
# number of rings (size 3 to 8) (size 9 to 14) (size 15 to 20)
#    0.000    1.143    4.286    1.714   12.000    1.143 
#    0.000    0.000    0.000    0.000    0.000    0.000 
#    0.000    0.000    0.000    0.000    0.000    0.000 
#
# Total GULP energy -173512.839418 kJ/mol
# GULP energy per Si atom -12393.774244 kJ/mol
# Density = 2.331950 g / cm^3
# Si number density = 23.372699 Si / 1000 Ang^3
#
#
#
# Elastic Constant Matrix: (Units=GPa)
#
#
# Indices 1 2 3 4 5 6 
#
# 1 131.6506 59.8060 60.5050 0.0000 0.0000 0.0000
# 2 59.8060 83.8086 12.3551 0.0000 0.0000 0.0000
# 3 60.5050 12.3551 114.3568 0.0000 0.0000 0.0000
# 4 0.0000 0.0000 0.0000 47.7370 0.0000 0.0000
# 5 0.0000 0.0000 0.0000 0.0000 23.5540 0.0000
# 6 0.0000 0.0000 0.0000 0.0000 0.0000 43.1202
#
#
#
# Elastic Compliance Matrix: (Units=1/GPa)
#
#
# Indices 1 2 3 4 5 6 
#
# 1 0.015330 -0.009901 -0.007041 0.000000 0.000000 0.000000
# 2 -0.009901 0.018520 0.003238 0.000000 0.000000 0.000000
# 3 -0.007041 0.003238 0.012120 0.000000 0.000000 0.000000
# 4 0.000000 0.000000 0.000000 0.020948 0.000000 0.000000
# 5 0.000000 0.000000 0.000000 0.000000 0.042456 0.000000
# 6 0.000000 0.000000 0.000000 0.000000 0.000000 0.023191
#
#
# Mechanical properties :
#
#
# Convention : Reuss Voigt Hill
#
# Bulk Modulus (GPa) = 53.87691 66.12756 60.00224
# Shear Modulus (GPa) = 30.09122 36.02558 33.05840
#
# Velocity S-wave (km/s) = 3.59200 3.93027 3.76493
# Velocity P-wave (km/s) = 6.34859 6.99643 6.68037
#
# Compressibility (1/GPa) = 0.01856083
#
# Stress axis : x y z
#
# Youngs Moduli (GPa) = 65.23214 53.99484 82.50737
#
# Poissons Ratio (x) = 0.53463 0.58094
# Poissons Ratio (y) = 0.64589 -0.26714
# Poissons Ratio (z) = 0.45931 -0.17482
#
# Static dielectric constant tensor:
#      x y z
#    x 4.171300 0.000000 0.000000 
#    y 0.000000 4.021290 0.000000 
#    z 0.000000 0.000000 5.106780 
# 
# 
# High freq. dielectric constant tensor:
#      x y z
#    x 1.908920 0.000000 0.000000 
#    y 0.000000 1.929630 0.000000 
#    z 0.000000 0.000000 1.939920 
# 
# From -- ./inp_files/488.got.cif
#   From: 2010.03.12/outbox.cif.g09.slc.cpg/sg20_1_cif.got.tgz:488.got - 2010.04.14 01:38:04.
