data_PCOD8159817
_publ_section_title
;
Structure prediction by ZEFSAII (Michael W. Deem and Ramdas Pophale) SiO2 
 PCOD8159817
Probable space group: C 2 2 21
;
_chemical_formula_sum "Si O2"
_cell_formula_units_Z 64
_cell_length_a 18.556190
_cell_length_b 11.484732
_cell_length_c 13.183173
_cell_angle_alpha 90.000000
_cell_angle_beta 90.000000
_cell_angle_gamma 90.000000
_cell_volume 2809.503822
_symmetry_space_group_name_H-M "C 2 2 21"
_symmetry_group_IT_number 20
_symmetry_cell_setting 'orthorhombic'
loop_
_space_group_symop_operation_xyz
x,y,z
-x,-y,1/2+z
x,-y,-z
-x,y,1/2-z
1/2+x,1/2+y,z
1/2-x,1/2-y,1/2+z
1/2+x,1/2-y,-z
1/2-x,1/2+y,1/2-z
loop_
_atom_site_type_symbol
_atom_site_label
_atom_site_fract_x
_atom_site_fract_y
_atom_site_fract_z
Si Si1 0.202222 0.564771 0.219472
Si Si2 0.925556 0.817996 0.793720
Si Si3 0.095905 0.110258 0.933224
Si Si4 0.779604 0.277896 0.525835
Si Si5 0.012238 0.295159 0.487709
Si Si6 0.851104 0.281631 0.901371
Si Si7 0.883116 0.373951 0.368701
Si Si8 0.650752 0.549011 0.719298
O O1 0.187551 0.637785 0.319729
O O2 0.128864 0.495392 0.190154
O O3 0.264154 0.468755 0.242066
O O4 0.224031 0.655101 0.132041
O O5 0.890038 0.733924 0.708741
O O6 0.000000 0.868052 0.750000
O O7 0.939318 0.751379 0.896818
O O8 0.874679 0.924893 0.823609
O O9 0.102760 0.075662 0.817065
O O10 0.170619 0.164729 0.969338
O O11 0.030883 0.199195 0.948817
O O12 0.076870 0.000000 0.000000
O O13 0.700447 0.232362 0.498601
O O14 0.811715 0.360390 0.437718
O O15 0.954427 0.386346 0.440335
O O16 0.073189 0.343196 0.565471
O O17 0.864249 0.151563 0.859591
#
# Coordination Sequence:
#
# PCOD8159817 Si02
#       8
#     8   8   8   8   8   8   8   8
#     4  12  25  46  73 103 145 194 239 299 360 444
#     4  10  22  43  69 100 137 189 235 295 360 428
#     4  11  23  44  69  97 138 187 229 294 368 432
#     4  11  23  46  68 101 140 183 241 294 365 420
#     4  10  25  44  70 105 149 186 237 299 358 435
#     4  12  26  43  71 113 139 184 248 302 353 434
#     4  10  22  46  71  97 138 193 241 285 366 434
#     4  12  25  40  72 102 141 181 237 308 354 419
#
# _framework density 22.779824000000001
#
# number of rings (size 3 to 8) (size 9 to 14) (size 15 to 20)
#    0.000    1.000    2.500    4.875    3.500    2.000 
#    0.000   14.375    0.000    0.000    0.000    0.000 
#    0.000    0.000    0.000    0.000    0.000    0.000 
#
# Total GULP energy -396795.290527 kJ/mol
# GULP energy per Si atom -12399.852829 kJ/mol
# Density = 2.272798 g / cm^3
# Si number density = 22.779824 Si / 1000 Ang^3
#
#
#
# Elastic Constant Matrix: (Units=GPa)
#
#
# Indices 1 2 3 4 5 6 
#
# 1 116.8570 20.2056 32.9214 0.0000 0.0000 0.0000
# 2 20.2056 58.5774 6.5341 0.0000 0.0000 0.0000
# 3 32.9214 6.5341 79.8885 0.0000 0.0000 0.0000
# 4 0.0000 0.0000 0.0000 17.8231 0.0000 0.0000
# 5 0.0000 0.0000 0.0000 0.0000 -391.2660 0.0000
# 6 0.0000 0.0000 0.0000 0.0000 0.0000 31.1911
#
#
#
# Elastic Compliance Matrix: (Units=1/GPa)
#
#
# Indices 1 2 3 4 5 6 
#
# 1 0.010203 -0.003079 -0.003953 0.000000 0.000000 0.000000
# 2 -0.003079 0.018157 -0.000216 0.000000 0.000000 0.000000
# 3 -0.003953 -0.000216 0.014164 0.000000 0.000000 0.000000
# 4 0.000000 0.000000 0.000000 0.056107 0.000000 0.000000
# 5 0.000000 0.000000 0.000000 0.000000 -0.002556 0.000000
# 6 0.000000 0.000000 0.000000 0.000000 0.000000 0.032060
#
#
# Mechanical properties :
#
#
# Convention : Reuss Voigt Hill
#
# Bulk Modulus (GPa) = 35.67726 41.62723 38.65225
# Shear Modulus (GPa) = 32.90004 -55.40622 -11.25309
#
# Velocity S-wave (km/s) = 3.80447 -4.93713 -2.22501
# Velocity P-wave (km/s) = 5.91561 3.76656 3.22548
#
# Compressibility (1/GPa) = 0.02802906
#
# Stress axis : x y z
#
# Youngs Moduli (GPa) = 98.00627 55.07368 70.60086
#
# Poissons Ratio (x) = 0.16955 0.27908
# Poissons Ratio (y) = 0.30172 0.01528
# Poissons Ratio (z) = 0.38741 0.01192
#
# Static dielectric constant tensor:
#      x y z
#    x 4.398150 0.000000 0.000000 
#    y 0.000000 13.736300 0.000000 
#    z 0.000000 0.000000 4.245500 
# 
# 
# High freq. dielectric constant tensor:
#      x y z
#    x 1.909500 0.000000 0.000000 
#    y 0.000000 1.884530 0.000000 
#    z 0.000000 0.000000 1.906850 
# 
# From -- ./inp_files/21483.got.cif
#   From: 2010.03.12/outbox.cif.g09.slc.cpg/sg20_11_cif.got.tgz:21483.got - 2010.04.14 01:38:04.
