data_PCOD8159241
_publ_section_title
;
Structure prediction by ZEFSAII (Michael W. Deem and Ramdas Pophale) SiO2 
 PCOD8159241
Probable space group: C 2 2 21
;
_chemical_formula_sum "Si O2"
_cell_formula_units_Z 40
_cell_length_a 9.706119
_cell_length_b 9.419962
_cell_length_c 22.248996
_cell_angle_alpha 90.000000
_cell_angle_beta 90.000000
_cell_angle_gamma 90.000000
_cell_volume 2034.254008
_symmetry_space_group_name_H-M "C 2 2 21"
_symmetry_group_IT_number 20
_symmetry_cell_setting 'orthorhombic'
loop_
_space_group_symop_operation_xyz
x,y,z
-x,-y,1/2+z
x,-y,-z
-x,y,1/2-z
1/2+x,1/2+y,z
1/2-x,1/2-y,1/2+z
1/2+x,1/2-y,-z
1/2-x,1/2+y,1/2-z
loop_
_atom_site_type_symbol
_atom_site_label
_atom_site_fract_x
_atom_site_fract_y
_atom_site_fract_z
Si Si1 0.947174 0.537389 0.434783
Si Si2 0.141487 0.445638 0.774351
Si Si3 0.082092 0.799979 0.130482
Si Si4 0.785984 0.450018 0.857069
Si Si5 0.768593 0.138148 0.871862
O O1 0.009429 0.500000 0.500000
O O2 0.059652 0.512556 0.381294
O O3 0.907448 0.703466 0.429674
O O4 0.807743 0.446026 0.425489
O O5 0.116481 0.299158 0.811450
O O6 0.227527 0.417269 0.713876
O O7 0.215242 0.570623 0.810187
O O8 0.000000 0.510396 0.750000
O O9 0.933640 0.875712 0.132493
O O10 0.192528 0.921670 0.122527
O O11 0.731197 0.302436 0.884716
#
# Coordination Sequence:
#
# PCOD8159241 Si02
#       5
#     8   8   8   8   8
#     4  10  23  43  62  81 117 159 199 250 298 344
#     4  11  19  39  59  87 126 156 185 234 293 354
#     4  10  23  39  59  89 122 151 195 247 289 352
#     4  11  22  38  63  89 118 154 197 238 295 352
#     4  10  21  39  59  88 120 152 195 240 294 350
#
# _framework density 19.663226999999999
#
# number of rings (size 3 to 8) (size 9 to 14) (size 15 to 20)
#    0.000    1.600    6.000    1.200    0.000    6.400 
#    3.600    1.000    0.000    0.000    0.000    0.000 
#    0.000    0.000    0.000    0.000    0.000    0.000 
#
# Total GULP energy -247772.657977 kJ/mol
# GULP energy per Si atom -12388.632899 kJ/mol
# Density = 1.961847 g / cm^3
# Si number density = 19.663227 Si / 1000 Ang^3
#
#
#
# Elastic Constant Matrix: (Units=GPa)
#
#
# Indices 1 2 3 4 5 6 
#
# 1 102.0474 75.3642 9.9363 0.0000 0.0000 0.0000
# 2 75.3642 106.4598 3.8595 0.0000 0.0000 0.0000
# 3 9.9363 3.8595 70.2963 0.0000 0.0000 0.0000
# 4 0.0000 0.0000 0.0000 17.9927 0.0000 0.0000
# 5 0.0000 0.0000 0.0000 0.0000 16.8333 0.0000
# 6 0.0000 0.0000 0.0000 0.0000 0.0000 47.0737
#
#
#
# Elastic Compliance Matrix: (Units=1/GPa)
#
#
# Indices 1 2 3 4 5 6 
#
# 1 0.020852 -0.014684 -0.002141 0.000000 0.000000 0.000000
# 2 -0.014684 0.019752 0.000991 0.000000 0.000000 0.000000
# 3 -0.002141 0.000991 0.014474 0.000000 0.000000 0.000000
# 4 0.000000 0.000000 0.000000 0.055578 0.000000 0.000000
# 5 0.000000 0.000000 0.000000 0.000000 0.059406 0.000000
# 6 0.000000 0.000000 0.000000 0.000000 0.000000 0.021243
#
#
# Mechanical properties :
#
#
# Convention : Reuss Voigt Hill
#
# Bulk Modulus (GPa) = 42.71672 50.79152 46.75412
# Shear Modulus (GPa) = 21.66590 29.02283 25.34436
#
# Velocity S-wave (km/s) = 3.32301 3.84604 3.59405
# Velocity P-wave (km/s) = 6.04107 6.75348 6.40718
#
# Compressibility (1/GPa) = 0.02341004
#
# Stress axis : x y z
#
# Youngs Moduli (GPa) = 47.95633 50.62713 69.09065
#
# Poissons Ratio (x) = 0.74341 0.14794
# Poissons Ratio (y) = 0.70419 -0.06847
# Poissons Ratio (z) = 0.10269 -0.05018
#
# Static dielectric constant tensor:
#      x y z
#    x 3.526600 0.000000 0.000000 
#    y 0.000000 3.605010 0.000000 
#    z 0.000000 0.000000 3.588800 
# 
# 
# High freq. dielectric constant tensor:
#      x y z
#    x 1.762340 0.000000 0.000000 
#    y 0.000000 1.767660 0.000000 
#    z 0.000000 0.000000 1.756070 
# 
# From -- ./inp_files/28597.got.cif
#   From: 2010.03.12/outbox.cif.g09.slc.cpg/sg20_15_cif.got.tgz:28597.got - 2010.04.14 01:38:04.
