data_PCOD8159663
_publ_section_title
;
Structure prediction by ZEFSAII (Michael W. Deem and Ramdas Pophale) SiO2 
 PCOD8159663
Probable space group: C 2 2 21
;
_chemical_formula_sum "Si O2"
_cell_formula_units_Z 52
_cell_length_a 8.980052
_cell_length_b 18.888502
_cell_length_c 14.949341
_cell_angle_alpha 90.000000
_cell_angle_beta 90.000000
_cell_angle_gamma 90.000000
_cell_volume 2535.703187
_symmetry_space_group_name_H-M "C 2 2 21"
_symmetry_group_IT_number 20
_symmetry_cell_setting 'orthorhombic'
loop_
_space_group_symop_operation_xyz
x,y,z
-x,-y,1/2+z
x,-y,-z
-x,y,1/2-z
1/2+x,1/2+y,z
1/2-x,1/2-y,1/2+z
1/2+x,1/2-y,-z
1/2-x,1/2+y,1/2-z
loop_
_atom_site_type_symbol
_atom_site_label
_atom_site_fract_x
_atom_site_fract_y
_atom_site_fract_z
Si Si1 0.000000 0.224258 0.250000
Si Si2 0.587109 0.438786 0.069222
Si Si3 0.379639 0.685132 0.994815
Si Si4 0.075164 0.451677 0.420146
Si Si5 0.000000 0.455645 0.750000
Si Si6 0.212729 0.117621 0.317603
Si Si7 0.000000 0.997790 0.750000
Si Si8 0.434847 0.803372 0.424445
O O1 0.147726 0.174922 0.247518
O O2 0.996366 0.275033 0.332525
O O3 0.761148 0.422966 0.054645
O O4 0.577532 0.455798 0.174194
O O5 0.535915 0.500000 0.000000
O O6 0.489286 0.370080 0.051715
O O7 0.309856 0.650854 0.084402
O O8 0.475083 0.757238 0.002989
O O9 0.242098 0.706248 0.932166
O O10 0.014937 0.500000 0.500000
O O11 0.071266 0.494375 0.326374
O O12 0.964024 0.386390 0.423629
O O13 0.882091 0.402063 0.704682
O O14 0.119655 0.046184 0.306441
#
# Coordination Sequence:
#
# PCOD8159663 Si02
#       8
#     4   8   8   8   4   8   4   8
#     4   9  23  42  66  86 130 176 216 264 332 400
#     4  11  23  40  66  96 132 171 222 272 331 398
#     4  11  24  42  67  92 134 179 225 273 335 406
#     4  11  25  40  63  95 130 169 217 280 333 390
#     4  12  23  40  65  99 137 164 216 282 333 390
#     4  10  22  40  65  97 127 175 216 267 330 404
#     4  11  20  40  63  97 133 166 218 264 329 396
#     4  11  24  43  63  92 130 175 225 274 335 399
#
# _framework density 20.507133
#
# number of rings (size 3 to 8) (size 9 to 14) (size 15 to 20)
#    0.000    1.231    3.077    2.308    2.154    4.308 
#    0.000    0.000    0.000    0.923    0.000    0.000 
#    0.000    0.000    0.000    0.000    0.000    0.000 
#
# Total GULP energy -322337.790974 kJ/mol
# GULP energy per Si atom -12397.607345 kJ/mol
# Density = 2.046046 g / cm^3
# Si number density = 20.507133 Si / 1000 Ang^3
#
#
#
# Elastic Constant Matrix: (Units=GPa)
#
#
# Indices 1 2 3 4 5 6 
#
# 1 117.2884 44.9042 9.7268 0.0000 0.0000 0.0000
# 2 44.9042 105.3708 27.7219 0.0000 0.0000 0.0000
# 3 9.7268 27.7219 69.2765 0.0000 0.0000 0.0000
# 4 0.0000 0.0000 0.0000 20.9013 0.0000 0.0000
# 5 0.0000 0.0000 0.0000 0.0000 30.5332 0.0000
# 6 0.0000 0.0000 0.0000 0.0000 0.0000 23.1722
#
#
#
# Elastic Compliance Matrix: (Units=1/GPa)
#
#
# Indices 1 2 3 4 5 6 
#
# 1 0.010196 -0.004435 0.000343 0.000000 0.000000 0.000000
# 2 -0.004435 0.012536 -0.004394 0.000000 0.000000 0.000000
# 3 0.000343 -0.004394 0.016145 0.000000 0.000000 0.000000
# 4 0.000000 0.000000 0.000000 0.047844 0.000000 0.000000
# 5 0.000000 0.000000 0.000000 0.000000 0.032751 0.000000
# 6 0.000000 0.000000 0.000000 0.000000 0.000000 0.043155
#
#
# Mechanical properties :
#
#
# Convention : Reuss Voigt Hill
#
# Bulk Modulus (GPa) = 45.65097 50.73795 48.19446
# Shear Modulus (GPa) = 26.75221 28.89352 27.82286
#
# Velocity S-wave (km/s) = 3.61575 3.75767 3.68739
# Velocity P-wave (km/s) = 6.30404 6.60470 6.45612
#
# Compressibility (1/GPa) = 0.02190534
#
# Stress axis : x y z
#
# Youngs Moduli (GPa) = 98.08201 79.76803 61.93877
#
# Poissons Ratio (x) = 0.35379 -0.02126
# Poissons Ratio (y) = 0.43501 0.27215
# Poissons Ratio (z) = -0.03367 0.35049
#
# Static dielectric constant tensor:
#      x y z
#    x 3.608370 0.000000 0.000000 
#    y 0.000000 3.721070 0.000000 
#    z 0.000000 0.000000 3.924510 
# 
# 
# High freq. dielectric constant tensor:
#      x y z
#    x 1.807190 0.000000 0.000000 
#    y 0.000000 1.804200 0.000000 
#    z 0.000000 0.000000 1.803570 
# 
# From -- ./inp_files/23733.got.cif
#   From: 2010.03.12/outbox.cif.g09.slc.cpg/sg20_12_cif.got.tgz:23733.got - 2010.04.14 01:38:04.
