data_PCOD8159459
_publ_section_title
;
Structure prediction by ZEFSAII (Michael W. Deem and Ramdas Pophale) SiO2 
 PCOD8159459
Probable space group: C 2 2 21
;
_chemical_formula_sum "Si O2"
_cell_formula_units_Z 40
_cell_length_a 6.859095
_cell_length_b 13.087541
_cell_length_c 18.087743
_cell_angle_alpha 90.000000
_cell_angle_beta 90.000000
_cell_angle_gamma 90.000000
_cell_volume 1623.712941
_symmetry_space_group_name_H-M "C 2 2 21"
_symmetry_group_IT_number 20
_symmetry_cell_setting 'orthorhombic'
loop_
_space_group_symop_operation_xyz
x,y,z
-x,-y,1/2+z
x,-y,-z
-x,y,1/2-z
1/2+x,1/2+y,z
1/2-x,1/2-y,1/2+z
1/2+x,1/2-y,-z
1/2-x,1/2+y,1/2-z
loop_
_atom_site_type_symbol
_atom_site_label
_atom_site_fract_x
_atom_site_fract_y
_atom_site_fract_z
Si Si1 0.281245 0.733206 0.908485
Si Si2 0.769719 0.549938 0.068879
Si Si3 0.399966 0.612896 0.676519
Si Si4 0.902987 0.212640 0.175802
Si Si5 0.155324 0.102014 0.463393
O O1 0.376703 0.847647 0.901178
O O2 0.426495 0.648969 0.876125
O O3 0.069997 0.728135 0.870303
O O4 0.258615 0.700763 0.994379
O O5 0.725443 0.475226 0.136938
O O6 0.577932 0.595143 0.028152
O O7 0.890221 0.500000 0.000000
O O8 0.500000 0.567871 0.750000
O O9 0.261336 0.706727 0.699383
O O10 0.809890 0.121103 0.125256
O O11 0.000000 0.165599 0.250000
O O12 0.250933 0.000000 0.500000
#
# Coordination Sequence:
#
# PCOD8159459 Si02
#       5
#     8   8   8   8   8
#     4  11  23  46  69 102 144 193 242 302 372 441
#     4  10  21  42  71 101 141 189 242 301 360 435
#     4  12  24  47  72 101 148 195 238 306 383 436
#     4  11  25  44  70 109 147 190 258 314 366 460
#     4  10  21  43  72 101 143 194 242 305 375 432
#
# _framework density 24.634896999999999
#
# number of rings (size 3 to 8) (size 9 to 14) (size 15 to 20)
#    0.000    1.200    6.000    1.200    2.800    3.200 
#    3.600    1.000    0.000    0.000    0.000    0.000 
#    0.000    0.000    0.000    0.000    0.000    0.000 
#
# Total GULP energy -247830.924200 kJ/mol
# GULP energy per Si atom -12391.546210 kJ/mol
# Density = 2.457883 g / cm^3
# Si number density = 24.634897 Si / 1000 Ang^3
#
#
#
# Elastic Constant Matrix: (Units=GPa)
#
#
# Indices 1 2 3 4 5 6 
#
# 1 46.4448 1.9841 12.9769 0.0000 0.0000 0.0000
# 2 1.9841 136.1143 62.2511 0.0000 0.0000 0.0000
# 3 12.9769 62.2511 184.3816 0.0000 0.0000 0.0000
# 4 0.0000 0.0000 0.0000 40.9980 0.0000 0.0000
# 5 0.0000 0.0000 0.0000 0.0000 17.5369 0.0000
# 6 0.0000 0.0000 0.0000 0.0000 0.0000 139.1556
#
#
#
# Elastic Compliance Matrix: (Units=1/GPa)
#
#
# Indices 1 2 3 4 5 6 
#
# 1 0.021987 0.000458 -0.001702 0.000000 0.000000 0.000000
# 2 0.000458 0.008698 -0.002969 0.000000 0.000000 0.000000
# 3 -0.001702 -0.002969 0.006546 0.000000 0.000000 0.000000
# 4 0.000000 0.000000 0.000000 0.024391 0.000000 0.000000
# 5 0.000000 0.000000 0.000000 0.000000 0.057023 0.000000
# 6 0.000000 0.000000 0.000000 0.000000 0.000000 0.007186
#
#
# Mechanical properties :
#
#
# Convention : Reuss Voigt Hill
#
# Bulk Modulus (GPa) = 34.71673 57.92943 46.32308
# Shear Modulus (GPa) = 34.75647 58.85334 46.80490
#
# Velocity S-wave (km/s) = 3.76022 4.89307 4.36356
# Velocity P-wave (km/s) = 5.74242 7.44910 6.65073
#
# Compressibility (1/GPa) = 0.02880455
#
# Stress axis : x y z
#
# Youngs Moduli (GPa) = 45.48159 114.97083 152.77306
#
# Poissons Ratio (x) = -0.05265 0.26003
# Poissons Ratio (y) = -0.02083 0.45355
# Poissons Ratio (z) = 0.07741 0.34133
#
# Static dielectric constant tensor:
#      x y z
#    x 4.112890 0.000000 0.000000 
#    y 0.000000 4.667520 0.000000 
#    z 0.000000 0.000000 4.431150 
# 
# 
# High freq. dielectric constant tensor:
#      x y z
#    x 1.955690 0.000000 0.000000 
#    y 0.000000 1.979470 0.000000 
#    z 0.000000 0.000000 1.986390 
# 
# From -- ./inp_files/23139.got.cif
#   From: 2010.03.12/outbox.cif.g09.slc.cpg/sg20_12_cif.got.tgz:23139.got - 2010.04.14 01:38:04.
