data_PCOD8159172
_publ_section_title
;
Structure prediction by ZEFSAII (Michael W. Deem and Ramdas Pophale) SiO2 
 PCOD8159172
Probable space group: C 2 2 21
;
_chemical_formula_sum "Si O2"
_cell_formula_units_Z 48
_cell_length_a 29.378795
_cell_length_b 5.138090
_cell_length_c 14.723675
_cell_angle_alpha 90.000000
_cell_angle_beta 90.000000
_cell_angle_gamma 90.000000
_cell_volume 2222.551887
_symmetry_space_group_name_H-M "C 2 2 21"
_symmetry_group_IT_number 20
_symmetry_cell_setting 'orthorhombic'
loop_
_space_group_symop_operation_xyz
x,y,z
-x,-y,1/2+z
x,-y,-z
-x,y,1/2-z
1/2+x,1/2+y,z
1/2-x,1/2-y,1/2+z
1/2+x,1/2-y,-z
1/2-x,1/2+y,1/2-z
loop_
_atom_site_type_symbol
_atom_site_label
_atom_site_fract_x
_atom_site_fract_y
_atom_site_fract_z
Si Si1 0.986231 0.500000 0.000000
Si Si2 0.537097 0.847542 0.826690
Si Si3 0.285031 0.737410 0.845411
Si Si4 0.191012 0.261886 0.237962
Si Si5 0.594046 0.307852 0.578873
Si Si6 0.591889 0.636004 0.217171
Si Si7 0.831029 0.500000 0.000000
O O1 0.955413 0.305185 0.057818
O O2 0.016324 0.654722 0.072540
O O3 0.500000 0.775711 0.750000
O O4 0.575052 0.622439 0.833096
O O5 0.558810 0.124547 0.803393
O O6 0.230440 0.765536 0.837501
O O7 0.301501 0.449483 0.818263
O O8 0.308403 0.949457 0.779499
O O9 0.299039 0.787827 0.950202
O O10 0.143104 0.209874 0.187374
O O11 0.609078 0.500000 0.500000
O O12 0.591157 0.440055 0.676400
O O13 0.635231 0.100576 0.580166
#
# Coordination Sequence:
#
# PCOD8159172 Si02
#       7
#     4   8   8   8   8   8   4
#     4  11  26  44  62  96 132 174 222 280 338 387
#     4  12  26  44  66  95 129 177 220 277 332 397
#     4  10  21  37  62  92 131 161 210 258 327 392
#     4  10  21  40  62  90 125 175 206 258 320 391
#     4  11  23  38  67  95 132 164 216 289 332 386
#     4  12  24  42  67  96 130 170 227 264 328 404
#     4  11  22  36  60 104 126 164 208 280 336 377
#
# _framework density 21.596796000000001
#
# number of rings (size 3 to 8) (size 9 to 14) (size 15 to 20)
#    0.000    1.000    3.333    3.500    4.667    0.000 
#    0.000    1.667    0.000    0.000    0.000    0.000 
#    0.000    0.000    0.000    0.000    0.000    0.000 
#
# Total GULP energy -297640.216047 kJ/mol
# GULP energy per Si atom -12401.675669 kJ/mol
# Density = 2.154764 g / cm^3
# Si number density = 21.596796 Si / 1000 Ang^3
#
#
#
# Elastic Constant Matrix: (Units=GPa)
#
#
# Indices 1 2 3 4 5 6 
#
# 1 119.3389 9.1432 39.2636 0.0000 0.0000 0.0000
# 2 9.1432 74.2662 2.7664 0.0000 0.0000 0.0000
# 3 39.2636 2.7664 68.6957 0.0000 0.0000 0.0000
# 4 0.0000 0.0000 0.0000 24.6331 0.0000 0.0000
# 5 0.0000 0.0000 0.0000 0.0000 27.3907 0.0000
# 6 0.0000 0.0000 0.0000 0.0000 0.0000 21.0621
#
#
#
# Elastic Compliance Matrix: (Units=1/GPa)
#
#
# Indices 1 2 3 4 5 6 
#
# 1 0.010403 -0.001061 -0.005903 0.000000 0.000000 0.000000
# 2 -0.001061 0.013593 0.000059 0.000000 0.000000 0.000000
# 3 -0.005903 0.000059 0.017929 0.000000 0.000000 0.000000
# 4 0.000000 0.000000 0.000000 0.040596 0.000000 0.000000
# 5 0.000000 0.000000 0.000000 0.000000 0.036509 0.000000
# 6 0.000000 0.000000 0.000000 0.000000 0.000000 0.047479
#
#
# Mechanical properties :
#
#
# Convention : Reuss Voigt Hill
#
# Bulk Modulus (GPa) = 35.56842 40.51635 38.04239
# Shear Modulus (GPa) = 26.35879 28.69236 27.52557
#
# Velocity S-wave (km/s) = 3.49735 3.64888 3.57392
# Velocity P-wave (km/s) = 5.72832 6.04595 5.88928
#
# Compressibility (1/GPa) = 0.02811483
#
# Stress axis : x y z
#
# Youngs Moduli (GPa) = 96.12637 73.56463 55.77681
#
# Poissons Ratio (x) = 0.07804 0.32926
# Poissons Ratio (y) = 0.10198 -0.00329
# Poissons Ratio (z) = 0.56745 -0.00433
#
# Static dielectric constant tensor:
#      x y z
#    x 4.196700 0.000000 0.000000 
#    y 0.000000 4.319860 0.000000 
#    z 0.000000 0.000000 3.672040 
# 
# 
# High freq. dielectric constant tensor:
#      x y z
#    x 1.863870 0.000000 0.000000 
#    y 0.000000 1.855650 0.000000 
#    z 0.000000 0.000000 1.818640 
# 
# From -- ./inp_files/22258.got.cif
#   From: 2010.03.12/outbox.cif.g09.slc.cpg/sg20_12_cif.got.tgz:22258.got - 2010.04.14 01:38:04.
