data_PCOD8159829
_publ_section_title
;
Structure prediction by ZEFSAII (Michael W. Deem and Ramdas Pophale) SiO2 
 PCOD8159829
Probable space group: C 2 2 21
;
_chemical_formula_sum "Si O2"
_cell_formula_units_Z 64
_cell_length_a 12.365784
_cell_length_b 14.555153
_cell_length_c 17.457155
_cell_angle_alpha 90.000000
_cell_angle_beta 90.000000
_cell_angle_gamma 90.000000
_cell_volume 3142.041372
_symmetry_space_group_name_H-M "C 2 2 21"
_symmetry_group_IT_number 20
_symmetry_cell_setting 'orthorhombic'
loop_
_space_group_symop_operation_xyz
x,y,z
-x,-y,1/2+z
x,-y,-z
-x,y,1/2-z
1/2+x,1/2+y,z
1/2-x,1/2-y,1/2+z
1/2+x,1/2-y,-z
1/2-x,1/2+y,1/2-z
loop_
_atom_site_type_symbol
_atom_site_label
_atom_site_fract_x
_atom_site_fract_y
_atom_site_fract_z
Si Si1 0.074908 0.676908 0.899746
Si Si2 0.237429 0.106041 0.697820
Si Si3 0.270747 0.067370 0.199592
Si Si4 0.879325 0.264759 0.720162
Si Si5 0.962583 0.866184 0.666102
Si Si6 0.144170 0.364840 0.929350
Si Si7 0.550407 0.999188 0.413968
Si Si8 0.360639 0.520810 0.083959
O O1 0.160757 0.664162 0.831382
O O2 0.030487 0.779483 0.890741
O O3 0.976589 0.604982 0.888295
O O4 0.126824 0.667363 0.983799
O O5 0.164997 0.165029 0.756335
O O6 0.274773 0.013973 0.739609
O O7 0.172039 0.076093 0.622165
O O8 0.303752 0.159725 0.241739
O O9 0.153241 0.084050 0.164030
O O10 0.354858 0.044475 0.133597
O O11 0.872184 0.278286 0.628026
O O12 0.000000 0.277182 0.750000
O O13 0.000000 0.834374 0.750000
O O14 0.045922 0.940785 0.636758
O O15 0.262321 0.407592 0.921613
O O16 0.060080 0.443864 0.905647
O O17 0.593768 0.000000 0.500000
O O18 0.406514 0.500000 0.000000
#
# Coordination Sequence:
#
# PCOD8159829 Si02
#       8
#     8   8   8   8   8   8   8   8
#     4  11  24  44  72 100 133 177 234 281 341 406
#     4  12  25  43  70 102 133 180 228 279 336 413
#     4  12  25  45  68 102 140 175 222 290 340 400
#     4  12  25  42  72 102 133 176 231 283 339 403
#     4  12  27  47  65  99 145 181 220 284 340 403
#     4  11  21  46  71 103 131 178 233 284 336 403
#     4  10  22  43  72 100 135 176 229 291 340 399
#     4  12  24  46  73  94 137 186 227 266 345 420
#
# _framework density 20.368922999999999
#
# number of rings (size 3 to 8) (size 9 to 14) (size 15 to 20)
#    0.000    0.500    7.500    0.375    3.500    1.500 
#    6.750    0.000    0.000    0.000    0.000    0.000 
#    0.000    0.000    0.000    0.000    0.000    0.000 
#
# Total GULP energy -396948.766453 kJ/mol
# GULP energy per Si atom -12404.648952 kJ/mol
# Density = 2.032256 g / cm^3
# Si number density = 20.368923 Si / 1000 Ang^3
#
#
#
# Elastic Constant Matrix: (Units=GPa)
#
#
# Indices 1 2 3 4 5 6 
#
# 1 96.3471 12.3288 28.7023 0.0000 0.0000 0.0000
# 2 12.3288 67.6898 30.7343 0.0000 0.0000 0.0000
# 3 28.7023 30.7343 98.7103 0.0000 0.0000 0.0000
# 4 0.0000 0.0000 0.0000 34.9711 0.0000 0.0000
# 5 0.0000 0.0000 0.0000 0.0000 25.5173 0.0000
# 6 0.0000 0.0000 0.0000 0.0000 0.0000 9.0270
#
#
#
# Elastic Compliance Matrix: (Units=1/GPa)
#
#
# Indices 1 2 3 4 5 6 
#
# 1 0.011389 -0.000665 -0.003105 0.000000 0.000000 0.000000
# 2 -0.000665 0.017244 -0.005176 0.000000 0.000000 0.000000
# 3 -0.003105 -0.005176 0.012645 0.000000 0.000000 0.000000
# 4 0.000000 0.000000 0.000000 0.028595 0.000000 0.000000
# 5 0.000000 0.000000 0.000000 0.000000 0.039189 0.000000
# 6 0.000000 0.000000 0.000000 0.000000 0.000000 0.110779
#
#
# Mechanical properties :
#
#
# Convention : Reuss Voigt Hill
#
# Bulk Modulus (GPa) = 42.75715 45.14200 43.94957
# Shear Modulus (GPa) = 20.36429 26.63521 23.49975
#
# Velocity S-wave (km/s) = 3.16535 3.62005 3.40031
# Velocity P-wave (km/s) = 5.86483 6.29947 6.08603
#
# Compressibility (1/GPa) = 0.02338790
#
# Stress axis : x y z
#
# Youngs Moduli (GPa) = 87.80325 57.98969 79.08268
#
# Poissons Ratio (x) = 0.03855 0.24553
# Poissons Ratio (y) = 0.05836 0.40933
# Poissons Ratio (z) = 0.27260 0.30015
#
# Static dielectric constant tensor:
#      x y z
#    x 3.703290 0.000000 0.000000 
#    y 0.000000 3.977470 0.000000 
#    z 0.000000 0.000000 4.046650 
# 
# 
# High freq. dielectric constant tensor:
#      x y z
#    x 1.797040 0.000000 0.000000 
#    y 0.000000 1.793930 0.000000 
#    z 0.000000 0.000000 1.808250 
# 
# From -- ./inp_files/24481.got.cif
#   From: 2010.03.12/outbox.cif.g09.slc.cpg/sg20_13_cif.got.tgz:24481.got - 2010.04.14 01:38:04.
