data_PCOD8159845
_publ_section_title
;
Structure prediction by ZEFSAII (Michael W. Deem and Ramdas Pophale) SiO2 
 PCOD8159845
Probable space group: C 2 2 21
;
_chemical_formula_sum "Si O2"
_cell_formula_units_Z 64
_cell_length_a 12.073271
_cell_length_b 17.108440
_cell_length_c 13.421945
_cell_angle_alpha 90.000000
_cell_angle_beta 90.000000
_cell_angle_gamma 90.000000
_cell_volume 2772.367601
_symmetry_space_group_name_H-M "C 2 2 21"
_symmetry_group_IT_number 20
_symmetry_cell_setting 'orthorhombic'
loop_
_space_group_symop_operation_xyz
x,y,z
-x,-y,1/2+z
x,-y,-z
-x,y,1/2-z
1/2+x,1/2+y,z
1/2-x,1/2-y,1/2+z
1/2+x,1/2-y,-z
1/2-x,1/2+y,1/2-z
loop_
_atom_site_type_symbol
_atom_site_label
_atom_site_fract_x
_atom_site_fract_y
_atom_site_fract_z
Si Si1 0.046158 0.350310 0.030032
Si Si2 0.462948 0.678480 0.040135
Si Si3 0.208111 0.220037 0.299676
Si Si4 0.184564 0.138817 0.110027
Si Si5 0.186515 0.626896 0.590117
Si Si6 0.746057 0.001371 0.734489
Si Si7 0.910923 0.390745 0.676436
Si Si8 0.219576 0.078139 0.568591
O O1 0.167577 0.370184 0.074156
O O2 0.021318 0.259034 0.002429
O O3 0.946626 0.377110 0.101876
O O4 0.033056 0.401910 0.930267
O O5 0.403117 0.692340 0.145001
O O6 0.567465 0.622143 0.057918
O O7 0.379508 0.636433 0.963539
O O8 0.191384 0.218269 0.178396
O O9 0.235403 0.307076 0.336904
O O10 0.308623 0.167471 0.338733
O O11 0.193046 0.076576 0.199411
O O12 0.280068 0.139831 0.025953
O O13 0.234094 0.546704 0.631014
O O14 0.628394 0.975229 0.782594
O O15 0.811300 0.049068 0.819870
O O16 0.000000 0.352408 0.750000
O O17 0.230361 0.000000 0.500000
#
# Coordination Sequence:
#
# PCOD8159845 Si02
#       8
#     8   8   8   8   8   8   8   8
#     4  11  24  44  74 101 148 193 251 323 374 453
#     4  11  25  45  78 106 146 200 255 312 383 462
#     4  10  22  44  68 103 136 190 250 303 380 452
#     4  11  24  47  70 104 150 197 245 319 386 459
#     4  11  26  43  71 109 144 194 255 313 385 458
#     4  11  26  44  69 106 153 190 253 312 385 462
#     4  11  22  42  68 100 141 195 240 307 385 453
#     4  12  25  47  77 111 149 203 259 318 387 461
#
# _framework density 23.084962000000001
#
# number of rings (size 3 to 8) (size 9 to 14) (size 15 to 20)
#    0.000    1.000    2.500    3.750    5.250    3.000 
#    0.000    3.125    0.000    0.000    0.000    0.000 
#    0.000    0.000    0.000    0.000    0.000    0.000 
#
# Total GULP energy -396554.892407 kJ/mol
# GULP energy per Si atom -12392.340388 kJ/mol
# Density = 2.303242 g / cm^3
# Si number density = 23.084962 Si / 1000 Ang^3
#
#
#
# Elastic Constant Matrix: (Units=GPa)
#
#
# Indices 1 2 3 4 5 6 
#
# 1 97.9862 38.3212 29.3859 0.0000 0.0000 0.0000
# 2 38.3212 94.5543 39.3249 0.0000 0.0000 0.0000
# 3 29.3859 39.3249 132.5306 0.0000 0.0000 0.0000
# 4 0.0000 0.0000 0.0000 45.4568 0.0000 0.0000
# 5 0.0000 0.0000 0.0000 0.0000 32.4698 0.0000
# 6 0.0000 0.0000 0.0000 0.0000 0.0000 23.7755
#
#
#
# Elastic Compliance Matrix: (Units=1/GPa)
#
#
# Indices 1 2 3 4 5 6 
#
# 1 0.012361 -0.004415 -0.001431 0.000000 0.000000 0.000000
# 2 -0.004415 0.013641 -0.003069 0.000000 0.000000 0.000000
# 3 -0.001431 -0.003069 0.008773 0.000000 0.000000 0.000000
# 4 0.000000 0.000000 0.000000 0.021999 0.000000 0.000000
# 5 0.000000 0.000000 0.000000 0.000000 0.030798 0.000000
# 6 0.000000 0.000000 0.000000 0.000000 0.000000 0.042060
#
#
# Mechanical properties :
#
#
# Convention : Reuss Voigt Hill
#
# Bulk Modulus (GPa) = 59.00730 59.90391 59.45560
# Shear Modulus (GPa) = 32.65613 34.87637 33.76625
#
# Velocity S-wave (km/s) = 3.76521 3.89110 3.82867
# Velocity P-wave (km/s) = 6.67224 6.79656 6.73468
#
# Compressibility (1/GPa) = 0.01694706
#
# Stress axis : x y z
#
# Youngs Moduli (GPa) = 80.89853 73.30596 113.98212
#
# Poissons Ratio (x) = 0.32362 0.16310
# Poissons Ratio (y) = 0.35714 0.34980
# Poissons Ratio (z) = 0.11576 0.22497
#
# Static dielectric constant tensor:
#      x y z
#    x 4.163210 0.000000 0.000000 
#    y 0.000000 4.204560 0.000000 
#    z 0.000000 0.000000 4.278440 
# 
# 
# High freq. dielectric constant tensor:
#      x y z
#    x 1.905710 0.000000 0.000000 
#    y 0.000000 1.910560 0.000000 
#    z 0.000000 0.000000 1.917000 
# 
# From -- ./inp_files/20289.got.cif
#   From: 2010.03.12/outbox.cif.g09.slc.cpg/sg20_11_cif.got.tgz:20289.got - 2010.04.14 01:38:04.
