data_PCOD8159994
_publ_section_title
;
Structure prediction by ZEFSAII (Michael W. Deem and Ramdas Pophale) SiO2 
 PCOD8159994
Probable space group: C 2 2 21
;
_chemical_formula_sum "Si O2"
_cell_formula_units_Z 48
_cell_length_a 20.125017
_cell_length_b 8.640361
_cell_length_c 13.720900
_cell_angle_alpha 90.000000
_cell_angle_beta 90.000000
_cell_angle_gamma 90.000000
_cell_volume 2385.891791
_symmetry_space_group_name_H-M "C 2 2 21"
_symmetry_group_IT_number 20
_symmetry_cell_setting 'orthorhombic'
loop_
_space_group_symop_operation_xyz
x,y,z
-x,-y,1/2+z
x,-y,-z
-x,y,1/2-z
1/2+x,1/2+y,z
1/2-x,1/2-y,1/2+z
1/2+x,1/2-y,-z
1/2-x,1/2+y,1/2-z
loop_
_atom_site_type_symbol
_atom_site_label
_atom_site_fract_x
_atom_site_fract_y
_atom_site_fract_z
Si Si1 0.435404 0.176571 0.690763
Si Si2 0.308274 0.820682 0.833423
Si Si3 0.566725 0.816637 0.802016
Si Si4 0.759920 0.819926 0.986109
Si Si5 0.201395 0.673281 0.709250
Si Si6 0.384252 0.318956 0.499241
O O1 0.500000 0.232044 0.750000
O O2 0.373471 0.210569 0.760635
O O3 0.430877 0.270999 0.589972
O O4 0.438766 0.994938 0.666064
O O5 0.375338 0.786105 0.775791
O O6 0.249689 0.706858 0.798970
O O7 0.287536 0.998196 0.824205
O O8 0.312728 0.776173 0.947617
O O9 0.500000 0.758527 0.750000
O O10 0.578122 0.718358 0.898997
O O11 0.777283 0.788884 0.874991
O O12 0.684176 0.773832 0.008200
O O13 0.769013 0.000000 0.000000
O O14 0.368596 0.500000 0.500000
#
# Coordination Sequence:
#
# PCOD8159994 Si02
#       6
#     8   8   8   8   8   8
#     4  10  23  43  66  91 125 168 209 252 308 378
#     4  11  22  38  63  93 124 160 208 259 308 365
#     4  10  23  43  66  91 125 168 209 252 308 378
#     4  12  24  39  62  91 127 167 211 261 312 373
#     4  11  22  38  63  93 124 160 208 259 308 365
#     4  12  24  39  64  93 125 163 207 261 318 373
#
# _framework density 20.118265000000001
#
# number of rings (size 3 to 8) (size 9 to 14) (size 15 to 20)
#    0.000    1.000    3.333    4.000    0.000    3.333 
#    0.000    6.667    0.000    0.000    0.000    0.000 
#    0.000    0.000    0.000    0.000    0.000    0.000 
#
# Total GULP energy -297731.673663 kJ/mol
# GULP energy per Si atom -12405.486403 kJ/mol
# Density = 2.007248 g / cm^3
# Si number density = 20.118265 Si / 1000 Ang^3
#
#
#
# Elastic Constant Matrix: (Units=GPa)
#
#
# Indices 1 2 3 4 5 6 
#
# 1 108.5119 24.9301 26.1039 0.0000 0.0000 0.0000
# 2 24.9301 80.2013 14.1896 0.0000 0.0000 0.0000
# 3 26.1039 14.1896 85.5306 0.0000 0.0000 0.0000
# 4 0.0000 0.0000 0.0000 40.3475 0.0000 0.0000
# 5 0.0000 0.0000 0.0000 0.0000 31.2618 0.0000
# 6 0.0000 0.0000 0.0000 0.0000 0.0000 22.1658
#
#
#
# Elastic Compliance Matrix: (Units=1/GPa)
#
#
# Indices 1 2 3 4 5 6 
#
# 1 0.010516 -0.002783 -0.002748 0.000000 0.000000 0.000000
# 2 -0.002783 0.013582 -0.001404 0.000000 0.000000 0.000000
# 3 -0.002748 -0.001404 0.012763 0.000000 0.000000 0.000000
# 4 0.000000 0.000000 0.000000 0.024785 0.000000 0.000000
# 5 0.000000 0.000000 0.000000 0.000000 0.031988 0.000000
# 6 0.000000 0.000000 0.000000 0.000000 0.000000 0.045114
#
#
# Mechanical properties :
#
#
# Convention : Reuss Voigt Hill
#
# Bulk Modulus (GPa) = 43.49288 44.96565 44.22926
# Shear Modulus (GPa) = 31.19517 32.68971 31.94244
#
# Velocity S-wave (km/s) = 3.94202 4.03535 3.98896
# Velocity P-wave (km/s) = 6.51037 6.64163 6.57633
#
# Compressibility (1/GPa) = 0.02299227
#
# Stress axis : x y z
#
# Youngs Moduli (GPa) = 95.09413 73.62683 78.34977
#
# Poissons Ratio (x) = 0.20488 0.21529
# Poissons Ratio (y) = 0.26461 0.11000
# Poissons Ratio (z) = 0.26130 0.10337
#
# Static dielectric constant tensor:
#      x y z
#    x 3.667020 0.000000 0.000000 
#    y 0.000000 3.590770 0.000000 
#    z 0.000000 0.000000 4.009300 
# 
# 
# High freq. dielectric constant tensor:
#      x y z
#    x 1.777370 0.000000 0.000000 
#    y 0.000000 1.788390 0.000000 
#    z 0.000000 0.000000 1.803190 
# 
# From -- ./inp_files/18909.got.cif
#   From: 2010.03.12/outbox.cif.g09.slc.cpg/sg20_10_cif.got.tgz:18909.got - 2010.04.14 01:38:04.
