data_PCOD8159494
_publ_section_title
;
Structure prediction by ZEFSAII (Michael W. Deem and Ramdas Pophale) SiO2 
 PCOD8159494
Probable space group: C 2 2 21
;
_chemical_formula_sum "Si O2"
_cell_formula_units_Z 52
_cell_length_a 12.412553
_cell_length_b 9.511283
_cell_length_c 20.739284
_cell_angle_alpha 90.000000
_cell_angle_beta 90.000000
_cell_angle_gamma 90.000000
_cell_volume 2448.465441
_symmetry_space_group_name_H-M "C 2 2 21"
_symmetry_group_IT_number 20
_symmetry_cell_setting 'orthorhombic'
loop_
_space_group_symop_operation_xyz
x,y,z
-x,-y,1/2+z
x,-y,-z
-x,y,1/2-z
1/2+x,1/2+y,z
1/2-x,1/2-y,1/2+z
1/2+x,1/2-y,-z
1/2-x,1/2+y,1/2-z
loop_
_atom_site_type_symbol
_atom_site_label
_atom_site_fract_x
_atom_site_fract_y
_atom_site_fract_z
Si Si1 0.150400 0.406442 0.647954
Si Si2 0.871944 0.500000 0.500000
Si Si3 0.018176 0.750681 0.067674
Si Si4 0.500000 0.942883 0.250000
Si Si5 0.275412 0.675338 0.638630
Si Si6 0.958200 0.000000 0.000000
Si Si7 0.211716 0.983390 0.604805
Si Si8 0.278930 0.177314 0.714539
O O1 0.056456 0.459157 0.696416
O O2 0.207512 0.539705 0.612213
O O3 0.247904 0.328163 0.685114
O O4 0.096695 0.291635 0.600009
O O5 0.945760 0.390524 0.534968
O O6 0.796915 0.560243 0.557202
O O7 0.099086 0.821112 0.119325
O O8 0.020947 0.854303 0.005474
O O9 0.591209 0.844545 0.216582
O O10 0.223530 0.815565 0.609394
O O11 0.271404 0.668711 0.715175
O O12 0.901264 0.993623 0.069980
O O13 0.221791 0.051627 0.674922
#
# Coordination Sequence:
#
# PCOD8159494 Si02
#       8
#     8   4   8   4   8   4   8   8
#     4  11  22  41  67  97 131 176 222 275 332 403
#     4   9  22  40  71  86 126 180 229 276 329 402
#     4  11  23  44  63  98 129 178 224 282 337 394
#     4  10  22  40  68  98 134 174 218 276 342 412
#     4  10  23  41  67  99 131 172 224 276 336 409
#     4  11  24  42  63  94 136 174 223 280 337 392
#     4  10  21  44  64  93 134 175 220 282 337 389
#     4  11  21  42  70  99 137 175 224 275 341 408
#
# _framework density 21.237791999999999
#
# number of rings (size 3 to 8) (size 9 to 14) (size 15 to 20)
#    0.000    1.538    1.538    4.615    2.154    1.231 
#    8.308    0.000    0.000    0.000    0.000    0.000 
#    0.000    0.000    0.000    0.000    0.000    0.000 
#
# Total GULP energy -322145.981992 kJ/mol
# GULP energy per Si atom -12390.230077 kJ/mol
# Density = 2.118945 g / cm^3
# Si number density = 21.237792 Si / 1000 Ang^3
#
#
#
# Elastic Constant Matrix: (Units=GPa)
#
#
# Indices 1 2 3 4 5 6 
#
# 1 94.3144 41.3671 29.1513 0.0000 0.0000 0.0000
# 2 41.3671 63.6378 20.1564 0.0000 0.0000 0.0000
# 3 29.1513 20.1564 81.8035 0.0000 0.0000 0.0000
# 4 0.0000 0.0000 0.0000 40.4622 0.0000 0.0000
# 5 0.0000 0.0000 0.0000 0.0000 11.7781 0.0000
# 6 0.0000 0.0000 0.0000 0.0000 0.0000 416.0367
#
#
#
# Elastic Compliance Matrix: (Units=1/GPa)
#
#
# Indices 1 2 3 4 5 6 
#
# 1 0.015623 -0.009102 -0.003324 0.000000 0.000000 0.000000
# 2 -0.009102 0.022348 -0.002263 0.000000 0.000000 0.000000
# 3 -0.003324 -0.002263 0.013967 0.000000 0.000000 0.000000
# 4 0.000000 0.000000 0.000000 0.024714 0.000000 0.000000
# 5 0.000000 0.000000 0.000000 0.000000 0.084904 0.000000
# 6 0.000000 0.000000 0.000000 0.000000 0.000000 0.002404
#
#
# Mechanical properties :
#
#
# Convention : Reuss Voigt Hill
#
# Bulk Modulus (GPa) = 44.33066 46.78947 45.56007
# Shear Modulus (GPa) = 24.89333 103.59414 64.24373
#
# Velocity S-wave (km/s) = 3.42734 6.99172 5.50594
# Velocity P-wave (km/s) = 6.04823 9.34119 7.86889
#
# Compressibility (1/GPa) = 0.02255775
#
# Stress axis : x y z
#
# Youngs Moduli (GPa) = 64.00911 44.74766 71.59921
#
# Poissons Ratio (x) = 0.40731 0.23803
# Poissons Ratio (y) = 0.58264 0.16201
# Poissons Ratio (z) = 0.21279 0.10125
#
# Static dielectric constant tensor:
#      x y z
#    x 3.955380 0.000000 0.000000 
#    y 0.000000 4.561240 0.000000 
#    z 0.000000 0.000000 3.179950 
# 
# 
# High freq. dielectric constant tensor:
#      x y z
#    x 1.827500 0.000000 0.000000 
#    y 0.000000 1.844500 0.000000 
#    z 0.000000 0.000000 1.830170 
# 
# From -- ./inp_files/27537.got.cif
#   From: 2010.03.12/outbox.cif.g09.slc.cpg/sg20_14_cif.got.tgz:27537.got - 2010.04.14 01:38:04.
