data_PCOD8159871
_publ_section_title
;
Structure prediction by ZEFSAII (Michael W. Deem and Ramdas Pophale) SiO2 
 PCOD8159871
Probable space group: C 2 2 21
;
_chemical_formula_sum "Si O2"
_cell_formula_units_Z 60
_cell_length_a 25.213484
_cell_length_b 11.242895
_cell_length_c 9.299248
_cell_angle_alpha 90.000000
_cell_angle_beta 90.000000
_cell_angle_gamma 90.000000
_cell_volume 2636.081573
_symmetry_space_group_name_H-M "C 2 2 21"
_symmetry_group_IT_number 20
_symmetry_cell_setting 'orthorhombic'
loop_
_space_group_symop_operation_xyz
x,y,z
-x,-y,1/2+z
x,-y,-z
-x,y,1/2-z
1/2+x,1/2+y,z
1/2-x,1/2-y,1/2+z
1/2+x,1/2-y,-z
1/2-x,1/2+y,1/2-z
loop_
_atom_site_type_symbol
_atom_site_label
_atom_site_fract_x
_atom_site_fract_y
_atom_site_fract_z
Si Si1 0.598352 0.186718 0.077924
Si Si2 0.826505 0.500000 0.000000
Si Si3 0.948886 0.068742 0.854440
Si Si4 0.749769 0.152446 0.690658
Si Si5 0.786481 0.365619 0.495350
Si Si6 0.988822 0.606362 0.583568
Si Si7 0.915768 0.665849 0.111927
Si Si8 0.861878 0.059368 0.653975
O O1 0.650540 0.123470 0.017980
O O2 0.574353 0.123129 0.222690
O O3 0.611463 0.314822 0.134958
O O4 0.553520 0.209587 0.953165
O O5 0.790422 0.440235 0.120382
O O6 0.859115 0.610695 0.067202
O O7 0.922220 0.192510 0.905546
O O8 0.902300 0.995484 0.767424
O O9 0.000000 0.086255 0.750000
O O10 0.965721 0.000000 0.000000
O O11 0.759130 0.276512 0.608190
O O12 0.803456 0.077592 0.717757
O O13 0.725061 0.192729 0.841419
O O14 0.762878 0.500000 0.500000
O O15 0.956676 0.500000 0.500000
O O16 0.000000 0.593010 0.750000
O O17 0.043292 0.609274 0.498330
O O18 0.857453 0.000000 0.500000
#
# Coordination Sequence:
#
# PCOD8159871 Si02
#       8
#     8   4   8   8   8   8   8   8
#     4  10  23  43  69  96 140 186 236 299 369 439
#     4  12  26  46  74 102 148 194 258 308 380 444
#     4  11  25  46  77 110 149 194 239 307 374 461
#     4  11  27  45  73 105 147 202 253 322 377 454
#     4  11  26  45  73 105 144 195 251 310 385 459
#     4  12  25  40  64  99 136 177 228 289 360 440
#     4  11  24  45  71 102 140 191 242 302 367 440
#     4  10  22  45  68  99 140 193 239 303 365 434
#
# _framework density 22.761054000000001
#
# number of rings (size 3 to 8) (size 9 to 14) (size 15 to 20)
#    0.000    1.067    1.333    4.400    9.333    2.133 
#    2.400    0.000    0.000    0.000    0.000    0.000 
#    0.000    0.000    0.000    0.000    0.000    0.000 
#
# Total GULP energy -371681.021536 kJ/mol
# GULP energy per Si atom -12389.367385 kJ/mol
# Density = 2.270925 g / cm^3
# Si number density = 22.761054 Si / 1000 Ang^3
#
#
#
# Elastic Constant Matrix: (Units=GPa)
#
#
# Indices 1 2 3 4 5 6 
#
# 1 135.7538 49.1096 74.8212 0.0000 0.0000 0.0000
# 2 49.1096 70.9232 47.2951 0.0000 0.0000 0.0000
# 3 74.8212 47.2951 196.7794 0.0000 0.0000 0.0000
# 4 0.0000 0.0000 0.0000 33.9965 0.0000 0.0000
# 5 0.0000 0.0000 0.0000 0.0000 50.2551 0.0000
# 6 0.0000 0.0000 0.0000 0.0000 0.0000 -2.9003
#
#
#
# Elastic Compliance Matrix: (Units=1/GPa)
#
#
# Indices 1 2 3 4 5 6 
#
# 1 0.010985 -0.005741 -0.002797 0.000000 0.000000 0.000000
# 2 -0.005741 0.019791 -0.002574 0.000000 0.000000 0.000000
# 3 -0.002797 -0.002574 0.006764 0.000000 0.000000 0.000000
# 4 0.000000 0.000000 0.000000 0.029415 0.000000 0.000000
# 5 0.000000 0.000000 0.000000 0.000000 0.019898 0.000000
# 6 0.000000 0.000000 0.000000 0.000000 0.000000 -0.344790
#
#
# Mechanical properties :
#
#
# Convention : Reuss Voigt Hill
#
# Bulk Modulus (GPa) = 65.28934 82.87868 74.08401
# Shear Modulus (GPa) = -21.68182 31.75230 5.03524
#
# Velocity S-wave (km/s) = -3.08974 3.73906 1.48897
# Velocity P-wave (km/s) = 4.00228 7.42511 5.96450
#
# Compressibility (1/GPa) = 0.01531644
#
# Stress axis : x y z
#
# Youngs Moduli (GPa) = 91.03648 50.52689 147.84391
#
# Poissons Ratio (x) = 0.29008 0.41349
# Poissons Ratio (y) = 0.52264 0.38053
# Poissons Ratio (z) = 0.25461 0.13005
#
# Static dielectric constant tensor:
#      x y z
#    x 4.490320 0.000000 0.000000 
#    y 0.000000 4.275380 0.000000 
#    z 0.000000 0.000000 4.584610 
# 
# 
# High freq. dielectric constant tensor:
#      x y z
#    x 1.911410 0.000000 0.000000 
#    y 0.000000 1.890140 0.000000 
#    z 0.000000 0.000000 1.910410 
# 
# From -- ./inp_files/11129.got.cif
#   From: 2010.03.12/outbox.cif.g09.slc.cpg/sg20_6_cif.got.tgz:11129.got - 2010.04.14 01:38:04.
