data_PCOD8159675
_publ_section_title
;
Structure prediction by ZEFSAII (Michael W. Deem and Ramdas Pophale) SiO2 
 PCOD8159675
Probable space group: C 2 2 21
;
_chemical_formula_sum "Si O2"
_cell_formula_units_Z 40
_cell_length_a 5.222027
_cell_length_b 18.969616
_cell_length_c 17.129835
_cell_angle_alpha 90.000000
_cell_angle_beta 90.000000
_cell_angle_gamma 90.000000
_cell_volume 1696.878833
_symmetry_space_group_name_H-M "C 2 2 21"
_symmetry_group_IT_number 20
_symmetry_cell_setting 'orthorhombic'
loop_
_space_group_symop_operation_xyz
x,y,z
-x,-y,1/2+z
x,-y,-z
-x,y,1/2-z
1/2+x,1/2+y,z
1/2-x,1/2-y,1/2+z
1/2+x,1/2-y,-z
1/2-x,1/2+y,1/2-z
loop_
_atom_site_type_symbol
_atom_site_label
_atom_site_fract_x
_atom_site_fract_y
_atom_site_fract_z
Si Si1 0.500000 0.433332 0.250000
Si Si2 0.538980 0.500000 0.500000
Si Si3 0.389252 0.763038 0.049362
Si Si4 0.645358 0.024633 0.149802
Si Si5 0.764830 0.677199 0.298025
Si Si6 0.767082 0.408400 0.102883
O O1 0.273383 0.482867 0.220455
O O2 0.594742 0.384655 0.177658
O O3 0.694976 0.469767 0.571473
O O4 0.389941 0.570294 0.526225
O O5 0.305015 0.718386 0.123676
O O6 0.446624 0.843244 0.078831
O O7 0.652247 0.735631 0.011603
O O8 0.600580 0.103543 0.178564
O O9 0.391574 0.982285 0.128070
O O10 0.500000 0.668478 0.250000
O O11 0.000000 0.714998 0.250000
#
# Coordination Sequence:
#
# PCOD8159675 Si02
#       6
#     4   4   8   8   8   8
#     4  10  22  40  68 100 138 176 236 302 362 434
#     4  10  24  40  72 104 144 184 246 312 372 442
#     4  12  30  51  75 109 156 204 255 313 382 465
#     4  11  23  43  69 108 141 185 248 305 374 437
#     4  12  27  48  78 110 153 203 252 314 386 459
#     4  11  25  42  73 103 144 190 246 307 376 440
#
# _framework density 23.572690999999999
#
# number of rings (size 3 to 8) (size 9 to 14) (size 15 to 20)
#    0.000    0.800    1.000    4.800   15.400    1.600 
#    0.000    0.000    0.000    0.000    0.000    0.000 
#    0.000    0.000    0.000    0.000    0.000    0.000 
#
# Total GULP energy -247858.802729 kJ/mol
# GULP energy per Si atom -12392.940136 kJ/mol
# Density = 2.351904 g / cm^3
# Si number density = 23.572691 Si / 1000 Ang^3
#
#
#
# Elastic Constant Matrix: (Units=GPa)
#
#
# Indices 1 2 3 4 5 6 
#
# 1 91.0407 12.2434 25.0010 0.0000 0.0000 0.0000
# 2 12.2434 64.6539 41.8900 0.0000 0.0000 0.0000
# 3 25.0010 41.8900 129.4653 0.0000 0.0000 0.0000
# 4 0.0000 0.0000 0.0000 15.2120 0.0000 0.0000
# 5 0.0000 0.0000 0.0000 0.0000 61.2849 0.0000
# 6 0.0000 0.0000 0.0000 0.0000 0.0000 28.3112
#
#
#
# Elastic Compliance Matrix: (Units=1/GPa)
#
#
# Indices 1 2 3 4 5 6 
#
# 1 0.011645 -0.000947 -0.001942 0.000000 0.000000 0.000000
# 2 -0.000947 0.019646 -0.006174 0.000000 0.000000 0.000000
# 3 -0.001942 -0.006174 0.010097 0.000000 0.000000 0.000000
# 4 0.000000 0.000000 0.000000 0.065738 0.000000 0.000000
# 5 0.000000 0.000000 0.000000 0.000000 0.016317 0.000000
# 6 0.000000 0.000000 0.000000 0.000000 0.000000 0.035322
#
#
# Mechanical properties :
#
#
# Convention : Reuss Voigt Hill
#
# Bulk Modulus (GPa) = 42.98869 49.26988 46.12929
# Shear Modulus (GPa) = 27.07898 34.69665 30.88782
#
# Velocity S-wave (km/s) = 3.39299 3.84070 3.62376
# Velocity P-wave (km/s) = 5.79880 6.37296 6.09264
#
# Compressibility (1/GPa) = 0.02326193
#
# Stress axis : x y z
#
# Youngs Moduli (GPa) = 85.87506 50.89973 99.04066
#
# Poissons Ratio (x) = 0.04818 0.19238
# Poissons Ratio (y) = 0.08129 0.61148
# Poissons Ratio (z) = 0.16681 0.31426
#
# Static dielectric constant tensor:
#      x y z
#    x 4.412040 0.000000 0.000000 
#    y 0.000000 4.075220 0.000000 
#    z 0.000000 0.000000 4.682200 
# 
# 
# High freq. dielectric constant tensor:
#      x y z
#    x 1.930390 0.000000 0.000000 
#    y 0.000000 1.918910 0.000000 
#    z 0.000000 0.000000 1.972100 
# 
# From -- ./inp_files/22658.got.cif
#   From: 2010.03.12/outbox.cif.g09.slc.cpg/sg20_12_cif.got.tgz:22658.got - 2010.04.14 01:38:04.
