data_PCOD8159489
_publ_section_title
;
Structure prediction by ZEFSAII (Michael W. Deem and Ramdas Pophale) SiO2 
 PCOD8159489
Probable space group: C 2 2 21
;
_chemical_formula_sum "Si O2"
_cell_formula_units_Z 40
_cell_length_a 17.241177
_cell_length_b 7.807503
_cell_length_c 11.818933
_cell_angle_alpha 90.000000
_cell_angle_beta 90.000000
_cell_angle_gamma 90.000000
_cell_volume 1590.952967
_symmetry_space_group_name_H-M "C 2 2 21"
_symmetry_group_IT_number 20
_symmetry_cell_setting 'orthorhombic'
loop_
_space_group_symop_operation_xyz
x,y,z
-x,-y,1/2+z
x,-y,-z
-x,y,1/2-z
1/2+x,1/2+y,z
1/2-x,1/2-y,1/2+z
1/2+x,1/2-y,-z
1/2-x,1/2+y,1/2-z
loop_
_atom_site_type_symbol
_atom_site_label
_atom_site_fract_x
_atom_site_fract_y
_atom_site_fract_z
Si Si1 0.109297 0.667156 0.351614
Si Si2 0.020293 0.177063 0.452379
Si Si3 0.653855 0.525660 0.308426
Si Si4 0.774804 0.500000 0.500000
Si Si5 0.000000 0.397496 0.250000
Si Si6 0.213963 0.850378 0.920826
O O1 0.043720 0.694787 0.447553
O O2 0.192901 0.629658 0.407036
O O3 0.076502 0.511253 0.276609
O O4 0.116244 0.840941 0.276598
O O5 0.099954 0.131997 0.390582
O O6 0.971588 0.278018 0.356095
O O7 0.980811 0.000000 0.500000
O O8 0.730371 0.495068 0.380930
O O9 0.672359 0.637037 0.199381
O O10 0.818770 0.318827 0.487765
O O11 0.183521 0.000000 0.000000
#
# Coordination Sequence:
#
# PCOD8159489 Si02
#       6
#     8   8   8   4   4   8
#     4  10  23  42  68  98 141 179 241 287 354 426
#     4  10  21  45  68  96 137 182 236 286 364 431
#     4  10  21  43  70 102 138 189 229 287 359 434
#     4  10  22  38  62 106 136 186 230 272 344 424
#     4  12  24  38  72 104 122 190 242 300 338 420
#     4  11  23  40  71 106 143 189 229 287 356 428
#
# _framework density 25.142163
#
# number of rings (size 3 to 8) (size 9 to 14) (size 15 to 20)
#    0.000    1.600    5.000    1.800    5.600    3.200 
#    0.000    5.000    4.400    0.000    0.000    0.000 
#    0.000    0.000    0.000    0.000    0.000    0.000 
#
# Total GULP energy -247800.866496 kJ/mol
# GULP energy per Si atom -12390.043325 kJ/mol
# Density = 2.508494 g / cm^3
# Si number density = 25.142163 Si / 1000 Ang^3
#
#
#
# Elastic Constant Matrix: (Units=GPa)
#
#
# Indices 1 2 3 4 5 6 
#
# 1 28.4516 16.7906 12.1812 0.0000 0.0000 0.0000
# 2 16.7906 197.8358 86.1446 0.0000 0.0000 0.0000
# 3 12.1812 86.1446 120.9953 0.0000 0.0000 0.0000
# 4 0.0000 0.0000 0.0000 65.4984 0.0000 0.0000
# 5 0.0000 0.0000 0.0000 0.0000 29.2848 0.0000
# 6 0.0000 0.0000 0.0000 0.0000 0.0000 171.7148
#
#
#
# Elastic Compliance Matrix: (Units=1/GPa)
#
#
# Indices 1 2 3 4 5 6 
#
# 1 0.037394 -0.002224 -0.002181 0.000000 0.000000 0.000000
# 2 -0.002224 0.007458 -0.005086 0.000000 0.000000 0.000000
# 3 -0.002181 -0.005086 0.012105 0.000000 0.000000 0.000000
# 4 0.000000 0.000000 0.000000 0.015268 0.000000 0.000000
# 5 0.000000 0.000000 0.000000 0.000000 0.034147 0.000000
# 6 0.000000 0.000000 0.000000 0.000000 0.000000 0.005824
#
#
# Mechanical properties :
#
#
# Convention : Reuss Voigt Hill
#
# Bulk Modulus (GPa) = 26.33315 64.16837 45.25076
# Shear Modulus (GPa) = 34.76171 68.77735 51.76953
#
# Velocity S-wave (km/s) = 3.72238 5.23591 4.54262
# Velocity P-wave (km/s) = 5.38249 7.88230 6.74914
#
# Compressibility (1/GPa) = 0.03797495
#
# Stress axis : x y z
#
# Youngs Moduli (GPa) = 26.74245 134.08316 82.60743
#
# Poissons Ratio (x) = 0.29818 0.18019
# Poissons Ratio (y) = 0.05947 0.42014
# Poissons Ratio (z) = 0.05833 0.68195
#
# Static dielectric constant tensor:
#      x y z
#    x 4.023860 0.000000 0.000000 
#    y 0.000000 5.724660 0.000000 
#    z 0.000000 0.000000 -0.761230 
# 
# 
# High freq. dielectric constant tensor:
#      x y z
#    x 1.964080 0.000000 0.000000 
#    y 0.000000 2.024910 0.000000 
#    z 0.000000 0.000000 2.002150 
# 
# From -- ./inp_files/16181.got.cif
#   From: 2010.03.12/outbox.cif.g09.slc.cpg/sg20_9_cif.got.tgz:16181.got - 2010.04.14 01:38:04.
