data_PCOD8159929
_publ_section_title
;
Structure prediction by ZEFSAII (Michael W. Deem and Ramdas Pophale) SiO2 
 PCOD8159929
Probable space group: C 2 2 21
;
_chemical_formula_sum "Si O2"
_cell_formula_units_Z 64
_cell_length_a 21.104405
_cell_length_b 14.988839
_cell_length_c 8.756924
_cell_angle_alpha 90.000000
_cell_angle_beta 90.000000
_cell_angle_gamma 90.000000
_cell_volume 2770.082399
_symmetry_space_group_name_H-M "C 2 2 21"
_symmetry_group_IT_number 20
_symmetry_cell_setting 'orthorhombic'
loop_
_space_group_symop_operation_xyz
x,y,z
-x,-y,1/2+z
x,-y,-z
-x,y,1/2-z
1/2+x,1/2+y,z
1/2-x,1/2-y,1/2+z
1/2+x,1/2-y,-z
1/2-x,1/2+y,1/2-z
loop_
_atom_site_type_symbol
_atom_site_label
_atom_site_fract_x
_atom_site_fract_y
_atom_site_fract_z
Si Si1 0.445752 0.924999 0.370137
Si Si2 0.218513 0.769627 0.520707
Si Si3 0.695950 0.864051 0.206825
Si Si4 0.135164 0.135051 0.261085
Si Si5 0.033059 0.103932 0.499529
Si Si6 0.703996 0.467339 0.158405
Si Si7 0.927156 0.756900 0.520448
Si Si8 0.125794 0.190223 0.733392
O O1 0.500000 0.955744 0.250000
O O2 0.376228 0.900185 0.301085
O O3 0.468948 0.829981 0.438283
O O4 0.439525 0.000000 0.500000
O O5 0.284717 0.802431 0.441745
O O6 0.216274 0.682354 0.629567
O O7 0.193697 0.850183 0.624809
O O8 0.169313 0.753916 0.382217
O O9 0.740489 0.953192 0.214414
O O10 0.069025 0.130532 0.346742
O O11 0.128336 0.220401 0.145800
O O12 0.150649 0.041038 0.189002
O O13 0.071581 0.133993 0.648563
O O14 0.966535 0.152739 0.490767
O O15 0.019224 0.000000 0.500000
O O16 0.665239 0.375026 0.155522
O O17 0.735609 0.500000 0.000000
O O18 0.901387 0.736511 0.350486
#
# Coordination Sequence:
#
# PCOD8159929 Si02
#       8
#     8   8   8   8   8   8   8   8
#     4  12  31  59  81 107 147 201 280 342 387 441
#     4  10  25  43  74 107 151 190 251 308 383 467
#     4  11  27  49  77 114 147 201 252 315 398 461
#     4  11  22  41  67 101 158 189 237 310 375 458
#     4  11  23  37  63 107 154 209 243 291 356 468
#     4  11  23  40  68 108 152 191 236 299 381 461
#     4  12  25  44  73 104 150 202 253 300 382 450
#     4  10  23  41  64 107 153 199 244 297 362 452
#
# _framework density 23.104005999999998
#
# number of rings (size 3 to 8) (size 9 to 14) (size 15 to 20)
#    0.000    1.000    3.750    1.500   10.500    2.500 
#    2.250    0.000    0.000    0.000    0.000    0.000 
#    0.000    0.000    0.000    0.000    0.000    0.000 
#
# Total GULP energy -396420.006813 kJ/mol
# GULP energy per Si atom -12388.125213 kJ/mol
# Density = 2.305142 g / cm^3
# Si number density = 23.104006 Si / 1000 Ang^3
#
#
#
# Elastic Constant Matrix: (Units=GPa)
#
#
# Indices 1 2 3 4 5 6 
#
# 1 120.3796 28.5698 53.3638 0.0000 0.0000 0.0000
# 2 28.5698 94.8282 48.4904 0.0000 0.0000 0.0000
# 3 53.3638 48.4904 128.9268 0.0000 0.0000 0.0000
# 4 0.0000 0.0000 0.0000 33.6955 0.0000 0.0000
# 5 0.0000 0.0000 0.0000 0.0000 46.7804 0.0000
# 6 0.0000 0.0000 0.0000 0.0000 0.0000 48.0149
#
#
#
# Elastic Compliance Matrix: (Units=1/GPa)
#
#
# Indices 1 2 3 4 5 6 
#
# 1 0.010272 -0.001140 -0.003823 0.000000 0.000000 0.000000
# 2 -0.001140 0.013183 -0.004486 0.000000 0.000000 0.000000
# 3 -0.003823 -0.004486 0.011026 0.000000 0.000000 0.000000
# 4 0.000000 0.000000 0.000000 0.029678 0.000000 0.000000
# 5 0.000000 0.000000 0.000000 0.000000 0.021376 0.000000
# 6 0.000000 0.000000 0.000000 0.000000 0.000000 0.020827
#
#
# Mechanical properties :
#
#
# Convention : Reuss Voigt Hill
#
# Bulk Modulus (GPa) = 64.17400 67.22027 65.69714
# Shear Modulus (GPa) = 38.32732 39.94552 39.13642
#
# Velocity S-wave (km/s) = 4.07738 4.16257 4.12020
# Velocity P-wave (km/s) = 7.07129 7.22914 7.15065
#
# Compressibility (1/GPa) = 0.01558263
#
# Stress axis : x y z
#
# Youngs Moduli (GPa) = 97.34874 75.85566 90.69389
#
# Poissons Ratio (x) = 0.08647 0.34673
# Poissons Ratio (y) = 0.11097 0.40689
# Poissons Ratio (z) = 0.37217 0.34032
#
# Static dielectric constant tensor:
#      x y z
#    x 4.234060 0.000000 0.000000 
#    y 0.000000 3.870320 0.000000 
#    z 0.000000 0.000000 4.556270 
# 
# 
# High freq. dielectric constant tensor:
#      x y z
#    x 1.920780 0.000000 0.000000 
#    y 0.000000 1.899150 0.000000 
#    z 0.000000 0.000000 1.923490 
# 
# From -- ./inp_files/10790.got.cif
#   From: 2010.03.12/outbox.cif.g09.slc.cpg/sg20_6_cif.got.tgz:10790.got - 2010.04.14 01:38:04.
