data_PCOD8159334
_publ_section_title
;
Structure prediction by ZEFSAII (Michael W. Deem and Ramdas Pophale) SiO2 
 PCOD8159334
Probable space group: C 2 2 21
;
_chemical_formula_sum "Si O2"
_cell_formula_units_Z 28
_cell_length_a 8.089428
_cell_length_b 31.168644
_cell_length_c 4.975383
_cell_angle_alpha 90.000000
_cell_angle_beta 90.000000
_cell_angle_gamma 90.000000
_cell_volume 1254.475663
_symmetry_space_group_name_H-M "C 2 2 21"
_symmetry_group_IT_number 20
_symmetry_cell_setting 'orthorhombic'
loop_
_space_group_symop_operation_xyz
x,y,z
-x,-y,1/2+z
x,-y,-z
-x,y,1/2-z
1/2+x,1/2+y,z
1/2-x,1/2-y,1/2+z
1/2+x,1/2-y,-z
1/2-x,1/2+y,1/2-z
loop_
_atom_site_type_symbol
_atom_site_label
_atom_site_fract_x
_atom_site_fract_y
_atom_site_fract_z
Si Si1 0.304438 0.369122 0.742661
Si Si2 0.304498 0.578406 0.761351
Si Si3 0.190084 0.773726 0.829476
Si Si4 0.894747 0.500000 0.500000
O O1 0.500000 0.366913 0.750000
O O2 0.242218 0.404506 0.526967
O O3 0.234572 0.321834 0.680107
O O4 0.247664 0.384254 0.035192
O O5 0.500000 0.569807 0.750000
O O6 0.217785 0.534989 0.851962
O O7 0.294576 0.743549 0.631539
O O8 0.000000 0.773302 0.750000
O O9 0.000000 0.480374 0.750000
#
# Coordination Sequence:
#
# PCOD8159334 Si02
#       4
#     8   8   8   4
#     4   9  19  37  62  88 116 154 206 254 289 338
#     4  10  21  40  65  87 111 159 213 246 282 356
#     4  11  22  39  62  91 125 161 201 250 302 355
#     4  12  26  42  60  92 132 158 184 248 324 364
#
# _framework density 22.320083
#
# number of rings (size 3 to 8) (size 9 to 14) (size 15 to 20)
#    0.000    1.714    0.000    4.286    0.000    9.143 
#    0.000   14.286    0.000    0.000    0.000    0.000 
#    0.000    0.000    0.000    0.000    0.000    0.000 
#
# Total GULP energy -173561.749531 kJ/mol
# GULP energy per Si atom -12397.267824 kJ/mol
# Density = 2.226928 g / cm^3
# Si number density = 22.320083 Si / 1000 Ang^3
#
#
#
# Elastic Constant Matrix: (Units=GPa)
#
#
# Indices 1 2 3 4 5 6 
#
# 1 52.9796 35.9586 26.0174 0.0000 0.0000 0.0000
# 2 35.9586 152.5426 37.7963 0.0000 0.0000 0.0000
# 3 26.0174 37.7963 122.3990 0.0000 0.0000 0.0000
# 4 0.0000 0.0000 0.0000 43.8402 0.0000 0.0000
# 5 0.0000 0.0000 0.0000 0.0000 31.9062 0.0000
# 6 0.0000 0.0000 0.0000 0.0000 0.0000 10.6632
#
#
#
# Elastic Compliance Matrix: (Units=1/GPa)
#
#
# Indices 1 2 3 4 5 6 
#
# 1 0.023858 -0.004729 -0.003611 0.000000 0.000000 0.000000
# 2 -0.004729 0.008036 -0.001476 0.000000 0.000000 0.000000
# 3 -0.003611 -0.001476 0.009393 0.000000 0.000000 0.000000
# 4 0.000000 0.000000 0.000000 0.022810 0.000000 0.000000
# 5 0.000000 0.000000 0.000000 0.000000 0.031342 0.000000
# 6 0.000000 0.000000 0.000000 0.000000 0.000000 0.093780
#
#
# Mechanical properties :
#
#
# Convention : Reuss Voigt Hill
#
# Bulk Modulus (GPa) = 46.17914 58.60729 52.39321
# Shear Modulus (GPa) = 23.14047 32.49185 27.81616
#
# Velocity S-wave (km/s) = 3.22336 3.81953 3.53404
# Velocity P-wave (km/s) = 5.88114 6.76509 6.33854
#
# Compressibility (1/GPa) = 0.02165480
#
# Stress axis : x y z
#
# Youngs Moduli (GPa) = 41.91386 124.43730 106.45750
#
# Poissons Ratio (x) = 0.58851 0.38442
# Poissons Ratio (y) = 0.19823 0.15716
# Poissons Ratio (z) = 0.15135 0.18370
#
# Static dielectric constant tensor:
#      x y z
#    x 3.793480 0.000000 0.000000 
#    y 0.000000 4.135640 0.000000 
#    z 0.000000 0.000000 4.769110 
# 
# 
# High freq. dielectric constant tensor:
#      x y z
#    x 1.853640 0.000000 0.000000 
#    y 0.000000 1.884610 0.000000 
#    z 0.000000 0.000000 1.899940 
# 
# From -- ./inp_files/440.got.cif
#   From: 2010.03.12/outbox.cif.g09.slc.cpg/sg20_1_cif.got.tgz:440.got - 2010.04.14 01:38:04.
