data_PCOD8159992
_publ_section_title
;
Structure prediction by ZEFSAII (Michael W. Deem and Ramdas Pophale) SiO2 
 PCOD8159992
Probable space group: C 2 2 21
;
_chemical_formula_sum "Si O2"
_cell_formula_units_Z 40
_cell_length_a 18.237288
_cell_length_b 15.009007
_cell_length_c 6.891070
_cell_angle_alpha 90.000000
_cell_angle_beta 90.000000
_cell_angle_gamma 90.000000
_cell_volume 1886.248373
_symmetry_space_group_name_H-M "C 2 2 21"
_symmetry_group_IT_number 20
_symmetry_cell_setting 'orthorhombic'
loop_
_space_group_symop_operation_xyz
x,y,z
-x,-y,1/2+z
x,-y,-z
-x,y,1/2-z
1/2+x,1/2+y,z
1/2-x,1/2-y,1/2+z
1/2+x,1/2-y,-z
1/2-x,1/2+y,1/2-z
loop_
_atom_site_type_symbol
_atom_site_label
_atom_site_fract_x
_atom_site_fract_y
_atom_site_fract_z
Si Si1 0.423151 0.249948 0.487914
Si Si2 0.028920 0.395944 0.460692
Si Si3 0.170047 0.696887 0.645418
Si Si4 0.819950 0.836718 0.180593
Si Si5 0.107956 0.000000 0.500000
Si Si6 0.000000 0.112546 0.250000
O O1 0.473013 0.165532 0.412842
O O2 0.364418 0.226177 0.651672
O O3 0.382910 0.286700 0.299727
O O4 0.475732 0.326724 0.569940
O O5 0.017933 0.500000 0.500000
O O6 0.114662 0.368414 0.473498
O O7 0.000000 0.371316 0.250000
O O8 0.191418 0.781781 0.516857
O O9 0.246218 0.648945 0.694898
O O10 0.841633 0.935612 0.124837
O O11 0.062750 0.949089 0.664215
#
# Coordination Sequence:
#
# PCOD8159992 Si02
#       6
#     8   8   8   8   4   4
#     4  11  22  45  74  94 141 181 225 286 350 406
#     4  10  23  43  66 102 132 171 235 285 328 414
#     4  11  23  46  66  96 140 183 229 275 348 412
#     4  12  25  45  72  99 138 192 222 286 349 413
#     4  12  26  42  72 108 136 174 244 282 350 414
#     4  12  22  46  68 106 138 170 232 296 344 420
#
# _framework density 21.206115
#
# number of rings (size 3 to 8) (size 9 to 14) (size 15 to 20)
#    0.000    0.800    7.000    1.200    2.800    1.600 
#   14.400    0.000    0.000    0.000    0.000    0.000 
#    0.000    0.000    0.000    0.000    0.000    0.000 
#
# Total GULP energy -247989.258601 kJ/mol
# GULP energy per Si atom -12399.462930 kJ/mol
# Density = 2.115785 g / cm^3
# Si number density = 21.206115 Si / 1000 Ang^3
#
#
#
# Elastic Constant Matrix: (Units=GPa)
#
#
# Indices 1 2 3 4 5 6 
#
# 1 156.9139 87.9721 42.2885 0.0000 0.0000 0.0000
# 2 87.9721 156.7162 39.8393 0.0000 0.0000 0.0000
# 3 42.2885 39.8393 65.6961 0.0000 0.0000 0.0000
# 4 0.0000 0.0000 0.0000 19.7586 0.0000 0.0000
# 5 0.0000 0.0000 0.0000 0.0000 37.6669 0.0000
# 6 0.0000 0.0000 0.0000 0.0000 0.0000 34.9458
#
#
#
# Elastic Compliance Matrix: (Units=1/GPa)
#
#
# Indices 1 2 3 4 5 6 
#
# 1 0.009961 -0.004684 -0.003572 0.000000 0.000000 0.000000
# 2 -0.004684 0.009746 -0.002895 0.000000 0.000000 0.000000
# 3 -0.003572 -0.002895 0.019277 0.000000 0.000000 0.000000
# 4 0.000000 0.000000 0.000000 0.050611 0.000000 0.000000
# 5 0.000000 0.000000 0.000000 0.000000 0.026549 0.000000
# 6 0.000000 0.000000 0.000000 0.000000 0.000000 0.028616
#
#
# Mechanical properties :
#
#
# Convention : Reuss Voigt Hill
#
# Bulk Modulus (GPa) = 59.94371 79.94734 69.94552
# Shear Modulus (GPa) = 28.96498 32.42267 30.69382
#
# Velocity S-wave (km/s) = 3.69979 3.91440 3.80860
# Velocity P-wave (km/s) = 6.82494 7.62968 7.23850
#
# Compressibility (1/GPa) = 0.01668232
#
# Stress axis : x y z
#
# Youngs Moduli (GPa) = 100.38663 102.60357 51.87644
#
# Poissons Ratio (x) = 0.48058 0.18529
# Poissons Ratio (y) = 0.47020 0.15020
# Poissons Ratio (z) = 0.35856 0.29707
#
# Static dielectric constant tensor:
#      x y z
#    x 4.062660 0.000000 0.000000 
#    y 0.000000 3.863700 0.000000 
#    z 0.000000 0.000000 3.814950 
# 
# 
# High freq. dielectric constant tensor:
#      x y z
#    x 1.840700 0.000000 0.000000 
#    y 0.000000 1.828910 0.000000 
#    z 0.000000 0.000000 1.841220 
# 
# From -- ./inp_files/9247.got.cif
#   From: 2010.03.12/outbox.cif.g09.slc.cpg/sg20_5_cif.got.tgz:9247.got - 2010.04.14 01:38:04.
