data_PCOD8159020
_publ_section_title
;
Structure prediction by ZEFSAII (Michael W. Deem and Ramdas Pophale) SiO2 
 PCOD8159020
Probable space group: C 2 2 21
;
_chemical_formula_sum "Si O2"
_cell_formula_units_Z 60
_cell_length_a 12.176819
_cell_length_b 11.656080
_cell_length_c 19.365415
_cell_angle_alpha 90.000000
_cell_angle_beta 90.000000
_cell_angle_gamma 90.000000
_cell_volume 2748.610356
_symmetry_space_group_name_H-M "C 2 2 21"
_symmetry_group_IT_number 20
_symmetry_cell_setting 'orthorhombic'
loop_
_space_group_symop_operation_xyz
x,y,z
-x,-y,1/2+z
x,-y,-z
-x,y,1/2-z
1/2+x,1/2+y,z
1/2-x,1/2-y,1/2+z
1/2+x,1/2-y,-z
1/2-x,1/2+y,1/2-z
loop_
_atom_site_type_symbol
_atom_site_label
_atom_site_fract_x
_atom_site_fract_y
_atom_site_fract_z
Si Si1 0.994883 0.878628 0.497770
Si Si2 0.348068 0.183421 0.544493
Si Si3 0.303505 0.318692 0.922777
Si Si4 0.604221 0.086981 0.297985
Si Si5 0.000000 0.776643 0.750000
Si Si6 0.314671 0.441408 0.786241
Si Si7 0.950371 0.620363 0.882287
Si Si8 0.369093 0.669348 0.865394
O O1 0.103096 0.898753 0.544454
O O2 0.031215 0.835951 0.421154
O O3 0.909995 0.803861 0.540729
O O4 0.934086 0.000000 0.500000
O O5 0.306037 0.162702 0.467169
O O6 0.443695 0.096447 0.568749
O O7 0.247820 0.181706 0.597495
O O8 0.270389 0.363233 0.848351
O O9 0.351434 0.188075 0.921525
O O10 0.500000 0.070232 0.250000
O O11 0.710055 0.033274 0.260550
O O12 0.614808 0.219201 0.318397
O O13 0.591685 0.005943 0.364578
O O14 0.897765 0.863327 0.741990
O O15 0.990145 0.696534 0.817021
O O16 0.369051 0.559279 0.814504
#
# Coordination Sequence:
#
# PCOD8159020 Si02
#       8
#     8   8   8   8   4   8   8   8
#     4  10  20  42  64  93 129 167 224 275 330 396
#     4  10  22  41  69  93 131 177 218 273 337 399
#     4   9  21  40  66  97 118 172 225 272 323 396
#     4  12  27  42  65 101 142 177 215 281 342 405
#     4  10  22  44  72  94 126 184 230 270 332 392
#     4  11  24  43  69  94 134 175 228 277 325 404
#     4  10  21  44  68  96 133 174 227 268 339 410
#     4  11  25  43  62 103 130 169 228 271 337 403
#
# _framework density 21.829212999999999
#
# number of rings (size 3 to 8) (size 9 to 14) (size 15 to 20)
#    0.000    1.600    2.000    1.600    6.533    1.067 
#    4.800    4.667    0.000    0.000    0.000    0.000 
#    0.000    0.000    0.000    0.000    0.000    0.000 
#
# Total GULP energy -371854.517506 kJ/mol
# GULP energy per Si atom -12395.150584 kJ/mol
# Density = 2.177953 g / cm^3
# Si number density = 21.829213 Si / 1000 Ang^3
#
#
#
# Elastic Constant Matrix: (Units=GPa)
#
#
# Indices 1 2 3 4 5 6 
#
# 1 79.0663 21.4790 21.6484 0.0000 0.0000 0.0000
# 2 21.4790 84.5523 10.9174 0.0000 0.0000 0.0000
# 3 21.6484 10.9174 60.8460 0.0000 0.0000 0.0000
# 4 0.0000 0.0000 0.0000 26.3710 0.0000 0.0000
# 5 0.0000 0.0000 0.0000 0.0000 35.5834 0.0000
# 6 0.0000 0.0000 0.0000 0.0000 0.0000 7.8840
#
#
#
# Elastic Compliance Matrix: (Units=1/GPa)
#
#
# Indices 1 2 3 4 5 6 
#
# 1 0.014789 -0.003151 -0.004697 0.000000 0.000000 0.000000
# 2 -0.003151 0.012779 -0.001172 0.000000 0.000000 0.000000
# 3 -0.004697 -0.001172 0.018316 0.000000 0.000000 0.000000
# 4 0.000000 0.000000 0.000000 0.037920 0.000000 0.000000
# 5 0.000000 0.000000 0.000000 0.000000 0.028103 0.000000
# 6 0.000000 0.000000 0.000000 0.000000 0.000000 0.126839
#
#
# Mechanical properties :
#
#
# Convention : Reuss Voigt Hill
#
# Bulk Modulus (GPa) = 35.91163 36.95045 36.43104
# Shear Modulus (GPa) = 18.79224 25.32900 22.06062
#
# Velocity S-wave (km/s) = 2.93725 3.41005 3.18244
# Velocity P-wave (km/s) = 5.29057 5.69811 5.49812
#
# Compressibility (1/GPa) = 0.02784613
#
# Stress axis : x y z
#
# Youngs Moduli (GPa) = 67.61580 78.25547 54.59640
#
# Poissons Ratio (x) = 0.24655 0.25642
# Poissons Ratio (y) = 0.21303 0.06398
# Poissons Ratio (z) = 0.31757 0.09171
#
# Static dielectric constant tensor:
#      x y z
#    x 4.187580 0.000000 0.000000 
#    y 0.000000 3.923050 0.000000 
#    z 0.000000 0.000000 4.051350 
# 
# 
# High freq. dielectric constant tensor:
#      x y z
#    x 1.856320 0.000000 0.000000 
#    y 0.000000 1.859650 0.000000 
#    z 0.000000 0.000000 1.858960 
# 
# From -- ./inp_files/27252.got.cif
#   From: 2010.03.12/outbox.cif.g09.slc.cpg/sg20_14_cif.got.tgz:27252.got - 2010.04.14 01:38:04.
