data_PCOD8159051
_publ_section_title
;
Structure prediction by ZEFSAII (Michael W. Deem and Ramdas Pophale) SiO2 
 PCOD8159051
Probable space group: C 2 2 21
;
_chemical_formula_sum "Si O2"
_cell_formula_units_Z 48
_cell_length_a 12.107141
_cell_length_b 13.057088
_cell_length_c 15.158588
_cell_angle_alpha 90.000000
_cell_angle_beta 90.000000
_cell_angle_gamma 90.000000
_cell_volume 2396.330308
_symmetry_space_group_name_H-M "C 2 2 21"
_symmetry_group_IT_number 20
_symmetry_cell_setting 'orthorhombic'
loop_
_space_group_symop_operation_xyz
x,y,z
-x,-y,1/2+z
x,-y,-z
-x,y,1/2-z
1/2+x,1/2+y,z
1/2-x,1/2-y,1/2+z
1/2+x,1/2-y,-z
1/2-x,1/2+y,1/2-z
loop_
_atom_site_type_symbol
_atom_site_label
_atom_site_fract_x
_atom_site_fract_y
_atom_site_fract_z
Si Si1 0.231032 0.392220 0.271820
Si Si2 0.747492 0.244025 0.381040
Si Si3 0.404463 0.568117 0.319747
Si Si4 0.500000 0.006593 0.750000
Si Si5 0.898000 0.000000 0.500000
Si Si6 0.491617 0.187140 0.154293
Si Si7 0.814900 0.792877 0.436947
O O1 0.259462 0.347350 0.175849
O O2 0.313933 0.486461 0.287074
O O3 0.103779 0.424425 0.275017
O O4 0.244739 0.302832 0.346573
O O5 0.845560 0.175506 0.339893
O O6 0.633437 0.182687 0.377940
O O7 0.764078 0.276047 0.484221
O O8 0.500000 0.586914 0.250000
O O9 0.464637 0.525717 0.409885
O O10 0.468603 0.931213 0.667507
O O11 0.818608 0.095189 0.519599
O O12 0.500000 0.244679 0.250000
O O13 0.564900 0.246895 0.083693
#
# Coordination Sequence:
#
# PCOD8159051 Si02
#       7
#     8   8   8   4   4   8   8
#     4  11  22  40  65  91 126 171 217 264 323 383
#     4  11  23  41  63  96 126 168 219 263 330 385
#     4  10  21  40  64  90 124 160 211 269 311 382
#     4  10  22  40  68  94 128 174 218 260 338 390
#     4   8  20  36  60  94 116 158 216 242 322 382
#     4  10  20  43  68  86 129 174 214 262 325 399
#     4  10  22  40  65  92 123 172 215 265 321 384
#
# _framework density 20.030626999999999
#
# number of rings (size 3 to 8) (size 9 to 14) (size 15 to 20)
#    0.500    1.333    3.333    0.000    5.833    1.333 
#    3.000    2.500    0.000    0.000    0.000    0.000 
#    0.000    0.000    0.000    0.000    0.000    0.000 
#
# Total GULP energy -297369.850352 kJ/mol
# GULP energy per Si atom -12390.410431 kJ/mol
# Density = 1.998504 g / cm^3
# Si number density = 20.030627 Si / 1000 Ang^3
#
#
#
# Elastic Constant Matrix: (Units=GPa)
#
#
# Indices 1 2 3 4 5 6 
#
# 1 123.2957 21.0083 55.4704 0.0000 0.0000 0.0000
# 2 21.0083 51.4036 21.4661 0.0000 0.0000 0.0000
# 3 55.4704 21.4661 120.6837 0.0000 0.0000 0.0000
# 4 0.0000 0.0000 0.0000 28.4543 0.0000 0.0000
# 5 0.0000 0.0000 0.0000 0.0000 35.4953 0.0000
# 6 0.0000 0.0000 0.0000 0.0000 0.0000 25.1628
#
#
#
# Elastic Compliance Matrix: (Units=1/GPa)
#
#
# Indices 1 2 3 4 5 6 
#
# 1 0.010505 -0.002460 -0.004391 0.000000 0.000000 0.000000
# 2 -0.002460 0.021591 -0.002710 0.000000 0.000000 0.000000
# 3 -0.004391 -0.002710 0.010786 0.000000 0.000000 0.000000
# 4 0.000000 0.000000 0.000000 0.035144 0.000000 0.000000
# 5 0.000000 0.000000 0.000000 0.000000 0.028173 0.000000
# 6 0.000000 0.000000 0.000000 0.000000 0.000000 0.039741
#
#
# Mechanical properties :
#
#
# Convention : Reuss Voigt Hill
#
# Bulk Modulus (GPa) = 42.08529 54.58584 48.33556
# Shear Modulus (GPa) = 28.90475 30.98502 29.94489
#
# Velocity S-wave (km/s) = 3.80284 3.93731 3.87066
# Velocity P-wave (km/s) = 6.35124 6.92678 6.64524
#
# Compressibility (1/GPa) = 0.02376127
#
# Stress axis : x y z
#
# Youngs Moduli (GPa) = 95.19092 46.31607 92.70945
#
# Poissons Ratio (x) = 0.11392 0.40709
# Poissons Ratio (y) = 0.23414 0.25122
# Poissons Ratio (z) = 0.41799 0.12551
#
# Static dielectric constant tensor:
#      x y z
#    x 3.314430 0.000000 0.000000 
#    y 0.000000 3.497540 0.000000 
#    z 0.000000 0.000000 4.100000 
# 
# 
# High freq. dielectric constant tensor:
#      x y z
#    x 1.760830 0.000000 0.000000 
#    y 0.000000 1.769060 0.000000 
#    z 0.000000 0.000000 1.792600 
# 
# From -- ./inp_files/19967.got.cif
#   From: 2010.03.12/outbox.cif.g09.slc.cpg/sg20_10_cif.got.tgz:19967.got - 2010.04.14 01:38:04.
