data_PCOD8159462
_publ_section_title
;
Structure prediction by ZEFSAII (Michael W. Deem and Ramdas Pophale) SiO2 
 PCOD8159462
Probable space group: C 2 2 21
;
_chemical_formula_sum "Si O2"
_cell_formula_units_Z 64
_cell_length_a 18.920366
_cell_length_b 15.912030
_cell_length_c 10.036165
_cell_angle_alpha 90.000000
_cell_angle_beta 90.000000
_cell_angle_gamma 90.000000
_cell_volume 3021.502201
_symmetry_space_group_name_H-M "C 2 2 21"
_symmetry_group_IT_number 20
_symmetry_cell_setting 'orthorhombic'
loop_
_space_group_symop_operation_xyz
x,y,z
-x,-y,1/2+z
x,-y,-z
-x,y,1/2-z
1/2+x,1/2+y,z
1/2-x,1/2-y,1/2+z
1/2+x,1/2-y,-z
1/2-x,1/2+y,1/2-z
loop_
_atom_site_type_symbol
_atom_site_label
_atom_site_fract_x
_atom_site_fract_y
_atom_site_fract_z
Si Si1 0.010578 0.720212 0.892709
Si Si2 0.995185 0.062845 0.895149
Si Si3 0.283583 0.990727 0.344025
Si Si4 0.946128 0.468078 0.355283
Si Si5 0.388954 0.696428 0.978432
Si Si6 0.718828 0.687265 0.746389
Si Si7 0.378788 0.658743 0.505109
Si Si8 0.193491 0.147340 0.269401
O O1 0.934369 0.723506 0.968114
O O2 0.000000 0.767867 0.750000
O O3 0.040181 0.630048 0.858427
O O4 0.070687 0.761877 0.982209
O O5 0.074685 0.082949 0.939416
O O6 0.000000 0.020971 0.750000
O O7 0.943394 0.141927 0.890916
O O8 0.960265 0.000000 0.000000
O O9 0.366585 0.988437 0.310768
O O10 0.248310 0.905065 0.289753
O O11 0.269971 0.000000 0.500000
O O12 0.252780 0.074819 0.276836
O O13 0.965080 0.500000 0.500000
O O14 0.000000 0.510991 0.250000
O O15 0.357513 0.643061 0.102034
O O16 0.328780 0.723372 0.874597
O O17 0.679924 0.683921 0.887747
O O18 0.779066 0.756724 0.764002
O O19 0.346409 0.627405 0.366912
#
# Coordination Sequence:
#
# PCOD8159462 Si02
#       8
#     8   8   8   8   8   8   8   8
#     4  10  21  42  71  97 137 187 239 283 354 426
#     4  11  26  42  67  99 140 179 231 283 350 421
#     4  11  26  46  74 103 143 199 235 284 370 440
#     4  10  24  46  72  97 137 181 239 299 342 417
#     4  11  24  43  69 102 135 192 228 289 354 429
#     4  12  26  45  70 107 146 180 241 296 357 431
#     4  11  25  42  67 101 139 177 233 295 347 409
#     4  12  26  44  74 102 142 193 235 290 360 436
#
# _framework density 21.181518000000001
#
# number of rings (size 3 to 8) (size 9 to 14) (size 15 to 20)
#    0.000    1.000    3.750    1.500   10.500    1.000 
#    2.250    0.000    0.000    0.000    0.000    0.000 
#    0.000    0.000    0.000    0.000    0.000    0.000 
#
# Total GULP energy -396718.889858 kJ/mol
# GULP energy per Si atom -12397.465308 kJ/mol
# Density = 2.113331 g / cm^3
# Si number density = 21.181518 Si / 1000 Ang^3
#
#
#
# Elastic Constant Matrix: (Units=GPa)
#
#
# Indices 1 2 3 4 5 6 
#
# 1 111.5828 30.0358 56.5171 0.0000 0.0000 0.0000
# 2 30.0358 85.4851 19.9653 0.0000 0.0000 0.0000
# 3 56.5171 19.9653 148.5525 0.0000 0.0000 0.0000
# 4 0.0000 0.0000 0.0000 27.0961 0.0000 0.0000
# 5 0.0000 0.0000 0.0000 0.0000 55.9141 0.0000
# 6 0.0000 0.0000 0.0000 0.0000 0.0000 32.0674
#
#
#
# Elastic Compliance Matrix: (Units=1/GPa)
#
#
# Indices 1 2 3 4 5 6 
#
# 1 0.011905 -0.003226 -0.004096 0.000000 0.000000 0.000000
# 2 -0.003226 0.012951 -0.000513 0.000000 0.000000 0.000000
# 3 -0.004096 -0.000513 0.008359 0.000000 0.000000 0.000000
# 4 0.000000 0.000000 0.000000 0.036906 0.000000 0.000000
# 5 0.000000 0.000000 0.000000 0.000000 0.017885 0.000000
# 6 0.000000 0.000000 0.000000 0.000000 0.000000 0.031184
#
#
# Mechanical properties :
#
#
# Convention : Reuss Voigt Hill
#
# Bulk Modulus (GPa) = 56.99700 62.07299 59.53499
# Shear Modulus (GPa) = 35.53455 38.95567 37.24511
#
# Velocity S-wave (km/s) = 4.10032 4.29317 4.19785
# Velocity P-wave (km/s) = 7.02738 7.34465 7.18777
#
# Compressibility (1/GPa) = 0.01754478
#
# Stress axis : x y z
#
# Youngs Moduli (GPa) = 83.99932 77.21173 119.63462
#
# Poissons Ratio (x) = 0.24911 0.48998
# Poissons Ratio (y) = 0.27101 0.06140
# Poissons Ratio (z) = 0.34403 0.03962
#
# Static dielectric constant tensor:
#      x y z
#    x 4.032140 0.000000 0.000000 
#    y 0.000000 1.848930 0.000000 
#    z 0.000000 0.000000 3.836150 
# 
# 
# High freq. dielectric constant tensor:
#      x y z
#    x 1.843770 0.000000 0.000000 
#    y 0.000000 1.814090 0.000000 
#    z 0.000000 0.000000 1.847980 
# 
# From -- ./inp_files/15899.got.cif
#   From: 2010.03.12/outbox.cif.g09.slc.cpg/sg20_8_cif.got.tgz:15899.got - 2010.04.14 01:38:04.
