data_PCOD8159454
_publ_section_title
;
Structure prediction by ZEFSAII (Michael W. Deem and Ramdas Pophale) SiO2 
 PCOD8159454
Probable space group: C 2 2 21
;
_chemical_formula_sum "Si O2"
_cell_formula_units_Z 56
_cell_length_a 15.985394
_cell_length_b 8.172659
_cell_length_c 18.981568
_cell_angle_alpha 90.000000
_cell_angle_beta 90.000000
_cell_angle_gamma 90.000000
_cell_volume 2479.812294
_symmetry_space_group_name_H-M "C 2 2 21"
_symmetry_group_IT_number 20
_symmetry_cell_setting 'orthorhombic'
loop_
_space_group_symop_operation_xyz
x,y,z
-x,-y,1/2+z
x,-y,-z
-x,y,1/2-z
1/2+x,1/2+y,z
1/2-x,1/2-y,1/2+z
1/2+x,1/2-y,-z
1/2-x,1/2+y,1/2-z
loop_
_atom_site_type_symbol
_atom_site_label
_atom_site_fract_x
_atom_site_fract_y
_atom_site_fract_z
Si Si1 0.133007 0.323504 0.618655
Si Si2 0.977894 0.155490 0.670880
Si Si3 0.944712 0.220519 0.315389
Si Si4 0.794359 0.763798 0.350599
Si Si5 0.182754 0.188104 0.480682
Si Si6 0.732756 0.613224 0.221355
Si Si7 0.036270 0.611050 0.567105
O O1 0.193577 0.291079 0.552275
O O2 0.187704 0.295436 0.687870
O O3 0.100145 0.508612 0.615335
O O4 0.053777 0.202251 0.619434
O O5 0.894924 0.250023 0.643728
O O6 0.000000 0.212701 0.750000
O O7 0.970865 0.962299 0.665161
O O8 0.848218 0.224196 0.293743
O O9 0.000000 0.286082 0.250000
O O10 0.958050 0.334496 0.384455
O O11 0.754700 0.751850 0.427927
O O12 0.752603 0.616262 0.305072
O O13 0.775091 0.932742 0.309882
O O14 0.088504 0.226667 0.453790
O O15 0.193667 0.000000 0.500000
O O16 0.006873 0.500000 0.500000
#
# Coordination Sequence:
#
# PCOD8159454 Si02
#       7
#     8   8   8   8   8   8   8
#     4  11  23  43  66  95 137 179 220 287 337 402
#     4  10  21  42  70 102 139 177 231 285 348 404
#     4  10  22  40  65 100 133 174 227 279 338 412
#     4  11  24  43  70 105 134 183 229 287 344 419
#     4  11  24  43  68  96 139 182 225 277 348 420
#     4  11  24  41  71  99 136 175 229 286 344 399
#     4  10  22  43  67  91 134 178 226 274 344 398
#
# _framework density 22.582353000000001
#
# number of rings (size 3 to 8) (size 9 to 14) (size 15 to 20)
#    0.000    1.429    2.857    1.714    2.000    1.714 
#    5.143    0.000    0.000    0.000    0.000    0.000 
#    0.000    0.000    0.000    0.000    0.000    0.000 
#
# Total GULP energy -347157.361301 kJ/mol
# GULP energy per Si atom -12398.477189 kJ/mol
# Density = 2.253095 g / cm^3
# Si number density = 22.582353 Si / 1000 Ang^3
#
#
#
# Elastic Constant Matrix: (Units=GPa)
#
#
# Indices 1 2 3 4 5 6 
#
# 1 119.2659 33.4085 56.7445 0.0000 0.0000 0.0000
# 2 33.4085 70.6170 29.1356 0.0000 0.0000 0.0000
# 3 56.7445 29.1356 120.4101 0.0000 0.0000 0.0000
# 4 0.0000 0.0000 0.0000 36.8600 0.0000 0.0000
# 5 0.0000 0.0000 0.0000 0.0000 41.1749 0.0000
# 6 0.0000 0.0000 0.0000 0.0000 0.0000 18.7267
#
#
#
# Elastic Compliance Matrix: (Units=1/GPa)
#
#
# Indices 1 2 3 4 5 6 
#
# 1 0.011570 -0.003582 -0.004586 0.000000 0.000000 0.000000
# 2 -0.003582 0.016840 -0.002387 0.000000 0.000000 0.000000
# 3 -0.004586 -0.002387 0.011044 0.000000 0.000000 0.000000
# 4 0.000000 0.000000 0.000000 0.027130 0.000000 0.000000
# 5 0.000000 0.000000 0.000000 0.000000 0.024287 0.000000
# 6 0.000000 0.000000 0.000000 0.000000 0.000000 0.053400
#
#
# Mechanical properties :
#
#
# Convention : Reuss Voigt Hill
#
# Bulk Modulus (GPa) = 54.51087 60.98559 57.74823
# Shear Modulus (GPa) = 29.15578 32.08598 30.62088
#
# Velocity S-wave (km/s) = 3.59707 3.77350 3.68634
# Velocity P-wave (km/s) = 6.43762 6.78603 6.61412
#
# Compressibility (1/GPa) = 0.01834496
#
# Stress axis : x y z
#
# Youngs Moduli (GPa) = 86.43287 59.38197 90.55034
#
# Poissons Ratio (x) = 0.21268 0.41524
# Poissons Ratio (y) = 0.30956 0.21614
# Poissons Ratio (z) = 0.39636 0.14174
#
# Static dielectric constant tensor:
#      x y z
#    x 4.080640 0.000000 0.000000 
#    y 0.000000 3.870490 0.000000 
#    z 0.000000 0.000000 4.165520 
# 
# 
# High freq. dielectric constant tensor:
#      x y z
#    x 1.886410 0.000000 0.000000 
#    y 0.000000 1.884900 0.000000 
#    z 0.000000 0.000000 1.893050 
# 
# From -- ./inp_files/27565.got.cif
#   From: 2010.03.12/outbox.cif.g09.slc.cpg/sg20_14_cif.got.tgz:27565.got - 2010.04.14 01:38:04.
