data_PCOD8159137
_publ_section_title
;
Structure prediction by ZEFSAII (Michael W. Deem and Ramdas Pophale) SiO2 
 PCOD8159137
Probable space group: C 2 2 21
;
_chemical_formula_sum "Si O2"
_cell_formula_units_Z 52
_cell_length_a 11.799235
_cell_length_b 8.053322
_cell_length_c 25.943314
_cell_angle_alpha 90.000000
_cell_angle_beta 90.000000
_cell_angle_gamma 90.000000
_cell_volume 2465.212533
_symmetry_space_group_name_H-M "C 2 2 21"
_symmetry_group_IT_number 20
_symmetry_cell_setting 'orthorhombic'
loop_
_space_group_symop_operation_xyz
x,y,z
-x,-y,1/2+z
x,-y,-z
-x,y,1/2-z
1/2+x,1/2+y,z
1/2-x,1/2-y,1/2+z
1/2+x,1/2-y,-z
1/2-x,1/2+y,1/2-z
loop_
_atom_site_type_symbol
_atom_site_label
_atom_site_fract_x
_atom_site_fract_y
_atom_site_fract_z
Si Si1 0.130319 0.248791 0.624650
Si Si2 0.024562 0.435937 0.804442
Si Si3 0.661593 0.807624 0.307191
Si Si4 0.054740 0.500000 0.500000
Si Si5 0.768411 0.565136 0.914456
Si Si6 0.229736 0.034132 0.712545
Si Si7 0.476474 0.648121 0.539797
O O1 0.226867 0.370865 0.602022
O O2 0.184540 0.172897 0.674970
O O3 0.078804 0.126282 0.581495
O O4 0.019589 0.345990 0.644713
O O5 0.155970 0.463955 0.812835
O O6 0.000000 0.338950 0.750000
O O7 0.960641 0.611959 0.800053
O O8 0.706101 0.817672 0.365668
O O9 0.754184 0.897791 0.270196
O O10 0.643338 0.619690 0.288165
O O11 0.133025 0.414798 0.456652
O O12 0.979844 0.340796 0.519098
O O13 0.647115 0.614461 0.936884
O O14 0.501909 0.500000 0.500000
#
# Coordination Sequence:
#
# PCOD8159137 Si02
#       7
#     8   8   8   4   8   8   8
#     4  10  23  40  62  92 127 159 211 262 315 384
#     4   9  19  38  58  85 123 160 201 253 307 374
#     4  10  21  36  64  91 127 165 211 251 319 386
#     4  10  24  46  66  92 132 162 218 284 318 380
#     4  10  21  45  64  91 129 166 208 277 317 377
#     4  11  21  39  62  94 127 170 202 256 316 383
#     4  11  24  45  67  94 125 170 218 268 330 383
#
# _framework density 21.093518
#
# number of rings (size 3 to 8) (size 9 to 14) (size 15 to 20)
#    0.000    1.846    0.769    3.692    2.154    1.231 
#    9.692    8.462    0.000    0.000    0.000    0.000 
#    0.000    0.000    0.000    0.000    0.000    0.000 
#
# Total GULP energy -322204.874130 kJ/mol
# GULP energy per Si atom -12392.495159 kJ/mol
# Density = 2.104551 g / cm^3
# Si number density = 21.093518 Si / 1000 Ang^3
#
#
#
# Elastic Constant Matrix: (Units=GPa)
#
#
# Indices 1 2 3 4 5 6 
#
# 1 62.6434 18.3398 31.3966 0.0000 0.0000 0.0000
# 2 18.3398 79.9821 38.1698 0.0000 0.0000 0.0000
# 3 31.3966 38.1698 120.9978 0.0000 0.0000 0.0000
# 4 0.0000 0.0000 0.0000 45.3147 0.0000 0.0000
# 5 0.0000 0.0000 0.0000 0.0000 27.4563 0.0000
# 6 0.0000 0.0000 0.0000 0.0000 0.0000 21.3585
#
#
#
# Elastic Compliance Matrix: (Units=1/GPa)
#
#
# Indices 1 2 3 4 5 6 
#
# 1 0.018709 -0.002323 -0.004122 0.000000 0.000000 0.000000
# 2 -0.002323 0.015007 -0.004131 0.000000 0.000000 0.000000
# 3 -0.004122 -0.004131 0.010637 0.000000 0.000000 0.000000
# 4 0.000000 0.000000 0.000000 0.022068 0.000000 0.000000
# 5 0.000000 0.000000 0.000000 0.000000 0.036422 0.000000
# 6 0.000000 0.000000 0.000000 0.000000 0.000000 0.046820
#
#
# Mechanical properties :
#
#
# Convention : Reuss Voigt Hill
#
# Bulk Modulus (GPa) = 43.10080 48.82620 45.96350
# Shear Modulus (GPa) = 28.00349 30.54037 29.27193
#
# Velocity S-wave (km/s) = 3.64756 3.80920 3.72925
# Velocity P-wave (km/s) = 6.18200 6.52261 6.35459
#
# Compressibility (1/GPa) = 0.02320143
#
# Stress axis : x y z
#
# Youngs Moduli (GPa) = 53.44921 66.63539 94.00755
#
# Poissons Ratio (x) = 0.15479 0.38749
# Poissons Ratio (y) = 0.12416 0.38838
# Poissons Ratio (z) = 0.22031 0.27529
#
# Static dielectric constant tensor:
#      x y z
#    x 3.546980 0.000000 0.000000 
#    y 0.000000 3.847700 0.000000 
#    z 0.000000 0.000000 3.939270 
# 
# 
# High freq. dielectric constant tensor:
#      x y z
#    x 1.815290 0.000000 0.000000 
#    y 0.000000 1.818880 0.000000 
#    z 0.000000 0.000000 1.847360 
# 
# From -- ./inp_files/30286.got.cif
#   From: 2010.03.12/outbox.cif.g09.slc.cpg/sg20_16_cif.got.tgz:30286.got - 2010.04.14 01:38:04.
