data_PCOD8159012
_publ_section_title
;
Structure prediction by ZEFSAII (Michael W. Deem and Ramdas Pophale) SiO2 
 PCOD8159012
Probable space group: C 2 2 21
;
_chemical_formula_sum "Si O2"
_cell_formula_units_Z 52
_cell_length_a 8.977399
_cell_length_b 18.214419
_cell_length_c 15.508879
_cell_angle_alpha 90.000000
_cell_angle_beta 90.000000
_cell_angle_gamma 90.000000
_cell_volume 2535.982534
_symmetry_space_group_name_H-M "C 2 2 21"
_symmetry_group_IT_number 20
_symmetry_cell_setting 'orthorhombic'
loop_
_space_group_symop_operation_xyz
x,y,z
-x,-y,1/2+z
x,-y,-z
-x,y,1/2-z
1/2+x,1/2+y,z
1/2-x,1/2-y,1/2+z
1/2+x,1/2-y,-z
1/2-x,1/2+y,1/2-z
loop_
_atom_site_type_symbol
_atom_site_label
_atom_site_fract_x
_atom_site_fract_y
_atom_site_fract_z
Si Si1 0.031788 0.227940 0.992142
Si Si2 0.101571 0.191019 0.175128
Si Si3 0.333637 0.096791 0.776066
Si Si4 0.628292 0.298375 0.321053
Si Si5 0.172550 0.653534 0.539535
Si Si6 0.313367 0.500000 0.500000
Si Si7 0.879579 0.976816 0.683885
O O1 0.207938 0.218300 0.978240
O O2 0.947462 0.186159 0.914167
O O3 0.004769 0.192074 0.086776
O O4 0.981451 0.314006 0.998787
O O5 0.261517 0.229534 0.169292
O O6 0.139586 0.108443 0.201554
O O7 0.000000 0.227800 0.250000
O O8 0.500000 0.084557 0.750000
O O9 0.228676 0.131476 0.702599
O O10 0.335541 0.149629 0.858173
O O11 0.277007 0.015641 0.798251
O O12 0.500000 0.283135 0.250000
O O13 0.211798 0.574221 0.498150
O O14 0.419688 0.496517 0.584068
O O15 0.000000 0.010866 0.750000
#
# Coordination Sequence:
#
# PCOD8159012 Si02
#       7
#     8   8   8   8   8   4   8
#     4  12  22  40  64  96 126 168 214 266 316 394
#     4  11  24  42  63  94 134 171 208 273 329 382
#     4  11  24  41  63  91 126 168 216 272 322 386
#     4  12  23  37  63  96 123 164 218 262 318 385
#     4  11  23  40  68  93 129 173 214 262 330 379
#     4  10  20  42  62  90 130 172 204 266 322 386
#     4  10  22  39  65  89 122 171 215 256 329 389
#
# _framework density 20.504874000000001
#
# number of rings (size 3 to 8) (size 9 to 14) (size 15 to 20)
#    0.000    0.923    4.615    2.769    2.154    0.615 
#    0.000    0.000    0.000    1.846    0.000    0.000 
#    0.000    0.000    0.000    0.000    0.000    0.000 
#
# Total GULP energy -322220.653553 kJ/mol
# GULP energy per Si atom -12393.102060 kJ/mol
# Density = 2.045820 g / cm^3
# Si number density = 20.504874 Si / 1000 Ang^3
#
#
#
# Elastic Constant Matrix: (Units=GPa)
#
#
# Indices 1 2 3 4 5 6 
#
# 1 115.3676 48.0306 66.3475 0.0000 0.0000 0.0000
# 2 48.0306 85.9757 31.1220 0.0000 0.0000 0.0000
# 3 66.3475 31.1220 165.0598 0.0000 0.0000 0.0000
# 4 0.0000 0.0000 0.0000 20.6969 0.0000 0.0000
# 5 0.0000 0.0000 0.0000 0.0000 36.3445 0.0000
# 6 0.0000 0.0000 0.0000 0.0000 0.0000 102.2601
#
#
#
# Elastic Compliance Matrix: (Units=1/GPa)
#
#
# Indices 1 2 3 4 5 6 
#
# 1 0.013708 -0.006078 -0.004364 0.000000 0.000000 0.000000
# 2 -0.006078 0.015178 -0.000419 0.000000 0.000000 0.000000
# 3 -0.004364 -0.000419 0.007892 0.000000 0.000000 0.000000
# 4 0.000000 0.000000 0.000000 0.048316 0.000000 0.000000
# 5 0.000000 0.000000 0.000000 0.000000 0.027514 0.000000
# 6 0.000000 0.000000 0.000000 0.000000 0.000000 0.009779
#
#
# Mechanical properties :
#
#
# Convention : Reuss Voigt Hill
#
# Bulk Modulus (GPa) = 66.41869 73.04481 69.73175
# Shear Modulus (GPa) = 33.52796 46.58717 40.05756
#
# Velocity S-wave (km/s) = 4.04805 4.77173 4.42471
# Velocity P-wave (km/s) = 7.36959 8.12771 7.75792
#
# Compressibility (1/GPa) = 0.01505600
#
# Stress axis : x y z
#
# Youngs Moduli (GPa) = 72.94821 65.88279 126.71795
#
# Poissons Ratio (x) = 0.40047 0.55301
# Poissons Ratio (y) = 0.44341 0.05304
# Poissons Ratio (z) = 0.31835 0.02758
#
# Static dielectric constant tensor:
#      x y z
#    x 3.727550 0.000000 0.000000 
#    y 0.000000 3.639190 0.000000 
#    z 0.000000 0.000000 1.077510 
# 
# 
# High freq. dielectric constant tensor:
#      x y z
#    x 1.786040 0.000000 0.000000 
#    y 0.000000 1.794890 0.000000 
#    z 0.000000 0.000000 1.825220 
# 
# From -- ./inp_files/19091.got.cif
#   From: 2010.03.12/outbox.cif.g09.slc.cpg/sg20_10_cif.got.tgz:19091.got - 2010.04.14 01:38:04.
