data_PCOD8159778
_publ_section_title
;
Structure prediction by ZEFSAII (Michael W. Deem and Ramdas Pophale) SiO2 
 PCOD8159778
Probable space group: C 2 2 21
;
_chemical_formula_sum "Si O2"
_cell_formula_units_Z 24
_cell_length_a 18.099141
_cell_length_b 9.119853
_cell_length_c 4.980194
_cell_angle_alpha 90.000000
_cell_angle_beta 90.000000
_cell_angle_gamma 90.000000
_cell_volume 822.038319
_symmetry_space_group_name_H-M "C 2 2 21"
_symmetry_group_IT_number 20
_symmetry_cell_setting 'orthorhombic'
loop_
_space_group_symop_operation_xyz
x,y,z
-x,-y,1/2+z
x,-y,-z
-x,y,1/2-z
1/2+x,1/2+y,z
1/2-x,1/2-y,1/2+z
1/2+x,1/2-y,-z
1/2-x,1/2+y,1/2-z
loop_
_atom_site_type_symbol
_atom_site_label
_atom_site_fract_x
_atom_site_fract_y
_atom_site_fract_z
Si Si1 0.926549 0.663357 0.597038
Si Si2 0.281047 0.170013 0.932241
Si Si3 0.915887 0.076378 0.747156
O O1 0.934424 0.500000 0.500000
O O2 0.862724 0.689621 0.813532
O O3 0.913052 0.749544 0.316156
O O4 0.000000 0.719553 0.750000
O O5 0.223964 0.228310 0.701546
O O6 0.265494 0.000000 0.000000
O O7 0.000000 0.020448 0.750000
O O8 0.873427 0.000000 0.500000
O O9 0.875026 0.000000 0.000000
#
# Coordination Sequence:
#
# PCOD8159778 Si02
#       3
#     8   8   8
#     4  12  26  49  87 129 169 214 280 357 429 495
#     4  12  29  57  87 121 168 225 283 343 419 508
#     4  10  22  42  68 108 163 213 258 320 403 489
#
# _framework density 29.195720000000001
#
# number of rings (size 3 to 8) (size 9 to 14) (size 15 to 20)
#    0.000    0.667    0.000    8.000    0.000    9.333 
#    0.000   20.000    0.000    0.000    0.000    0.000 
#    0.000    0.000    0.000    0.000    0.000    0.000 
#
# Total GULP energy -148706.115326 kJ/mol
# GULP energy per Si atom -12392.176277 kJ/mol
# Density = 2.912927 g / cm^3
# Si number density = 29.195720 Si / 1000 Ang^3
#
#
#
# Elastic Constant Matrix: (Units=GPa)
#
#
# Indices 1 2 3 4 5 6 
#
# 1 150.2093 25.0999 45.8660 0.0000 0.0000 0.0000
# 2 25.0999 268.4671 125.6121 0.0000 0.0000 0.0000
# 3 45.8660 125.6121 264.0100 0.0000 0.0000 0.0000
# 4 0.0000 0.0000 0.0000 82.0714 0.0000 0.0000
# 5 0.0000 0.0000 0.0000 0.0000 33.6004 0.0000
# 6 0.0000 0.0000 0.0000 0.0000 0.0000 -94.5602
#
#
#
# Elastic Compliance Matrix: (Units=1/GPa)
#
#
# Indices 1 2 3 4 5 6 
#
# 1 0.007033 -0.000110 -0.001169 0.000000 0.000000 0.000000
# 2 -0.000110 0.004793 -0.002261 0.000000 0.000000 0.000000
# 3 -0.001169 -0.002261 0.005067 0.000000 0.000000 0.000000
# 4 0.000000 0.000000 0.000000 0.012185 0.000000 0.000000
# 5 0.000000 0.000000 0.000000 0.000000 0.029762 0.000000
# 6 0.000000 0.000000 0.000000 0.000000 0.000000 -0.010575
#
#
# Mechanical properties :
#
#
# Convention : Reuss Voigt Hill
#
# Bulk Modulus (GPa) = 101.92894 119.53803 110.73349
# Shear Modulus (GPa) = 85.30090 36.62957 60.96523
#
# Velocity S-wave (km/s) = 5.41113 3.54591 4.57459
# Velocity P-wave (km/s) = 8.60398 7.60244 8.11867
#
# Compressibility (1/GPa) = 0.00981076
#
# Stress axis : x y z
#
# Youngs Moduli (GPa) = 142.18962 208.62725 197.36356
#
# Poissons Ratio (x) = 0.02304 0.23077
# Poissons Ratio (y) = 0.01570 0.44631
# Poissons Ratio (z) = 0.16626 0.47178
#
# Static dielectric constant tensor:
#      x y z
#    x 5.551930 0.000000 0.000000 
#    y 0.000000 5.453050 0.000000 
#    z 0.000000 0.000000 9.142470 
# 
# 
# High freq. dielectric constant tensor:
#      x y z
#    x 2.195410 0.000000 0.000000 
#    y 0.000000 2.202770 0.000000 
#    z 0.000000 0.000000 2.213630 
# 
# From -- ./inp_files/3452.got.cif
#   From: 2010.03.12/outbox.cif.g09.slc.cpg/sg20_2_cif.got.tgz:3452.got - 2010.04.14 01:38:04.
