data_PCOD8159000
_publ_section_title
;
Structure prediction by ZEFSAII (Michael W. Deem and Ramdas Pophale) SiO2 
 PCOD8159000
Probable space group: C 2 2 21
;
_chemical_formula_sum "Si O2"
_cell_formula_units_Z 32
_cell_length_a 12.011832
_cell_length_b 6.436006
_cell_length_c 15.069427
_cell_angle_alpha 90.000000
_cell_angle_beta 90.000000
_cell_angle_gamma 90.000000
_cell_volume 1164.990620
_symmetry_space_group_name_H-M "C 2 2 21"
_symmetry_group_IT_number 20
_symmetry_cell_setting 'orthorhombic'
loop_
_space_group_symop_operation_xyz
x,y,z
-x,-y,1/2+z
x,-y,-z
-x,y,1/2-z
1/2+x,1/2+y,z
1/2-x,1/2-y,1/2+z
1/2+x,1/2-y,-z
1/2-x,1/2+y,1/2-z
loop_
_atom_site_type_symbol
_atom_site_label
_atom_site_fract_x
_atom_site_fract_y
_atom_site_fract_z
Si Si1 0.290121 0.192205 0.923700
Si Si2 0.481378 0.085358 0.654917
Si Si3 0.253466 0.321772 0.113116
Si Si4 0.610033 0.658180 0.786263
O O1 0.411922 0.109921 0.905000
O O2 0.282530 0.437208 0.903495
O O3 0.197210 0.067940 0.861232
O O4 0.282758 0.166377 0.031336
O O5 0.500000 0.187117 0.750000
O O6 0.378497 0.211743 0.615856
O O7 0.450472 0.844116 0.662358
O O8 0.315035 0.256896 0.204320
O O9 0.500000 0.525361 0.750000
#
# Coordination Sequence:
#
# PCOD8159000 Si02
#       4
#     8   8   8   8
#     4  10  22  41  67 100 137 180 232 283 336 405
#     4  10  20  41  67  92 136 179 219 281 337 399
#     4  10  22  41  66  98 136 180 229 282 339 401
#     4  10  22  40  64  98 135 178 225 278 344 402
#
# _framework density 27.468029999999999
#
# number of rings (size 3 to 8) (size 9 to 14) (size 15 to 20)
#    0.000    2.000    2.500    0.000    3.500    1.000 
#    4.500    0.000    0.000    0.000    0.000    0.000 
#    0.000    0.000    0.000    0.000    0.000    0.000 
#
# Total GULP energy -198216.364750 kJ/mol
# GULP energy per Si atom -12388.522797 kJ/mol
# Density = 2.740551 g / cm^3
# Si number density = 27.468030 Si / 1000 Ang^3
#
#
#
# Elastic Constant Matrix: (Units=GPa)
#
#
# Indices 1 2 3 4 5 6 
#
# 1 274.5907 30.4621 108.2234 0.0000 0.0000 0.0000
# 2 30.4621 43.8366 14.2750 0.0000 0.0000 0.0000
# 3 108.2234 14.2750 207.0249 0.0000 0.0000 0.0000
# 4 0.0000 0.0000 0.0000 39.7633 0.0000 0.0000
# 5 0.0000 0.0000 0.0000 0.0000 60.3466 0.0000
# 6 0.0000 0.0000 0.0000 0.0000 0.0000 178.6455
#
#
#
# Elastic Compliance Matrix: (Units=1/GPa)
#
#
# Indices 1 2 3 4 5 6 
#
# 1 0.004862 -0.002610 -0.002362 0.000000 0.000000 0.000000
# 2 -0.002610 0.024737 -0.000341 0.000000 0.000000 0.000000
# 3 -0.002362 -0.000341 0.006089 0.000000 0.000000 0.000000
# 4 0.000000 0.000000 0.000000 0.025149 0.000000 0.000000
# 5 0.000000 0.000000 0.000000 0.000000 0.016571 0.000000
# 6 0.000000 0.000000 0.000000 0.000000 0.000000 0.005598
#
#
# Mechanical properties :
#
#
# Convention : Reuss Voigt Hill
#
# Bulk Modulus (GPa) = 39.90177 92.37480 66.13829
# Shear Modulus (GPa) = 49.02719 80.58384 64.80552
#
# Velocity S-wave (km/s) = 4.22937 5.42227 4.86254
# Velocity P-wave (km/s) = 6.19744 8.53840 7.46031
#
# Compressibility (1/GPa) = 0.02506154
#
# Stress axis : x y z
#
# Youngs Moduli (GPa) = 205.67183 40.42591 164.24394
#
# Poissons Ratio (x) = 0.10550 0.38790
# Poissons Ratio (y) = 0.53672 0.05609
# Poissons Ratio (z) = 0.48575 0.01380
#
# Static dielectric constant tensor:
#      x y z
#    x 5.697470 0.000000 0.000000 
#    y 0.000000 5.112640 0.000000 
#    z 0.000000 0.000000 5.498910 
# 
# 
# High freq. dielectric constant tensor:
#      x y z
#    x 2.126040 0.000000 0.000000 
#    y 0.000000 2.139920 0.000000 
#    z 0.000000 0.000000 2.113230 
# 
# From -- ./inp_files/18165.got.cif
#   From: 2010.03.12/outbox.cif.g09.slc.cpg/sg20_10_cif.got.tgz:18165.got - 2010.04.14 01:38:04.
