data_PCOD8159939
_publ_section_title
;
Structure prediction by ZEFSAII (Michael W. Deem and Ramdas Pophale) SiO2 
 PCOD8159939
Probable space group: C 2 2 21
;
_chemical_formula_sum "Si O2"
_cell_formula_units_Z 56
_cell_length_a 5.176187
_cell_length_b 28.393716
_cell_length_c 15.749326
_cell_angle_alpha 90.000000
_cell_angle_beta 90.000000
_cell_angle_gamma 90.000000
_cell_volume 2314.697084
_symmetry_space_group_name_H-M "C 2 2 21"
_symmetry_group_IT_number 20
_symmetry_cell_setting 'orthorhombic'
loop_
_space_group_symop_operation_xyz
x,y,z
-x,-y,1/2+z
x,-y,-z
-x,y,1/2-z
1/2+x,1/2+y,z
1/2-x,1/2-y,1/2+z
1/2+x,1/2-y,-z
1/2-x,1/2+y,1/2-z
loop_
_atom_site_type_symbol
_atom_site_label
_atom_site_fract_x
_atom_site_fract_y
_atom_site_fract_z
Si Si1 0.065375 0.592809 0.840558
Si Si2 0.914975 0.042849 0.609734
Si Si3 0.343973 0.865388 0.512017
Si Si4 0.093822 0.774765 0.472332
Si Si5 0.736575 0.741319 0.200445
Si Si6 0.017997 0.061907 0.078014
Si Si7 0.824962 0.359006 0.832561
O O1 0.359855 0.574784 0.849118
O O2 0.000000 0.618293 0.750000
O O3 0.854862 0.550206 0.841406
O O4 0.015603 0.627585 0.920621
O O5 0.840089 0.056907 0.512791
O O6 0.014715 0.989371 0.619116
O O7 0.102192 0.829328 0.501919
O O8 0.527370 0.842684 0.582192
O O9 0.257623 0.915355 0.553110
O O10 0.299869 0.743836 0.527536
O O11 0.214261 0.774205 0.379154
O O12 0.500000 0.765440 0.250000
O O13 0.648289 0.687302 0.180693
O O14 0.000000 0.737918 0.250000
O O15 0.158436 0.094666 0.147208
O O16 0.000000 0.370506 0.750000
#
# Coordination Sequence:
#
# PCOD8159939 Si02
#       7
#     8   8   8   8   8   8   8
#     4  11  24  45  68  99 135 182 230 289 339 405
#     4  10  23  43  70  94 140 178 229 279 346 404
#     4  11  25  45  70 101 137 182 230 287 346 410
#     4  12  25  44  72 100 135 184 231 277 344 420
#     4  11  25  45  67 100 140 175 226 288 343 408
#     4  10  23  41  68 100 135 182 225 283 342 414
#     4  11  24  41  67  98 138 179 222 285 347 415
#
# _framework density 24.193231000000001
#
# number of rings (size 3 to 8) (size 9 to 14) (size 15 to 20)
#    0.000    1.143    2.857    2.143    8.000    2.286 
#    2.571    2.857    0.000    0.000    0.000    0.000 
#    0.000    0.000    0.000    0.000    0.000    0.000 
#
# Total GULP energy -346977.732577 kJ/mol
# GULP energy per Si atom -12392.061878 kJ/mol
# Density = 2.413817 g / cm^3
# Si number density = 24.193231 Si / 1000 Ang^3
#
#
#
# Elastic Constant Matrix: (Units=GPa)
#
#
# Indices 1 2 3 4 5 6 
#
# 1 76.6812 0.0353 13.9368 0.0000 0.0000 0.0000
# 2 0.0353 56.2190 7.3797 0.0000 0.0000 0.0000
# 3 13.9368 7.3797 132.9259 0.0000 0.0000 0.0000
# 4 0.0000 0.0000 0.0000 30.8904 0.0000 0.0000
# 5 0.0000 0.0000 0.0000 0.0000 34.8908 0.0000
# 6 0.0000 0.0000 0.0000 0.0000 0.0000 26.2342
#
#
#
# Elastic Compliance Matrix: (Units=1/GPa)
#
#
# Indices 1 2 3 4 5 6 
#
# 1 0.013296 0.000176 -0.001404 0.000000 0.000000 0.000000
# 2 0.000176 0.017920 -0.001013 0.000000 0.000000 0.000000
# 3 -0.001404 -0.001013 0.007726 0.000000 0.000000 0.000000
# 4 0.000000 0.000000 0.000000 0.032372 0.000000 0.000000
# 5 0.000000 0.000000 0.000000 0.000000 0.028661 0.000000
# 6 0.000000 0.000000 0.000000 0.000000 0.000000 0.038118
#
#
# Mechanical properties :
#
#
# Convention : Reuss Voigt Hill
#
# Bulk Modulus (GPa) = 29.01869 34.28106 31.64988
# Shear Modulus (GPa) = 32.45410 34.70139 33.57774
#
# Velocity S-wave (km/s) = 3.66656 3.79138 3.72949
# Velocity P-wave (km/s) = 5.47225 5.77638 5.62637
#
# Compressibility (1/GPa) = 0.03446054
#
# Stress axis : x y z
#
# Youngs Moduli (GPa) = 75.21017 55.80207 129.42592
#
# Poissons Ratio (x) = -0.00982 0.18169
# Poissons Ratio (y) = -0.01323 0.13115
# Poissons Ratio (z) = 0.10558 0.05655
#
# Static dielectric constant tensor:
#      x y z
#    x 3.993440 0.000000 0.000000 
#    y 0.000000 4.230320 0.000000 
#    z 0.000000 0.000000 4.662950 
# 
# 
# High freq. dielectric constant tensor:
#      x y z
#    x 1.951020 0.000000 0.000000 
#    y 0.000000 1.945580 0.000000 
#    z 0.000000 0.000000 1.973520 
# 
# From -- ./inp_files/17939.got.cif
#   From: 2010.03.12/outbox.cif.g09.slc.cpg/sg20_9_cif.got.tgz:17939.got - 2010.04.14 01:38:04.
