data_PCOD8159467
_publ_section_title
;
Structure prediction by ZEFSAII (Michael W. Deem and Ramdas Pophale) SiO2 
 PCOD8159467
Probable space group: C 2 2 21
;
_chemical_formula_sum "Si O2"
_cell_formula_units_Z 48
_cell_length_a 7.933703
_cell_length_b 16.887258
_cell_length_c 14.474826
_cell_angle_alpha 90.000000
_cell_angle_beta 90.000000
_cell_angle_gamma 90.000000
_cell_volume 1939.315323
_symmetry_space_group_name_H-M "C 2 2 21"
_symmetry_group_IT_number 20
_symmetry_cell_setting 'orthorhombic'
loop_
_space_group_symop_operation_xyz
x,y,z
-x,-y,1/2+z
x,-y,-z
-x,y,1/2-z
1/2+x,1/2+y,z
1/2-x,1/2-y,1/2+z
1/2+x,1/2-y,-z
1/2-x,1/2+y,1/2-z
loop_
_atom_site_type_symbol
_atom_site_label
_atom_site_fract_x
_atom_site_fract_y
_atom_site_fract_z
Si Si1 0.208806 0.856192 0.009960
Si Si2 0.500000 0.003541 0.250000
Si Si3 0.790417 0.254050 0.169511
Si Si4 0.663190 0.426490 0.683757
Si Si5 0.669302 0.779477 0.131127
Si Si6 0.455983 0.500000 0.000000
Si Si7 0.050818 0.427189 0.060157
O O1 0.169452 0.799340 0.097747
O O2 0.393063 0.894197 0.002757
O O3 0.200818 0.802201 0.919841
O O4 0.068264 0.922473 0.010470
O O5 0.672032 0.053361 0.243720
O O6 0.479799 0.950507 0.159735
O O7 0.802610 0.161430 0.146613
O O8 0.725791 0.273648 0.273338
O O9 0.973744 0.290507 0.154829
O O10 0.500000 0.429891 0.750000
O O11 0.648587 0.486751 0.596335
O O12 0.701281 0.860428 0.071275
O O13 0.127265 0.500000 0.000000
#
# Coordination Sequence:
#
# PCOD8159467 Si02
#       7
#     8   4   8   8   8   4   8
#     4  11  22  42  75 108 151 197 258 316 385 459
#     4  12  30  48  78 118 154 204 258 336 398 470
#     4  10  21  42  73 103 148 206 248 313 385 460
#     4  12  26  50  81 113 159 208 265 324 398 474
#     4  10  21  43  70 102 143 207 253 302 386 460
#     4  12  24  46  78 116 144 212 266 326 394 472
#     4  11  25  44  72 108 151 196 247 318 389 458
#
# _framework density 24.751000999999999
#
# number of rings (size 3 to 8) (size 9 to 14) (size 15 to 20)
#    0.000    1.000    4.167    3.000    5.833    0.000 
#    0.000    0.000   12.833    0.000    0.000    0.000 
#    0.000    0.000    0.000    0.000    0.000    0.000 
#
# Total GULP energy -297523.060024 kJ/mol
# GULP energy per Si atom -12396.794168 kJ/mol
# Density = 2.469467 g / cm^3
# Si number density = 24.751001 Si / 1000 Ang^3
#
#
#
# Elastic Constant Matrix: (Units=GPa)
#
#
# Indices 1 2 3 4 5 6 
#
# 1 87.4678 26.6326 34.5442 0.0000 0.0000 0.0000
# 2 26.6326 152.4943 62.3896 0.0000 0.0000 0.0000
# 3 34.5442 62.3896 158.7639 0.0000 0.0000 0.0000
# 4 0.0000 0.0000 0.0000 55.9385 0.0000 0.0000
# 5 0.0000 0.0000 0.0000 0.0000 32.7132 0.0000
# 6 0.0000 0.0000 0.0000 0.0000 0.0000 -7.2244
#
#
#
# Elastic Compliance Matrix: (Units=1/GPa)
#
#
# Indices 1 2 3 4 5 6 
#
# 1 0.012720 -0.001298 -0.002258 0.000000 0.000000 0.000000
# 2 -0.001298 0.007946 -0.002840 0.000000 0.000000 0.000000
# 3 -0.002258 -0.002840 0.007906 0.000000 0.000000 0.000000
# 4 0.000000 0.000000 0.000000 0.017877 0.000000 0.000000
# 5 0.000000 0.000000 0.000000 0.000000 0.030569 0.000000
# 6 0.000000 0.000000 0.000000 0.000000 0.000000 -0.138419
#
#
# Mechanical properties :
#
#
# Convention : Reuss Voigt Hill
#
# Bulk Modulus (GPa) = 63.36902 71.76209 67.56556
# Shear Modulus (GPa) = -115.33947 34.62942 -40.35503
#
# Velocity S-wave (km/s) = -6.83382 3.74453 -4.04225
# Velocity P-wave (km/s) = 6.05061 6.91027 2.36029
#
# Compressibility (1/GPa) = 0.01578058
#
# Stress axis : x y z
#
# Youngs Moduli (GPa) = 78.61932 125.84446 126.48599
#
# Poissons Ratio (x) = 0.16332 0.28555
# Poissons Ratio (y) = 0.10203 0.35926
# Poissons Ratio (z) = 0.17749 0.35744
#
# Static dielectric constant tensor:
#      x y z
#    x 4.223220 0.000000 0.000000 
#    y 0.000000 4.814440 0.000000 
#    z 0.000000 0.000000 5.018970 
# 
# 
# High freq. dielectric constant tensor:
#      x y z
#    x 1.964870 0.000000 0.000000 
#    y 0.000000 2.009610 0.000000 
#    z 0.000000 0.000000 2.001550 
# 
# From -- ./inp_files/18929.got.cif
#   From: 2010.03.12/outbox.cif.g09.slc.cpg/sg20_10_cif.got.tgz:18929.got - 2010.04.14 01:38:04.
