data_PCOD8159723
_publ_section_title
;
Structure prediction by ZEFSAII (Michael W. Deem and Ramdas Pophale) SiO2 
 PCOD8159723
Probable space group: C 2 2 21
;
_chemical_formula_sum "Si O2"
_cell_formula_units_Z 52
_cell_length_a 7.202856
_cell_length_b 18.074461
_cell_length_c 18.707253
_cell_angle_alpha 90.000000
_cell_angle_beta 90.000000
_cell_angle_gamma 90.000000
_cell_volume 2435.454987
_symmetry_space_group_name_H-M "C 2 2 21"
_symmetry_group_IT_number 20
_symmetry_cell_setting 'orthorhombic'
loop_
_space_group_symop_operation_xyz
x,y,z
-x,-y,1/2+z
x,-y,-z
-x,y,1/2-z
1/2+x,1/2+y,z
1/2-x,1/2-y,1/2+z
1/2+x,1/2-y,-z
1/2-x,1/2+y,1/2-z
loop_
_atom_site_type_symbol
_atom_site_label
_atom_site_fract_x
_atom_site_fract_y
_atom_site_fract_z
Si Si1 0.500000 0.521503 0.250000
Si Si2 0.735171 0.321782 0.531307
Si Si3 0.210072 0.672455 0.601964
Si Si4 0.896692 0.123746 0.378591
Si Si5 0.277989 0.108230 0.750060
Si Si6 0.904364 0.419732 0.978467
Si Si7 0.206478 0.286803 0.125094
O O1 0.487931 0.575841 0.316909
O O2 0.317113 0.471341 0.239246
O O3 0.795205 0.251162 0.579137
O O4 0.552743 0.361087 0.561676
O O5 0.682747 0.295805 0.450138
O O6 0.910101 0.374619 0.536063
O O7 0.297636 0.642897 0.675583
O O8 0.233431 0.613533 0.538549
O O9 0.992138 0.679191 0.611328
O O10 0.724071 0.076537 0.408436
O O11 0.811945 0.201576 0.350336
O O12 0.500000 0.097741 0.750000
O O13 0.204938 0.164311 0.688547
O O14 0.974461 0.500000 0.000000
#
# Coordination Sequence:
#
# PCOD8159723 Si02
#       7
#     4   8   8   8   8   8   8
#     4  12  28  42  62 104 130 174 220 258 342 396
#     4  10  22  41  68  98 126 166 222 269 324 383
#     4   9  19  39  67  94 122 167 218 260 315 390
#     4  11  25  41  65  95 136 165 214 279 320 386
#     4  10  23  44  69  89 135 174 216 266 325 396
#     4  11  23  39  63  96 128 166 209 264 330 382
#     4   9  20  40  69  94 120 173 216 266 321 380
#
# _framework density 21.351247000000001
#
# number of rings (size 3 to 8) (size 9 to 14) (size 15 to 20)
#    0.000    1.846    1.538    0.923    5.385    9.231 
#    0.000    0.000    1.692    0.000    0.000    0.000 
#    0.000    0.000    0.000    0.000    0.000    0.000 
#
# Total GULP energy -322354.422842 kJ/mol
# GULP energy per Si atom -12398.247032 kJ/mol
# Density = 2.130265 g / cm^3
# Si number density = 21.351247 Si / 1000 Ang^3
#
#
#
# Elastic Constant Matrix: (Units=GPa)
#
#
# Indices 1 2 3 4 5 6 
#
# 1 70.6733 45.5273 21.1367 0.0000 0.0000 0.0000
# 2 45.5273 141.4507 55.9192 0.0000 0.0000 0.0000
# 3 21.1367 55.9192 103.5479 0.0000 0.0000 0.0000
# 4 0.0000 0.0000 0.0000 34.8659 0.0000 0.0000
# 5 0.0000 0.0000 0.0000 0.0000 25.3584 0.0000
# 6 0.0000 0.0000 0.0000 0.0000 0.0000 36.9484
#
#
#
# Elastic Compliance Matrix: (Units=1/GPa)
#
#
# Indices 1 2 3 4 5 6 
#
# 1 0.017889 -0.005485 -0.000689 0.000000 0.000000 0.000000
# 2 -0.005485 0.010671 -0.004643 0.000000 0.000000 0.000000
# 3 -0.000689 -0.004643 0.012305 0.000000 0.000000 0.000000
# 4 0.000000 0.000000 0.000000 0.028681 0.000000 0.000000
# 5 0.000000 0.000000 0.000000 0.000000 0.039435 0.000000
# 6 0.000000 0.000000 0.000000 0.000000 0.000000 0.027065
#
#
# Mechanical properties :
#
#
# Convention : Reuss Voigt Hill
#
# Bulk Modulus (GPa) = 52.00133 62.31539 57.15836
# Shear Modulus (GPa) = 30.47089 32.30712 31.38900
#
# Velocity S-wave (km/s) = 3.78183 3.89411 3.83838
# Velocity P-wave (km/s) = 6.59376 7.03335 6.81710
#
# Compressibility (1/GPa) = 0.01923028
#
# Stress axis : x y z
#
# Youngs Moduli (GPa) = 55.89889 93.71627 81.26573
#
# Poissons Ratio (x) = 0.51407 0.05603
# Poissons Ratio (y) = 0.30662 0.37729
# Poissons Ratio (z) = 0.03854 0.43510
#
# Static dielectric constant tensor:
#      x y z
#    x 3.646200 0.000000 0.000000 
#    y 0.000000 3.872960 0.000000 
#    z 0.000000 0.000000 4.360410 
# 
# 
# High freq. dielectric constant tensor:
#      x y z
#    x 1.832750 0.000000 0.000000 
#    y 0.000000 1.839940 0.000000 
#    z 0.000000 0.000000 1.841440 
# 
# From -- ./inp_files/23713.got.cif
#   From: 2010.03.12/outbox.cif.g09.slc.cpg/sg20_12_cif.got.tgz:23713.got - 2010.04.14 01:38:04.
