data_PCOD8159960
_publ_section_title
;
Structure prediction by ZEFSAII (Michael W. Deem and Ramdas Pophale) SiO2 
 PCOD8159960
Probable space group: C 2 2 21
;
_chemical_formula_sum "Si O2"
_cell_formula_units_Z 44
_cell_length_a 14.780317
_cell_length_b 17.201787
_cell_length_c 8.179766
_cell_angle_alpha 90.000000
_cell_angle_beta 90.000000
_cell_angle_gamma 90.000000
_cell_volume 2079.688040
_symmetry_space_group_name_H-M "C 2 2 21"
_symmetry_group_IT_number 20
_symmetry_cell_setting 'orthorhombic'
loop_
_space_group_symop_operation_xyz
x,y,z
-x,-y,1/2+z
x,-y,-z
-x,y,1/2-z
1/2+x,1/2+y,z
1/2-x,1/2-y,1/2+z
1/2+x,1/2-y,-z
1/2-x,1/2+y,1/2-z
loop_
_atom_site_type_symbol
_atom_site_label
_atom_site_fract_x
_atom_site_fract_y
_atom_site_fract_z
Si Si1 0.914644 0.948544 0.142939
Si Si2 0.732270 0.970867 0.816585
Si Si3 0.490399 0.847603 0.943890
Si Si4 0.680860 0.805760 0.915796
Si Si5 0.647087 0.279574 0.399926
Si Si6 0.386775 0.000000 0.000000
O O1 0.875163 0.869215 0.070213
O O2 0.000000 0.926612 0.250000
O O3 0.833049 0.997758 0.225434
O O4 0.956554 0.000000 0.000000
O O5 0.726702 0.877289 0.817047
O O6 0.670500 0.000118 0.667655
O O7 0.703046 0.000000 0.000000
O O8 0.500000 0.858779 0.750000
O O9 0.591376 0.833358 0.015976
O O10 0.425376 0.775437 0.990941
O O11 0.450189 0.925366 0.019874
O O12 0.647247 0.739505 0.791555
O O13 0.751934 0.764577 0.034415
#
# Coordination Sequence:
#
# PCOD8159960 Si02
#       6
#     8   8   8   8   8   4
#     4  11  24  44  68  97 136 185 238 296 350 407
#     4  11  24  45  67 105 142 181 237 299 342 420
#     4  10  23  42  66 101 135 179 234 287 346 433
#     4  11  23  46  67  96 144 179 232 297 347 422
#     4  11  23  45  66  95 139 185 225 292 358 410
#     4  12  24  42  74 102 140 192 228 278 384 422
#
# _framework density 21.157018999999998
#
# number of rings (size 3 to 8) (size 9 to 14) (size 15 to 20)
#    0.000    1.091    7.273    1.636    5.091    0.000 
#    3.273    2.727    0.000    0.000    0.000    0.000 
#    0.000    0.000    0.000    0.000    0.000    0.000 
#
# Total GULP energy -272708.800670 kJ/mol
# GULP energy per Si atom -12395.854576 kJ/mol
# Density = 2.110886 g / cm^3
# Si number density = 21.157019 Si / 1000 Ang^3
#
#
#
# Elastic Constant Matrix: (Units=GPa)
#
#
# Indices 1 2 3 4 5 6 
#
# 1 170.4463 47.6189 27.7354 0.0000 0.0000 0.0000
# 2 47.6189 98.2627 14.3083 0.0000 0.0000 0.0000
# 3 27.7354 14.3083 70.3409 0.0000 0.0000 0.0000
# 4 0.0000 0.0000 0.0000 29.5317 0.0000 0.0000
# 5 0.0000 0.0000 0.0000 0.0000 39.9360 0.0000
# 6 0.0000 0.0000 0.0000 0.0000 0.0000 39.4988
#
#
#
# Elastic Compliance Matrix: (Units=1/GPa)
#
#
# Indices 1 2 3 4 5 6 
#
# 1 0.007091 -0.003122 -0.002161 0.000000 0.000000 0.000000
# 2 -0.003122 0.011862 -0.001182 0.000000 0.000000 0.000000
# 3 -0.002161 -0.001182 0.015309 0.000000 0.000000 0.000000
# 4 0.000000 0.000000 0.000000 0.033862 0.000000 0.000000
# 5 0.000000 0.000000 0.000000 0.000000 0.025040 0.000000
# 6 0.000000 0.000000 0.000000 0.000000 0.000000 0.025317
#
#
# Mechanical properties :
#
#
# Convention : Reuss Voigt Hill
#
# Bulk Modulus (GPa) = 46.87702 57.59723 52.23712
# Shear Modulus (GPa) = 36.09584 38.41912 37.25748
#
# Velocity S-wave (km/s) = 4.13497 4.26597 4.20098
# Velocity P-wave (km/s) = 6.70836 7.17965 6.94800
#
# Compressibility (1/GPa) = 0.02133241
#
# Stress axis : x y z
#
# Youngs Moduli (GPa) = 141.03057 84.30543 65.32125
#
# Poissons Ratio (x) = 0.26316 0.14115
# Poissons Ratio (y) = 0.44023 0.07721
# Poissons Ratio (z) = 0.30475 0.09965
#
# Static dielectric constant tensor:
#      x y z
#    x 4.240020 0.000000 0.000000 
#    y 0.000000 3.921930 0.000000 
#    z 0.000000 0.000000 3.524410 
# 
# 
# High freq. dielectric constant tensor:
#      x y z
#    x 1.848310 0.000000 0.000000 
#    y 0.000000 1.840760 0.000000 
#    z 0.000000 0.000000 1.796180 
# 
# From -- ./inp_files/8285.got.cif
#   From: 2010.03.12/outbox.cif.g09.slc.cpg/sg20_5_cif.got.tgz:8285.got - 2010.04.14 01:38:04.
