data_PCOD8159021
_publ_section_title
;
Structure prediction by ZEFSAII (Michael W. Deem and Ramdas Pophale) SiO2 
 PCOD8159021
Probable space group: C 2 2 21
;
_chemical_formula_sum "Si O2"
_cell_formula_units_Z 44
_cell_length_a 10.740432
_cell_length_b 9.094732
_cell_length_c 21.767356
_cell_angle_alpha 90.000000
_cell_angle_beta 90.000000
_cell_angle_gamma 90.000000
_cell_volume 2126.264733
_symmetry_space_group_name_H-M "C 2 2 21"
_symmetry_group_IT_number 20
_symmetry_cell_setting 'orthorhombic'
loop_
_space_group_symop_operation_xyz
x,y,z
-x,-y,1/2+z
x,-y,-z
-x,y,1/2-z
1/2+x,1/2+y,z
1/2-x,1/2-y,1/2+z
1/2+x,1/2-y,-z
1/2-x,1/2+y,1/2-z
loop_
_atom_site_type_symbol
_atom_site_label
_atom_site_fract_x
_atom_site_fract_y
_atom_site_fract_z
Si Si1 0.160937 0.195697 0.898164
Si Si2 0.863202 0.928180 0.262495
Si Si3 0.369294 0.113448 0.217787
Si Si4 0.054870 0.578882 0.415241
Si Si5 0.403758 0.221908 0.964647
Si Si6 0.557229 0.500000 0.000000
O O1 0.149840 0.132570 0.830747
O O2 0.294520 0.258465 0.916967
O O3 0.070558 0.333127 0.903414
O O4 0.140149 0.063596 0.945629
O O5 0.852526 0.788896 0.217359
O O6 0.000000 0.002133 0.250000
O O7 0.750071 0.040195 0.248036
O O8 0.500000 0.066588 0.250000
O O9 0.365592 0.063540 0.146970
O O10 0.016663 0.414735 0.437036
O O11 0.136345 0.667658 0.466536
O O12 0.478018 0.372153 0.968558
#
# Coordination Sequence:
#
# PCOD8159021 Si02
#       6
#     8   8   8   8   8   4
#     4  11  21  42  65  91 135 169 217 275 328 394
#     4  11  24  43  68  96 133 177 223 275 331 393
#     4  11  23  45  65  98 133 180 220 276 333 403
#     4  10  20  42  65  90 134 173 213 266 341 389
#     4  10  22  39  66  94 126 169 214 271 329 387
#     4  10  24  38  62 102 124 164 220 266 326 388
#
# _framework density 20.693565
#
# number of rings (size 3 to 8) (size 9 to 14) (size 15 to 20)
#    0.000    1.455    5.455    1.091    0.000    5.091 
#    3.273    1.818    0.000    0.000    0.000    0.000 
#    0.000    0.000    0.000    0.000    0.000    0.000 
#
# Total GULP energy -272680.946287 kJ/mol
# GULP energy per Si atom -12394.588468 kJ/mol
# Density = 2.064647 g / cm^3
# Si number density = 20.693565 Si / 1000 Ang^3
#
#
#
# Elastic Constant Matrix: (Units=GPa)
#
#
# Indices 1 2 3 4 5 6 
#
# 1 83.0693 14.9473 -8.4357 0.0000 0.0000 0.0000
# 2 14.9473 79.1406 -11.6857 0.0000 0.0000 0.0000
# 3 -8.4357 -11.6857 69.9044 0.0000 0.0000 0.0000
# 4 0.0000 0.0000 0.0000 25.3285 0.0000 0.0000
# 5 0.0000 0.0000 0.0000 0.0000 32.2837 0.0000
# 6 0.0000 0.0000 0.0000 0.0000 0.0000 24.9803
#
#
#
# Elastic Compliance Matrix: (Units=1/GPa)
#
#
# Indices 1 2 3 4 5 6 
#
# 1 0.012551 -0.002201 0.001147 0.000000 0.000000 0.000000
# 2 -0.002201 0.013342 0.001965 0.000000 0.000000 0.000000
# 3 0.001147 0.001965 0.014772 0.000000 0.000000 0.000000
# 4 0.000000 0.000000 0.000000 0.039481 0.000000 0.000000
# 5 0.000000 0.000000 0.000000 0.000000 0.030975 0.000000
# 6 0.000000 0.000000 0.000000 0.000000 0.000000 0.040032
#
#
# Mechanical properties :
#
#
# Convention : Reuss Voigt Hill
#
# Bulk Modulus (GPa) = 23.53801 24.64066 24.08934
# Shear Modulus (GPa) = 30.58223 32.33773 31.45998
#
# Velocity S-wave (km/s) = 3.84847 3.95738 3.90330
# Velocity P-wave (km/s) = 5.58094 5.72839 5.65514
#
# Compressibility (1/GPa) = 0.04248447
#
# Stress axis : x y z
#
# Youngs Moduli (GPa) = 79.67721 74.95371 67.69541
#
# Poissons Ratio (x) = 0.16498 -0.07762
# Poissons Ratio (y) = 0.17538 -0.13300
# Poissons Ratio (z) = -0.09136 -0.14726
#
# Static dielectric constant tensor:
#      x y z
#    x 3.805530 0.000000 0.000000 
#    y 0.000000 3.919680 0.000000 
#    z 0.000000 0.000000 4.017250 
# 
# 
# High freq. dielectric constant tensor:
#      x y z
#    x 1.799960 0.000000 0.000000 
#    y 0.000000 1.809410 0.000000 
#    z 0.000000 0.000000 1.821810 
# 
# From -- ./inp_files/28654.got.cif
#   From: 2010.03.12/outbox.cif.g09.slc.cpg/sg20_15_cif.got.tgz:28654.got - 2010.04.14 01:38:04.
