data_PCOD8159811
_publ_section_title
;
Structure prediction by ZEFSAII (Michael W. Deem and Ramdas Pophale) SiO2 
 PCOD8159811
Probable space group: C 2 2 21
;
_chemical_formula_sum "Si O2"
_cell_formula_units_Z 48
_cell_length_a 21.742115
_cell_length_b 17.213476
_cell_length_c 6.094148
_cell_angle_alpha 90.000000
_cell_angle_beta 90.000000
_cell_angle_gamma 90.000000
_cell_volume 2280.779832
_symmetry_space_group_name_H-M "C 2 2 21"
_symmetry_group_IT_number 20
_symmetry_cell_setting 'orthorhombic'
loop_
_space_group_symop_operation_xyz
x,y,z
-x,-y,1/2+z
x,-y,-z
-x,y,1/2-z
1/2+x,1/2+y,z
1/2-x,1/2-y,1/2+z
1/2+x,1/2-y,-z
1/2-x,1/2+y,1/2-z
loop_
_atom_site_type_symbol
_atom_site_label
_atom_site_fract_x
_atom_site_fract_y
_atom_site_fract_z
Si Si1 0.569005 0.655516 0.341310
Si Si2 0.630976 0.924060 0.616066
Si Si3 0.799914 0.500000 0.500000
Si Si4 0.431875 0.778262 0.808647
Si Si5 0.771886 0.357537 0.217731
Si Si6 0.032609 0.000000 0.500000
Si Si7 0.837096 0.781475 0.525950
O O1 0.500000 0.666499 0.250000
O O2 0.589123 0.728142 0.486105
O O3 0.573376 0.577502 0.488470
O O4 0.622416 0.655197 0.159562
O O5 0.571505 0.869021 0.631935
O O6 0.683892 0.879902 0.481597
O O7 0.605433 0.000000 0.500000
O O8 0.657146 0.946766 0.850747
O O9 0.760670 0.435373 0.365799
O O10 0.500000 0.751999 0.750000
O O11 0.385373 0.768342 0.610010
O O12 0.797739 0.281436 0.339849
O O13 0.705819 0.334323 0.124901
O O14 0.000000 0.997367 0.250000
#
# Coordination Sequence:
#
# PCOD8159811 Si02
#       7
#     8   8   4   8   8   4   8
#     4  11  24  45  72 101 141 185 242 301 367 445
#     4  10  22  43  66  97 141 184 232 289 360 425
#     4  10  22  44  71  94 140 186 227 300 358 426
#     4  12  23  42  69 103 139 187 236 294 362 440
#     4  11  24  43  71  98 138 183 232 295 368 428
#     4  10  24  46  77 102 150 196 239 310 384 436
#     4  12  25  42  73 103 137 182 242 300 364 437
#
# _framework density 21.045434
#
# number of rings (size 3 to 8) (size 9 to 14) (size 15 to 20)
#    0.000    1.000    5.000    1.500    2.333    0.000 
#    1.500    6.667    0.000    0.000    0.000    0.000 
#    0.000    0.000    0.000    0.000    0.000    0.000 
#
# Total GULP energy -297383.796752 kJ/mol
# GULP energy per Si atom -12390.991531 kJ/mol
# Density = 2.099753 g / cm^3
# Si number density = 21.045434 Si / 1000 Ang^3
#
#
#
# Elastic Constant Matrix: (Units=GPa)
#
#
# Indices 1 2 3 4 5 6 
#
# 1 89.6524 43.1393 44.4238 0.0000 0.0000 0.0000
# 2 43.1393 155.7077 57.9489 0.0000 0.0000 0.0000
# 3 44.4238 57.9489 118.9894 0.0000 0.0000 0.0000
# 4 0.0000 0.0000 0.0000 20.9556 0.0000 0.0000
# 5 0.0000 0.0000 0.0000 0.0000 36.8925 0.0000
# 6 0.0000 0.0000 0.0000 0.0000 0.0000 42.3233
#
#
#
# Elastic Compliance Matrix: (Units=1/GPa)
#
#
# Indices 1 2 3 4 5 6 
#
# 1 0.014401 -0.002429 -0.004193 0.000000 0.000000 0.000000
# 2 -0.002429 0.008254 -0.003113 0.000000 0.000000 0.000000
# 3 -0.004193 -0.003113 0.011486 0.000000 0.000000 0.000000
# 4 0.000000 0.000000 0.000000 0.047720 0.000000 0.000000
# 5 0.000000 0.000000 0.000000 0.000000 0.027106 0.000000
# 6 0.000000 0.000000 0.000000 0.000000 0.000000 0.023628
#
#
# Mechanical properties :
#
#
# Convention : Reuss Voigt Hill
#
# Bulk Modulus (GPa) = 68.16814 72.81930 70.49372
# Shear Modulus (GPa) = 31.85641 34.62346 33.23993
#
# Velocity S-wave (km/s) = 3.89485 4.06048 3.97852
# Velocity P-wave (km/s) = 7.25863 7.52725 7.39416
#
# Compressibility (1/GPa) = 0.01466961
#
# Stress axis : x y z
#
# Youngs Moduli (GPa) = 69.43973 121.15705 87.06525
#
# Poissons Ratio (x) = 0.29431 0.36511
# Poissons Ratio (y) = 0.16868 0.27101
# Poissons Ratio (z) = 0.29119 0.37713
#
# Static dielectric constant tensor:
#      x y z
#    x 3.594920 0.000000 0.000000 
#    y 0.000000 4.248100 0.000000 
#    z 0.000000 0.000000 4.244470 
# 
# 
# High freq. dielectric constant tensor:
#      x y z
#    x 1.799970 0.000000 0.000000 
#    y 0.000000 1.845420 0.000000 
#    z 0.000000 0.000000 1.842700 
# 
# From -- ./inp_files/3769.got.cif
#   From: 2010.03.12/outbox.cif.g09.slc.cpg/sg20_2_cif.got.tgz:3769.got - 2010.04.14 01:38:04.
