data_PCOD8159737
_publ_section_title
;
Structure prediction by ZEFSAII (Michael W. Deem and Ramdas Pophale) SiO2 
 PCOD8159737
Probable space group: C 2 2 21
;
_chemical_formula_sum "Si O2"
_cell_formula_units_Z 48
_cell_length_a 22.539364
_cell_length_b 11.575461
_cell_length_c 9.073841
_cell_angle_alpha 90.000000
_cell_angle_beta 90.000000
_cell_angle_gamma 90.000000
_cell_volume 2367.397138
_symmetry_space_group_name_H-M "C 2 2 21"
_symmetry_group_IT_number 20
_symmetry_cell_setting 'orthorhombic'
loop_
_space_group_symop_operation_xyz
x,y,z
-x,-y,1/2+z
x,-y,-z
-x,y,1/2-z
1/2+x,1/2+y,z
1/2-x,1/2-y,1/2+z
1/2+x,1/2-y,-z
1/2-x,1/2+y,1/2-z
loop_
_atom_site_type_symbol
_atom_site_label
_atom_site_fract_x
_atom_site_fract_y
_atom_site_fract_z
Si Si1 0.563222 0.003454 0.826292
Si Si2 0.160653 0.318906 0.860253
Si Si3 0.162033 0.895194 0.324462
Si Si4 0.876745 0.257332 0.322923
Si Si5 0.208738 0.873200 0.641337
Si Si6 0.061634 0.980791 0.825368
O O1 0.500000 0.976714 0.750000
O O2 0.589560 0.126231 0.770867
O O3 0.613565 0.908051 0.787619
O O4 0.551971 0.000000 0.000000
O O5 0.182685 0.225473 0.742946
O O6 0.222809 0.376079 0.907872
O O7 0.132547 0.260757 0.002871
O O8 0.165303 0.879466 0.500049
O O9 0.201123 0.005425 0.270419
O O10 0.097080 0.918775 0.259599
O O11 0.813486 0.236524 0.239127
O O12 0.916249 0.147021 0.284878
O O13 0.000000 0.995676 0.750000
O O14 0.060656 0.000000 0.000000
#
# Coordination Sequence:
#
# PCOD8159737 Si02
#       6
#     8   8   8   8   8   8
#     4  10  24  42  63  90 126 169 214 260 318 380
#     4  11  22  40  66  90 127 170 207 267 323 385
#     4  10  23  41  59  99 125 159 213 263 323 384
#     4  10  22  42  62  91 127 168 215 257 320 386
#     4  10  23  37  67  91 130 160 209 265 324 390
#     4  11  23  40  64  92 129 168 213 266 321 381
#
# _framework density 20.275431000000001
#
# number of rings (size 3 to 8) (size 9 to 14) (size 15 to 20)
#    0.000    1.667    1.667    1.500   14.000    2.000 
#    0.000    0.000    0.000    0.000    0.000    0.000 
#    0.000    0.000    0.000    0.000    0.000    0.000 
#
# Total GULP energy -297426.849299 kJ/mol
# GULP energy per Si atom -12392.785387 kJ/mol
# Density = 2.022928 g / cm^3
# Si number density = 20.275431 Si / 1000 Ang^3
#
#
#
# Elastic Constant Matrix: (Units=GPa)
#
#
# Indices 1 2 3 4 5 6 
#
# 1 130.4826 37.7905 42.5805 0.0000 0.0000 0.0000
# 2 37.7905 103.0122 46.2421 0.0000 0.0000 0.0000
# 3 42.5805 46.2421 64.0127 0.0000 0.0000 0.0000
# 4 0.0000 0.0000 0.0000 28.5269 0.0000 0.0000
# 5 0.0000 0.0000 0.0000 0.0000 26.0121 0.0000
# 6 0.0000 0.0000 0.0000 0.0000 0.0000 24.3949
#
#
#
# Elastic Compliance Matrix: (Units=1/GPa)
#
#
# Indices 1 2 3 4 5 6 
#
# 1 0.009857 -0.000996 -0.005838 0.000000 0.000000 0.000000
# 2 -0.000996 0.014467 -0.009788 0.000000 0.000000 0.000000
# 3 -0.005838 -0.009788 0.026576 0.000000 0.000000 0.000000
# 4 0.000000 0.000000 0.000000 0.035055 0.000000 0.000000
# 5 0.000000 0.000000 0.000000 0.000000 0.038444 0.000000
# 6 0.000000 0.000000 0.000000 0.000000 0.000000 0.040992
#
#
# Mechanical properties :
#
#
# Convention : Reuss Voigt Hill
#
# Bulk Modulus (GPa) = 56.63564 61.19263 58.91414
# Shear Modulus (GPa) = 24.44754 27.17975 25.81364
#
# Velocity S-wave (km/s) = 3.47619 3.66529 3.57199
# Velocity P-wave (km/s) = 6.64121 6.93965 6.79207
#
# Compressibility (1/GPa) = 0.01765673
#
# Stress axis : x y z
#
# Youngs Moduli (GPa) = 101.44850 69.12359 37.62789
#
# Poissons Ratio (x) = 0.06882 0.21966
# Poissons Ratio (y) = 0.10101 0.36832
# Poissons Ratio (z) = 0.59222 0.67661
#
# Static dielectric constant tensor:
#      x y z
#    x 3.641390 0.000000 0.000000 
#    y 0.000000 3.883040 0.000000 
#    z 0.000000 0.000000 3.497770 
# 
# 
# High freq. dielectric constant tensor:
#      x y z
#    x 1.794780 0.000000 0.000000 
#    y 0.000000 1.802930 0.000000 
#    z 0.000000 0.000000 1.780300 
# 
# From -- ./inp_files/10656.got.cif
#   From: 2010.03.12/outbox.cif.g09.slc.cpg/sg20_6_cif.got.tgz:10656.got - 2010.04.14 01:38:04.
