data_PCOD8159270
_publ_section_title
;
Structure prediction by ZEFSAII (Michael W. Deem and Ramdas Pophale) SiO2 
 PCOD8159270
Probable space group: C 2 2 21
;
_chemical_formula_sum "Si O2"
_cell_formula_units_Z 48
_cell_length_a 13.626226
_cell_length_b 18.158141
_cell_length_c 9.202256
_cell_angle_alpha 90.000000
_cell_angle_beta 90.000000
_cell_angle_gamma 90.000000
_cell_volume 2276.885979
_symmetry_space_group_name_H-M "C 2 2 21"
_symmetry_group_IT_number 20
_symmetry_cell_setting 'orthorhombic'
loop_
_space_group_symop_operation_xyz
x,y,z
-x,-y,1/2+z
x,-y,-z
-x,y,1/2-z
1/2+x,1/2+y,z
1/2-x,1/2-y,1/2+z
1/2+x,1/2-y,-z
1/2-x,1/2+y,1/2-z
loop_
_atom_site_type_symbol
_atom_site_label
_atom_site_fract_x
_atom_site_fract_y
_atom_site_fract_z
Si Si1 0.470807 0.572098 0.083776
Si Si2 0.249655 0.454591 0.868602
Si Si3 0.544769 0.927733 0.405589
Si Si4 0.236665 0.397416 0.268900
Si Si5 0.868323 0.340448 0.514420
Si Si6 0.425820 0.684279 0.620171
O O1 0.500000 0.568164 0.250000
O O2 0.353752 0.576107 0.076764
O O3 0.509903 0.500000 0.000000
O O4 0.515713 0.643973 0.008554
O O5 0.253859 0.513281 0.738702
O O6 0.198645 0.500000 0.000000
O O7 0.177641 0.384430 0.845432
O O8 0.500000 0.951075 0.250000
O O9 0.650120 0.887642 0.386336
O O10 0.477893 0.867435 0.483702
O O11 0.556292 0.000000 0.500000
O O12 0.205019 0.355882 0.120807
O O13 0.339836 0.367020 0.320966
O O14 0.873513 0.255135 0.552283
O O15 0.500000 0.704792 0.750000
#
# Coordination Sequence:
#
# PCOD8159270 Si02
#       6
#     8   8   8   8   8   8
#     4  11  23  41  67  94 128 173 222 272 329 398
#     4   9  18  38  65  89 121 164 208 261 326 385
#     4  10  21  39  64  91 122 158 208 266 325 394
#     4  10  22  41  64  91 125 166 221 273 318 391
#     4  10  22  39  62  92 128 169 206 267 342 393
#     4  12  26  42  63  95 133 172 218 273 335 409
#
# _framework density 21.081423999999998
#
# number of rings (size 3 to 8) (size 9 to 14) (size 15 to 20)
#    0.000    1.667    0.000    7.000    0.000   10.000 
#    0.000    0.000    0.000    0.000    0.000    0.000 
#    0.000    0.000    0.000    0.000    0.000    0.000 
#
# Total GULP energy -297514.215387 kJ/mol
# GULP energy per Si atom -12396.425641 kJ/mol
# Density = 2.103344 g / cm^3
# Si number density = 21.081424 Si / 1000 Ang^3
#
#
#
# Elastic Constant Matrix: (Units=GPa)
#
#
# Indices 1 2 3 4 5 6 
#
# 1 121.7356 55.3260 30.9358 0.0000 0.0000 0.0000
# 2 55.3260 147.3935 49.2969 0.0000 0.0000 0.0000
# 3 30.9358 49.2969 88.1440 0.0000 0.0000 0.0000
# 4 0.0000 0.0000 0.0000 22.6244 0.0000 0.0000
# 5 0.0000 0.0000 0.0000 0.0000 23.6528 0.0000
# 6 0.0000 0.0000 0.0000 0.0000 0.0000 28.0994
#
#
#
# Elastic Compliance Matrix: (Units=1/GPa)
#
#
# Indices 1 2 3 4 5 6 
#
# 1 0.010120 -0.003212 -0.001756 0.000000 0.000000 0.000000
# 2 -0.003212 0.009365 -0.004110 0.000000 0.000000 0.000000
# 3 -0.001756 -0.004110 0.014260 0.000000 0.000000 0.000000
# 4 0.000000 0.000000 0.000000 0.044200 0.000000 0.000000
# 5 0.000000 0.000000 0.000000 0.000000 0.042278 0.000000
# 6 0.000000 0.000000 0.000000 0.000000 0.000000 0.035588
#
#
# Mechanical properties :
#
#
# Convention : Reuss Voigt Hill
#
# Bulk Modulus (GPa) = 64.14425 69.82117 66.98271
# Shear Modulus (GPa) = 27.90746 29.65627 28.78186
#
# Velocity S-wave (km/s) = 3.64235 3.75473 3.69897
# Velocity P-wave (km/s) = 6.94132 7.21034 7.07711
#
# Compressibility (1/GPa) = 0.01558986
#
# Stress axis : x y z
#
# Youngs Moduli (GPa) = 98.81155 106.78288 70.12560
#
# Poissons Ratio (x) = 0.34294 0.12312
# Poissons Ratio (y) = 0.31734 0.28824
# Poissons Ratio (z) = 0.17349 0.43892
#
# Static dielectric constant tensor:
#      x y z
#    x 4.170910 0.000000 0.000000 
#    y 0.000000 3.758360 0.000000 
#    z 0.000000 0.000000 3.774040 
# 
# 
# High freq. dielectric constant tensor:
#      x y z
#    x 1.845260 0.000000 0.000000 
#    y 0.000000 1.816660 0.000000 
#    z 0.000000 0.000000 1.810650 
# 
# From -- ./inp_files/8435.got.cif
#   From: 2010.03.12/outbox.cif.g09.slc.cpg/sg20_5_cif.got.tgz:8435.got - 2010.04.14 01:38:04.
