data_PCOD8159878
_publ_section_title
;
Structure prediction by ZEFSAII (Michael W. Deem and Ramdas Pophale) SiO2 
 PCOD8159878
Probable space group: C 2 2 21
;
_chemical_formula_sum "Si O2"
_cell_formula_units_Z 48
_cell_length_a 5.596215
_cell_length_b 13.665783
_cell_length_c 26.937311
_cell_angle_alpha 90.000000
_cell_angle_beta 90.000000
_cell_angle_gamma 90.000000
_cell_volume 2060.075570
_symmetry_space_group_name_H-M "C 2 2 21"
_symmetry_group_IT_number 20
_symmetry_cell_setting 'orthorhombic'
loop_
_space_group_symop_operation_xyz
x,y,z
-x,-y,1/2+z
x,-y,-z
-x,y,1/2-z
1/2+x,1/2+y,z
1/2-x,1/2-y,1/2+z
1/2+x,1/2-y,-z
1/2-x,1/2+y,1/2-z
loop_
_atom_site_type_symbol
_atom_site_label
_atom_site_fract_x
_atom_site_fract_y
_atom_site_fract_z
Si Si1 0.759612 0.581024 0.776370
Si Si2 0.875814 0.142861 0.110298
Si Si3 0.409437 0.099324 0.476958
Si Si4 0.250068 0.233845 0.562157
Si Si5 0.324773 0.370196 0.703979
Si Si6 0.984762 0.772996 0.342375
O O1 0.500000 0.584691 0.750000
O O2 0.828192 0.468170 0.786740
O O3 0.709187 0.647672 0.824346
O O4 0.000000 0.623738 0.750000
O O5 0.773280 0.069679 0.067954
O O6 0.651860 0.175815 0.142453
O O7 0.987393 0.235020 0.080478
O O8 0.057059 0.100011 0.150831
O O9 0.257910 0.155349 0.518796
O O10 0.620202 0.167457 0.456702
O O11 0.518223 0.000000 0.500000
O O12 0.117664 0.183907 0.609255
O O13 0.500000 0.349236 0.750000
O O14 0.169196 0.269963 0.699308
#
# Coordination Sequence:
#
# PCOD8159878 Si02
#       6
#     8   8   8   8   8   8
#     4  11  28  46  71 110 143 191 250 301 363 444
#     4  10  23  44  69 100 137 189 238 294 371 429
#     4  11  23  42  72  98 136 185 232 296 372 427
#     4  10  22  46  64 103 140 175 242 302 349 451
#     4  10  25  46  72 103 149 188 240 308 365 442
#     4  10  25  44  71 100 139 191 236 298 367 433
#
# _framework density 23.300118000000001
#
# number of rings (size 3 to 8) (size 9 to 14) (size 15 to 20)
#    0.000    1.667    1.667    0.000   14.000    0.667 
#    9.000    0.000    0.000    0.000    0.000    0.000 
#    0.000    0.000    0.000    0.000    0.000    0.000 
#
# Total GULP energy -297317.309646 kJ/mol
# GULP energy per Si atom -12388.221235 kJ/mol
# Density = 2.324709 g / cm^3
# Si number density = 23.300118 Si / 1000 Ang^3
#
#
#
# Elastic Constant Matrix: (Units=GPa)
#
#
# Indices 1 2 3 4 5 6 
#
# 1 96.8650 23.8569 42.8624 0.0000 0.0000 0.0000
# 2 23.8569 77.5229 45.6100 0.0000 0.0000 0.0000
# 3 42.8624 45.6100 129.6277 0.0000 0.0000 0.0000
# 4 0.0000 0.0000 0.0000 27.7382 0.0000 0.0000
# 5 0.0000 0.0000 0.0000 0.0000 40.8270 0.0000
# 6 0.0000 0.0000 0.0000 0.0000 0.0000 18.9434
#
#
#
# Elastic Compliance Matrix: (Units=1/GPa)
#
#
# Indices 1 2 3 4 5 6 
#
# 1 0.012279 -0.001753 -0.003443 0.000000 0.000000 0.000000
# 2 -0.001753 0.016517 -0.005232 0.000000 0.000000 0.000000
# 3 -0.003443 -0.005232 0.010694 0.000000 0.000000 0.000000
# 4 0.000000 0.000000 0.000000 0.036051 0.000000 0.000000
# 5 0.000000 0.000000 0.000000 0.000000 0.024494 0.000000
# 6 0.000000 0.000000 0.000000 0.000000 0.000000 0.052789
#
#
# Mechanical properties :
#
#
# Convention : Reuss Voigt Hill
#
# Bulk Modulus (GPa) = 53.66685 58.74156 56.20420
# Shear Modulus (GPa) = 27.79454 30.28080 29.03767
#
# Velocity S-wave (km/s) = 3.45757 3.60891 3.53405
# Velocity P-wave (km/s) = 6.24681 6.52925 6.38959
#
# Compressibility (1/GPa) = 0.01863348
#
# Stress axis : x y z
#
# Youngs Moduli (GPa) = 81.43945 60.54356 93.51134
#
# Poissons Ratio (x) = 0.10612 0.32200
# Poissons Ratio (y) = 0.14275 0.48925
# Poissons Ratio (z) = 0.28043 0.31676
#
# Static dielectric constant tensor:
#      x y z
#    x 4.241260 0.000000 0.000000 
#    y 0.000000 3.838030 0.000000 
#    z 0.000000 0.000000 4.690320 
# 
# 
# High freq. dielectric constant tensor:
#      x y z
#    x 1.924330 0.000000 0.000000 
#    y 0.000000 1.890910 0.000000 
#    z 0.000000 0.000000 1.942130 
# 
# From -- ./inp_files/29811.got.cif
#   From: 2010.03.12/outbox.cif.g09.slc.cpg/sg20_15_cif.got.tgz:29811.got - 2010.04.14 01:38:04.
