data_PCOD8159031
_publ_section_title
;
Structure prediction by ZEFSAII (Michael W. Deem and Ramdas Pophale) SiO2 
 PCOD8159031
Probable space group: C 2 2 21
;
_chemical_formula_sum "Si O2"
_cell_formula_units_Z 48
_cell_length_a 12.019218
_cell_length_b 8.711152
_cell_length_c 20.443024
_cell_angle_alpha 90.000000
_cell_angle_beta 90.000000
_cell_angle_gamma 90.000000
_cell_volume 2140.409858
_symmetry_space_group_name_H-M "C 2 2 21"
_symmetry_group_IT_number 20
_symmetry_cell_setting 'orthorhombic'
loop_
_space_group_symop_operation_xyz
x,y,z
-x,-y,1/2+z
x,-y,-z
-x,y,1/2-z
1/2+x,1/2+y,z
1/2-x,1/2-y,1/2+z
1/2+x,1/2-y,-z
1/2-x,1/2+y,1/2-z
loop_
_atom_site_type_symbol
_atom_site_label
_atom_site_fract_x
_atom_site_fract_y
_atom_site_fract_z
Si Si1 0.074411 0.375039 0.942664
Si Si2 0.879360 0.210800 0.227617
Si Si3 0.200868 0.028733 0.392919
Si Si4 0.483568 0.306222 0.950604
Si Si5 0.296069 0.296280 0.631938
Si Si6 0.387470 0.038421 0.876663
O O1 0.198159 0.359158 0.914786
O O2 0.992336 0.421617 0.883085
O O3 0.072826 0.500000 0.000000
O O4 0.034142 0.214426 0.976411
O O5 0.798991 0.223267 0.289966
O O6 0.887421 0.378475 0.193782
O O7 0.000000 0.154508 0.250000
O O8 0.831820 0.080227 0.179846
O O9 0.237574 0.853153 0.398247
O O10 0.094925 0.044631 0.442148
O O11 0.580616 0.311423 0.896554
O O12 0.399644 0.165790 0.933302
O O13 0.226574 0.446417 0.612414
#
# Coordination Sequence:
#
# PCOD8159031 Si02
#       6
#     8   8   8   8   8   8
#     4  10  20  42  68  95 130 177 214 264 335 394
#     4  11  21  44  67  93 136 174 213 273 327 390
#     4  11  22  41  72  97 127 174 219 268 330 381
#     4  10  23  43  66  93 137 169 215 270 328 388
#     4  12  22  42  68  98 131 170 219 269 326 386
#     4  10  22  40  68  90 130 178 213 258 336 385
#
# _framework density 22.425612000000001
#
# number of rings (size 3 to 8) (size 9 to 14) (size 15 to 20)
#    0.000    1.333    6.667    1.000    2.333    0.000 
#    6.000    0.833    0.000    0.000    0.000    0.000 
#    0.000    0.000    0.000    0.000    0.000    0.000 
#
# Total GULP energy -297547.491476 kJ/mol
# GULP energy per Si atom -12397.812145 kJ/mol
# Density = 2.237457 g / cm^3
# Si number density = 22.425612 Si / 1000 Ang^3
#
#
#
# Elastic Constant Matrix: (Units=GPa)
#
#
# Indices 1 2 3 4 5 6 
#
# 1 121.3673 51.8010 26.7503 0.0000 0.0000 0.0000
# 2 51.8010 56.9310 23.4229 0.0000 0.0000 0.0000
# 3 26.7503 23.4229 65.1779 0.0000 0.0000 0.0000
# 4 0.0000 0.0000 0.0000 29.9553 0.0000 0.0000
# 5 0.0000 0.0000 0.0000 0.0000 45.8258 0.0000
# 6 0.0000 0.0000 0.0000 0.0000 0.0000 37.5009
#
#
#
# Elastic Compliance Matrix: (Units=1/GPa)
#
#
# Indices 1 2 3 4 5 6 
#
# 1 0.013568 -0.011799 -0.001328 0.000000 0.000000 0.000000
# 2 -0.011799 0.030873 -0.006252 0.000000 0.000000 0.000000
# 3 -0.001328 -0.006252 0.018135 0.000000 0.000000 0.000000
# 4 0.000000 0.000000 0.000000 0.033383 0.000000 0.000000
# 5 0.000000 0.000000 0.000000 0.000000 0.021822 0.000000
# 6 0.000000 0.000000 0.000000 0.000000 0.000000 0.026666
#
#
# Mechanical properties :
#
#
# Convention : Reuss Voigt Hill
#
# Bulk Modulus (GPa) = 41.98749 49.71385 45.85067
# Shear Modulus (GPa) = 26.15804 32.08987 29.12396
#
# Velocity S-wave (km/s) = 3.41902 3.78689 3.60765
# Velocity P-wave (km/s) = 5.86088 6.42940 6.15171
#
# Compressibility (1/GPa) = 0.02381662
#
# Stress axis : x y z
#
# Youngs Moduli (GPa) = 73.70159 32.39039 55.14269
#
# Poissons Ratio (x) = 0.38218 0.07326
# Poissons Ratio (y) = 0.86961 0.34477
# Poissons Ratio (z) = 0.09791 0.20252
#
# Static dielectric constant tensor:
#      x y z
#    x 4.268060 0.000000 0.000000 
#    y 0.000000 3.964520 0.000000 
#    z 0.000000 0.000000 4.178420 
# 
# 
# High freq. dielectric constant tensor:
#      x y z
#    x 1.896090 0.000000 0.000000 
#    y 0.000000 1.865200 0.000000 
#    z 0.000000 0.000000 1.879890 
# 
# From -- ./inp_files/29074.got.cif
#   From: 2010.03.12/outbox.cif.g09.slc.cpg/sg20_15_cif.got.tgz:29074.got - 2010.04.14 01:38:04.
