data_PCOD8159475
_publ_section_title
;
Structure prediction by ZEFSAII (Michael W. Deem and Ramdas Pophale) SiO2 
 PCOD8159475
Probable space group: C 2 2 21
;
_chemical_formula_sum "Si O2"
_cell_formula_units_Z 32
_cell_length_a 12.360331
_cell_length_b 9.652053
_cell_length_c 12.480732
_cell_angle_alpha 90.000000
_cell_angle_beta 90.000000
_cell_angle_gamma 90.000000
_cell_volume 1488.983402
_symmetry_space_group_name_H-M "C 2 2 21"
_symmetry_group_IT_number 20
_symmetry_cell_setting 'orthorhombic'
loop_
_space_group_symop_operation_xyz
x,y,z
-x,-y,1/2+z
x,-y,-z
-x,y,1/2-z
1/2+x,1/2+y,z
1/2-x,1/2-y,1/2+z
1/2+x,1/2-y,-z
1/2-x,1/2+y,1/2-z
loop_
_atom_site_type_symbol
_atom_site_label
_atom_site_fract_x
_atom_site_fract_y
_atom_site_fract_z
Si Si1 0.000000 0.036857 0.750000
Si Si2 0.142653 0.394767 0.913680
Si Si3 0.500000 0.063414 0.750000
Si Si4 0.363231 0.689249 0.167463
Si Si5 0.016764 0.145447 0.974021
O O1 0.014111 0.140462 0.651059
O O2 0.898355 0.929436 0.746988
O O3 0.049687 0.466475 0.842388
O O4 0.233681 0.321504 0.840516
O O5 0.092247 0.277177 0.990794
O O6 0.194237 0.500000 0.000000
O O7 0.598190 0.159181 0.705835
O O8 0.412896 0.656332 0.050583
O O9 0.077751 0.000000 0.000000
#
# Coordination Sequence:
#
# PCOD8159475 Si02
#       5
#     4   8   4   8   8
#     4   9  19  38  66  94 126 184 234 268 334 418
#     4  12  24  44  71 104 139 185 230 290 349 404
#     4  11  25  48  66 110 140 174 242 290 328 430
#     4  10  23  44  68  97 146 179 226 292 345 402
#     4  10  21  43  64  99 134 179 232 282 334 419
#
# _framework density 21.491173
#
# number of rings (size 3 to 8) (size 9 to 14) (size 15 to 20)
#    0.000    1.500    2.500    3.000    3.500    0.000 
#    9.000    0.000    0.000    0.000    0.000    0.000 
#    0.000    0.000    0.000    0.000    0.000    0.000 
#
# Total GULP energy -198295.317728 kJ/mol
# GULP energy per Si atom -12393.457358 kJ/mol
# Density = 2.144226 g / cm^3
# Si number density = 21.491173 Si / 1000 Ang^3
#
#
#
# Elastic Constant Matrix: (Units=GPa)
#
#
# Indices 1 2 3 4 5 6 
#
# 1 82.7952 38.5365 1.1919 0.0000 0.0000 0.0000
# 2 38.5365 126.0311 23.9286 0.0000 0.0000 0.0000
# 3 1.1919 23.9286 78.1822 0.0000 0.0000 0.0000
# 4 0.0000 0.0000 0.0000 41.7622 0.0000 0.0000
# 5 0.0000 0.0000 0.0000 0.0000 32.0242 0.0000
# 6 0.0000 0.0000 0.0000 0.0000 0.0000 25.7920
#
#
#
# Elastic Compliance Matrix: (Units=1/GPa)
#
#
# Indices 1 2 3 4 5 6 
#
# 1 0.014184 -0.004561 0.001180 0.000000 0.000000 0.000000
# 2 -0.004561 0.009891 -0.002958 0.000000 0.000000 0.000000
# 3 0.001180 -0.002958 0.013678 0.000000 0.000000 0.000000
# 4 0.000000 0.000000 0.000000 0.023945 0.000000 0.000000
# 5 0.000000 0.000000 0.000000 0.000000 0.031226 0.000000
# 6 0.000000 0.000000 0.000000 0.000000 0.000000 0.038772
#
#
# Mechanical properties :
#
#
# Convention : Reuss Voigt Hill
#
# Bulk Modulus (GPa) = 39.88096 46.03585 42.95840
# Shear Modulus (GPa) = 32.73714 34.80578 33.77146
#
# Velocity S-wave (km/s) = 3.90716 4.02871 3.96840
# Velocity P-wave (km/s) = 6.24113 6.56567 6.40546
#
# Compressibility (1/GPa) = 0.02507462
#
# Stress axis : x y z
#
# Youngs Moduli (GPa) = 70.50255 101.10507 73.11084
#
# Poissons Ratio (x) = 0.46114 -0.08625
# Poissons Ratio (y) = 0.32156 0.21623
# Poissons Ratio (z) = -0.08317 0.29903
#
# Static dielectric constant tensor:
#      x y z
#    x 3.428330 0.000000 0.000000 
#    y 0.000000 4.159660 0.000000 
#    z 0.000000 0.000000 4.009050 
# 
# 
# High freq. dielectric constant tensor:
#      x y z
#    x 1.803590 0.000000 0.000000 
#    y 0.000000 1.863720 0.000000 
#    z 0.000000 0.000000 1.851970 
# 
# From -- ./inp_files/12506.got.cif
#   From: 2010.03.12/outbox.cif.g09.slc.cpg/sg20_7_cif.got.tgz:12506.got - 2010.04.14 01:38:04.
