data_PCOD8159725
_publ_section_title
;
Structure prediction by ZEFSAII (Michael W. Deem and Ramdas Pophale) SiO2 
 PCOD8159725
Probable space group: C 2 2 21
;
_chemical_formula_sum "Si O2"
_cell_formula_units_Z 40
_cell_length_a 5.205655
_cell_length_b 28.030073
_cell_length_c 12.692127
_cell_angle_alpha 90.000000
_cell_angle_beta 90.000000
_cell_angle_gamma 90.000000
_cell_volume 1851.970311
_symmetry_space_group_name_H-M "C 2 2 21"
_symmetry_group_IT_number 20
_symmetry_cell_setting 'orthorhombic'
loop_
_space_group_symop_operation_xyz
x,y,z
-x,-y,1/2+z
x,-y,-z
-x,y,1/2-z
1/2+x,1/2+y,z
1/2-x,1/2-y,1/2+z
1/2+x,1/2-y,-z
1/2-x,1/2+y,1/2-z
loop_
_atom_site_type_symbol
_atom_site_label
_atom_site_fract_x
_atom_site_fract_y
_atom_site_fract_z
Si Si1 0.500000 0.740405 0.750000
Si Si2 0.129304 0.603570 0.882483
Si Si3 0.000000 0.045639 0.250000
Si Si4 0.371837 0.347417 0.376488
Si Si5 0.500000 0.299384 0.750000
Si Si6 0.500000 0.016948 0.750000
Si Si7 0.909099 0.124347 0.081569
O O1 0.586832 0.708198 0.849711
O O2 0.752439 0.769348 0.711249
O O3 0.388311 0.622977 0.825343
O O4 0.899259 0.634643 0.833776
O O5 0.069199 0.548843 0.852637
O O6 0.159618 0.610849 0.009580
O O7 0.979891 0.077146 0.145278
O O8 0.748179 0.014756 0.272483
O O9 0.366917 0.357930 0.502284
O O10 0.633252 0.331646 0.660072
#
# Coordination Sequence:
#
# PCOD8159725 Si02
#       7
#     4   8   4   8   4   4   8
#     4  12  24  40  68 103 128 167 232 278 320 380
#     4  10  22  42  69  92 129 178 213 268 334 400
#     4  11  26  43  66  99 134 175 220 281 322 397
#     4  10  22  41  69  91 133 173 217 268 332 402
#     4  11  26  41  68  95 134 175 220 277 324 399
#     4  12  24  42  68 101 130 165 232 280 318 382
#     4   9  26  45  66  89 139 181 214 259 354 393
#
# _framework density 21.59862
#
# number of rings (size 3 to 8) (size 9 to 14) (size 15 to 20)
#    1.200    0.400    0.000    3.600    5.600    4.000 
#    0.000    0.000    0.000    0.000    0.000    0.000 
#    0.000    0.000    0.000    0.000    0.000    0.000 
#
# Total GULP energy -247776.759437 kJ/mol
# GULP energy per Si atom -12388.837972 kJ/mol
# Density = 2.154946 g / cm^3
# Si number density = 21.598620 Si / 1000 Ang^3
#
#
#
# Elastic Constant Matrix: (Units=GPa)
#
#
# Indices 1 2 3 4 5 6 
#
# 1 170.7608 77.4054 57.5458 0.0000 0.0000 0.0000
# 2 77.4054 153.2282 59.4693 0.0000 0.0000 0.0000
# 3 57.5458 59.4693 113.3003 0.0000 0.0000 0.0000
# 4 0.0000 0.0000 0.0000 21.8161 0.0000 0.0000
# 5 0.0000 0.0000 0.0000 0.0000 33.9861 0.0000
# 6 0.0000 0.0000 0.0000 0.0000 0.0000 19.7010
#
#
#
# Elastic Compliance Matrix: (Units=1/GPa)
#
#
# Indices 1 2 3 4 5 6 
#
# 1 0.008112 -0.003138 -0.002473 0.000000 0.000000 0.000000
# 2 -0.003138 0.009410 -0.003345 0.000000 0.000000 0.000000
# 3 -0.002473 -0.003345 0.011838 0.000000 0.000000 0.000000
# 4 0.000000 0.000000 0.000000 0.045838 0.000000 0.000000
# 5 0.000000 0.000000 0.000000 0.000000 0.029424 0.000000
# 6 0.000000 0.000000 0.000000 0.000000 0.000000 0.050759
#
#
# Mechanical properties :
#
#
# Convention : Reuss Voigt Hill
#
# Bulk Modulus (GPa) = 87.35745 91.79226 89.57485
# Shear Modulus (GPa) = 28.23132 31.29190 29.76161
#
# Velocity S-wave (km/s) = 3.61929 3.81043 3.71609
# Velocity P-wave (km/s) = 7.61573 7.87087 7.74435
#
# Compressibility (1/GPa) = 0.01144722
#
# Stress axis : x y z
#
# Youngs Moduli (GPa) = 123.27352 106.27260 84.47402
#
# Poissons Ratio (x) = 0.33350 0.20890
# Poissons Ratio (y) = 0.38685 0.28258
# Poissons Ratio (z) = 0.30486 0.35550
#
# Static dielectric constant tensor:
#      x y z
#    x 3.840080 0.000000 0.000000 
#    y 0.000000 3.828480 0.000000 
#    z 0.000000 0.000000 4.059010 
# 
# 
# High freq. dielectric constant tensor:
#      x y z
#    x 1.858190 0.000000 0.000000 
#    y 0.000000 1.843630 0.000000 
#    z 0.000000 0.000000 1.853860 
# 
# From -- ./inp_files/17682.got.cif
#   From: 2010.03.12/outbox.cif.g09.slc.cpg/sg20_9_cif.got.tgz:17682.got - 2010.04.14 01:38:04.
