data_PCOD8159211
_publ_section_title
;
Structure prediction by ZEFSAII (Michael W. Deem and Ramdas Pophale) SiO2 
 PCOD8159211
Probable space group: C 2 2 21
;
_chemical_formula_sum "Si O2"
_cell_formula_units_Z 56
_cell_length_a 32.665183
_cell_length_b 5.141559
_cell_length_c 14.982505
_cell_angle_alpha 90.000000
_cell_angle_beta 90.000000
_cell_angle_gamma 90.000000
_cell_volume 2516.311200
_symmetry_space_group_name_H-M "C 2 2 21"
_symmetry_group_IT_number 20
_symmetry_cell_setting 'orthorhombic'
loop_
_space_group_symop_operation_xyz
x,y,z
-x,-y,1/2+z
x,-y,-z
-x,y,1/2-z
1/2+x,1/2+y,z
1/2-x,1/2-y,1/2+z
1/2+x,1/2-y,-z
1/2-x,1/2+y,1/2-z
loop_
_atom_site_type_symbol
_atom_site_label
_atom_site_fract_x
_atom_site_fract_y
_atom_site_fract_z
Si Si1 0.189592 0.244977 0.057668
Si Si2 0.479721 0.263758 0.443724
Si Si3 0.719121 0.244172 0.441210
Si Si4 0.068505 0.313521 0.582672
Si Si5 0.356142 0.657373 0.824725
Si Si6 0.044181 0.475039 0.227955
Si Si7 0.628797 0.164404 0.784173
O O1 0.235092 0.195556 0.097858
O O2 0.155318 0.287932 0.129841
O O3 0.191954 0.500000 0.000000
O O4 0.175377 0.000000 0.000000
O O5 0.458400 0.500000 0.500000
O O6 0.527294 0.351559 0.433999
O O7 0.461650 0.212086 0.344029
O O8 0.475788 0.000000 0.500000
O O9 0.716938 0.500000 0.500000
O O10 0.688771 0.271279 0.358611
O O11 0.705053 0.000000 0.500000
O O12 0.076775 0.500000 0.500000
O O13 0.109969 0.147631 0.595498
O O14 0.062358 0.453867 0.676582
O O15 0.355555 0.364984 0.789272
O O16 0.366171 0.866034 0.747480
O O17 0.080262 0.286556 0.190653
O O18 0.000000 0.339848 0.250000
#
# Coordination Sequence:
#
# PCOD8159211 Si02
#       7
#     8   8   8   8   8   8   8
#     4  10  22  42  66  91 124 163 208 260 311 376
#     4  10  22  39  62  89 119 162 213 263 321 380
#     4  10  21  38  62  93 126 164 204 249 311 375
#     4   9  20  39  62  90 124 165 208 258 321 386
#     4  11  23  38  61  93 128 163 205 256 312 388
#     4   9  21  43  64  91 129 167 214 273 324 385
#     4  11  24  41  62  91 123 166 212 259 324 376
#
# _framework density 22.254798999999998
#
# number of rings (size 3 to 8) (size 9 to 14) (size 15 to 20)
#    0.000    2.000    0.000    2.143    0.000   11.429 
#    0.000   10.714    0.000    1.714    0.000    0.000 
#    0.000    0.000    0.000    0.000    0.000    0.000 
#
# Total GULP energy -346900.291226 kJ/mol
# GULP energy per Si atom -12389.296115 kJ/mol
# Density = 2.220415 g / cm^3
# Si number density = 22.254799 Si / 1000 Ang^3
#
#
#
# Elastic Constant Matrix: (Units=GPa)
#
#
# Indices 1 2 3 4 5 6 
#
# 1 152.4626 20.2213 56.3763 0.0000 0.0000 0.0000
# 2 20.2213 95.9353 25.3915 0.0000 0.0000 0.0000
# 3 56.3763 25.3915 110.9311 0.0000 0.0000 0.0000
# 4 0.0000 0.0000 0.0000 34.6421 0.0000 0.0000
# 5 0.0000 0.0000 0.0000 0.0000 47.0405 0.0000
# 6 0.0000 0.0000 0.0000 0.0000 0.0000 18.1577
#
#
#
# Elastic Compliance Matrix: (Units=1/GPa)
#
#
# Indices 1 2 3 4 5 6 
#
# 1 0.008116 -0.000659 -0.003974 0.000000 0.000000 0.000000
# 2 -0.000659 0.011149 -0.002217 0.000000 0.000000 0.000000
# 3 -0.003974 -0.002217 0.011542 0.000000 0.000000 0.000000
# 4 0.000000 0.000000 0.000000 0.028867 0.000000 0.000000
# 5 0.000000 0.000000 0.000000 0.000000 0.021258 0.000000
# 6 0.000000 0.000000 0.000000 0.000000 0.000000 0.055073
#
#
# Mechanical properties :
#
#
# Convention : Reuss Voigt Hill
#
# Bulk Modulus (GPa) = 58.45498 62.58970 60.52234
# Shear Modulus (GPa) = 32.17366 37.12404 34.64885
#
# Velocity S-wave (km/s) = 3.80635 4.08871 3.95006
# Velocity P-wave (km/s) = 6.75582 7.10460 6.93240
#
# Compressibility (1/GPa) = 0.01710718
#
# Stress axis : x y z
#
# Youngs Moduli (GPa) = 123.21750 89.69085 86.64339
#
# Poissons Ratio (x) = 0.05910 0.34429
# Poissons Ratio (y) = 0.08119 0.19210
# Poissons Ratio (z) = 0.48963 0.19886
#
# Static dielectric constant tensor:
#      x y z
#    x 4.759780 0.000000 0.000000 
#    y 0.000000 3.837090 0.000000 
#    z 0.000000 0.000000 4.087970 
# 
# 
# High freq. dielectric constant tensor:
#      x y z
#    x 1.891180 0.000000 0.000000 
#    y 0.000000 1.862280 0.000000 
#    z 0.000000 0.000000 1.874880 
# 
# From -- ./inp_files/22310.got.cif
#   From: 2010.03.12/outbox.cif.g09.slc.cpg/sg20_12_cif.got.tgz:22310.got - 2010.04.14 01:38:04.
