data_PCOD8159828
_publ_section_title
;
Structure prediction by ZEFSAII (Michael W. Deem and Ramdas Pophale) SiO2 
 PCOD8159828
Probable space group: C 2 2 21
;
_chemical_formula_sum "Si O2"
_cell_formula_units_Z 44
_cell_length_a 4.777061
_cell_length_b 14.433080
_cell_length_c 25.989780
_cell_angle_alpha 90.000000
_cell_angle_beta 90.000000
_cell_angle_gamma 90.000000
_cell_volume 1791.935647
_symmetry_space_group_name_H-M "C 2 2 21"
_symmetry_group_IT_number 20
_symmetry_cell_setting 'orthorhombic'
loop_
_space_group_symop_operation_xyz
x,y,z
-x,-y,1/2+z
x,-y,-z
-x,y,1/2-z
1/2+x,1/2+y,z
1/2-x,1/2-y,1/2+z
1/2+x,1/2-y,-z
1/2-x,1/2+y,1/2-z
loop_
_atom_site_type_symbol
_atom_site_label
_atom_site_fract_x
_atom_site_fract_y
_atom_site_fract_z
Si Si1 0.242580 0.299519 0.610973
Si Si2 0.996980 0.300959 0.021539
Si Si3 0.947659 0.170198 0.806430
Si Si4 0.348215 0.000000 0.500000
Si Si5 0.738250 0.078593 0.103535
Si Si6 0.959622 0.542851 0.807687
O O1 0.374920 0.216663 0.578117
O O2 0.492678 0.369734 0.627864
O O3 0.048767 0.258720 0.656621
O O4 0.006331 0.355613 0.579225
O O5 0.195779 0.247264 0.980853
O O6 0.963826 0.410934 0.014185
O O7 0.144305 0.080317 0.819443
O O8 0.000000 0.209832 0.750000
O O9 0.630140 0.137454 0.809839
O O10 0.165635 0.020650 0.447681
O O11 0.572569 0.025955 0.148890
O O12 0.000000 0.498908 0.750000
#
# Coordination Sequence:
#
# PCOD8159828 Si02
#       6
#     8   8   8   4   8   8
#     4  12  24  45  67 105 147 182 246 307 367 442
#     4  12  25  46  68 102 141 186 238 300 348 443
#     4  10  22  43  71  99 138 189 241 304 370 435
#     4  12  26  46  74 100 146 194 242 296 380 420
#     4  12  26  42  70 105 143 193 241 306 373 443
#     4  10  22  44  69 101 138 188 249 299 366 450
#
# _framework density 24.554451
#
# number of rings (size 3 to 8) (size 9 to 14) (size 15 to 20)
#    0.000    0.727    3.636    3.273    0.000    5.091 
#    0.000    1.818    0.000    0.000    0.000    0.000 
#    0.000    0.000    0.000    0.000    0.000    0.000 
#
# Total GULP energy -272548.939070 kJ/mol
# GULP energy per Si atom -12388.588140 kJ/mol
# Density = 2.449856 g / cm^3
# Si number density = 24.554451 Si / 1000 Ang^3
#
#
#
# Elastic Constant Matrix: (Units=GPa)
#
#
# Indices 1 2 3 4 5 6 
#
# 1 75.7791 34.4610 29.1565 0.0000 0.0000 0.0000
# 2 34.4610 139.9717 67.0110 0.0000 0.0000 0.0000
# 3 29.1565 67.0110 167.7078 0.0000 0.0000 0.0000
# 4 0.0000 0.0000 0.0000 30.0468 0.0000 0.0000
# 5 0.0000 0.0000 0.0000 0.0000 34.2690 0.0000
# 6 0.0000 0.0000 0.0000 0.0000 0.0000 24.6876
#
#
#
# Elastic Compliance Matrix: (Units=1/GPa)
#
#
# Indices 1 2 3 4 5 6 
#
# 1 0.015126 -0.003048 -0.001412 0.000000 0.000000 0.000000
# 2 -0.003048 0.009448 -0.003245 0.000000 0.000000 0.000000
# 3 -0.001412 -0.003245 0.007505 0.000000 0.000000 0.000000
# 4 0.000000 0.000000 0.000000 0.033281 0.000000 0.000000
# 5 0.000000 0.000000 0.000000 0.000000 0.029181 0.000000
# 6 0.000000 0.000000 0.000000 0.000000 0.000000 0.040506
#
#
# Mechanical properties :
#
#
# Convention : Reuss Voigt Hill
#
# Bulk Modulus (GPa) = 59.99302 71.63506 65.81404
# Shear Modulus (GPa) = 32.04843 34.65603 33.35223
#
# Velocity S-wave (km/s) = 3.61667 3.76093 3.68951
# Velocity P-wave (km/s) = 6.47504 6.93518 6.70906
#
# Compressibility (1/GPa) = 0.01666861
#
# Stress axis : x y z
#
# Youngs Moduli (GPa) = 66.11341 105.83734 133.24531
#
# Poissons Ratio (x) = 0.32260 0.18810
# Poissons Ratio (y) = 0.20152 0.43244
# Poissons Ratio (z) = 0.09333 0.34349
#
# Static dielectric constant tensor:
#      x y z
#    x 4.422280 0.000000 0.000000 
#    y 0.000000 4.242790 0.000000 
#    z 0.000000 0.000000 4.767460 
# 
# 
# High freq. dielectric constant tensor:
#      x y z
#    x 1.977240 0.000000 0.000000 
#    y 0.000000 1.966990 0.000000 
#    z 0.000000 0.000000 1.990850 
# 
# From -- ./inp_files/29780.got.cif
#   From: 2010.03.12/outbox.cif.g09.slc.cpg/sg20_15_cif.got.tgz:29780.got - 2010.04.14 01:38:04.
