data_PCOD8159295
_publ_section_title
;
Structure prediction by ZEFSAII (Michael W. Deem and Ramdas Pophale) SiO2 
 PCOD8159295
Probable space group: C 2 2 21
;
_chemical_formula_sum "Si O2"
_cell_formula_units_Z 60
_cell_length_a 14.047206
_cell_length_b 11.988460
_cell_length_c 16.681000
_cell_angle_alpha 90.000000
_cell_angle_beta 90.000000
_cell_angle_gamma 90.000000
_cell_volume 2809.153250
_symmetry_space_group_name_H-M "C 2 2 21"
_symmetry_group_IT_number 20
_symmetry_cell_setting 'orthorhombic'
loop_
_space_group_symop_operation_xyz
x,y,z
-x,-y,1/2+z
x,-y,-z
-x,y,1/2-z
1/2+x,1/2+y,z
1/2-x,1/2-y,1/2+z
1/2+x,1/2-y,-z
1/2-x,1/2+y,1/2-z
loop_
_atom_site_type_symbol
_atom_site_label
_atom_site_fract_x
_atom_site_fract_y
_atom_site_fract_z
Si Si1 0.753699 0.368230 0.494526
Si Si2 0.863507 0.141095 0.752396
Si Si3 0.824069 0.399803 0.323413
Si Si4 0.062156 0.819561 0.590836
Si Si5 0.926236 0.380004 0.687661
Si Si6 0.500000 0.222150 0.750000
Si Si7 0.946300 0.268044 0.536540
Si Si8 0.494651 0.441593 0.375440
O O1 0.762880 0.500000 0.500000
O O2 0.771808 0.342896 0.400047
O O3 0.659314 0.323683 0.538936
O O4 0.836256 0.301132 0.538733
O O5 0.750819 0.117871 0.751349
O O6 0.882842 0.267905 0.726380
O O7 0.912170 0.053402 0.691560
O O8 0.908401 0.112805 0.839438
O O9 0.842829 0.532458 0.334314
O O10 0.925431 0.346768 0.302620
O O11 0.064992 0.792309 0.686181
O O12 0.999618 0.719915 0.548783
O O13 0.013375 0.939781 0.585233
O O14 0.987396 0.345953 0.608184
O O15 0.000000 0.435765 0.750000
O O16 0.958681 0.137230 0.553543
#
# Coordination Sequence:
#
# PCOD8159295 Si02
#       8
#     8   8   8   8   8   4   8   8
#     4  12  25  42  70 101 132 190 238 288 362 442
#     4  10  21  39  68 102 134 179 235 290 349 435
#     4  12  25  43  68 105 143 184 241 291 368 424
#     4  12  26  45  70  99 145 188 239 304 365 425
#     4  11  22  42  71  96 135 187 231 289 353 431
#     4  12  28  44  68 108 148 184 236 322 358 418
#     4  11  22  42  64 100 136 177 241 291 351 431
#     4  10  21  41  67 101 133 179 236 297 356 412
#
# _framework density 21.358749
#
# number of rings (size 3 to 8) (size 9 to 14) (size 15 to 20)
#    0.000    0.800    6.000    3.600    3.733    1.067 
#    0.000    0.000    0.000    1.600    0.000    0.000 
#    0.000    0.000    0.000    0.000    0.000    0.000 
#
# Total GULP energy -371656.569792 kJ/mol
# GULP energy per Si atom -12388.552326 kJ/mol
# Density = 2.131014 g / cm^3
# Si number density = 21.358749 Si / 1000 Ang^3
#
#
#
# Elastic Constant Matrix: (Units=GPa)
#
#
# Indices 1 2 3 4 5 6 
#
# 1 125.7849 34.5325 55.2906 0.0000 0.0000 0.0000
# 2 34.5325 66.3884 34.9369 0.0000 0.0000 0.0000
# 3 55.2906 34.9369 123.2076 0.0000 0.0000 0.0000
# 4 0.0000 0.0000 0.0000 21.3056 0.0000 0.0000
# 5 0.0000 0.0000 0.0000 0.0000 36.9628 0.0000
# 6 0.0000 0.0000 0.0000 0.0000 0.0000 31.1921
#
#
#
# Elastic Compliance Matrix: (Units=1/GPa)
#
#
# Indices 1 2 3 4 5 6 
#
# 1 0.010562 -0.003526 -0.003740 0.000000 0.000000 0.000000
# 2 -0.003526 0.018882 -0.003772 0.000000 0.000000 0.000000
# 3 -0.003740 -0.003772 0.010864 0.000000 0.000000 0.000000
# 4 0.000000 0.000000 0.000000 0.046936 0.000000 0.000000
# 5 0.000000 0.000000 0.000000 0.000000 0.027054 0.000000
# 6 0.000000 0.000000 0.000000 0.000000 0.000000 0.032059
#
#
# Mechanical properties :
#
#
# Convention : Reuss Voigt Hill
#
# Bulk Modulus (GPa) = 54.84643 62.76675 58.80659
# Shear Modulus (GPa) = 28.65154 30.60017 29.62586
#
# Velocity S-wave (km/s) = 3.66654 3.78918 3.72837
# Velocity P-wave (km/s) = 6.60751 6.97098 6.79167
#
# Compressibility (1/GPa) = 0.01823273
#
# Stress axis : x y z
#
# Youngs Moduli (GPa) = 94.67897 52.96107 92.04422
#
# Poissons Ratio (x) = 0.18673 0.34425
# Poissons Ratio (y) = 0.33381 0.34719
# Poissons Ratio (z) = 0.35410 0.19977
#
# Static dielectric constant tensor:
#      x y z
#    x 3.819160 0.000000 0.000000 
#    y 0.000000 3.669660 0.000000 
#    z 0.000000 0.000000 4.361710 
# 
# 
# High freq. dielectric constant tensor:
#      x y z
#    x 1.826580 0.000000 0.000000 
#    y 0.000000 1.821090 0.000000 
#    z 0.000000 0.000000 1.861900 
# 
# From -- ./inp_files/24958.got.cif
#   From: 2010.03.12/outbox.cif.g09.slc.cpg/sg20_13_cif.got.tgz:24958.got - 2010.04.14 01:38:04.
