data_PCOD8159719
_publ_section_title
;
Structure prediction by ZEFSAII (Michael W. Deem and Ramdas Pophale) SiO2 
 PCOD8159719
Probable space group: C 2 2 21
;
_chemical_formula_sum "Si O2"
_cell_formula_units_Z 52
_cell_length_a 8.698485
_cell_length_b 14.548956
_cell_length_c 18.762141
_cell_angle_alpha 90.000000
_cell_angle_beta 90.000000
_cell_angle_gamma 90.000000
_cell_volume 2374.421657
_symmetry_space_group_name_H-M "C 2 2 21"
_symmetry_group_IT_number 20
_symmetry_cell_setting 'orthorhombic'
loop_
_space_group_symop_operation_xyz
x,y,z
-x,-y,1/2+z
x,-y,-z
-x,y,1/2-z
1/2+x,1/2+y,z
1/2-x,1/2-y,1/2+z
1/2+x,1/2-y,-z
1/2-x,1/2+y,1/2-z
loop_
_atom_site_type_symbol
_atom_site_label
_atom_site_fract_x
_atom_site_fract_y
_atom_site_fract_z
Si Si1 0.567260 0.186604 0.153625
Si Si2 0.500000 0.864514 0.250000
Si Si3 0.276543 0.500000 0.500000
Si Si4 0.799256 0.801441 0.967541
Si Si5 0.720487 0.000000 0.000000
Si Si6 0.628411 0.320800 0.929687
Si Si7 0.473181 0.013081 0.886558
Si Si8 0.736149 0.774199 0.710777
O O1 0.661577 0.224645 0.086555
O O2 0.428889 0.257037 0.175486
O O3 0.688478 0.168674 0.218325
O O4 0.477146 0.093451 0.134993
O O5 0.538133 0.925620 0.317470
O O6 0.655694 0.809144 0.234129
O O7 0.380531 0.583567 0.472239
O O8 0.174478 0.464282 0.434422
O O9 0.963897 0.769333 0.936728
O O10 0.818145 0.911345 0.977368
O O11 0.761909 0.746018 0.039488
O O12 0.622052 0.963364 0.066728
O O13 0.666926 0.335476 0.845980
#
# Coordination Sequence:
#
# PCOD8159719 Si02
#       8
#     8   4   4   8   4   8   8   8
#     4  10  22  45  67  89 135 181 223 275 343 408
#     4  12  24  38  70 104 138 178 236 280 342 418
#     4  11  25  42  66 100 138 180 232 290 342 408
#     4  11  24  41  69  98 133 177 222 288 343 417
#     4   9  21  42  66  96 134 174 226 274 346 402
#     4  12  25  41  66 101 135 175 228 283 351 406
#     4  10  22  41  68  94 131 182 224 273 344 416
#     4  11  23  39  63  97 131 173 219 279 329 404
#
# _framework density 21.900069999999999
#
# number of rings (size 3 to 8) (size 9 to 14) (size 15 to 20)
#    0.000    1.231    1.538    4.154    8.615    0.000 
#    0.000    0.000    0.000    1.846    0.000    0.000 
#    0.000    0.000    0.000    0.000    0.000    0.000 
#
# Total GULP energy -322294.119347 kJ/mol
# GULP energy per Si atom -12395.927667 kJ/mol
# Density = 2.185022 g / cm^3
# Si number density = 21.900070 Si / 1000 Ang^3
#
#
#
# Elastic Constant Matrix: (Units=GPa)
#
#
# Indices 1 2 3 4 5 6 
#
# 1 110.0506 19.7264 35.0841 0.0000 0.0000 0.0000
# 2 19.7264 52.4592 32.0740 0.0000 0.0000 0.0000
# 3 35.0841 32.0740 132.9913 0.0000 0.0000 0.0000
# 4 0.0000 0.0000 0.0000 35.0886 0.0000 0.0000
# 5 0.0000 0.0000 0.0000 0.0000 31.1634 0.0000
# 6 0.0000 0.0000 0.0000 0.0000 0.0000 23.4243
#
#
#
# Elastic Compliance Matrix: (Units=1/GPa)
#
#
# Indices 1 2 3 4 5 6 
#
# 1 0.010208 -0.002571 -0.002073 0.000000 0.000000 0.000000
# 2 -0.002571 0.023007 -0.004870 0.000000 0.000000 0.000000
# 3 -0.002073 -0.004870 0.009241 0.000000 0.000000 0.000000
# 4 0.000000 0.000000 0.000000 0.028499 0.000000 0.000000
# 5 0.000000 0.000000 0.000000 0.000000 0.032089 0.000000
# 6 0.000000 0.000000 0.000000 0.000000 0.000000 0.042691
#
#
# Mechanical properties :
#
#
# Convention : Reuss Voigt Hill
#
# Bulk Modulus (GPa) = 42.68561 52.14111 47.41336
# Shear Modulus (GPa) = 28.97313 31.84302 30.40807
#
# Velocity S-wave (km/s) = 3.64121 3.81729 3.73029
# Velocity P-wave (km/s) = 6.10011 6.57946 6.34431
#
# Compressibility (1/GPa) = 0.02342710
#
# Stress axis : x y z
#
# Youngs Moduli (GPa) = 97.95776 43.46476 108.21619
#
# Poissons Ratio (x) = 0.11176 0.22433
# Poissons Ratio (y) = 0.25188 0.52706
# Poissons Ratio (z) = 0.20306 0.21169
#
# Static dielectric constant tensor:
#      x y z
#    x 3.991950 0.000000 0.000000 
#    y 0.000000 3.589220 0.000000 
#    z 0.000000 0.000000 4.226990 
# 
# 
# High freq. dielectric constant tensor:
#      x y z
#    x 1.870390 0.000000 0.000000 
#    y 0.000000 1.828030 0.000000 
#    z 0.000000 0.000000 1.881310 
# 
# From -- ./inp_files/26681.got.cif
#   From: 2010.03.12/outbox.cif.g09.slc.cpg/sg20_14_cif.got.tgz:26681.got - 2010.04.14 01:38:04.
