data_PCOD8159162
_publ_section_title
;
Structure prediction by ZEFSAII (Michael W. Deem and Ramdas Pophale) SiO2 
 PCOD8159162
Probable space group: C 2 2 21
;
_chemical_formula_sum "Si O2"
_cell_formula_units_Z 48
_cell_length_a 21.420991
_cell_length_b 8.755289
_cell_length_c 12.246990
_cell_angle_alpha 90.000000
_cell_angle_beta 90.000000
_cell_angle_gamma 90.000000
_cell_volume 2296.885828
_symmetry_space_group_name_H-M "C 2 2 21"
_symmetry_group_IT_number 20
_symmetry_cell_setting 'orthorhombic'
loop_
_space_group_symop_operation_xyz
x,y,z
-x,-y,1/2+z
x,-y,-z
-x,y,1/2-z
1/2+x,1/2+y,z
1/2-x,1/2-y,1/2+z
1/2+x,1/2-y,-z
1/2-x,1/2+y,1/2-z
loop_
_atom_site_type_symbol
_atom_site_label
_atom_site_fract_x
_atom_site_fract_y
_atom_site_fract_z
Si Si1 0.717262 0.579241 0.883919
Si Si2 0.382948 0.886126 0.358373
Si Si3 0.000000 0.715151 0.750000
Si Si4 0.928311 0.049687 0.122669
Si Si5 0.696982 0.674845 0.283085
Si Si6 0.603428 0.215278 0.095021
Si Si7 0.000000 0.810087 0.250000
O O1 0.730363 0.461149 0.784840
O O2 0.758380 0.732190 0.865547
O O3 0.645110 0.634670 0.881346
O O4 0.733985 0.500000 0.000000
O O5 0.442362 0.892086 0.279044
O O6 0.326561 0.791120 0.308934
O O7 0.407054 0.799047 0.466013
O O8 0.359898 0.059926 0.371816
O O9 0.979198 0.820108 0.852082
O O10 0.858318 0.106023 0.144270
O O11 0.943414 0.905462 0.198239
O O12 0.936472 0.000000 0.000000
O O13 0.536010 0.216211 0.155333
#
# Coordination Sequence:
#
# PCOD8159162 Si02
#       7
#     8   8   4   8   8   8   4
#     4  12  25  45  70  97 133 183 231 290 344 409
#     4  10  21  40  64  94 133 175 218 274 342 402
#     4   9  19  36  62  90 132 172 214 280 324 402
#     4  10  21  37  60  94 129 169 216 276 334 396
#     4  11  24  44  65  94 131 177 226 278 342 406
#     4  11  22  39  67  99 130 176 225 272 340 409
#     4  11  21  38  66 100 132 172 220 278 328 414
#
# _framework density 20.897862
#
# number of rings (size 3 to 8) (size 9 to 14) (size 15 to 20)
#    0.000    1.333    3.333    2.500    0.000    2.000 
#    6.000    0.000    7.333    0.000    0.000    0.000 
#    0.000    0.000    0.000    0.000    0.000    0.000 
#
# Total GULP energy -297503.515713 kJ/mol
# GULP energy per Si atom -12395.979821 kJ/mol
# Density = 2.085030 g / cm^3
# Si number density = 20.897862 Si / 1000 Ang^3
#
#
#
# Elastic Constant Matrix: (Units=GPa)
#
#
# Indices 1 2 3 4 5 6 
#
# 1 75.1694 31.7856 30.3191 0.0000 0.0000 0.0000
# 2 31.7856 92.0929 37.5339 0.0000 0.0000 0.0000
# 3 30.3191 37.5339 111.4298 0.0000 0.0000 0.0000
# 4 0.0000 0.0000 0.0000 35.7744 0.0000 0.0000
# 5 0.0000 0.0000 0.0000 0.0000 26.9791 0.0000
# 6 0.0000 0.0000 0.0000 0.0000 0.0000 93.9530
#
#
#
# Elastic Compliance Matrix: (Units=1/GPa)
#
#
# Indices 1 2 3 4 5 6 
#
# 1 0.016377 -0.004447 -0.002958 0.000000 0.000000 0.000000
# 2 -0.004447 0.013794 -0.003436 0.000000 0.000000 0.000000
# 3 -0.002958 -0.003436 0.010937 0.000000 0.000000 0.000000
# 4 0.000000 0.000000 0.000000 0.027953 0.000000 0.000000
# 5 0.000000 0.000000 0.000000 0.000000 0.037066 0.000000
# 6 0.000000 0.000000 0.000000 0.000000 0.000000 0.010644
#
#
# Mechanical properties :
#
#
# Convention : Reuss Voigt Hill
#
# Bulk Modulus (GPa) = 51.48072 53.10771 52.29422
# Shear Modulus (GPa) = 34.50007 43.27820 38.88914
#
# Velocity S-wave (km/s) = 4.06752 4.55569 4.31851
# Velocity P-wave (km/s) = 6.83722 7.28976 7.06711
#
# Compressibility (1/GPa) = 0.01942475
#
# Stress axis : x y z
#
# Youngs Moduli (GPa) = 61.06216 72.49549 91.43554
#
# Poissons Ratio (x) = 0.32237 0.27048
# Poissons Ratio (y) = 0.27153 0.31421
# Poissons Ratio (z) = 0.18063 0.24912
#
# Static dielectric constant tensor:
#      x y z
#    x 3.501090 0.000000 0.000000 
#    y 0.000000 3.838100 0.000000 
#    z 0.000000 0.000000 3.278200 
# 
# 
# High freq. dielectric constant tensor:
#      x y z
#    x 1.805740 0.000000 0.000000 
#    y 0.000000 1.827210 0.000000 
#    z 0.000000 0.000000 1.818070 
# 
# From -- ./inp_files/13152.got.cif
#   From: 2010.03.12/outbox.cif.g09.slc.cpg/sg20_7_cif.got.tgz:13152.got - 2010.04.14 01:38:04.
