data_PCOD8159333
_publ_section_title
;
Structure prediction by ZEFSAII (Michael W. Deem and Ramdas Pophale) SiO2 
 PCOD8159333
Probable space group: C 2 2 21
;
_chemical_formula_sum "Si O2"
_cell_formula_units_Z 40
_cell_length_a 13.630372
_cell_length_b 8.543209
_cell_length_c 17.174557
_cell_angle_alpha 90.000000
_cell_angle_beta 90.000000
_cell_angle_gamma 90.000000
_cell_volume 1999.927644
_symmetry_space_group_name_H-M "C 2 2 21"
_symmetry_group_IT_number 20
_symmetry_cell_setting 'orthorhombic'
loop_
_space_group_symop_operation_xyz
x,y,z
-x,-y,1/2+z
x,-y,-z
-x,y,1/2-z
1/2+x,1/2+y,z
1/2-x,1/2-y,1/2+z
1/2+x,1/2-y,-z
1/2-x,1/2+y,1/2-z
loop_
_atom_site_type_symbol
_atom_site_label
_atom_site_fract_x
_atom_site_fract_y
_atom_site_fract_z
Si Si1 0.111286 0.046419 0.782014
Si Si2 0.445995 0.635745 0.551151
Si Si3 0.791760 0.333459 0.464112
Si Si4 0.381737 0.144258 0.054939
Si Si5 0.741747 0.212735 0.309781
O O1 0.108219 0.064634 0.874439
O O2 0.168641 0.196000 0.747729
O O3 0.000000 0.028284 0.750000
O O4 0.176400 0.889953 0.764150
O O5 0.498651 0.500000 0.500000
O O6 0.369076 0.707664 0.491980
O O7 0.519785 0.768347 0.580236
O O8 0.815904 0.500000 0.500000
O O9 0.685406 0.269459 0.492375
O O10 0.794016 0.337846 0.368899
O O11 0.325011 0.096892 0.135056
O O12 0.407988 0.000000 0.000000
#
# Coordination Sequence:
#
# PCOD8159333 Si02
#       5
#     8   8   8   8   8
#     4  12  24  48  67 101 141 184 232 288 355 423
#     4  12  22  42  70  95 139 181 236 294 342 418
#     4  10  21  40  64  97 127 173 227 281 345 403
#     4  10  21  41  65 101 128 175 232 285 351 414
#     4  10  25  44  68  98 137 184 227 289 356 414
#
# _framework density 20.000726
#
# number of rings (size 3 to 8) (size 9 to 14) (size 15 to 20)
#    1.200    0.000    4.000    3.000    2.800    0.000 
#    3.600    1.000    0.000    0.000    0.000    0.000 
#    0.000    0.000    0.000    0.000    0.000    0.000 
#
# Total GULP energy -247773.234620 kJ/mol
# GULP energy per Si atom -12388.661731 kJ/mol
# Density = 1.995520 g / cm^3
# Si number density = 20.000726 Si / 1000 Ang^3
#
#
#
# Elastic Constant Matrix: (Units=GPa)
#
#
# Indices 1 2 3 4 5 6 
#
# 1 115.7502 40.4259 38.9576 0.0000 0.0000 0.0000
# 2 40.4259 98.7451 42.7707 0.0000 0.0000 0.0000
# 3 38.9576 42.7707 62.7550 0.0000 0.0000 0.0000
# 4 0.0000 0.0000 0.0000 30.8998 0.0000 0.0000
# 5 0.0000 0.0000 0.0000 0.0000 21.1694 0.0000
# 6 0.0000 0.0000 0.0000 0.0000 0.0000 46.9374
#
#
#
# Elastic Compliance Matrix: (Units=1/GPa)
#
#
# Indices 1 2 3 4 5 6 
#
# 1 0.011261 -0.002245 -0.005461 0.000000 0.000000 0.000000
# 2 -0.002245 0.014816 -0.008704 0.000000 0.000000 0.000000
# 3 -0.005461 -0.008704 0.025257 0.000000 0.000000 0.000000
# 4 0.000000 0.000000 0.000000 0.032363 0.000000 0.000000
# 5 0.000000 0.000000 0.000000 0.000000 0.047238 0.000000
# 6 0.000000 0.000000 0.000000 0.000000 0.000000 0.021305
#
#
# Mechanical properties :
#
#
# Convention : Reuss Voigt Hill
#
# Bulk Modulus (GPa) = 54.01117 57.95097 55.98107
# Shear Modulus (GPa) = 26.14611 30.14105 28.14358
#
# Velocity S-wave (km/s) = 3.61952 3.88622 3.75524
# Velocity P-wave (km/s) = 6.67317 7.01244 6.84490
#
# Compressibility (1/GPa) = 0.01851469
#
# Stress axis : x y z
#
# Youngs Moduli (GPa) = 88.79974 67.49243 39.59220
#
# Poissons Ratio (x) = 0.15152 0.21620
# Poissons Ratio (y) = 0.19936 0.34463
# Poissons Ratio (z) = 0.48492 0.58749
#
# Static dielectric constant tensor:
#      x y z
#    x 3.809010 0.000000 0.000000 
#    y 0.000000 3.460720 0.000000 
#    z 0.000000 0.000000 3.486980 
# 
# 
# High freq. dielectric constant tensor:
#      x y z
#    x 1.787710 0.000000 0.000000 
#    y 0.000000 1.767820 0.000000 
#    z 0.000000 0.000000 1.771260 
# 
# From -- ./inp_files/27100.got.cif
#   From: 2010.03.12/outbox.cif.g09.slc.cpg/sg20_14_cif.got.tgz:27100.got - 2010.04.14 01:38:04.
