data_PCOD8159001
_publ_section_title
;
Structure prediction by ZEFSAII (Michael W. Deem and Ramdas Pophale) SiO2 
 PCOD8159001
Probable space group: C 2 2 21
;
_chemical_formula_sum "Si O2"
_cell_formula_units_Z 60
_cell_length_a 22.196011
_cell_length_b 12.613618
_cell_length_c 10.521102
_cell_angle_alpha 90.000000
_cell_angle_beta 90.000000
_cell_angle_gamma 90.000000
_cell_volume 2945.614010
_symmetry_space_group_name_H-M "C 2 2 21"
_symmetry_group_IT_number 20
_symmetry_cell_setting 'orthorhombic'
loop_
_space_group_symop_operation_xyz
x,y,z
-x,-y,1/2+z
x,-y,-z
-x,y,1/2-z
1/2+x,1/2+y,z
1/2-x,1/2-y,1/2+z
1/2+x,1/2-y,-z
1/2-x,1/2+y,1/2-z
loop_
_atom_site_type_symbol
_atom_site_label
_atom_site_fract_x
_atom_site_fract_y
_atom_site_fract_z
Si Si1 0.700622 0.176235 0.981317
Si Si2 0.442889 0.925167 0.681033
Si Si3 0.122458 0.081815 0.326982
Si Si4 0.500000 0.677235 0.250000
Si Si5 0.428965 0.846569 0.412450
Si Si6 0.675432 0.139974 0.270789
Si Si7 0.792224 0.094358 0.406841
Si Si8 0.329095 0.639998 0.912387
O O1 0.693983 0.137056 0.123989
O O2 0.643306 0.155057 0.888933
O O3 0.713060 0.301094 0.991503
O O4 0.757442 0.115632 0.918276
O O5 0.500000 0.877341 0.750000
O O6 0.433796 0.844285 0.564710
O O7 0.387001 0.923901 0.779064
O O8 0.456447 0.045136 0.640102
O O9 0.050672 0.102746 0.314345
O O10 0.156543 0.113856 0.198343
O O11 0.146501 0.154618 0.443293
O O12 0.134931 0.957576 0.350428
O O13 0.465757 0.749106 0.354049
O O14 0.726699 0.075019 0.345050
O O15 0.661864 0.256335 0.326901
O O16 0.810727 0.000000 0.500000
#
# Coordination Sequence:
#
# PCOD8159001 Si02
#       8
#     8   8   8   4   8   8   8   8
#     4  10  20  41  68  92 130 164 207 270 334 388
#     4  10  22  40  61  94 124 164 214 262 333 391
#     4  11  24  43  65  93 130 176 219 268 319 396
#     4  12  24  46  64  94 136 178 230 262 324 396
#     4  10  22  40  66  91 126 176 208 263 327 393
#     4  10  22  41  63  97 126 164 208 275 336 389
#     4  11  22  40  62  98 125 163 213 270 325 387
#     4  10  23  42  67  95 126 164 217 269 329 385
#
# _framework density 20.369266
#
# number of rings (size 3 to 8) (size 9 to 14) (size 15 to 20)
#    0.000    1.600    3.333    0.800    3.733    1.067 
#   10.800    0.000    0.000    0.000    0.000    0.000 
#    0.000    0.000    0.000    0.000    0.000    0.000 
#
# Total GULP energy -371908.881821 kJ/mol
# GULP energy per Si atom -12396.962727 kJ/mol
# Density = 2.032291 g / cm^3
# Si number density = 20.369266 Si / 1000 Ang^3
#
#
#
# Elastic Constant Matrix: (Units=GPa)
#
#
# Indices 1 2 3 4 5 6 
#
# 1 165.9746 28.8709 42.9470 0.0000 0.0000 0.0000
# 2 28.8709 66.6577 17.5797 0.0000 0.0000 0.0000
# 3 42.9470 17.5797 58.0728 0.0000 0.0000 0.0000
# 4 0.0000 0.0000 0.0000 22.6333 0.0000 0.0000
# 5 0.0000 0.0000 0.0000 0.0000 32.6482 0.0000
# 6 0.0000 0.0000 0.0000 0.0000 0.0000 31.9176
#
#
#
# Elastic Compliance Matrix: (Units=1/GPa)
#
#
# Indices 1 2 3 4 5 6 
#
# 1 0.007686 -0.001989 -0.005082 0.000000 0.000000 0.000000
# 2 -0.001989 0.016818 -0.003620 0.000000 0.000000 0.000000
# 3 -0.005082 -0.003620 0.022074 0.000000 0.000000 0.000000
# 4 0.000000 0.000000 0.000000 0.044183 0.000000 0.000000
# 5 0.000000 0.000000 0.000000 0.000000 0.030630 0.000000
# 6 0.000000 0.000000 0.000000 0.000000 0.000000 0.031331
#
#
# Mechanical properties :
#
#
# Convention : Reuss Voigt Hill
#
# Bulk Modulus (GPa) = 39.68904 52.16669 45.92786
# Shear Modulus (GPa) = 27.39696 30.86034 29.12865
#
# Velocity S-wave (km/s) = 3.67142 3.89658 3.78568
# Velocity P-wave (km/s) = 6.12369 6.77573 6.45794
#
# Compressibility (1/GPa) = 0.02519587
#
# Stress axis : x y z
#
# Youngs Moduli (GPa) = 130.10756 59.45950 45.30199
#
# Poissons Ratio (x) = 0.11824 0.23023
# Poissons Ratio (y) = 0.25874 0.16401
# Poissons Ratio (z) = 0.66121 0.21527
#
# Static dielectric constant tensor:
#      x y z
#    x 3.945250 0.000000 0.000000 
#    y 0.000000 3.453070 0.000000 
#    z 0.000000 0.000000 3.717250 
# 
# 
# High freq. dielectric constant tensor:
#      x y z
#    x 1.806170 0.000000 0.000000 
#    y 0.000000 1.784310 0.000000 
#    z 0.000000 0.000000 1.793350 
# 
# From -- ./inp_files/16387.got.cif
#   From: 2010.03.12/outbox.cif.g09.slc.cpg/sg20_9_cif.got.tgz:16387.got - 2010.04.14 01:38:04.
