data_PCOD8159868
_publ_section_title
;
Structure prediction by ZEFSAII (Michael W. Deem and Ramdas Pophale) SiO2 
 PCOD8159868
Probable space group: C 2 2 21
;
_chemical_formula_sum "Si O2"
_cell_formula_units_Z 32
_cell_length_a 13.948335
_cell_length_b 7.256932
_cell_length_c 14.728143
_cell_angle_alpha 90.000000
_cell_angle_beta 90.000000
_cell_angle_gamma 90.000000
_cell_volume 1490.813838
_symmetry_space_group_name_H-M "C 2 2 21"
_symmetry_group_IT_number 20
_symmetry_cell_setting 'orthorhombic'
loop_
_space_group_symop_operation_xyz
x,y,z
-x,-y,1/2+z
x,-y,-z
-x,y,1/2-z
1/2+x,1/2+y,z
1/2-x,1/2-y,1/2+z
1/2+x,1/2-y,-z
1/2-x,1/2+y,1/2-z
loop_
_atom_site_type_symbol
_atom_site_label
_atom_site_fract_x
_atom_site_fract_y
_atom_site_fract_z
Si Si1 0.066551 0.712124 0.592306
Si Si2 0.656048 0.189477 0.410823
Si Si3 0.607213 0.523405 0.730536
Si Si4 0.867957 0.874398 0.580814
O O1 0.093494 0.781358 0.491001
O O2 0.110563 0.510692 0.609364
O O3 0.949528 0.718748 0.600612
O O4 0.112741 0.843186 0.667648
O O5 0.657332 0.305789 0.318729
O O6 0.764357 0.197564 0.450055
O O7 0.500000 0.586197 0.750000
O O8 0.656735 0.487296 0.827154
O O9 0.910012 0.000000 0.500000
#
# Coordination Sequence:
#
# PCOD8159868 Si02
#       4
#     8   8   8   8
#     4  10  22  45  66  96 135 170 221 276 325 394
#     4  11  23  43  68 100 131 177 221 265 336 402
#     4  10  23  42  66  93 134 171 218 282 322 388
#     4  11  23  43  68  97 137 175 219 278 330 388
#
# _framework density 21.464786
#
# number of rings (size 3 to 8) (size 9 to 14) (size 15 to 20)
#    0.000    1.500    2.500    3.750    3.500    3.000 
#    9.000    0.000    0.000    0.000    0.000    0.000 
#    0.000    0.000    0.000    0.000    0.000    0.000 
#
# Total GULP energy -198321.472010 kJ/mol
# GULP energy per Si atom -12395.092001 kJ/mol
# Density = 2.141593 g / cm^3
# Si number density = 21.464786 Si / 1000 Ang^3
#
#
#
# Elastic Constant Matrix: (Units=GPa)
#
#
# Indices 1 2 3 4 5 6 
#
# 1 115.7321 49.8916 17.7094 0.0000 0.0000 0.0000
# 2 49.8916 86.9700 47.7428 0.0000 0.0000 0.0000
# 3 17.7094 47.7428 145.5203 0.0000 0.0000 0.0000
# 4 0.0000 0.0000 0.0000 36.9212 0.0000 0.0000
# 5 0.0000 0.0000 0.0000 0.0000 18.7082 0.0000
# 6 0.0000 0.0000 0.0000 0.0000 0.0000 20.0699
#
#
#
# Elastic Compliance Matrix: (Units=1/GPa)
#
#
# Indices 1 2 3 4 5 6 
#
# 1 0.011584 -0.007161 0.000940 0.000000 0.000000 0.000000
# 2 -0.007161 0.018451 -0.005182 0.000000 0.000000 0.000000
# 3 0.000940 -0.005182 0.008458 0.000000 0.000000 0.000000
# 4 0.000000 0.000000 0.000000 0.027085 0.000000 0.000000
# 5 0.000000 0.000000 0.000000 0.000000 0.053452 0.000000
# 6 0.000000 0.000000 0.000000 0.000000 0.000000 0.049826
#
#
# Mechanical properties :
#
#
# Convention : Reuss Voigt Hill
#
# Bulk Modulus (GPa) = 63.75201 64.32336 64.03768
# Shear Modulus (GPa) = 25.39474 30.66511 28.02993
#
# Velocity S-wave (km/s) = 3.44334 3.78382 3.61758
# Velocity P-wave (km/s) = 6.75085 7.00868 6.88097
#
# Compressibility (1/GPa) = 0.01568578
#
# Stress axis : x y z
#
# Youngs Moduli (GPa) = 86.32585 54.19749 118.23608
#
# Poissons Ratio (x) = 0.38812 -0.11111
# Poissons Ratio (y) = 0.61820 0.61270
# Poissons Ratio (z) = -0.08112 0.28085
#
# Static dielectric constant tensor:
#      x y z
#    x 3.790730 0.000000 0.000000 
#    y 0.000000 3.536910 0.000000 
#    z 0.000000 0.000000 4.387370 
# 
# 
# High freq. dielectric constant tensor:
#      x y z
#    x 1.847910 0.000000 0.000000 
#    y 0.000000 1.816070 0.000000 
#    z 0.000000 0.000000 1.861330 
# 
# From -- ./inp_files/18186.got.cif
#   From: 2010.03.12/outbox.cif.g09.slc.cpg/sg20_10_cif.got.tgz:18186.got - 2010.04.14 01:38:04.
