data_PCOD8159575
_publ_section_title
;
Structure prediction by ZEFSAII (Michael W. Deem and Ramdas Pophale) SiO2 
 PCOD8159575
Probable space group: C 2 2 21
;
_chemical_formula_sum "Si O2"
_cell_formula_units_Z 64
_cell_length_a 17.419464
_cell_length_b 11.972718
_cell_length_c 15.557958
_cell_angle_alpha 90.000000
_cell_angle_beta 90.000000
_cell_angle_gamma 90.000000
_cell_volume 3244.741742
_symmetry_space_group_name_H-M "C 2 2 21"
_symmetry_group_IT_number 20
_symmetry_cell_setting 'orthorhombic'
loop_
_space_group_symop_operation_xyz
x,y,z
-x,-y,1/2+z
x,-y,-z
-x,y,1/2-z
1/2+x,1/2+y,z
1/2-x,1/2-y,1/2+z
1/2+x,1/2-y,-z
1/2-x,1/2+y,1/2-z
loop_
_atom_site_type_symbol
_atom_site_label
_atom_site_fract_x
_atom_site_fract_y
_atom_site_fract_z
Si Si1 0.715191 0.903696 0.431684
Si Si2 0.986216 0.867875 0.501757
Si Si3 0.413681 0.080476 0.804857
Si Si4 0.082630 0.329946 0.728328
Si Si5 0.857311 0.770736 0.054518
Si Si6 0.295214 0.120353 0.532470
Si Si7 0.644708 0.722784 0.890048
Si Si8 0.557331 0.184194 0.866235
O O1 0.667963 0.935527 0.347787
O O2 0.668740 0.803822 0.474972
O O3 0.800163 0.884481 0.393795
O O4 0.723970 0.000000 0.500000
O O5 0.939141 0.808123 0.425670
O O6 0.959693 0.807346 0.592081
O O7 0.076057 0.851509 0.481761
O O8 0.967977 0.000000 0.500000
O O9 0.480587 0.107166 0.875368
O O10 0.418972 0.182883 0.735306
O O11 0.425917 0.962636 0.756991
O O12 0.110720 0.303373 0.632408
O O13 0.141462 0.274158 0.795083
O O14 0.000000 0.275840 0.750000
O O15 0.780671 0.837452 0.084176
O O16 0.310116 0.190320 0.447863
O O17 0.371553 0.122738 0.589252
O O18 0.274212 0.000000 0.500000
#
# Coordination Sequence:
#
# PCOD8159575 Si02
#       8
#     8   8   8   8   8   8   8   8
#     4  11  22  41  65  94 127 171 219 268 329 396
#     4  11  22  42  65  83 128 175 218 257 321 403
#     4  11  22  38  68  98 128 160 213 277 340 376
#     4  12  22  39  63  95 130 162 208 271 338 383
#     4  11  23  38  61  91 125 169 214 261 321 396
#     4  10  22  39  62  87 123 165 214 262 327 379
#     4  10  24  40  60  91 125 167 213 264 313 395
#     4  10  22  38  63  96 124 160 216 280 325 391
#
# _framework density 19.724219000000002
#
# number of rings (size 3 to 8) (size 9 to 14) (size 15 to 20)
#    0.000    1.250    5.000    1.500    1.750    0.500 
#    0.000    2.500    0.000    0.000    0.000    0.000 
#    0.000    0.000    0.000    0.000    0.000    0.000 
#
# Total GULP energy -396518.830785 kJ/mol
# GULP energy per Si atom -12391.213462 kJ/mol
# Density = 1.967933 g / cm^3
# Si number density = 19.724219 Si / 1000 Ang^3
#
#
#
# Elastic Constant Matrix: (Units=GPa)
#
#
# Indices 1 2 3 4 5 6 
#
# 1 120.3633 34.9787 39.4031 0.0000 0.0000 0.0000
# 2 34.9787 104.3820 30.4861 0.0000 0.0000 0.0000
# 3 39.4031 30.4861 87.7552 0.0000 0.0000 0.0000
# 4 0.0000 0.0000 0.0000 32.7010 0.0000 0.0000
# 5 0.0000 0.0000 0.0000 0.0000 31.2270 0.0000
# 6 0.0000 0.0000 0.0000 0.0000 0.0000 63.8470
#
#
#
# Elastic Compliance Matrix: (Units=1/GPa)
#
#
# Indices 1 2 3 4 5 6 
#
# 1 0.010221 -0.002320 -0.003783 0.000000 0.000000 0.000000
# 2 -0.002320 0.011189 -0.002845 0.000000 0.000000 0.000000
# 3 -0.003783 -0.002845 0.014083 0.000000 0.000000 0.000000
# 4 0.000000 0.000000 0.000000 0.030580 0.000000 0.000000
# 5 0.000000 0.000000 0.000000 0.000000 0.032024 0.000000
# 6 0.000000 0.000000 0.000000 0.000000 0.000000 0.015662
#
#
# Mechanical properties :
#
#
# Convention : Reuss Voigt Hill
#
# Bulk Modulus (GPa) = 56.83466 58.02626 57.43046
# Shear Modulus (GPa) = 36.35824 39.39717 37.87771
#
# Velocity S-wave (km/s) = 4.29806 4.47408 4.38695
# Velocity P-wave (km/s) = 7.31494 7.49483 7.40543
#
# Compressibility (1/GPa) = 0.01759490
#
# Stress axis : x y z
#
# Youngs Moduli (GPa) = 97.83808 89.37640 71.01010
#
# Poissons Ratio (x) = 0.20736 0.26865
# Poissons Ratio (y) = 0.22699 0.20204
# Poissons Ratio (z) = 0.37015 0.25429
#
# Static dielectric constant tensor:
#      x y z
#    x 3.916070 0.000000 0.000000 
#    y 0.000000 3.468440 0.000000 
#    z 0.000000 0.000000 3.405950 
# 
# 
# High freq. dielectric constant tensor:
#      x y z
#    x 1.791080 0.000000 0.000000 
#    y 0.000000 1.752700 0.000000 
#    z 0.000000 0.000000 1.758810 
# 
# From -- ./inp_files/21521.got.cif
#   From: 2010.03.12/outbox.cif.g09.slc.cpg/sg20_11_cif.got.tgz:21521.got - 2010.04.14 01:38:04.
