data_PCOD8159869
_publ_section_title
;
Structure prediction by ZEFSAII (Michael W. Deem and Ramdas Pophale) SiO2 
 PCOD8159869
Probable space group: C 2 2 21
;
_chemical_formula_sum "Si O2"
_cell_formula_units_Z 40
_cell_length_a 14.850161
_cell_length_b 11.022378
_cell_length_c 11.280879
_cell_angle_alpha 90.000000
_cell_angle_beta 90.000000
_cell_angle_gamma 90.000000
_cell_volume 1846.500390
_symmetry_space_group_name_H-M "C 2 2 21"
_symmetry_group_IT_number 20
_symmetry_cell_setting 'orthorhombic'
loop_
_space_group_symop_operation_xyz
x,y,z
-x,-y,1/2+z
x,-y,-z
-x,y,1/2-z
1/2+x,1/2+y,z
1/2-x,1/2-y,1/2+z
1/2+x,1/2-y,-z
1/2-x,1/2+y,1/2-z
loop_
_atom_site_type_symbol
_atom_site_label
_atom_site_fract_x
_atom_site_fract_y
_atom_site_fract_z
Si Si1 0.086691 0.295610 0.408832
Si Si2 0.036075 0.500000 0.000000
Si Si3 0.680286 0.521947 0.821688
Si Si4 0.227691 0.193572 0.019046
Si Si5 0.000000 0.899383 0.750000
Si Si6 0.165032 0.591514 0.826812
O O1 0.172870 0.256663 0.486687
O O2 0.118861 0.369639 0.294699
O O3 0.024293 0.379629 0.490742
O O4 0.031424 0.179460 0.363090
O O5 0.101391 0.510933 0.115180
O O6 0.735673 0.416828 0.888537
O O7 0.578961 0.485766 0.794446
O O8 0.734478 0.543290 0.699146
O O9 0.678064 0.644561 0.900494
O O10 0.168964 0.298655 0.078869
#
# Coordination Sequence:
#
# PCOD8159869 Si02
#       6
#     8   4   8   8   4   8
#     4  11  22  42  67  94 134 171 221 280 329 389
#     4  12  22  38  64 100 128 174 212 274 328 384
#     4  10  23  43  69  94 134 175 217 280 337 396
#     4  10  22  45  67  92 129 180 219 267 345 402
#     4  12  22  46  66  94 138 166 220 288 322 390
#     4  11  23  41  66  96 130 175 225 268 330 413
#
# _framework density 21.662600000000001
#
# number of rings (size 3 to 8) (size 9 to 14) (size 15 to 20)
#    0.000    1.200    4.000    2.400    2.800    0.000 
#   10.800    0.000    0.000    0.000    0.000    0.000 
#    0.000    0.000    0.000    0.000    0.000    0.000 
#
# Total GULP energy -248004.265113 kJ/mol
# GULP energy per Si atom -12400.213256 kJ/mol
# Density = 2.161330 g / cm^3
# Si number density = 21.662600 Si / 1000 Ang^3
#
#
#
# Elastic Constant Matrix: (Units=GPa)
#
#
# Indices 1 2 3 4 5 6 
#
# 1 148.2146 58.1513 53.7859 0.0000 0.0000 0.0000
# 2 58.1513 79.5139 39.8353 0.0000 0.0000 0.0000
# 3 53.7859 39.8353 85.0537 0.0000 0.0000 0.0000
# 4 0.0000 0.0000 0.0000 30.6810 0.0000 0.0000
# 5 0.0000 0.0000 0.0000 0.0000 43.2080 0.0000
# 6 0.0000 0.0000 0.0000 0.0000 0.0000 38.8443
#
#
#
# Elastic Compliance Matrix: (Units=1/GPa)
#
#
# Indices 1 2 3 4 5 6 
#
# 1 0.010379 -0.005621 -0.003931 0.000000 0.000000 0.000000
# 2 -0.005621 0.019477 -0.005567 0.000000 0.000000 0.000000
# 3 -0.003931 -0.005567 0.016850 0.000000 0.000000 0.000000
# 4 0.000000 0.000000 0.000000 0.032593 0.000000 0.000000
# 5 0.000000 0.000000 0.000000 0.000000 0.023144 0.000000
# 6 0.000000 0.000000 0.000000 0.000000 0.000000 0.025744
#
#
# Mechanical properties :
#
#
# Convention : Reuss Voigt Hill
#
# Bulk Modulus (GPa) = 60.72520 68.48082 64.60301
# Shear Modulus (GPa) = 30.50380 33.28063 31.89221
#
# Velocity S-wave (km/s) = 3.75658 3.92384 3.84112
# Velocity P-wave (km/s) = 6.84901 7.22563 7.03984
#
# Compressibility (1/GPa) = 0.01646763
#
# Stress axis : x y z
#
# Youngs Moduli (GPa) = 96.35004 51.34387 59.34609
#
# Poissons Ratio (x) = 0.28862 0.23326
# Poissons Ratio (y) = 0.54161 0.33039
# Poissons Ratio (z) = 0.37871 0.28584
#
# Static dielectric constant tensor:
#      x y z
#    x 4.131900 0.000000 0.000000 
#    y 0.000000 3.796470 0.000000 
#    z 0.000000 0.000000 4.167680 
# 
# 
# High freq. dielectric constant tensor:
#      x y z
#    x 1.865860 0.000000 0.000000 
#    y 0.000000 1.830450 0.000000 
#    z 0.000000 0.000000 1.847990 
# 
# From -- ./inp_files/14892.got.cif
#   From: 2010.03.12/outbox.cif.g09.slc.cpg/sg20_8_cif.got.tgz:14892.got - 2010.04.14 01:38:04.
