data_PCOD8159341
_publ_section_title
;
Structure prediction by ZEFSAII (Michael W. Deem and Ramdas Pophale) SiO2 
 PCOD8159341
Probable space group: C 2 2 21
;
_chemical_formula_sum "Si O2"
_cell_formula_units_Z 40
_cell_length_a 25.726741
_cell_length_b 14.060746
_cell_length_c 4.999960
_cell_angle_alpha 90.000000
_cell_angle_beta 90.000000
_cell_angle_gamma 90.000000
_cell_volume 1808.671384
_symmetry_space_group_name_H-M "C 2 2 21"
_symmetry_group_IT_number 20
_symmetry_cell_setting 'orthorhombic'
loop_
_space_group_symop_operation_xyz
x,y,z
-x,-y,1/2+z
x,-y,-z
-x,y,1/2-z
1/2+x,1/2+y,z
1/2-x,1/2-y,1/2+z
1/2+x,1/2-y,-z
1/2-x,1/2+y,1/2-z
loop_
_atom_site_type_symbol
_atom_site_label
_atom_site_fract_x
_atom_site_fract_y
_atom_site_fract_z
Si Si1 0.399999 0.826200 0.717106
Si Si2 0.592129 0.703074 0.280952
Si Si3 0.199906 0.436054 0.741773
Si Si4 0.183887 0.064417 0.242526
Si Si5 0.966729 0.500000 0.500000
Si Si6 0.000000 0.936920 0.750000
O O1 0.414547 0.741721 0.517475
O O2 0.338417 0.847669 0.709814
O O3 0.431902 0.919146 0.636143
O O4 0.414303 0.790515 0.013425
O O5 0.648622 0.655454 0.302554
O O6 0.548368 0.626047 0.343887
O O7 0.177707 0.500000 0.500000
O O8 0.257876 0.398206 0.673285
O O9 0.201622 0.500000 0.000000
O O10 0.184965 0.000000 0.500000
O O11 0.161836 0.000000 0.000000
O O12 0.000000 0.458227 0.250000
O O13 0.982185 0.000000 0.500000
#
# Coordination Sequence:
#
# PCOD8159341 Si02
#       6
#     8   8   8   8   4   4
#     4  12  26  43  66  99 133 166 226 271 332 389
#     4  12  26  41  68 101 130 166 222 285 316 396
#     4  10  21  40  65  93 131 180 217 261 324 402
#     4  10  21  41  67  94 132 177 220 262 335 397
#     4  12  28  46  70  92 134 188 216 270 344 408
#     4  12  26  48  70  92 132 174 212 268 342 396
#
# _framework density 22.115680999999999
#
# number of rings (size 3 to 8) (size 9 to 14) (size 15 to 20)
#    0.000    0.800    1.000    6.000    5.600    1.600 
#    0.000    0.000    0.000    0.000    0.000    0.000 
#    0.000    0.000    0.000    0.000    0.000    0.000 
#
# Total GULP energy -248101.047128 kJ/mol
# GULP energy per Si atom -12405.052356 kJ/mol
# Density = 2.206534 g / cm^3
# Si number density = 22.115681 Si / 1000 Ang^3
#
#
#
# Elastic Constant Matrix: (Units=GPa)
#
#
# Indices 1 2 3 4 5 6 
#
# 1 118.6501 53.8910 28.9652 0.0000 0.0000 0.0000
# 2 53.8910 94.5096 28.4289 0.0000 0.0000 0.0000
# 3 28.9652 28.4289 122.7405 0.0000 0.0000 0.0000
# 4 0.0000 0.0000 0.0000 48.5285 0.0000 0.0000
# 5 0.0000 0.0000 0.0000 0.0000 32.8660 0.0000
# 6 0.0000 0.0000 0.0000 0.0000 0.0000 28.9826
#
#
#
# Elastic Compliance Matrix: (Units=1/GPa)
#
#
# Indices 1 2 3 4 5 6 
#
# 1 0.011561 -0.006204 -0.001291 0.000000 0.000000 0.000000
# 2 -0.006204 0.014703 -0.001941 0.000000 0.000000 0.000000
# 3 -0.001291 -0.001941 0.008902 0.000000 0.000000 0.000000
# 4 0.000000 0.000000 0.000000 0.020606 0.000000 0.000000
# 5 0.000000 0.000000 0.000000 0.000000 0.030427 0.000000
# 6 0.000000 0.000000 0.000000 0.000000 0.000000 0.034503
#
#
# Mechanical properties :
#
#
# Convention : Reuss Voigt Hill
#
# Bulk Modulus (GPa) = 61.37931 62.05226 61.71579
# Shear Modulus (GPa) = 34.48136 37.04976 35.76556
#
# Velocity S-wave (km/s) = 3.95287 4.09745 4.02581
# Velocity P-wave (km/s) = 6.97478 7.10664 7.04102
#
# Compressibility (1/GPa) = 0.01629213
#
# Stress axis : x y z
#
# Youngs Moduli (GPa) = 86.49587 68.01564 112.33872
#
# Poissons Ratio (x) = 0.42197 0.14507
# Poissons Ratio (y) = 0.53662 0.21808
# Poissons Ratio (z) = 0.11170 0.13204
#
# Static dielectric constant tensor:
#      x y z
#    x 4.358640 0.000000 0.000000 
#    y 0.000000 3.696850 0.000000 
#    z 0.000000 0.000000 4.192340 
# 
# 
# High freq. dielectric constant tensor:
#      x y z
#    x 1.881200 0.000000 0.000000 
#    y 0.000000 1.857130 0.000000 
#    z 0.000000 0.000000 1.891550 
# 
# From -- ./inp_files/4075.got.cif
#   From: 2010.03.12/outbox.cif.g09.slc.cpg/sg20_3_cif.got.tgz:4075.got - 2010.04.14 01:38:04.
