data_PCOD8159394
_publ_section_title
;
Structure prediction by ZEFSAII (Michael W. Deem and Ramdas Pophale) SiO2 
 PCOD8159394
Probable space group: C 2 2 21
;
_chemical_formula_sum "Si O2"
_cell_formula_units_Z 64
_cell_length_a 11.357178
_cell_length_b 17.350964
_cell_length_c 15.540378
_cell_angle_alpha 90.000000
_cell_angle_beta 90.000000
_cell_angle_gamma 90.000000
_cell_volume 3062.355600
_symmetry_space_group_name_H-M "C 2 2 21"
_symmetry_group_IT_number 20
_symmetry_cell_setting 'orthorhombic'
loop_
_space_group_symop_operation_xyz
x,y,z
-x,-y,1/2+z
x,-y,-z
-x,y,1/2-z
1/2+x,1/2+y,z
1/2-x,1/2-y,1/2+z
1/2+x,1/2-y,-z
1/2-x,1/2+y,1/2-z
loop_
_atom_site_type_symbol
_atom_site_label
_atom_site_fract_x
_atom_site_fract_y
_atom_site_fract_z
Si Si1 0.445341 0.455556 0.416900
Si Si2 0.435802 0.712783 0.340933
Si Si3 0.463510 0.152015 0.155433
Si Si4 0.685867 0.507135 0.654205
Si Si5 0.633170 0.070110 0.048170
Si Si6 0.716331 0.431966 0.831305
Si Si7 0.973663 0.794947 0.029926
Si Si8 0.224697 0.660748 0.904447
O O1 0.490025 0.500000 0.500000
O O2 0.546480 0.474795 0.346490
O O3 0.318553 0.491284 0.387130
O O4 0.437088 0.363635 0.437821
O O5 0.500000 0.731266 0.250000
O O6 0.393249 0.625367 0.341460
O O7 0.513025 0.724016 0.427831
O O8 0.323099 0.769532 0.346489
O O9 0.500000 0.181414 0.250000
O O10 0.557866 0.086586 0.132822
O O11 0.335152 0.113279 0.142606
O O12 0.489300 0.220921 0.089873
O O13 0.733847 0.457271 0.573423
O O14 0.725859 0.457114 0.734121
O O15 0.755735 0.588200 0.658177
O O16 0.634651 0.141702 0.981838
O O17 0.568137 0.000000 0.000000
O O18 0.841996 0.821347 0.043917
#
# Coordination Sequence:
#
# PCOD8159394 Si02
#       8
#     8   8   8   8   8   8   8   8
#     4  11  22  41  68 100 131 174 228 290 350 408
#     4  12  25  43  69 102 140 184 237 296 357 422
#     4  12  25  44  69  99 147 189 231 286 359 431
#     4  10  21  41  68  96 128 175 229 288 339 421
#     4  10  21  41  68  93 126 185 232 275 339 429
#     4  12  25  42  67 104 134 176 236 296 347 420
#     4  11  24  45  70 100 148 180 231 298 357 426
#     4  10  22  43  67  98 133 184 237 277 359 422
#
# _framework density 20.898945000000001
#
# number of rings (size 3 to 8) (size 9 to 14) (size 15 to 20)
#    0.000    1.000    5.000    3.000    1.750    2.500 
#    4.500    1.250    0.000    0.000    0.000    0.000 
#    0.000    0.000    0.000    0.000    0.000    0.000 
#
# Total GULP energy -396486.507120 kJ/mol
# GULP energy per Si atom -12390.203348 kJ/mol
# Density = 2.085138 g / cm^3
# Si number density = 20.898945 Si / 1000 Ang^3
#
#
#
# Elastic Constant Matrix: (Units=GPa)
#
#
# Indices 1 2 3 4 5 6 
#
# 1 75.2644 40.2580 41.1645 0.0000 0.0000 0.0000
# 2 40.2580 100.9872 60.3337 0.0000 0.0000 0.0000
# 3 41.1645 60.3337 136.7917 0.0000 0.0000 0.0000
# 4 0.0000 0.0000 0.0000 38.5569 0.0000 0.0000
# 5 0.0000 0.0000 0.0000 0.0000 28.8725 0.0000
# 6 0.0000 0.0000 0.0000 0.0000 0.0000 13.4823
#
#
#
# Elastic Compliance Matrix: (Units=1/GPa)
#
#
# Indices 1 2 3 4 5 6 
#
# 1 0.017759 -0.005277 -0.003017 0.000000 0.000000 0.000000
# 2 -0.005277 0.015013 -0.005034 0.000000 0.000000 0.000000
# 3 -0.003017 -0.005034 0.010438 0.000000 0.000000 0.000000
# 4 0.000000 0.000000 0.000000 0.025936 0.000000 0.000000
# 5 0.000000 0.000000 0.000000 0.000000 0.034635 0.000000
# 6 0.000000 0.000000 0.000000 0.000000 0.000000 0.074171
#
#
# Mechanical properties :
#
#
# Convention : Reuss Voigt Hill
#
# Bulk Modulus (GPa) = 60.40282 66.28399 63.34340
# Shear Modulus (GPa) = 23.79515 27.60148 25.69832
#
# Velocity S-wave (km/s) = 3.37795 3.63810 3.51044
# Velocity P-wave (km/s) = 6.64674 7.03086 6.84150
#
# Compressibility (1/GPa) = 0.01655552
#
# Stress axis : x y z
#
# Youngs Moduli (GPa) = 56.30900 66.60723 95.80051
#
# Poissons Ratio (x) = 0.35151 0.28899
# Poissons Ratio (y) = 0.29716 0.48223
# Poissons Ratio (z) = 0.16986 0.33528
#
# Static dielectric constant tensor:
#      x y z
#    x 3.578320 0.000000 0.000000 
#    y 0.000000 4.072550 0.000000 
#    z 0.000000 0.000000 3.803240 
# 
# 
# High freq. dielectric constant tensor:
#      x y z
#    x 1.801010 0.000000 0.000000 
#    y 0.000000 1.830100 0.000000 
#    z 0.000000 0.000000 1.821570 
# 
# From -- ./inp_files/20270.got.cif
#   From: 2010.03.12/outbox.cif.g09.slc.cpg/sg20_11_cif.got.tgz:20270.got - 2010.04.14 01:38:04.
