data_PCOD8159194
_publ_section_title
;
Structure prediction by ZEFSAII (Michael W. Deem and Ramdas Pophale) SiO2 
 PCOD8159194
Probable space group: C 2 2 21
;
_chemical_formula_sum "Si O2"
_cell_formula_units_Z 48
_cell_length_a 9.791806
_cell_length_b 14.457021
_cell_length_c 17.347883
_cell_angle_alpha 90.000000
_cell_angle_beta 90.000000
_cell_angle_gamma 90.000000
_cell_volume 2455.772302
_symmetry_space_group_name_H-M "C 2 2 21"
_symmetry_group_IT_number 20
_symmetry_cell_setting 'orthorhombic'
loop_
_space_group_symop_operation_xyz
x,y,z
-x,-y,1/2+z
x,-y,-z
-x,y,1/2-z
1/2+x,1/2+y,z
1/2-x,1/2-y,1/2+z
1/2+x,1/2-y,-z
1/2-x,1/2+y,1/2-z
loop_
_atom_site_type_symbol
_atom_site_label
_atom_site_fract_x
_atom_site_fract_y
_atom_site_fract_z
Si Si1 0.956010 0.555755 0.337024
Si Si2 0.456011 0.555757 0.662976
Si Si3 0.906398 0.250001 0.595285
Si Si4 0.698277 0.249999 0.466179
Si Si5 0.769939 0.548814 0.080938
Si Si6 0.269940 0.548814 0.919062
O O1 0.912970 0.661753 0.349448
O O2 0.075972 0.525880 0.395026
O O3 0.000000 0.540817 0.250000
O O4 0.829969 0.488577 0.353503
O O5 0.500000 0.540820 0.750000
O O6 0.412977 0.661755 0.650550
O O7 0.329967 0.488582 0.646497
O O8 0.575973 0.525879 0.604975
O O9 0.032201 0.250004 0.533328
O O10 0.760313 0.250000 0.552177
O O11 0.753187 0.159039 0.422859
O O12 0.753181 0.340960 0.422860
O O13 0.736872 0.500000 0.000000
O O14 0.236874 0.500000 0.000000
#
# Coordination Sequence:
#
# PCOD8159194 Si02
#       6
#     8   8   8   8   8   8
#     4  11  23  39  60  89 122 155 193 241 297 347
#     4  11  23  39  60  89 122 155 193 241 297 347
#     4  10  21  38  60  86 119 154 194 240 293 342
#     4  10  22  36  59  88 113 148 202 244 282 342
#     4  11  22  39  61  87 115 156 198 241 287 347
#     4  11  22  39  61  87 115 156 198 241 287 347
#
# _framework density 19.545784999999999
#
# number of rings (size 3 to 8) (size 9 to 14) (size 15 to 20)
#    0.000    1.333    3.333    2.500    4.667    0.000 
#    0.000    0.833    0.000    0.000    0.000    0.000 
#    0.000    0.000    0.000    0.000    0.000    0.000 
#
# Total GULP energy -297683.875108 kJ/mol
# GULP energy per Si atom -12403.494796 kJ/mol
# Density = 1.950130 g / cm^3
# Si number density = 19.545785 Si / 1000 Ang^3
#
#
#
# Elastic Constant Matrix: (Units=GPa)
#
#
# Indices 1 2 3 4 5 6 
#
# 1 45.8968 37.0531 -0.3481 0.0000 0.0000 0.0000
# 2 37.0531 126.3908 17.3025 0.0000 0.0000 0.0000
# 3 -0.3481 17.3025 67.4901 0.0000 0.0000 0.0000
# 4 0.0000 0.0000 0.0000 22.9964 0.0000 0.0000
# 5 0.0000 0.0000 0.0000 0.0000 31.3458 0.0000
# 6 0.0000 0.0000 0.0000 0.0000 0.0000 18.4840
#
#
#
# Elastic Compliance Matrix: (Units=1/GPa)
#
#
# Indices 1 2 3 4 5 6 
#
# 1 0.028916 -0.008807 0.002407 0.000000 0.000000 0.000000
# 2 -0.008807 0.010882 -0.002835 0.000000 0.000000 0.000000
# 3 0.002407 -0.002835 0.015556 0.000000 0.000000 0.000000
# 4 0.000000 0.000000 0.000000 0.043485 0.000000 0.000000
# 5 0.000000 0.000000 0.000000 0.000000 0.031902 0.000000
# 6 0.000000 0.000000 0.000000 0.000000 0.000000 0.054101
#
#
# Mechanical properties :
#
#
# Convention : Reuss Voigt Hill
#
# Bulk Modulus (GPa) = 27.11181 38.64363 32.87772
# Shear Modulus (GPa) = 23.19039 26.94994 25.07016
#
# Velocity S-wave (km/s) = 3.44825 3.71726 3.58528
# Velocity P-wave (km/s) = 5.45481 6.18367 5.83064
#
# Compressibility (1/GPa) = 0.03688429
#
# Stress axis : x y z
#
# Youngs Moduli (GPa) = 34.58297 91.89599 64.28277
#
# Poissons Ratio (x) = 0.80929 -0.15472
# Poissons Ratio (y) = 0.30456 0.18226
# Poissons Ratio (z) = -0.08324 0.26055
#
# Static dielectric constant tensor:
#      x y z
#    x 3.686540 0.000000 0.000000 
#    y 0.000000 3.743690 0.000000 
#    z 0.000000 0.000000 3.328370 
# 
# 
# High freq. dielectric constant tensor:
#      x y z
#    x 1.766530 0.000000 0.000000 
#    y 0.000000 1.775210 0.000000 
#    z 0.000000 0.000000 1.744670 
# 
# From -- ./inp_files/23421.got.cif
#   From: 2010.03.12/outbox.cif.g09.slc.cpg/sg20_12_cif.got.tgz:23421.got - 2010.04.14 01:38:04.
