data_PCOD8159048
_publ_section_title
;
Structure prediction by ZEFSAII (Michael W. Deem and Ramdas Pophale) SiO2 
 PCOD8159048
Probable space group: C 2 2 21
;
_chemical_formula_sum "Si O2"
_cell_formula_units_Z 36
_cell_length_a 12.855491
_cell_length_b 12.353404
_cell_length_c 10.948778
_cell_angle_alpha 90.000000
_cell_angle_beta 90.000000
_cell_angle_gamma 90.000000
_cell_volume 1738.765295
_symmetry_space_group_name_H-M "C 2 2 21"
_symmetry_group_IT_number 20
_symmetry_cell_setting 'orthorhombic'
loop_
_space_group_symop_operation_xyz
x,y,z
-x,-y,1/2+z
x,-y,-z
-x,y,1/2-z
1/2+x,1/2+y,z
1/2-x,1/2-y,1/2+z
1/2+x,1/2-y,-z
1/2-x,1/2+y,1/2-z
loop_
_atom_site_type_symbol
_atom_site_label
_atom_site_fract_x
_atom_site_fract_y
_atom_site_fract_z
Si Si1 0.110116 0.177765 0.711580
Si Si2 0.329920 0.894656 0.336613
Si Si3 0.000000 0.755920 0.750000
Si Si4 0.407565 0.622160 0.047332
Si Si5 0.319969 0.132283 0.384233
O O1 0.212693 0.102702 0.720102
O O2 0.099926 0.204717 0.567420
O O3 0.125280 0.282063 0.796253
O O4 0.000000 0.120601 0.750000
O O5 0.399670 0.821915 0.248169
O O6 0.338695 0.843824 0.472586
O O7 0.368926 0.017840 0.342848
O O8 0.000302 0.833586 0.868403
O O9 0.304569 0.626483 0.131432
O O10 0.428426 0.500000 0.000000
#
# Coordination Sequence:
#
# PCOD8159048 Si02
#       5
#     8   8   4   8   8
#     4  11  22  39  66  93 125 168 220 261 320 388
#     4  10  22  40  64  90 126 170 206 267 327 378
#     4  12  24  42  66  94 130 164 222 266 316 396
#     4  11  23  41  66  93 129 173 216 268 329 373
#     4  10  20  43  63  89 130 169 212 266 328 378
#
# _framework density 20.704348
#
# number of rings (size 3 to 8) (size 9 to 14) (size 15 to 20)
#    0.000    1.333    6.667    1.333    3.111    0.000 
#    0.000    0.000    0.000    0.000    0.000    0.000 
#    0.000    0.000    0.000    0.000    0.000    0.000 
#
# Total GULP energy -223002.530679 kJ/mol
# GULP energy per Si atom -12389.029482 kJ/mol
# Density = 2.065722 g / cm^3
# Si number density = 20.704348 Si / 1000 Ang^3
#
#
#
# Elastic Constant Matrix: (Units=GPa)
#
#
# Indices 1 2 3 4 5 6 
#
# 1 102.2338 28.5072 30.0316 0.0000 0.0000 0.0000
# 2 28.5072 79.3700 47.8912 0.0000 0.0000 0.0000
# 3 30.0316 47.8912 90.3858 0.0000 0.0000 0.0000
# 4 0.0000 0.0000 0.0000 41.7553 0.0000 0.0000
# 5 0.0000 0.0000 0.0000 0.0000 32.3724 0.0000
# 6 0.0000 0.0000 0.0000 0.0000 0.0000 18.2472
#
#
#
# Elastic Compliance Matrix: (Units=1/GPa)
#
#
# Indices 1 2 3 4 5 6 
#
# 1 0.011196 -0.002612 -0.002336 0.000000 0.000000 0.000000
# 2 -0.002612 0.019130 -0.009268 0.000000 0.000000 0.000000
# 3 -0.002336 -0.009268 0.016751 0.000000 0.000000 0.000000
# 4 0.000000 0.000000 0.000000 0.023949 0.000000 0.000000
# 5 0.000000 0.000000 0.000000 0.000000 0.030891 0.000000
# 6 0.000000 0.000000 0.000000 0.000000 0.000000 0.054803
#
#
# Mechanical properties :
#
#
# Convention : Reuss Voigt Hill
#
# Bulk Modulus (GPa) = 53.63564 53.87220 53.75392
# Shear Modulus (GPa) = 26.12802 29.51228 27.82015
#
# Velocity S-wave (km/s) = 3.55626 3.77956 3.66961
# Velocity P-wave (km/s) = 6.54403 6.71737 6.63127
#
# Compressibility (1/GPa) = 0.01864432
#
# Stress axis : x y z
#
# Youngs Moduli (GPa) = 89.31761 52.27519 59.69916
#
# Poissons Ratio (x) = 0.13652 0.13947
# Poissons Ratio (y) = 0.23326 0.55330
# Poissons Ratio (z) = 0.20867 0.48449
#
# Static dielectric constant tensor:
#      x y z
#    x 3.784720 0.000000 0.000000 
#    y 0.000000 3.560130 0.000000 
#    z 0.000000 0.000000 3.821910 
# 
# 
# High freq. dielectric constant tensor:
#      x y z
#    x 1.807840 0.000000 0.000000 
#    y 0.000000 1.792250 0.000000 
#    z 0.000000 0.000000 1.807870 
# 
# From -- ./inp_files/13654.got.cif
#   From: 2010.03.12/outbox.cif.g09.slc.cpg/sg20_7_cif.got.tgz:13654.got - 2010.04.14 01:38:04.
