data_PCOD8159250
_publ_section_title
;
Structure prediction by ZEFSAII (Michael W. Deem and Ramdas Pophale) SiO2 
 PCOD8159250
Probable space group: C 2 2 21
;
_chemical_formula_sum "Si O2"
_cell_formula_units_Z 48
_cell_length_a 12.627343
_cell_length_b 12.318193
_cell_length_c 15.392551
_cell_angle_alpha 90.000000
_cell_angle_beta 90.000000
_cell_angle_gamma 90.000000
_cell_volume 2394.250479
_symmetry_space_group_name_H-M "C 2 2 21"
_symmetry_group_IT_number 20
_symmetry_cell_setting 'orthorhombic'
loop_
_space_group_symop_operation_xyz
x,y,z
-x,-y,1/2+z
x,-y,-z
-x,y,1/2-z
1/2+x,1/2+y,z
1/2-x,1/2-y,1/2+z
1/2+x,1/2-y,-z
1/2-x,1/2+y,1/2-z
loop_
_atom_site_type_symbol
_atom_site_label
_atom_site_fract_x
_atom_site_fract_y
_atom_site_fract_z
Si Si1 0.106894 0.021969 0.594564
Si Si2 0.313798 0.244627 0.067620
Si Si3 0.226591 0.667822 0.107637
Si Si4 0.828457 0.242609 0.272721
Si Si5 0.000000 0.066622 0.250000
Si Si6 0.000000 0.424806 0.250000
Si Si7 0.999125 0.427274 0.915961
O O1 0.210298 0.946309 0.608481
O O2 0.013705 0.005064 0.663938
O O3 0.057170 0.000000 0.500000
O O4 0.137304 0.145915 0.605104
O O5 0.219387 0.219291 0.133325
O O6 0.399605 0.149623 0.066164
O O7 0.267185 0.258082 0.971471
O O8 0.242737 0.739795 0.194745
O O9 0.102441 0.645355 0.100076
O O10 0.896649 0.352767 0.270598
O O11 0.897546 0.138235 0.256385
O O12 0.974228 0.498609 0.167169
O O13 0.019985 0.500000 0.000000
#
# Coordination Sequence:
#
# PCOD8159250 Si02
#       7
#     8   8   8   8   4   4   8
#     4   9  19  37  58  82 111 149 192 237 292 351
#     4  11  23  38  59  87 117 153 196 242 294 351
#     4  10  21  40  62  83 115 156 195 243 297 352
#     4  10  21  39  61  87 118 154 195 240 294 350
#     4   9  20  37  60  84 112 149 192 237 290 348
#     4  11  22  39  64  92 122 159 198 245 294 354
#     4  12  24  40  61  90 121 158 201 245 296 354
#
# _framework density 20.048029
#
# number of rings (size 3 to 8) (size 9 to 14) (size 15 to 20)
#    0.000    1.667    0.000    5.500    0.000    8.667 
#    0.000    2.500    0.000    0.000    0.000    0.000 
#    0.000    0.000    0.000    0.000    0.000    0.000 
#
# Total GULP energy -297610.193869 kJ/mol
# GULP energy per Si atom -12400.424745 kJ/mol
# Density = 2.000240 g / cm^3
# Si number density = 20.048029 Si / 1000 Ang^3
#
#
#
# Elastic Constant Matrix: (Units=GPa)
#
#
# Indices 1 2 3 4 5 6 
#
# 1 85.4041 14.0032 12.6636 0.0000 0.0000 0.0000
# 2 14.0032 48.1857 -2.4626 0.0000 0.0000 0.0000
# 3 12.6636 -2.4626 71.1296 0.0000 0.0000 0.0000
# 4 0.0000 0.0000 0.0000 36.0228 0.0000 0.0000
# 5 0.0000 0.0000 0.0000 0.0000 36.9357 0.0000
# 6 0.0000 0.0000 0.0000 0.0000 0.0000 13.3155
#
#
#
# Elastic Compliance Matrix: (Units=1/GPa)
#
#
# Indices 1 2 3 4 5 6 
#
# 1 0.012688 -0.003809 -0.002391 0.000000 0.000000 0.000000
# 2 -0.003809 0.021934 0.001438 0.000000 0.000000 0.000000
# 3 -0.002391 0.001438 0.014534 0.000000 0.000000 0.000000
# 4 0.000000 0.000000 0.000000 0.027760 0.000000 0.000000
# 5 0.000000 0.000000 0.000000 0.000000 0.027074 0.000000
# 6 0.000000 0.000000 0.000000 0.000000 0.000000 0.075100
#
#
# Mechanical properties :
#
#
# Convention : Reuss Voigt Hill
#
# Bulk Modulus (GPa) = 25.23306 28.12531 26.67918
# Shear Modulus (GPa) = 24.77380 29.28915 27.03148
#
# Velocity S-wave (km/s) = 3.51910 3.82638 3.67595
# Velocity P-wave (km/s) = 5.39682 5.79491 5.59941
#
# Compressibility (1/GPa) = 0.03963055
#
# Stress axis : x y z
#
# Youngs Moduli (GPa) = 78.81363 45.59224 68.80289
#
# Poissons Ratio (x) = 0.17368 0.16450
# Poissons Ratio (y) = 0.30024 -0.09891
# Poissons Ratio (z) = 0.18843 -0.06554
#
# Static dielectric constant tensor:
#      x y z
#    x 3.789160 0.000000 0.000000 
#    y 0.000000 3.682300 0.000000 
#    z 0.000000 0.000000 3.959180 
# 
# 
# High freq. dielectric constant tensor:
#      x y z
#    x 1.775110 0.000000 0.000000 
#    y 0.000000 1.782140 0.000000 
#    z 0.000000 0.000000 1.804460 
# 
# From -- ./inp_files/24288.got.cif
#   From: 2010.03.12/outbox.cif.g09.slc.cpg/sg20_13_cif.got.tgz:24288.got - 2010.04.14 01:38:04.
