data_PCOD8159119
_publ_section_title
;
Structure prediction by ZEFSAII (Michael W. Deem and Ramdas Pophale) SiO2 
 PCOD8159119
Probable space group: C 2 2 21
;
_chemical_formula_sum "Si O2"
_cell_formula_units_Z 56
_cell_length_a 16.788984
_cell_length_b 32.506661
_cell_length_c 4.969030
_cell_angle_alpha 90.000000
_cell_angle_beta 90.000000
_cell_angle_gamma 90.000000
_cell_volume 2711.867062
_symmetry_space_group_name_H-M "C 2 2 21"
_symmetry_group_IT_number 20
_symmetry_cell_setting 'orthorhombic'
loop_
_space_group_symop_operation_xyz
x,y,z
-x,-y,1/2+z
x,-y,-z
-x,y,1/2-z
1/2+x,1/2+y,z
1/2-x,1/2-y,1/2+z
1/2+x,1/2-y,-z
1/2-x,1/2+y,1/2-z
loop_
_atom_site_type_symbol
_atom_site_label
_atom_site_fract_x
_atom_site_fract_y
_atom_site_fract_z
Si Si1 0.446536 0.300521 0.004688
Si Si2 0.052453 0.895748 0.491168
Si Si3 0.302319 0.754124 0.164418
Si Si4 0.592753 0.168651 0.743164
Si Si5 0.800054 0.953716 0.976326
Si Si6 0.591113 0.884612 0.748086
Si Si7 0.802629 0.546158 0.985668
O O1 0.500000 0.292322 0.750000
O O2 0.363077 0.277523 0.974535
O O3 0.500000 0.283453 0.250000
O O4 0.424934 0.348135 0.044532
O O5 0.133510 0.920289 0.476561
O O6 0.000000 0.912393 0.250000
O O7 0.000000 0.904529 0.750000
O O8 0.258527 0.733752 0.423128
O O9 0.349038 0.793080 0.287706
O O10 0.500000 0.182356 0.750000
O O11 0.609685 0.153656 0.443016
O O12 0.614084 0.131734 0.953390
O O13 0.775408 0.949299 0.667273
O O14 0.725181 0.944750 0.178606
O O15 0.833601 0.000000 0.000000
O O16 0.500000 0.898020 0.750000
O O17 0.634173 0.923774 0.621547
O O18 0.838503 0.500000 0.000000
#
# Coordination Sequence:
#
# PCOD8159119 Si02
#       7
#     8   8   8   8   8   8   8
#     4  10  22  41  61  81 115 159 195 236 298 361
#     4  10  21  37  58  84 111 149 199 242 286 344
#     4  12  25  39  60  92 120 149 199 252 298 352
#     4  10  22  40  61  84 117 158 196 241 302 360
#     4  10  21  36  57  85 119 156 191 234 294 353
#     4  10  21  39  62  88 115 152 202 245 287 348
#     4  10  21  38  58  84 118 155 189 230 292 352
#
# _framework density 20.649982000000001
#
# number of rings (size 3 to 8) (size 9 to 14) (size 15 to 20)
#    0.000    1.714    0.000    3.857    0.000    5.714 
#    0.000    4.286    0.000    0.000    0.000    0.000 
#    0.000    0.000    0.000    0.000    0.000    0.000 
#
# Total GULP energy -347090.068501 kJ/mol
# GULP energy per Si atom -12396.073875 kJ/mol
# Density = 2.060298 g / cm^3
# Si number density = 20.649982 Si / 1000 Ang^3
#
#
#
# Elastic Constant Matrix: (Units=GPa)
#
#
# Indices 1 2 3 4 5 6 
#
# 1 88.3676 65.9762 20.4905 0.0000 0.0000 0.0000
# 2 65.9762 96.5251 28.4773 0.0000 0.0000 0.0000
# 3 20.4905 28.4773 85.8990 0.0000 0.0000 0.0000
# 4 0.0000 0.0000 0.0000 28.9468 0.0000 0.0000
# 5 0.0000 0.0000 0.0000 0.0000 19.9061 0.0000
# 6 0.0000 0.0000 0.0000 0.0000 0.0000 47.0827
#
#
#
# Elastic Compliance Matrix: (Units=1/GPa)
#
#
# Indices 1 2 3 4 5 6 
#
# 1 0.023117 -0.015710 -0.000306 0.000000 0.000000 0.000000
# 2 -0.015710 0.022160 -0.003599 0.000000 0.000000 0.000000
# 3 -0.000306 -0.003599 0.012908 0.000000 0.000000 0.000000
# 4 0.000000 0.000000 0.000000 0.034546 0.000000 0.000000
# 5 0.000000 0.000000 0.000000 0.000000 0.050236 0.000000
# 6 0.000000 0.000000 0.000000 0.000000 0.000000 0.021239
#
#
# Mechanical properties :
#
#
# Convention : Reuss Voigt Hill
#
# Bulk Modulus (GPa) = 52.75955 55.63108 54.19532
# Shear Modulus (GPa) = 23.83737 29.57696 26.70717
#
# Velocity S-wave (km/s) = 3.40126 3.78868 3.60019
# Velocity P-wave (km/s) = 6.40544 6.79244 6.60178
#
# Compressibility (1/GPa) = 0.01895391
#
# Stress axis : x y z
#
# Youngs Moduli (GPa) = 43.25839 45.12627 77.47321
#
# Poissons Ratio (x) = 0.70895 0.02371
# Poissons Ratio (y) = 0.67961 0.27882
# Poissons Ratio (z) = 0.01324 0.16241
#
# Static dielectric constant tensor:
#      x y z
#    x 3.597830 0.000000 0.000000 
#    y 0.000000 3.667510 0.000000 
#    z 0.000000 0.000000 3.663150 
# 
# 
# High freq. dielectric constant tensor:
#      x y z
#    x 1.799140 0.000000 0.000000 
#    y 0.000000 1.803220 0.000000 
#    z 0.000000 0.000000 1.832800 
# 
# From -- ./inp_files/2234.got.cif
#   From: 2010.03.12/outbox.cif.g09.slc.cpg/sg20_2_cif.got.tgz:2234.got - 2010.04.14 01:38:04.
