data_PCOD8159273
_publ_section_title
;
Structure prediction by ZEFSAII (Michael W. Deem and Ramdas Pophale) SiO2 
 PCOD8159273
Probable space group: C 2 2 21
;
_chemical_formula_sum "Si O2"
_cell_formula_units_Z 32
_cell_length_a 34.516580
_cell_length_b 4.866083
_cell_length_c 8.174395
_cell_angle_alpha 90.000000
_cell_angle_beta 90.000000
_cell_angle_gamma 90.000000
_cell_volume 1372.975824
_symmetry_space_group_name_H-M "C 2 2 21"
_symmetry_group_IT_number 20
_symmetry_cell_setting 'orthorhombic'
loop_
_space_group_symop_operation_xyz
x,y,z
-x,-y,1/2+z
x,-y,-z
-x,y,1/2-z
1/2+x,1/2+y,z
1/2-x,1/2-y,1/2+z
1/2+x,1/2-y,-z
1/2-x,1/2+y,1/2-z
loop_
_atom_site_type_symbol
_atom_site_label
_atom_site_fract_x
_atom_site_fract_y
_atom_site_fract_z
Si Si1 0.529326 0.262401 0.390051
Si Si2 0.268615 0.098070 0.823002
Si Si3 0.099004 0.988901 0.812328
Si Si4 0.849947 0.485887 0.686917
O O1 0.509099 0.500000 0.500000
O O2 0.500000 0.159627 0.250000
O O3 0.566206 0.412753 0.311183
O O4 0.540987 0.000000 0.500000
O O5 0.255726 0.413116 0.804470
O O6 0.314610 0.066006 0.802611
O O7 0.255796 0.000000 0.000000
O O8 0.112716 0.678567 0.775433
O O9 0.136820 0.175158 0.781571
O O10 0.084058 0.000000 0.000000
O O11 0.835899 0.500000 0.500000
#
# Coordination Sequence:
#
# PCOD8159273 Si02
#       4
#     8   8   8   8
#     4  12  26  44  68  98 133 173 216 267 319 382
#     4  12  25  42  65  94 130 172 219 271 324 385
#     4  10  22  41  66  94 129 169 212 263 323 384
#     4  10  21  39  64  94 128 168 212 265 325 385
#
# _framework density 23.307037000000001
#
# number of rings (size 3 to 8) (size 9 to 14) (size 15 to 20)
#    0.000    1.000    0.000    6.750    0.000    8.000 
#    0.000    0.000    0.000    0.000    0.000    0.000 
#    0.000    0.000    0.000    0.000    0.000    0.000 
#
# Total GULP energy -198464.657290 kJ/mol
# GULP energy per Si atom -12404.041081 kJ/mol
# Density = 2.325399 g / cm^3
# Si number density = 23.307037 Si / 1000 Ang^3
#
#
#
# Elastic Constant Matrix: (Units=GPa)
#
#
# Indices 1 2 3 4 5 6 
#
# 1 78.2136 6.2553 34.2078 0.0000 0.0000 0.0000
# 2 6.2553 101.8109 27.3117 0.0000 0.0000 0.0000
# 3 34.2078 27.3117 92.3874 0.0000 0.0000 0.0000
# 4 0.0000 0.0000 0.0000 41.8912 0.0000 0.0000
# 5 0.0000 0.0000 0.0000 0.0000 20.3764 0.0000
# 6 0.0000 0.0000 0.0000 0.0000 0.0000 18.6223
#
#
#
# Elastic Compliance Matrix: (Units=1/GPa)
#
#
# Indices 1 2 3 4 5 6 
#
# 1 0.015293 0.000629 -0.005849 0.000000 0.000000 0.000000
# 2 0.000629 0.010694 -0.003394 0.000000 0.000000 0.000000
# 3 -0.005849 -0.003394 0.013993 0.000000 0.000000 0.000000
# 4 0.000000 0.000000 0.000000 0.023871 0.000000 0.000000
# 5 0.000000 0.000000 0.000000 0.000000 0.049076 0.000000
# 6 0.000000 0.000000 0.000000 0.000000 0.000000 0.053699
#
#
# Mechanical properties :
#
#
# Convention : Reuss Voigt Hill
#
# Bulk Modulus (GPa) = 43.95056 45.32907 44.63981
# Shear Modulus (GPa) = 26.11806 29.82046 27.96926
#
# Velocity S-wave (km/s) = 3.35118 3.58084 3.46791
# Velocity P-wave (km/s) = 5.81997 6.04875 5.93546
#
# Compressibility (1/GPa) = 0.02275284
#
# Stress axis : x y z
#
# Youngs Moduli (GPa) = 65.38888 93.51000 71.46456
#
# Poissons Ratio (x) = -0.05885 0.41796
# Poissons Ratio (y) = -0.04115 0.24258
# Poissons Ratio (z) = 0.38243 0.31741
#
# Static dielectric constant tensor:
#      x y z
#    x 3.782780 0.000000 0.000000 
#    y 0.000000 4.390580 0.000000 
#    z 0.000000 0.000000 4.292200 
# 
# 
# High freq. dielectric constant tensor:
#      x y z
#    x 1.909840 0.000000 0.000000 
#    y 0.000000 1.937890 0.000000 
#    z 0.000000 0.000000 1.924270 
# 
# From -- ./inp_files/11240.got.cif
#   From: 2010.03.12/outbox.cif.g09.slc.cpg/sg20_6_cif.got.tgz:11240.got - 2010.04.14 01:38:04.
