data_PCOD8159965
_publ_section_title
;
Structure prediction by ZEFSAII (Michael W. Deem and Ramdas Pophale) SiO2 
 PCOD8159965
Probable space group: C 2 2 21
;
_chemical_formula_sum "Si O2"
_cell_formula_units_Z 60
_cell_length_a 16.761273
_cell_length_b 9.558207
_cell_length_c 17.200741
_cell_angle_alpha 90.000000
_cell_angle_beta 90.000000
_cell_angle_gamma 90.000000
_cell_volume 2755.691445
_symmetry_space_group_name_H-M "C 2 2 21"
_symmetry_group_IT_number 20
_symmetry_cell_setting 'orthorhombic'
loop_
_space_group_symop_operation_xyz
x,y,z
-x,-y,1/2+z
x,-y,-z
-x,y,1/2-z
1/2+x,1/2+y,z
1/2-x,1/2-y,1/2+z
1/2+x,1/2-y,-z
1/2-x,1/2+y,1/2-z
loop_
_atom_site_type_symbol
_atom_site_label
_atom_site_fract_x
_atom_site_fract_y
_atom_site_fract_z
Si Si1 0.511788 0.004855 0.414051
Si Si2 0.844369 0.900852 0.235924
Si Si3 0.565365 0.212482 0.813973
Si Si4 0.788583 0.799628 0.783416
Si Si5 0.718075 0.500000 0.000000
Si Si6 0.421501 0.504431 0.382787
Si Si7 0.653308 0.200598 0.553977
Si Si8 0.938846 0.813635 0.085598
O O1 0.448157 0.937207 0.354945
O O2 0.595456 0.921675 0.414805
O O3 0.473263 0.000000 0.500000
O O4 0.529150 0.162250 0.387117
O O5 0.797884 0.764889 0.266850
O O6 0.914493 0.937336 0.296769
O O7 0.882067 0.874521 0.152046
O O8 0.785491 0.034986 0.233298
O O9 0.500000 0.240477 0.750000
O O10 0.651999 0.219301 0.775367
O O11 0.551936 0.333833 0.878005
O O12 0.814242 0.784371 0.872635
O O13 0.664581 0.498211 0.923171
O O14 0.773609 0.636702 0.995274
O O15 0.486606 0.416234 0.430262
O O16 0.607615 0.305683 0.496153
#
# Coordination Sequence:
#
# PCOD8159965 Si02
#       8
#     8   8   8   8   4   8   8   8
#     4  10  23  42  68  96 139 182 233 283 349 422
#     4  11  26  45  69 100 143 182 239 295 357 427
#     4  11  23  41  70  99 137 185 230 291 356 418
#     4  11  25  44  69 100 140 186 237 295 354 430
#     4  12  24  44  72 100 142 194 222 290 362 424
#     4  11  26  42  70 103 138 177 240 293 353 420
#     4  11  23  46  69  99 139 188 236 279 362 425
#     4  11  25  44  71 101 137 184 234 298 348 425
#
# _framework density 21.773119999999999
#
# number of rings (size 3 to 8) (size 9 to 14) (size 15 to 20)
#    0.000    1.067    4.667    2.000    9.333    2.667 
#    0.000    0.000    0.000    0.000    0.000    0.000 
#    0.000    0.000    0.000    0.000    0.000    0.000 
#
# Total GULP energy -372120.033125 kJ/mol
# GULP energy per Si atom -12404.001104 kJ/mol
# Density = 2.172356 g / cm^3
# Si number density = 21.773120 Si / 1000 Ang^3
#
#
#
# Elastic Constant Matrix: (Units=GPa)
#
#
# Indices 1 2 3 4 5 6 
#
# 1 69.5489 33.8275 31.3768 0.0000 0.0000 0.0000
# 2 33.8275 83.6168 21.8459 0.0000 0.0000 0.0000
# 3 31.3768 21.8459 86.4650 0.0000 0.0000 0.0000
# 4 0.0000 0.0000 0.0000 42.2817 0.0000 0.0000
# 5 0.0000 0.0000 0.0000 0.0000 26.3480 0.0000
# 6 0.0000 0.0000 0.0000 0.0000 0.0000 26.7602
#
#
#
# Elastic Compliance Matrix: (Units=1/GPa)
#
#
# Indices 1 2 3 4 5 6 
#
# 1 0.020172 -0.006690 -0.005630 0.000000 0.000000 0.000000
# 2 -0.006690 0.015023 -0.001368 0.000000 0.000000 0.000000
# 3 -0.005630 -0.001368 0.013954 0.000000 0.000000 0.000000
# 4 0.000000 0.000000 0.000000 0.023651 0.000000 0.000000
# 5 0.000000 0.000000 0.000000 0.000000 0.037953 0.000000
# 6 0.000000 0.000000 0.000000 0.000000 0.000000 0.037369
#
#
# Mechanical properties :
#
#
# Convention : Reuss Voigt Hill
#
# Bulk Modulus (GPa) = 45.92701 45.97014 45.94857
# Shear Modulus (GPa) = 27.35886 29.25000 28.30443
#
# Velocity S-wave (km/s) = 3.54862 3.66922 3.60942
# Velocity P-wave (km/s) = 6.15869 6.25380 6.20643
#
# Compressibility (1/GPa) = 0.02177368
#
# Stress axis : x y z
#
# Youngs Moduli (GPa) = 49.57338 66.56401 71.66383
#
# Poissons Ratio (x) = 0.44530 0.40346
# Poissons Ratio (y) = 0.33164 0.09804
# Poissons Ratio (z) = 0.27909 0.09106
#
# Static dielectric constant tensor:
#      x y z
#    x 3.884220 0.000000 0.000000 
#    y 0.000000 3.976780 0.000000 
#    z 0.000000 0.000000 5.777190 
# 
# 
# High freq. dielectric constant tensor:
#      x y z
#    x 1.845210 0.000000 0.000000 
#    y 0.000000 1.856330 0.000000 
#    z 0.000000 0.000000 1.867420 
# 
# From -- ./inp_files/25269.got.cif
#   From: 2010.03.12/outbox.cif.g09.slc.cpg/sg20_13_cif.got.tgz:25269.got - 2010.04.14 01:38:04.
