data_PCOD8159956
_publ_section_title
;
Structure prediction by ZEFSAII (Michael W. Deem and Ramdas Pophale) SiO2 
 PCOD8159956
Probable space group: C 2 2 21
;
_chemical_formula_sum "Si O2"
_cell_formula_units_Z 28
_cell_length_a 9.631242
_cell_length_b 11.935634
_cell_length_c 12.033866
_cell_angle_alpha 90.000000
_cell_angle_beta 90.000000
_cell_angle_gamma 90.000000
_cell_volume 1383.352819
_symmetry_space_group_name_H-M "C 2 2 21"
_symmetry_group_IT_number 20
_symmetry_cell_setting 'orthorhombic'
loop_
_space_group_symop_operation_xyz
x,y,z
-x,-y,1/2+z
x,-y,-z
-x,y,1/2-z
1/2+x,1/2+y,z
1/2-x,1/2-y,1/2+z
1/2+x,1/2-y,-z
1/2-x,1/2+y,1/2-z
loop_
_atom_site_type_symbol
_atom_site_label
_atom_site_fract_x
_atom_site_fract_y
_atom_site_fract_z
Si Si1 0.794897 0.354448 0.946631
Si Si2 0.960640 0.000000 0.500000
Si Si3 0.129783 0.566522 0.675108
Si Si4 0.622601 0.636973 0.675439
O O1 0.882494 0.439347 0.869239
O O2 0.798932 0.231544 0.895335
O O3 0.636386 0.398270 0.956461
O O4 0.863110 0.349791 0.069532
O O5 0.059813 0.958808 0.402338
O O6 0.269278 0.575341 0.745721
O O7 0.000000 0.599972 0.750000
O O8 0.500000 0.691091 0.750000
#
# Coordination Sequence:
#
# PCOD8159956 Si02
#       4
#     8   4   8   8
#     4  10  23  42  64  95 136 160 225 273 310 398
#     4  10  24  46  60 104 132 162 230 274 298 414
#     4  10  23  42  63  98 132 168 221 273 319 389
#     4  12  23  43  70  94 131 182 209 268 338 373
#
# _framework density 20.240677999999999
#
# number of rings (size 3 to 8) (size 9 to 14) (size 15 to 20)
#    0.000    1.714    5.714    0.857    4.000    4.571 
#    0.000    0.000    0.000    0.000    0.000    0.000 
#    0.000    0.000    0.000    0.000    0.000    0.000 
#
# Total GULP energy -173603.660016 kJ/mol
# GULP energy per Si atom -12400.261430 kJ/mol
# Density = 2.019461 g / cm^3
# Si number density = 20.240678 Si / 1000 Ang^3
#
#
#
# Elastic Constant Matrix: (Units=GPa)
#
#
# Indices 1 2 3 4 5 6 
#
# 1 120.5514 37.7075 68.1615 0.0000 0.0000 0.0000
# 2 37.7075 65.6334 59.5214 0.0000 0.0000 0.0000
# 3 68.1615 59.5214 152.4755 0.0000 0.0000 0.0000
# 4 0.0000 0.0000 0.0000 11.3744 0.0000 0.0000
# 5 0.0000 0.0000 0.0000 0.0000 38.9172 0.0000
# 6 0.0000 0.0000 0.0000 0.0000 0.0000 -2.5985
#
#
#
# Elastic Compliance Matrix: (Units=1/GPa)
#
#
# Indices 1 2 3 4 5 6 
#
# 1 0.011471 -0.003003 -0.003956 0.000000 0.000000 0.000000
# 2 -0.003003 0.024372 -0.008172 0.000000 0.000000 0.000000
# 3 -0.003956 -0.008172 0.011517 0.000000 0.000000 0.000000
# 4 0.000000 0.000000 0.000000 0.087917 0.000000 0.000000
# 5 0.000000 0.000000 0.000000 0.000000 0.025696 0.000000
# 6 0.000000 0.000000 0.000000 0.000000 0.000000 -0.384843
#
#
# Mechanical properties :
#
#
# Convention : Reuss Voigt Hill
#
# Bulk Modulus (GPa) = 58.48213 74.38237 66.43225
# Shear Modulus (GPa) = -26.60835 21.08994 -2.75920
#
# Velocity S-wave (km/s) = -3.62967 3.23144 -1.16883
# Velocity P-wave (km/s) = 3.37492 7.12402 5.57412
#
# Compressibility (1/GPa) = 0.01709924
#
# Stress axis : x y z
#
# Youngs Moduli (GPa) = 87.17519 41.03051 86.83059
#
# Poissons Ratio (x) = 0.12322 0.34347
# Poissons Ratio (y) = 0.26179 0.70955
# Poissons Ratio (z) = 0.34484 0.33529
#
# Static dielectric constant tensor:
#      x y z
#    x 3.712110 0.000000 0.000000 
#    y 0.000000 3.307650 0.000000 
#    z 0.000000 0.000000 5.760560 
# 
# 
# High freq. dielectric constant tensor:
#      x y z
#    x 1.789020 0.000000 0.000000 
#    y 0.000000 1.766120 0.000000 
#    z 0.000000 0.000000 1.814190 
# 
# From -- ./inp_files/12387.got.cif
#   From: 2010.03.12/outbox.cif.g09.slc.cpg/sg20_7_cif.got.tgz:12387.got - 2010.04.14 01:38:04.
