data_PCOD8159474
_publ_section_title
;
Structure prediction by ZEFSAII (Michael W. Deem and Ramdas Pophale) SiO2 
 PCOD8159474
Probable space group: C 2 2 21
;
_chemical_formula_sum "Si O2"
_cell_formula_units_Z 56
_cell_length_a 15.220996
_cell_length_b 7.987557
_cell_length_c 21.894670
_cell_angle_alpha 90.000000
_cell_angle_beta 90.000000
_cell_angle_gamma 90.000000
_cell_volume 2661.922738
_symmetry_space_group_name_H-M "C 2 2 21"
_symmetry_group_IT_number 20
_symmetry_cell_setting 'orthorhombic'
loop_
_space_group_symop_operation_xyz
x,y,z
-x,-y,1/2+z
x,-y,-z
-x,y,1/2-z
1/2+x,1/2+y,z
1/2-x,1/2-y,1/2+z
1/2+x,1/2-y,-z
1/2-x,1/2+y,1/2-z
loop_
_atom_site_type_symbol
_atom_site_label
_atom_site_fract_x
_atom_site_fract_y
_atom_site_fract_z
Si Si1 0.677064 0.098581 0.817713
Si Si2 0.334423 0.000000 0.000000
Si Si3 0.302767 0.420604 0.396513
Si Si4 0.183698 0.231426 0.769710
Si Si5 0.000000 0.063261 0.750000
Si Si6 0.589889 0.335091 0.536006
Si Si7 0.956441 0.154237 0.359807
Si Si8 0.215815 0.426590 0.936779
O O1 0.749695 0.216977 0.786723
O O2 0.583911 0.193723 0.820018
O O3 0.671565 0.926095 0.782226
O O4 0.702011 0.070947 0.887840
O O5 0.276232 0.993686 0.062090
O O6 0.394602 0.832090 0.994738
O O7 0.275095 0.372672 0.326811
O O8 0.380460 0.553830 0.395437
O O9 0.338201 0.244951 0.425026
O O10 0.087543 0.171373 0.751782
O O11 0.990625 0.957294 0.811729
O O12 0.554211 0.500000 0.500000
O O13 0.523426 0.280772 0.589217
O O14 0.681752 0.384346 0.565913
O O15 0.182133 0.500000 0.000000
#
# Coordination Sequence:
#
# PCOD8159474 Si02
#       8
#     8   4   8   8   4   8   8   8
#     4  11  23  40  67  95 128 168 222 264 324 390
#     4  10  22  44  64  92 128 172 218 268 322 400
#     4   9  21  38  66  91 124 164 217 257 324 380
#     4  10  21  43  64  99 121 171 212 272 322 398
#     4  10  22  44  64  88 134 162 210 266 336 374
#     4  10  23  42  61  93 129 170 210 266 333 376
#     4  11  24  40  63  94 128 172 207 272 321 393
#     4   9  20  40  65  94 128 168 214 266 323 393
#
# _framework density 21.037424999999999
#
# number of rings (size 3 to 8) (size 9 to 14) (size 15 to 20)
#    0.000    2.000    0.000    2.571    7.000    2.857 
#   11.571    1.429    0.000    0.000    0.000    0.000 
#    0.000    0.000    0.000    0.000    0.000    0.000 
#
# Total GULP energy -347112.985375 kJ/mol
# GULP energy per Si atom -12396.892335 kJ/mol
# Density = 2.098954 g / cm^3
# Si number density = 21.037425 Si / 1000 Ang^3
#
#
#
# Elastic Constant Matrix: (Units=GPa)
#
#
# Indices 1 2 3 4 5 6 
#
# 1 63.0805 47.2918 44.7277 0.0000 0.0000 0.0000
# 2 47.2918 134.2428 63.5189 0.0000 0.0000 0.0000
# 3 44.7277 63.5189 120.0521 0.0000 0.0000 0.0000
# 4 0.0000 0.0000 0.0000 34.4329 0.0000 0.0000
# 5 0.0000 0.0000 0.0000 0.0000 43.1817 0.0000
# 6 0.0000 0.0000 0.0000 0.0000 0.0000 18.3347
#
#
#
# Elastic Compliance Matrix: (Units=1/GPa)
#
#
# Indices 1 2 3 4 5 6 
#
# 1 0.024468 -0.005745 -0.006077 0.000000 0.000000 0.000000
# 2 -0.005745 0.011286 -0.003831 0.000000 0.000000 0.000000
# 3 -0.006077 -0.003831 0.012621 0.000000 0.000000 0.000000
# 4 0.000000 0.000000 0.000000 0.029042 0.000000 0.000000
# 5 0.000000 0.000000 0.000000 0.000000 0.023158 0.000000
# 6 0.000000 0.000000 0.000000 0.000000 0.000000 0.054542
#
#
# Mechanical properties :
#
#
# Convention : Reuss Voigt Hill
#
# Bulk Modulus (GPa) = 58.58185 69.82802 64.20494
# Shear Modulus (GPa) = 26.02675 29.97900 28.00288
#
# Velocity S-wave (km/s) = 3.52115 3.77905 3.65238
# Velocity P-wave (km/s) = 6.66620 7.23229 6.95501
#
# Compressibility (1/GPa) = 0.01707013
#
# Stress axis : x y z
#
# Youngs Moduli (GPa) = 40.86939 88.60892 79.23547
#
# Poissons Ratio (x) = 0.50902 0.48149
# Poissons Ratio (y) = 0.23478 0.30354
# Poissons Ratio (z) = 0.24835 0.33945
#
# Static dielectric constant tensor:
#      x y z
#    x 3.569750 0.000000 0.000000 
#    y 0.000000 4.147800 0.000000 
#    z 0.000000 0.000000 3.920360 
# 
# 
# High freq. dielectric constant tensor:
#      x y z
#    x 1.802100 0.000000 0.000000 
#    y 0.000000 1.840960 0.000000 
#    z 0.000000 0.000000 1.830550 
# 
# From -- ./inp_files/27609.got.cif
#   From: 2010.03.12/outbox.cif.g09.slc.cpg/sg20_14_cif.got.tgz:27609.got - 2010.04.14 01:38:04.
