data_PCOD8159677
_publ_section_title
;
Structure prediction by ZEFSAII (Michael W. Deem and Ramdas Pophale) SiO2 
 PCOD8159677
Probable space group: C 2 2 21
;
_chemical_formula_sum "Si O2"
_cell_formula_units_Z 32
_cell_length_a 13.607408
_cell_length_b 19.262609
_cell_length_c 5.120611
_cell_angle_alpha 90.000000
_cell_angle_beta 90.000000
_cell_angle_gamma 90.000000
_cell_volume 1342.184752
_symmetry_space_group_name_H-M "C 2 2 21"
_symmetry_group_IT_number 20
_symmetry_cell_setting 'orthorhombic'
loop_
_space_group_symop_operation_xyz
x,y,z
-x,-y,1/2+z
x,-y,-z
-x,y,1/2-z
1/2+x,1/2+y,z
1/2-x,1/2-y,1/2+z
1/2+x,1/2-y,-z
1/2-x,1/2+y,1/2-z
loop_
_atom_site_type_symbol
_atom_site_label
_atom_site_fract_x
_atom_site_fract_y
_atom_site_fract_z
Si Si1 0.709586 0.925965 0.645098
Si Si2 0.000000 0.453923 0.750000
Si Si3 0.500000 0.422175 0.250000
Si Si4 0.160972 0.000000 0.500000
Si Si5 0.000000 0.826104 0.750000
Si Si6 0.708546 0.716524 0.102904
O O1 0.595445 0.906578 0.694973
O O2 0.760944 0.860807 0.502673
O O3 0.715571 0.000000 0.500000
O O4 0.770229 0.935943 0.912410
O O5 0.973156 0.500000 0.500000
O O6 0.594648 0.472887 0.257150
O O7 0.508732 0.375156 0.502433
O O8 0.903881 0.778333 0.705657
O O9 0.778401 0.735447 0.348661
#
# Coordination Sequence:
#
# PCOD8159677 Si02
#       6
#     8   4   4   4   4   8
#     4  11  25  45  75 106 147 193 248 306 358 435
#     4  10  22  40  68 104 138 186 246 300 356 410
#     4  12  25  40  73 114 145 191 234 308 368 441
#     4  12  24  40  72 112 144 184 238 306 374 428
#     4  12  25  50  73 102 149 195 246 292 370 449
#     4  12  29  49  73 106 148 195 241 302 370 437
#
# _framework density 23.841726999999999
#
# number of rings (size 3 to 8) (size 9 to 14) (size 15 to 20)
#    0.000    0.500    3.750    3.750    5.250    2.000 
#    0.000    1.250    0.000    0.000    0.000    0.000 
#    0.000    0.000    0.000    0.000    0.000    0.000 
#
# Total GULP energy -198348.270132 kJ/mol
# GULP energy per Si atom -12396.766883 kJ/mol
# Density = 2.378746 g / cm^3
# Si number density = 23.841727 Si / 1000 Ang^3
#
#
#
# Elastic Constant Matrix: (Units=GPa)
#
#
# Indices 1 2 3 4 5 6 
#
# 1 162.0256 35.8870 14.3176 0.0000 0.0000 0.0000
# 2 35.8870 89.2941 25.7889 0.0000 0.0000 0.0000
# 3 14.3176 25.7889 113.7844 0.0000 0.0000 0.0000
# 4 0.0000 0.0000 0.0000 46.8101 0.0000 0.0000
# 5 0.0000 0.0000 0.0000 0.0000 30.8490 0.0000
# 6 0.0000 0.0000 0.0000 0.0000 0.0000 30.4479
#
#
#
# Elastic Compliance Matrix: (Units=1/GPa)
#
#
# Indices 1 2 3 4 5 6 
#
# 1 0.006782 -0.002653 -0.000252 0.000000 0.000000 0.000000
# 2 -0.002653 0.013021 -0.002617 0.000000 0.000000 0.000000
# 3 -0.000252 -0.002617 0.009413 0.000000 0.000000 0.000000
# 4 0.000000 0.000000 0.000000 0.021363 0.000000 0.000000
# 5 0.000000 0.000000 0.000000 0.000000 0.032416 0.000000
# 6 0.000000 0.000000 0.000000 0.000000 0.000000 0.032843
#
#
# Mechanical properties :
#
#
# Convention : Reuss Voigt Hill
#
# Bulk Modulus (GPa) = 55.03051 57.45460 56.24256
# Shear Modulus (GPa) = 37.61102 40.89543 39.25323
#
# Velocity S-wave (km/s) = 3.97612 4.14610 4.06200
# Velocity P-wave (km/s) = 6.64914 6.86082 6.75581
#
# Compressibility (1/GPa) = 0.01817174
#
# Stress axis : x y z
#
# Youngs Moduli (GPa) = 147.45577 76.79907 106.23042
#
# Poissons Ratio (x) = 0.20373 0.02678
# Poissons Ratio (y) = 0.39116 0.27805
# Poissons Ratio (z) = 0.03718 0.20101
#
# Static dielectric constant tensor:
#      x y z
#    x 4.825180 0.000000 0.000000 
#    y 0.000000 4.154390 0.000000 
#    z 0.000000 0.000000 4.095330 
# 
# 
# High freq. dielectric constant tensor:
#      x y z
#    x 1.970380 0.000000 0.000000 
#    y 0.000000 1.920660 0.000000 
#    z 0.000000 0.000000 1.947410 
# 
# From -- ./inp_files/1072.got.cif
#   From: 2010.03.12/outbox.cif.g09.slc.cpg/sg20_1_cif.got.tgz:1072.got - 2010.04.14 01:38:04.
