data_PCOD8159239
_publ_section_title
;
Structure prediction by ZEFSAII (Michael W. Deem and Ramdas Pophale) SiO2 
 PCOD8159239
Probable space group: C 2 2 21
;
_chemical_formula_sum "Si O2"
_cell_formula_units_Z 64
_cell_length_a 25.050351
_cell_length_b 13.820014
_cell_length_c 9.237425
_cell_angle_alpha 90.000000
_cell_angle_beta 90.000000
_cell_angle_gamma 90.000000
_cell_volume 3197.961447
_symmetry_space_group_name_H-M "C 2 2 21"
_symmetry_group_IT_number 20
_symmetry_cell_setting 'orthorhombic'
loop_
_space_group_symop_operation_xyz
x,y,z
-x,-y,1/2+z
x,-y,-z
-x,y,1/2-z
1/2+x,1/2+y,z
1/2-x,1/2-y,1/2+z
1/2+x,1/2-y,-z
1/2-x,1/2+y,1/2-z
loop_
_atom_site_type_symbol
_atom_site_label
_atom_site_fract_x
_atom_site_fract_y
_atom_site_fract_z
Si Si1 0.442704 0.782750 0.312488
Si Si2 0.855285 0.059156 0.141324
Si Si3 0.139286 0.616013 0.995422
Si Si4 0.361211 0.229542 0.921717
Si Si5 0.730227 0.815486 0.222389
Si Si6 0.764986 0.010016 0.336627
Si Si7 0.680221 0.158367 0.302366
Si Si8 0.551782 0.553585 0.156204
O O1 0.500000 0.813728 0.250000
O O2 0.419596 0.846117 0.446449
O O3 0.403858 0.817761 0.184183
O O4 0.441446 0.669920 0.360981
O O5 0.877028 0.158284 0.075166
O O6 0.899608 0.011483 0.247040
O O7 0.803802 0.078677 0.242503
O O8 0.839855 0.000000 0.000000
O O9 0.149662 0.661416 0.152087
O O10 0.140725 0.500000 0.000000
O O11 0.187374 0.660240 0.901364
O O12 0.300654 0.215131 0.867339
O O13 0.365309 0.181694 0.079448
O O14 0.766746 0.907324 0.258020
O O15 0.771335 0.733358 0.175194
O O16 0.786337 0.000000 0.500000
O O17 0.705047 0.052328 0.332040
O O18 0.500000 0.528181 0.250000
O O19 0.549859 0.500000 0.000000
#
# Coordination Sequence:
#
# PCOD8159239 Si02
#       8
#     8   8   8   8   8   8   8   8
#     4   9  22  45  68  88 123 165 210 270 332 380
#     4  11  23  37  56  88 124 162 210 256 308 373
#     4  11  24  41  66  91 124 170 219 268 328 389
#     4  10  21  39  58  84 119 162 201 252 312 378
#     4  11  22  38  57  83 126 166 203 251 314 382
#     4  12  24  35  56  85 123 166 211 253 309 382
#     4  12  23  37  59  91 125 163 212 255 313 386
#     4  10  21  41  68  95 126 164 207 262 329 393
#
# _framework density 20.012748999999999
#
# number of rings (size 3 to 8) (size 9 to 14) (size 15 to 20)
#    0.000    1.250    3.750    2.250    1.750    2.000 
#    0.000    1.875    0.000    0.000    0.000    0.000 
#    0.000    0.000    0.000    0.000    0.000    0.000 
#
# Total GULP energy -396674.496463 kJ/mol
# GULP energy per Si atom -12396.078014 kJ/mol
# Density = 1.996720 g / cm^3
# Si number density = 20.012749 Si / 1000 Ang^3
#
#
#
# Elastic Constant Matrix: (Units=GPa)
#
#
# Indices 1 2 3 4 5 6 
#
# 1 92.8655 22.6093 53.9370 0.0000 0.0000 0.0000
# 2 22.6093 63.9227 39.0942 0.0000 0.0000 0.0000
# 3 53.9370 39.0942 165.0061 0.0000 0.0000 0.0000
# 4 0.0000 0.0000 0.0000 30.0152 0.0000 0.0000
# 5 0.0000 0.0000 0.0000 0.0000 30.7773 0.0000
# 6 0.0000 0.0000 0.0000 0.0000 0.0000 17.8919
#
#
#
# Elastic Compliance Matrix: (Units=1/GPa)
#
#
# Indices 1 2 3 4 5 6 
#
# 1 0.013612 -0.002448 -0.003869 0.000000 0.000000 0.000000
# 2 -0.002448 0.018735 -0.003639 0.000000 0.000000 0.000000
# 3 -0.003869 -0.003639 0.008187 0.000000 0.000000 0.000000
# 4 0.000000 0.000000 0.000000 0.033316 0.000000 0.000000
# 5 0.000000 0.000000 0.000000 0.000000 0.032492 0.000000
# 6 0.000000 0.000000 0.000000 0.000000 0.000000 0.055891
#
#
# Mechanical properties :
#
#
# Convention : Reuss Voigt Hill
#
# Bulk Modulus (GPa) = 48.49177 61.45282 54.97229
# Shear Modulus (GPa) = 26.45235 29.48046 27.96640
#
# Velocity S-wave (km/s) = 3.63957 3.84224 3.74228
# Velocity P-wave (km/s) = 6.47649 7.10333 6.79714
#
# Compressibility (1/GPa) = 0.02062206
#
# Stress axis : x y z
#
# Youngs Moduli (GPa) = 73.46675 53.37580 122.14061
#
# Poissons Ratio (x) = 0.13066 0.47261
# Poissons Ratio (y) = 0.17984 0.44443
# Poissons Ratio (z) = 0.28427 0.19422
#
# Static dielectric constant tensor:
#      x y z
#    x 3.553640 0.000000 0.000000 
#    y 0.000000 3.599000 0.000000 
#    z 0.000000 0.000000 3.779640 
# 
# 
# High freq. dielectric constant tensor:
#      x y z
#    x 1.763310 0.000000 0.000000 
#    y 0.000000 1.775720 0.000000 
#    z 0.000000 0.000000 1.792980 
# 
# From -- ./inp_files/10828.got.cif
#   From: 2010.03.12/outbox.cif.g09.slc.cpg/sg20_6_cif.got.tgz:10828.got - 2010.04.14 01:38:04.
