data_PCOD8159208
_publ_section_title
;
Structure prediction by ZEFSAII (Michael W. Deem and Ramdas Pophale) SiO2 
 PCOD8159208
Probable space group: C 2 2 21
;
_chemical_formula_sum "Si O2"
_cell_formula_units_Z 60
_cell_length_a 26.643376
_cell_length_b 6.461965
_cell_length_c 17.310244
_cell_angle_alpha 90.000000
_cell_angle_beta 90.000000
_cell_angle_gamma 90.000000
_cell_volume 2980.279838
_symmetry_space_group_name_H-M "C 2 2 21"
_symmetry_group_IT_number 20
_symmetry_cell_setting 'orthorhombic'
loop_
_space_group_symop_operation_xyz
x,y,z
-x,-y,1/2+z
x,-y,-z
-x,y,1/2-z
1/2+x,1/2+y,z
1/2-x,1/2-y,1/2+z
1/2+x,1/2-y,-z
1/2-x,1/2+y,1/2-z
loop_
_atom_site_type_symbol
_atom_site_label
_atom_site_fract_x
_atom_site_fract_y
_atom_site_fract_z
Si Si1 0.773643 0.737725 0.640541
Si Si2 0.083919 0.765363 0.299973
Si Si3 0.462908 0.004264 0.914470
Si Si4 0.059312 0.260557 0.868248
Si Si5 0.278956 0.500000 0.500000
Si Si6 0.496500 0.401350 0.835666
Si Si7 0.311725 0.413333 0.250442
Si Si8 0.170522 0.336656 0.897716
O O1 0.750342 0.891430 0.573423
O O2 0.729628 0.617679 0.684366
O O3 0.810146 0.573489 0.597108
O O4 0.805041 0.868085 0.704858
O O5 0.083050 0.573898 0.360268
O O6 0.065336 0.664281 0.220131
O O7 0.135286 0.894548 0.293539
O O8 0.043120 0.916139 0.334773
O O9 0.478140 0.237511 0.896761
O O10 0.514231 0.874936 0.910303
O O11 0.440823 0.000000 0.000000
O O12 0.110871 0.318589 0.910412
O O13 0.048773 0.010509 0.864088
O O14 0.310027 0.310707 0.465079
O O15 0.500000 0.301238 0.750000
O O16 0.310255 0.232032 0.313341
#
# Coordination Sequence:
#
# PCOD8159208 Si02
#       8
#     8   8   8   8   4   8   8   8
#     4  11  21  40  62  90 120 162 209 266 320 374
#     4   9  20  38  56  83 112 151 201 253 293 362
#     4  11  22  34  55  84 123 159 195 240 300 367
#     4   9  20  36  59  85 113 149 200 251 295 366
#     4  10  24  38  58  88 132 158 190 260 324 390
#     4   9  18  36  58  80 110 149 194 236 295 351
#     4  10  21  38  64  87 116 154 215 267 308 368
#     4  10  21  38  61  91 124 158 201 258 327 386
#
# _framework density 20.132339000000002
#
# number of rings (size 3 to 8) (size 9 to 14) (size 15 to 20)
#    0.000    2.133    1.333    2.400    0.000   10.667 
#    1.200    0.000    2.933    0.000    0.000    0.000 
#    0.000    0.000    0.000    0.000    0.000    0.000 
#
# Total GULP energy -371657.908556 kJ/mol
# GULP energy per Si atom -12388.596952 kJ/mol
# Density = 2.008652 g / cm^3
# Si number density = 20.132339 Si / 1000 Ang^3
#
#
#
# Elastic Constant Matrix: (Units=GPa)
#
#
# Indices 1 2 3 4 5 6 
#
# 1 68.0956 16.0252 16.0180 0.0000 0.0000 0.0000
# 2 16.0252 75.5288 31.5640 0.0000 0.0000 0.0000
# 3 16.0180 31.5640 90.0311 0.0000 0.0000 0.0000
# 4 0.0000 0.0000 0.0000 -8.1718 0.0000 0.0000
# 5 0.0000 0.0000 0.0000 0.0000 17.9720 0.0000
# 6 0.0000 0.0000 0.0000 0.0000 0.0000 18.0187
#
#
#
# Elastic Compliance Matrix: (Units=1/GPa)
#
#
# Indices 1 2 3 4 5 6 
#
# 1 0.015732 -0.002540 -0.001908 0.000000 0.000000 0.000000
# 2 -0.002540 0.015923 -0.005130 0.000000 0.000000 0.000000
# 3 -0.001908 -0.005130 0.013246 0.000000 0.000000 0.000000
# 4 0.000000 0.000000 0.000000 -0.122372 0.000000 0.000000
# 5 0.000000 0.000000 0.000000 0.000000 0.055642 0.000000
# 6 0.000000 0.000000 0.000000 0.000000 0.000000 0.055498
#
#
# Mechanical properties :
#
#
# Convention : Reuss Voigt Hill
#
# Bulk Modulus (GPa) = 38.84688 40.09664 39.47176
# Shear Modulus (GPa) = 81.42307 16.90033 49.16170
#
# Velocity S-wave (km/s) = 6.36645 2.90049 4.94695
# Velocity P-wave (km/s) = 8.56621 5.58363 7.23038
#
# Compressibility (1/GPa) = 0.02574209
#
# Stress axis : x y z
#
# Youngs Moduli (GPa) = 63.56483 62.80202 75.49733
#
# Poissons Ratio (x) = 0.15954 0.14408
# Poissons Ratio (y) = 0.16148 0.38734
# Poissons Ratio (z) = 0.12130 0.32220
#
# Static dielectric constant tensor:
#      x y z
#    x 3.542860 0.000000 0.000000 
#    y 0.000000 3.809440 0.000000 
#    z 0.000000 0.000000 3.748510 
# 
# 
# High freq. dielectric constant tensor:
#      x y z
#    x 1.756220 0.000000 0.000000 
#    y 0.000000 1.788790 0.000000 
#    z 0.000000 0.000000 1.789730 
# 
# From -- ./inp_files/25697.got.cif
#   From: 2010.03.12/outbox.cif.g09.slc.cpg/sg20_13_cif.got.tgz:25697.got - 2010.04.14 01:38:04.
