data_PCOD8159296
_publ_section_title
;
Structure prediction by ZEFSAII (Michael W. Deem and Ramdas Pophale) SiO2 
 PCOD8159296
Probable space group: C 2 2 21
;
_chemical_formula_sum "Si O2"
_cell_formula_units_Z 40
_cell_length_a 7.974635
_cell_length_b 15.270352
_cell_length_c 15.326244
_cell_angle_alpha 90.000000
_cell_angle_beta 90.000000
_cell_angle_gamma 90.000000
_cell_volume 1866.360774
_symmetry_space_group_name_H-M "C 2 2 21"
_symmetry_group_IT_number 20
_symmetry_cell_setting 'orthorhombic'
loop_
_space_group_symop_operation_xyz
x,y,z
-x,-y,1/2+z
x,-y,-z
-x,y,1/2-z
1/2+x,1/2+y,z
1/2-x,1/2-y,1/2+z
1/2+x,1/2-y,-z
1/2-x,1/2+y,1/2-z
loop_
_atom_site_type_symbol
_atom_site_label
_atom_site_fract_x
_atom_site_fract_y
_atom_site_fract_z
Si Si1 0.323972 0.443401 0.793729
Si Si2 0.797206 0.134305 0.519844
Si Si3 0.834494 0.181360 0.046233
Si Si4 0.311956 0.061162 0.578890
Si Si5 0.830626 0.487939 0.879121
O O1 0.500000 0.424340 0.750000
O O2 0.280308 0.367405 0.863927
O O3 0.315273 0.537784 0.841996
O O4 0.186866 0.447016 0.716721
O O5 0.699231 0.216475 0.561320
O O6 0.674822 0.093461 0.445840
O O7 0.974155 0.159205 0.477538
O O8 0.815251 0.059106 0.595329
O O9 0.718817 0.157583 0.961002
O O10 0.254755 0.000000 0.500000
O O11 0.498136 0.042248 0.612129
#
# Coordination Sequence:
#
# PCOD8159296 Si02
#       5
#     8   8   8   8   8
#     4  11  22  40  66  98 131 171 222 279 334 387
#     4  11  23  41  69  95 135 177 223 268 336 403
#     4  11  24  42  68  99 134 178 225 278 331 399
#     4  10  21  39  68  92 128 173 220 265 331 399
#     4  11  22  43  68  95 131 176 222 272 335 402
#
# _framework density 21.432082999999999
#
# number of rings (size 3 to 8) (size 9 to 14) (size 15 to 20)
#    0.000    1.200    4.000    3.000    8.400    0.000 
#    3.600    0.000    0.000    0.000    0.000    0.000 
#    0.000    0.000    0.000    0.000    0.000    0.000 
#
# Total GULP energy -247808.277091 kJ/mol
# GULP energy per Si atom -12390.413855 kJ/mol
# Density = 2.138330 g / cm^3
# Si number density = 21.432083 Si / 1000 Ang^3
#
#
#
# Elastic Constant Matrix: (Units=GPa)
#
#
# Indices 1 2 3 4 5 6 
#
# 1 83.9049 27.7208 28.5023 0.0000 0.0000 0.0000
# 2 27.7208 114.8798 60.8728 0.0000 0.0000 0.0000
# 3 28.5023 60.8728 129.5311 0.0000 0.0000 0.0000
# 4 0.0000 0.0000 0.0000 25.9001 0.0000 0.0000
# 5 0.0000 0.0000 0.0000 0.0000 36.8227 0.0000
# 6 0.0000 0.0000 0.0000 0.0000 0.0000 27.9801
#
#
#
# Elastic Compliance Matrix: (Units=1/GPa)
#
#
# Indices 1 2 3 4 5 6 
#
# 1 0.013288 -0.002207 -0.001887 0.000000 0.000000 0.000000
# 2 -0.002207 0.011958 -0.005134 0.000000 0.000000 0.000000
# 3 -0.001887 -0.005134 0.010548 0.000000 0.000000 0.000000
# 4 0.000000 0.000000 0.000000 0.038610 0.000000 0.000000
# 5 0.000000 0.000000 0.000000 0.000000 0.027157 0.000000
# 6 0.000000 0.000000 0.000000 0.000000 0.000000 0.035740
#
#
# Mechanical properties :
#
#
# Convention : Reuss Voigt Hill
#
# Bulk Modulus (GPa) = 57.67376 62.50085 60.08730
# Shear Modulus (GPa) = 30.95299 32.22190 31.58744
#
# Velocity S-wave (km/s) = 3.80443 3.88163 3.84323
# Velocity P-wave (km/s) = 6.80196 7.02246 6.91309
#
# Compressibility (1/GPa) = 0.01733891
#
# Stress axis : x y z
#
# Youngs Moduli (GPa) = 75.25425 83.62899 94.80449
#
# Poissons Ratio (x) = 0.18454 0.17889
# Poissons Ratio (y) = 0.16606 0.48672
# Poissons Ratio (z) = 0.14200 0.42934
#
# Static dielectric constant tensor:
#      x y z
#    x 3.780400 0.000000 0.000000 
#    y 0.000000 3.954490 0.000000 
#    z 0.000000 0.000000 4.267670 
# 
# 
# High freq. dielectric constant tensor:
#      x y z
#    x 1.844670 0.000000 0.000000 
#    y 0.000000 1.822810 0.000000 
#    z 0.000000 0.000000 1.842300 
# 
# From -- ./inp_files/18509.got.cif
#   From: 2010.03.12/outbox.cif.g09.slc.cpg/sg20_10_cif.got.tgz:18509.got - 2010.04.14 01:38:04.
