data_PCOD8159419
_publ_section_title
;
Structure prediction by ZEFSAII (Michael W. Deem and Ramdas Pophale) SiO2 
 PCOD8159419
Probable space group: C 2 2 21
;
_chemical_formula_sum "Si O2"
_cell_formula_units_Z 40
_cell_length_a 8.023494
_cell_length_b 12.507134
_cell_length_c 17.831918
_cell_angle_alpha 90.000000
_cell_angle_beta 90.000000
_cell_angle_gamma 90.000000
_cell_volume 1789.449280
_symmetry_space_group_name_H-M "C 2 2 21"
_symmetry_group_IT_number 20
_symmetry_cell_setting 'orthorhombic'
loop_
_space_group_symop_operation_xyz
x,y,z
-x,-y,1/2+z
x,-y,-z
-x,y,1/2-z
1/2+x,1/2+y,z
1/2-x,1/2-y,1/2+z
1/2+x,1/2-y,-z
1/2-x,1/2+y,1/2-z
loop_
_atom_site_type_symbol
_atom_site_label
_atom_site_fract_x
_atom_site_fract_y
_atom_site_fract_z
Si Si1 0.331185 0.783487 0.576474
Si Si2 0.470393 0.380860 0.837778
Si Si3 0.093587 0.611865 0.525325
Si Si4 0.419408 0.160185 0.667527
Si Si5 0.957926 0.886372 0.164520
O O1 0.217564 0.846537 0.637246
O O2 0.222641 0.710083 0.519877
O O3 0.430642 0.867402 0.525740
O O4 0.463219 0.708736 0.618220
O O5 0.500000 0.394162 0.750000
O O6 0.591396 0.283919 0.862630
O O7 0.517057 0.498409 0.869975
O O8 0.176535 0.500000 0.500000
O O9 0.042354 0.596489 0.612410
O O10 0.500000 0.154525 0.750000
O O11 0.240566 0.108932 0.661454
O O12 0.000000 0.867225 0.250000
#
# Coordination Sequence:
#
# PCOD8159419 Si02
#       5
#     8   8   8   8   8
#     4  11  24  40  61  91 124 162 207 254 306 368
#     4   9  20  39  61  90 123 158 204 255 305 362
#     4  11  24  42  62  89 123 162 204 251 312 367
#     4  10  21  42  64  87 123 159 204 258 300 363
#     4  11  21  37  63  91 121 161 204 250 306 360
#
# _framework density 22.353245000000001
#
# number of rings (size 3 to 8) (size 9 to 14) (size 15 to 20)
#    0.000    1.600    0.000    6.000    0.000    4.800 
#    0.000   15.000    0.000    1.200    0.000    0.000 
#    0.000    0.000    0.000    0.000    0.000    0.000 
#
# Total GULP energy -247835.868179 kJ/mol
# GULP energy per Si atom -12391.793409 kJ/mol
# Density = 2.230237 g / cm^3
# Si number density = 22.353245 Si / 1000 Ang^3
#
#
#
# Elastic Constant Matrix: (Units=GPa)
#
#
# Indices 1 2 3 4 5 6 
#
# 1 54.9070 7.6366 23.5167 0.0000 0.0000 0.0000
# 2 7.6366 88.2491 37.8658 0.0000 0.0000 0.0000
# 3 23.5167 37.8658 88.1549 0.0000 0.0000 0.0000
# 4 0.0000 0.0000 0.0000 29.7894 0.0000 0.0000
# 5 0.0000 0.0000 0.0000 0.0000 41.7653 0.0000
# 6 0.0000 0.0000 0.0000 0.0000 0.0000 28.9166
#
#
#
# Elastic Compliance Matrix: (Units=1/GPa)
#
#
# Indices 1 2 3 4 5 6 
#
# 1 0.020598 0.000705 -0.005798 0.000000 0.000000 0.000000
# 2 0.000705 0.013916 -0.006166 0.000000 0.000000 0.000000
# 3 -0.005798 -0.006166 0.015539 0.000000 0.000000 0.000000
# 4 0.000000 0.000000 0.000000 0.033569 0.000000 0.000000
# 5 0.000000 0.000000 0.000000 0.000000 0.023943 0.000000
# 6 0.000000 0.000000 0.000000 0.000000 0.000000 0.034582
#
#
# Mechanical properties :
#
#
# Convention : Reuss Voigt Hill
#
# Bulk Modulus (GPa) = 36.31570 41.03881 38.67726
# Shear Modulus (GPa) = 28.76178 30.91371 29.83775
#
# Velocity S-wave (km/s) = 3.59094 3.72286 3.65749
# Velocity P-wave (km/s) = 5.78573 6.07278 5.93099
#
# Compressibility (1/GPa) = 0.02753630
#
# Stress axis : x y z
#
# Youngs Moduli (GPa) = 48.54918 71.85947 64.35568
#
# Poissons Ratio (x) = -0.05068 0.37311
# Poissons Ratio (y) = -0.03424 0.39679
# Poissons Ratio (z) = 0.28147 0.44306
#
# Static dielectric constant tensor:
#      x y z
#    x 3.809410 0.000000 0.000000 
#    y 0.000000 4.376890 0.000000 
#    z 0.000000 0.000000 4.051720 
# 
# 
# High freq. dielectric constant tensor:
#      x y z
#    x 1.870450 0.000000 0.000000 
#    y 0.000000 1.891490 0.000000 
#    z 0.000000 0.000000 1.879580 
# 
# From -- ./inp_files/23132.got.cif
#   From: 2010.03.12/outbox.cif.g09.slc.cpg/sg20_12_cif.got.tgz:23132.got - 2010.04.14 01:38:04.
