data_PCOD8159604
_publ_section_title
;
Structure prediction by ZEFSAII (Michael W. Deem and Ramdas Pophale) SiO2 
 PCOD8159604
Probable space group: C 2 2 21
;
_chemical_formula_sum "Si O2"
_cell_formula_units_Z 64
_cell_length_a 32.325897
_cell_length_b 12.913995
_cell_length_c 7.528402
_cell_angle_alpha 90.000000
_cell_angle_beta 90.000000
_cell_angle_gamma 90.000000
_cell_volume 3142.780140
_symmetry_space_group_name_H-M "C 2 2 21"
_symmetry_group_IT_number 20
_symmetry_cell_setting 'orthorhombic'
loop_
_space_group_symop_operation_xyz
x,y,z
-x,-y,1/2+z
x,-y,-z
-x,y,1/2-z
1/2+x,1/2+y,z
1/2-x,1/2-y,1/2+z
1/2+x,1/2-y,-z
1/2-x,1/2+y,1/2-z
loop_
_atom_site_type_symbol
_atom_site_label
_atom_site_fract_x
_atom_site_fract_y
_atom_site_fract_z
Si Si1 0.454350 0.398831 0.282376
Si Si2 0.202235 0.866554 0.835412
Si Si3 0.378324 0.248841 0.647187
Si Si4 0.455390 0.628125 0.305120
Si Si5 0.240386 0.307168 0.361708
Si Si6 0.653103 0.884175 0.448756
Si Si7 0.699706 0.571765 0.671893
Si Si8 0.623955 0.276880 0.263197
O O1 0.500000 0.352882 0.250000
O O2 0.450729 0.516775 0.206407
O O3 0.447556 0.395819 0.490586
O O4 0.420101 0.328391 0.185467
O O5 0.154079 0.840572 0.816200
O O6 0.225717 0.810958 0.668725
O O7 0.207237 0.989812 0.832264
O O8 0.219795 0.813701 0.012120
O O9 0.420807 0.286651 0.740677
O O10 0.364583 0.145358 0.753367
O O11 0.379370 0.228213 0.435468
O O12 0.500000 0.675171 0.250000
O O13 0.202802 0.373219 0.443281
O O14 0.259216 0.354659 0.175705
O O15 0.633234 0.813920 0.600616
O O16 0.640945 0.000000 0.500000
O O17 0.694693 0.500000 0.500000
O O18 0.658495 0.635055 0.714947
#
# Coordination Sequence:
#
# PCOD8159604 Si02
#       8
#     8   8   8   8   8   8   8   8
#     4   9  19  34  57  94 128 166 197 244 305 381
#     4  11  21  37  58  83 123 158 203 253 310 363
#     4  10  22  39  62  90 121 164 199 259 316 376
#     4   9  18  34  57  91 132 162 199 238 305 386
#     4  11  23  39  59  85 122 163 213 263 312 380
#     4  11  25  44  62  89 117 160 217 271 324 378
#     4  12  23  38  60  92 123 169 209 261 322 379
#     4  11  23  41  64  92 125 162 212 259 316 394
#
# _framework density 20.364136999999999
#
# number of rings (size 3 to 8) (size 9 to 14) (size 15 to 20)
#    0.000    1.500    1.250    4.875    1.750    1.500 
#    6.750    0.000    0.000    0.750    0.000    0.000 
#    0.000    0.000    0.000    0.000    0.000    0.000 
#
# Total GULP energy -396623.213334 kJ/mol
# GULP energy per Si atom -12394.475417 kJ/mol
# Density = 2.031779 g / cm^3
# Si number density = 20.364137 Si / 1000 Ang^3
#
#
#
# Elastic Constant Matrix: (Units=GPa)
#
#
# Indices 1 2 3 4 5 6 
#
# 1 151.1678 50.7998 25.3533 0.0000 0.0000 0.0000
# 2 50.7998 99.5238 19.4890 0.0000 0.0000 0.0000
# 3 25.3533 19.4890 71.2209 0.0000 0.0000 0.0000
# 4 0.0000 0.0000 0.0000 26.6908 0.0000 0.0000
# 5 0.0000 0.0000 0.0000 0.0000 31.0587 0.0000
# 6 0.0000 0.0000 0.0000 0.0000 0.0000 149.1280
#
#
#
# Elastic Compliance Matrix: (Units=1/GPa)
#
#
# Indices 1 2 3 4 5 6 
#
# 1 0.008216 -0.003826 -0.001878 0.000000 0.000000 0.000000
# 2 -0.003826 0.012398 -0.002031 0.000000 0.000000 0.000000
# 3 -0.001878 -0.002031 0.015265 0.000000 0.000000 0.000000
# 4 0.000000 0.000000 0.000000 0.037466 0.000000 0.000000
# 5 0.000000 0.000000 0.000000 0.000000 0.032197 0.000000
# 6 0.000000 0.000000 0.000000 0.000000 0.000000 0.006706
#
#
# Mechanical properties :
#
#
# Convention : Reuss Voigt Hill
#
# Bulk Modulus (GPa) = 48.99481 57.02189 53.00835
# Shear Modulus (GPa) = 37.16917 56.46018 46.81467
#
# Velocity S-wave (km/s) = 4.27690 5.27119 4.79986
# Velocity P-wave (km/s) = 6.96425 8.06903 7.53691
#
# Compressibility (1/GPa) = 0.02041032
#
# Stress axis : x y z
#
# Youngs Moduli (GPa) = 121.71715 80.65593 65.50947
#
# Poissons Ratio (x) = 0.30858 0.12301
# Poissons Ratio (y) = 0.46567 0.13303
# Poissons Ratio (z) = 0.22855 0.16379
#
# Static dielectric constant tensor:
#      x y z
#    x 3.830830 0.000000 0.000000 
#    y 0.000000 3.687930 0.000000 
#    z 0.000000 0.000000 3.410540 
# 
# 
# High freq. dielectric constant tensor:
#      x y z
#    x 1.796780 0.000000 0.000000 
#    y 0.000000 1.768340 0.000000 
#    z 0.000000 0.000000 1.810120 
# 
# From -- ./inp_files/11621.got.cif
#   From: 2010.03.12/outbox.cif.g09.slc.cpg/sg20_6_cif.got.tgz:11621.got - 2010.04.14 01:38:04.
