data_PCOD8159353
_publ_section_title
;
Structure prediction by ZEFSAII (Michael W. Deem and Ramdas Pophale) SiO2 
 PCOD8159353
Probable space group: C 2 2 21
;
_chemical_formula_sum "Si O2"
_cell_formula_units_Z 40
_cell_length_a 8.170839
_cell_length_b 20.524083
_cell_length_c 10.524417
_cell_angle_alpha 90.000000
_cell_angle_beta 90.000000
_cell_angle_gamma 90.000000
_cell_volume 1764.933973
_symmetry_space_group_name_H-M "C 2 2 21"
_symmetry_group_IT_number 20
_symmetry_cell_setting 'orthorhombic'
loop_
_space_group_symop_operation_xyz
x,y,z
-x,-y,1/2+z
x,-y,-z
-x,y,1/2-z
1/2+x,1/2+y,z
1/2-x,1/2-y,1/2+z
1/2+x,1/2-y,-z
1/2-x,1/2+y,1/2-z
loop_
_atom_site_type_symbol
_atom_site_label
_atom_site_fract_x
_atom_site_fract_y
_atom_site_fract_z
Si Si1 0.539697 0.952834 0.888011
Si Si2 0.884257 0.005501 0.136677
Si Si3 0.344369 0.163114 0.004030
Si Si4 0.903066 0.254394 0.372906
Si Si5 0.687501 0.365637 0.259958
O O1 0.500000 0.982923 0.750000
O O2 0.736977 0.943779 0.890515
O O3 0.443223 0.885713 0.905558
O O4 0.479819 0.000000 0.000000
O O5 0.000000 0.031503 0.250000
O O6 0.805540 0.936450 0.176046
O O7 0.980254 0.000000 0.000000
O O8 0.465614 0.223048 0.976807
O O9 0.277485 0.129244 0.876097
O O10 0.190353 0.190740 0.080007
O O11 0.783135 0.315021 0.347449
O O12 0.000000 0.230999 0.250000
O O13 0.500000 0.342042 0.250000
#
# Coordination Sequence:
#
# PCOD8159353 Si02
#       5
#     8   8   8   8   8
#     4  11  24  42  66  95 131 173 221 270 325 390
#     4  10  22  41  66  96 130 171 219 270 328 391
#     4  11  23  41  67  97 132 173 217 269 324 388
#     4  10  22  40  65  97 132 171 216 264 324 391
#     4  10  21  40  68  97 132 172 214 267 330 394
#
# _framework density 22.663736
#
# number of rings (size 3 to 8) (size 9 to 14) (size 15 to 20)
#    0.000    1.600    0.000    4.800    0.000    9.600 
#    0.000   11.000    0.000    1.200    0.000    0.000 
#    0.000    0.000    0.000    0.000    0.000    0.000 
#
# Total GULP energy -247983.528941 kJ/mol
# GULP energy per Si atom -12399.176447 kJ/mol
# Density = 2.261215 g / cm^3
# Si number density = 22.663736 Si / 1000 Ang^3
#
#
#
# Elastic Constant Matrix: (Units=GPa)
#
#
# Indices 1 2 3 4 5 6 
#
# 1 116.4238 39.3878 58.1273 0.0000 0.0000 0.0000
# 2 39.3878 85.6267 53.4051 0.0000 0.0000 0.0000
# 3 58.1273 53.4051 163.8239 0.0000 0.0000 0.0000
# 4 0.0000 0.0000 0.0000 14.4839 0.0000 0.0000
# 5 0.0000 0.0000 0.0000 0.0000 43.4047 0.0000
# 6 0.0000 0.0000 0.0000 0.0000 0.0000 -117.3856
#
#
#
# Elastic Compliance Matrix: (Units=1/GPa)
#
#
# Indices 1 2 3 4 5 6 
#
# 1 0.011151 -0.003341 -0.002868 0.000000 0.000000 0.000000
# 2 -0.003341 0.015660 -0.003920 0.000000 0.000000 0.000000
# 3 -0.002868 -0.003920 0.008399 0.000000 0.000000 0.000000
# 4 0.000000 0.000000 0.000000 0.069042 0.000000 0.000000
# 5 0.000000 0.000000 0.000000 0.000000 0.023039 0.000000
# 6 0.000000 0.000000 0.000000 0.000000 0.000000 -0.008519
#
#
# Mechanical properties :
#
#
# Convention : Reuss Voigt Hill
#
# Bulk Modulus (GPa) = 66.87002 74.19054 70.53028
# Shear Modulus (GPa) = 34.71879 2.43086 18.57483
#
# Velocity S-wave (km/s) = 3.91821 1.03678 2.86594
# Velocity P-wave (km/s) = 7.07384 5.85146 6.49149
#
# Compressibility (1/GPa) = 0.01495438
#
# Stress axis : x y z
#
# Youngs Moduli (GPa) = 89.67551 63.85647 119.05749
#
# Poissons Ratio (x) = 0.21335 0.34140
# Poissons Ratio (y) = 0.29961 0.46666
# Poissons Ratio (z) = 0.25714 0.25029
#
# Static dielectric constant tensor:
#      x y z
#    x 4.299570 0.000000 0.000000 
#    y 0.000000 3.628580 0.000000 
#    z 0.000000 0.000000 4.436720 
# 
# 
# High freq. dielectric constant tensor:
#      x y z
#    x 1.905470 0.000000 0.000000 
#    y 0.000000 1.867240 0.000000 
#    z 0.000000 0.000000 1.910180 
# 
# From -- ./inp_files/12680.got.cif
#   From: 2010.03.12/outbox.cif.g09.slc.cpg/sg20_7_cif.got.tgz:12680.got - 2010.04.14 01:38:04.
