data_PCOD8159622
_publ_section_title
;
Structure prediction by ZEFSAII (Michael W. Deem and Ramdas Pophale) SiO2 
 PCOD8159622
Probable space group: C 2 2 21
;
_chemical_formula_sum "Si O2"
_cell_formula_units_Z 44
_cell_length_a 4.998638
_cell_length_b 19.971399
_cell_length_c 21.321939
_cell_angle_alpha 90.000000
_cell_angle_beta 90.000000
_cell_angle_gamma 90.000000
_cell_volume 2128.564777
_symmetry_space_group_name_H-M "C 2 2 21"
_symmetry_group_IT_number 20
_symmetry_cell_setting 'orthorhombic'
loop_
_space_group_symop_operation_xyz
x,y,z
-x,-y,1/2+z
x,-y,-z
-x,y,1/2-z
1/2+x,1/2+y,z
1/2-x,1/2-y,1/2+z
1/2+x,1/2-y,-z
1/2-x,1/2+y,1/2-z
loop_
_atom_site_type_symbol
_atom_site_label
_atom_site_fract_x
_atom_site_fract_y
_atom_site_fract_z
Si Si1 0.000000 0.960527 0.750000
Si Si2 0.203383 0.973404 0.067147
Si Si3 0.747866 0.760812 0.582643
Si Si4 0.200515 0.475631 0.863995
Si Si5 0.883725 0.360211 0.814762
Si Si6 0.247031 0.819615 0.050737
O O1 0.194457 0.003443 0.704170
O O2 0.168751 0.916795 0.798839
O O3 0.159649 0.894416 0.066170
O O4 0.435367 0.984624 0.117695
O O5 0.930568 0.012795 0.084168
O O6 0.302759 0.000000 0.000000
O O7 0.770562 0.803302 0.646353
O O8 0.774126 0.811132 0.524123
O O9 0.456613 0.728995 0.585349
O O10 0.963507 0.701032 0.577740
O O11 0.120958 0.396570 0.855368
O O12 0.000000 0.329293 0.750000
#
# Coordination Sequence:
#
# PCOD8159622 Si02
#       6
#     4   8   8   8   8   8
#     4  10  22  42  64 100 118 164 222 266 324 358
#     4  12  24  40  64  97 134 168 213 260 323 392
#     4  10  22  41  64  88 130 161 212 260 313 381
#     4  11  23  39  65  94 130 162 209 273 312 383
#     4  10  22  39  69  96 120 164 218 269 316 365
#     4  10  23  39  62  92 124 171 201 256 322 381
#
# _framework density 20.671208
#
# number of rings (size 3 to 8) (size 9 to 14) (size 15 to 20)
#    0.000    1.455    1.818    2.727    5.091    2.909 
#    0.000    0.000   12.000    0.000    0.000    0.000 
#    0.000    0.000    0.000    0.000    0.000    0.000 
#
# Total GULP energy -272741.715347 kJ/mol
# GULP energy per Si atom -12397.350698 kJ/mol
# Density = 2.062416 g / cm^3
# Si number density = 20.671208 Si / 1000 Ang^3
#
#
#
# Elastic Constant Matrix: (Units=GPa)
#
#
# Indices 1 2 3 4 5 6 
#
# 1 102.9645 21.8365 36.4716 0.0000 0.0000 0.0000
# 2 21.8365 75.9875 57.3738 0.0000 0.0000 0.0000
# 3 36.4716 57.3738 101.9280 0.0000 0.0000 0.0000
# 4 0.0000 0.0000 0.0000 35.5098 0.0000 0.0000
# 5 0.0000 0.0000 0.0000 0.0000 38.2087 0.0000
# 6 0.0000 0.0000 0.0000 0.0000 0.0000 14.1305
#
#
#
# Elastic Compliance Matrix: (Units=1/GPa)
#
#
# Indices 1 2 3 4 5 6 
#
# 1 0.011127 -0.000333 -0.003794 0.000000 0.000000 0.000000
# 2 -0.000333 0.022897 -0.012769 0.000000 0.000000 0.000000
# 3 -0.003794 -0.012769 0.018356 0.000000 0.000000 0.000000
# 4 0.000000 0.000000 0.000000 0.028161 0.000000 0.000000
# 5 0.000000 0.000000 0.000000 0.000000 0.026172 0.000000
# 6 0.000000 0.000000 0.000000 0.000000 0.000000 0.070769
#
#
# Mechanical properties :
#
#
# Convention : Reuss Voigt Hill
#
# Bulk Modulus (GPa) = 53.79972 56.91599 55.35786
# Shear Modulus (GPa) = 22.99169 28.58301 25.78735
#
# Velocity S-wave (km/s) = 3.33867 3.72256 3.53583
# Velocity P-wave (km/s) = 6.39884 6.78751 6.59604
#
# Compressibility (1/GPa) = 0.01858746
#
# Stress axis : x y z
#
# Youngs Moduli (GPa) = 89.87528 43.67367 54.47802
#
# Poissons Ratio (x) = 0.01454 0.20668
# Poissons Ratio (y) = 0.02992 0.69565
# Poissons Ratio (z) = 0.34098 0.55768
#
# Static dielectric constant tensor:
#      x y z
#    x 4.056300 0.000000 0.000000 
#    y 0.000000 3.356160 0.000000 
#    z 0.000000 0.000000 3.892510 
# 
# 
# High freq. dielectric constant tensor:
#      x y z
#    x 1.832020 0.000000 0.000000 
#    y 0.000000 1.771770 0.000000 
#    z 0.000000 0.000000 1.810030 
# 
# From -- ./inp_files/26031.got.cif
#   From: 2010.03.12/outbox.cif.g09.slc.cpg/sg20_14_cif.got.tgz:26031.got - 2010.04.14 01:38:04.
