data_PCOD8159574
_publ_section_title
;
Structure prediction by ZEFSAII (Michael W. Deem and Ramdas Pophale) SiO2 
 PCOD8159574
Probable space group: C 2 2 21
;
_chemical_formula_sum "Si O2"
_cell_formula_units_Z 60
_cell_length_a 6.855073
_cell_length_b 22.322622
_cell_length_c 18.755020
_cell_angle_alpha 90.000000
_cell_angle_beta 90.000000
_cell_angle_gamma 90.000000
_cell_volume 2869.953240
_symmetry_space_group_name_H-M "C 2 2 21"
_symmetry_group_IT_number 20
_symmetry_cell_setting 'orthorhombic'
loop_
_space_group_symop_operation_xyz
x,y,z
-x,-y,1/2+z
x,-y,-z
-x,y,1/2-z
1/2+x,1/2+y,z
1/2-x,1/2-y,1/2+z
1/2+x,1/2-y,-z
1/2-x,1/2+y,1/2-z
loop_
_atom_site_type_symbol
_atom_site_label
_atom_site_fract_x
_atom_site_fract_y
_atom_site_fract_z
Si Si1 0.500000 0.629042 0.250000
Si Si2 0.151025 0.991647 0.580810
Si Si3 0.088091 0.612024 0.074787
Si Si4 0.887546 0.423149 0.177446
Si Si5 0.762225 0.048793 0.364157
Si Si6 0.214086 0.617259 0.913171
Si Si7 0.941322 0.167001 0.670534
Si Si8 0.658419 0.794468 0.813029
O O1 0.364588 0.587287 0.301015
O O2 0.637577 0.674436 0.293279
O O3 0.271346 0.936311 0.614685
O O4 0.923321 0.979536 0.584890
O O5 0.221049 0.000000 0.500000
O O6 0.203061 0.054036 0.617765
O O7 0.076795 0.672857 0.117545
O O8 0.867757 0.586704 0.079996
O O9 0.181449 0.624747 0.997390
O O10 0.869521 0.494671 0.166972
O O11 0.672799 0.395471 0.170954
O O12 0.000000 0.410076 0.250000
O O13 0.998901 0.382525 0.119129
O O14 0.370282 0.665487 0.882898
O O15 0.811682 0.226807 0.656769
O O16 0.000000 0.179478 0.750000
O O17 0.500000 0.801043 0.750000
#
# Coordination Sequence:
#
# PCOD8159574 Si02
#       8
#     4   8   8   8   8   8   8   8
#     4  12  26  40  70 102 134 180 234 286 350 408
#     4  10  22  38  63  94 137 172 215 270 349 417
#     4  11  24  44  66  99 138 176 225 286 351 418
#     4  12  26  39  66 100 137 173 231 282 343 413
#     4  12  25  37  68 101 137 175 223 284 352 414
#     4  11  24  44  67  99 135 180 226 285 348 419
#     4  11  25  46  70  93 130 182 234 287 342 407
#     4  11  25  47  69  96 135 183 236 288 343 408
#
# _framework density 20.906265000000001
#
# number of rings (size 3 to 8) (size 9 to 14) (size 15 to 20)
#    0.000    0.800    6.667    0.000    7.467    0.000 
#    2.400    0.000    0.000    0.000    0.000    0.000 
#    0.000    0.000    0.000    0.000    0.000    0.000 
#
# Total GULP energy -371675.652814 kJ/mol
# GULP energy per Si atom -12389.188427 kJ/mol
# Density = 2.085868 g / cm^3
# Si number density = 20.906265 Si / 1000 Ang^3
#
#
#
# Elastic Constant Matrix: (Units=GPa)
#
#
# Indices 1 2 3 4 5 6 
#
# 1 89.8268 28.7279 31.6808 0.0000 0.0000 0.0000
# 2 28.7279 109.1610 41.3593 0.0000 0.0000 0.0000
# 3 31.6808 41.3593 86.8646 0.0000 0.0000 0.0000
# 4 0.0000 0.0000 0.0000 93.5824 0.0000 0.0000
# 5 0.0000 0.0000 0.0000 0.0000 39.0731 0.0000
# 6 0.0000 0.0000 0.0000 0.0000 0.0000 38.7677
#
#
#
# Elastic Compliance Matrix: (Units=1/GPa)
#
#
# Indices 1 2 3 4 5 6 
#
# 1 0.013125 -0.002001 -0.003834 0.000000 0.000000 0.000000
# 2 -0.002001 0.011482 -0.004737 0.000000 0.000000 0.000000
# 3 -0.003834 -0.004737 0.015166 0.000000 0.000000 0.000000
# 4 0.000000 0.000000 0.000000 0.010686 0.000000 0.000000
# 5 0.000000 0.000000 0.000000 0.000000 0.025593 0.000000
# 6 0.000000 0.000000 0.000000 0.000000 0.000000 0.025795
#
#
# Mechanical properties :
#
#
# Convention : Reuss Voigt Hill
#
# Bulk Modulus (GPa) = 53.68230 54.37650 54.02940
# Shear Modulus (GPa) = 38.69942 46.55694 42.62818
#
# Velocity S-wave (km/s) = 4.30710 4.72416 4.52044
# Velocity P-wave (km/s) = 7.10410 7.47148 7.29010
#
# Compressibility (1/GPa) = 0.01862811
#
# Stress axis : x y z
#
# Youngs Moduli (GPa) = 76.19177 87.09020 65.93713
#
# Poissons Ratio (x) = 0.17431 0.25279
# Poissons Ratio (y) = 0.15250 0.31236
# Poissons Ratio (z) = 0.29211 0.41256
#
# Static dielectric constant tensor:
#      x y z
#    x 3.694990 0.000000 0.000000 
#    y 0.000000 4.104810 0.000000 
#    z 0.000000 0.000000 3.975000 
# 
# 
# High freq. dielectric constant tensor:
#      x y z
#    x 1.829230 0.000000 0.000000 
#    y 0.000000 1.818770 0.000000 
#    z 0.000000 0.000000 1.806450 
# 
# From -- ./inp_files/26225.got.cif
#   From: 2010.03.12/outbox.cif.g09.slc.cpg/sg20_14_cif.got.tgz:26225.got - 2010.04.14 01:38:04.
