data_PCOD8159668
_publ_section_title
;
Structure prediction by ZEFSAII (Michael W. Deem and Ramdas Pophale) SiO2 
 PCOD8159668
Probable space group: C 2 2 21
;
_chemical_formula_sum "Si O2"
_cell_formula_units_Z 48
_cell_length_a 8.549017
_cell_length_b 12.964200
_cell_length_c 20.254752
_cell_angle_alpha 90.000000
_cell_angle_beta 90.000000
_cell_angle_gamma 90.000000
_cell_volume 2244.857785
_symmetry_space_group_name_H-M "C 2 2 21"
_symmetry_group_IT_number 20
_symmetry_cell_setting 'orthorhombic'
loop_
_space_group_symop_operation_xyz
x,y,z
-x,-y,1/2+z
x,-y,-z
-x,y,1/2-z
1/2+x,1/2+y,z
1/2-x,1/2-y,1/2+z
1/2+x,1/2-y,-z
1/2-x,1/2+y,1/2-z
loop_
_atom_site_type_symbol
_atom_site_label
_atom_site_fract_x
_atom_site_fract_y
_atom_site_fract_z
Si Si1 0.371599 0.512065 0.072314
Si Si2 0.710093 0.197085 0.309190
Si Si3 0.098549 0.995563 0.809369
Si Si4 0.136393 0.220954 0.821403
Si Si5 0.840233 0.680471 0.574829
Si Si6 0.320375 0.745527 0.054057
O O1 0.497804 0.480331 0.125666
O O2 0.217563 0.438437 0.076662
O O3 0.329324 0.630521 0.083573
O O4 0.448873 0.500000 0.000000
O O5 0.753210 0.077819 0.325133
O O6 0.532557 0.225196 0.327607
O O7 0.739149 0.212333 0.230463
O O8 0.822497 0.268584 0.353390
O O9 0.000000 0.942939 0.750000
O O10 0.145218 0.109453 0.785606
O O11 0.201582 0.202738 0.894672
O O12 0.742115 0.745751 0.520704
O O13 0.021106 0.688078 0.554492
#
# Coordination Sequence:
#
# PCOD8159668 Si02
#       6
#     8   8   8   8   8   8
#     4  10  22  40  66  96 131 173 223 278 335 401
#     4  11  23  40  67  95 133 179 225 278 342 399
#     4  12  22  41  69  97 132 183 227 280 341 408
#     4  11  24  43  63 101 137 174 226 292 332 403
#     4  11  22  41  66 100 133 178 226 278 337 410
#     4  11  24  41  68  97 138 179 221 285 341 401
#
# _framework density 21.382200000000001
#
# number of rings (size 3 to 8) (size 9 to 14) (size 15 to 20)
#    0.000    1.000    5.000    2.000    2.333    1.333 
#    0.000    3.333    0.000    0.000    0.000    0.000 
#    0.000    0.000    0.000    0.000    0.000    0.000 
#
# Total GULP energy -297494.828468 kJ/mol
# GULP energy per Si atom -12395.617853 kJ/mol
# Density = 2.133353 g / cm^3
# Si number density = 21.382200 Si / 1000 Ang^3
#
#
#
# Elastic Constant Matrix: (Units=GPa)
#
#
# Indices 1 2 3 4 5 6 
#
# 1 100.2040 48.5940 27.7350 0.0000 0.0000 0.0000
# 2 48.5940 114.0031 10.7629 0.0000 0.0000 0.0000
# 3 27.7350 10.7629 93.8639 0.0000 0.0000 0.0000
# 4 0.0000 0.0000 0.0000 27.8442 0.0000 0.0000
# 5 0.0000 0.0000 0.0000 0.0000 42.1767 0.0000
# 6 0.0000 0.0000 0.0000 0.0000 0.0000 41.5960
#
#
#
# Elastic Compliance Matrix: (Units=1/GPa)
#
#
# Indices 1 2 3 4 5 6 
#
# 1 0.013565 -0.005463 -0.003382 0.000000 0.000000 0.000000
# 2 -0.005463 0.011068 0.000345 0.000000 0.000000 0.000000
# 3 -0.003382 0.000345 0.011613 0.000000 0.000000 0.000000
# 4 0.000000 0.000000 0.000000 0.035914 0.000000 0.000000
# 5 0.000000 0.000000 0.000000 0.000000 0.023710 0.000000
# 6 0.000000 0.000000 0.000000 0.000000 0.000000 0.024041
#
#
# Mechanical properties :
#
#
# Convention : Reuss Voigt Hill
#
# Bulk Modulus (GPa) = 51.95627 53.58387 52.77007
# Shear Modulus (GPa) = 34.88574 37.05534 35.97054
#
# Velocity S-wave (km/s) = 4.04360 4.16745 4.10599
# Velocity P-wave (km/s) = 6.79357 6.94775 6.87109
#
# Compressibility (1/GPa) = 0.01924696
#
# Stress axis : x y z
#
# Youngs Moduli (GPa) = 73.72006 90.35367 86.10744
#
# Poissons Ratio (x) = 0.49358 0.29119
# Poissons Ratio (y) = 0.40271 -0.02971
# Poissons Ratio (z) = 0.24930 -0.03118
#
# Static dielectric constant tensor:
#      x y z
#    x 3.647940 0.000000 0.000000 
#    y 0.000000 3.853470 0.000000 
#    z 0.000000 0.000000 4.075590 
# 
# 
# High freq. dielectric constant tensor:
#      x y z
#    x 1.815900 0.000000 0.000000 
#    y 0.000000 1.839040 0.000000 
#    z 0.000000 0.000000 1.861170 
# 
# From -- ./inp_files/26585.got.cif
#   From: 2010.03.12/outbox.cif.g09.slc.cpg/sg20_14_cif.got.tgz:26585.got - 2010.04.14 01:38:04.
