data_PCOD8159087
_publ_section_title
;
Structure prediction by ZEFSAII (Michael W. Deem and Ramdas Pophale) SiO2 
 PCOD8159087
Probable space group: C 2 2 21
;
_chemical_formula_sum "Si O2"
_cell_formula_units_Z 40
_cell_length_a 13.498715
_cell_length_b 7.303660
_cell_length_c 17.212002
_cell_angle_alpha 90.000000
_cell_angle_beta 90.000000
_cell_angle_gamma 90.000000
_cell_volume 1696.931704
_symmetry_space_group_name_H-M "C 2 2 21"
_symmetry_group_IT_number 20
_symmetry_cell_setting 'orthorhombic'
loop_
_space_group_symop_operation_xyz
x,y,z
-x,-y,1/2+z
x,-y,-z
-x,y,1/2-z
1/2+x,1/2+y,z
1/2-x,1/2-y,1/2+z
1/2+x,1/2-y,-z
1/2-x,1/2+y,1/2-z
loop_
_atom_site_type_symbol
_atom_site_label
_atom_site_fract_x
_atom_site_fract_y
_atom_site_fract_z
Si Si1 0.604362 0.250868 0.637376
Si Si2 0.525486 0.286390 0.003138
Si Si3 0.109445 0.581619 0.255122
Si Si4 0.143025 0.851284 0.380526
Si Si5 0.295788 0.116305 0.412175
O O1 0.512898 0.206812 0.579104
O O2 0.597690 0.466259 0.661037
O O3 0.711539 0.224599 0.593929
O O4 0.598806 0.125439 0.713096
O O5 0.436711 0.256191 0.063852
O O6 0.620419 0.166420 0.025941
O O7 0.553981 0.500000 0.000000
O O8 0.173488 0.705247 0.314902
O O9 0.160087 0.584282 0.172888
O O10 0.000000 0.669215 0.250000
O O11 0.239479 0.920245 0.431417
#
# Coordination Sequence:
#
# PCOD8159087 Si02
#       5
#     8   8   8   8   8
#     4   9  24  43  68 103 142 186 252 290 367 437
#     4  10  20  48  68 105 144 190 242 302 363 438
#     4  12  22  43  69 107 144 189 243 304 355 434
#     4   9  22  43  69  94 147 179 247 298 353 438
#     4  10  22  45  73  99 144 197 234 303 375 411
#
# _framework density 23.571957000000001
#
# number of rings (size 3 to 8) (size 9 to 14) (size 15 to 20)
#    1.200    0.800    2.000    1.200    0.000    1.600 
#   10.800    0.000    4.400    0.000    0.000    0.000 
#    0.000    0.000    0.000    0.000    0.000    0.000 
#
# Total GULP energy -247822.055643 kJ/mol
# GULP energy per Si atom -12391.102782 kJ/mol
# Density = 2.351831 g / cm^3
# Si number density = 23.571957 Si / 1000 Ang^3
#
#
#
# Elastic Constant Matrix: (Units=GPa)
#
#
# Indices 1 2 3 4 5 6 
#
# 1 135.4162 19.3931 22.6063 0.0000 0.0000 0.0000
# 2 19.3931 78.8885 29.3595 0.0000 0.0000 0.0000
# 3 22.6063 29.3595 53.8978 0.0000 0.0000 0.0000
# 4 0.0000 0.0000 0.0000 38.8011 0.0000 0.0000
# 5 0.0000 0.0000 0.0000 0.0000 43.3998 0.0000
# 6 0.0000 0.0000 0.0000 0.0000 0.0000 29.0770
#
#
#
# Elastic Compliance Matrix: (Units=1/GPa)
#
#
# Indices 1 2 3 4 5 6 
#
# 1 0.007991 -0.000899 -0.002862 0.000000 0.000000 0.000000
# 2 -0.000899 0.016001 -0.008339 0.000000 0.000000 0.000000
# 3 -0.002862 -0.008339 0.024296 0.000000 0.000000 0.000000
# 4 0.000000 0.000000 0.000000 0.025772 0.000000 0.000000
# 5 0.000000 0.000000 0.000000 0.000000 0.023042 0.000000
# 6 0.000000 0.000000 0.000000 0.000000 0.000000 0.034391
#
#
# Mechanical properties :
#
#
# Convention : Reuss Voigt Hill
#
# Bulk Modulus (GPa) = 41.51405 45.65781 43.58593
# Shear Modulus (GPa) = 30.53945 35.37850 32.95897
#
# Velocity S-wave (km/s) = 3.60333 3.87831 3.74335
# Velocity P-wave (km/s) = 5.91285 6.28225 6.10035
#
# Compressibility (1/GPa) = 0.02408823
#
# Stress axis : x y z
#
# Youngs Moduli (GPa) = 125.13773 62.49768 41.15863
#
# Poissons Ratio (x) = 0.05621 0.11779
# Poissons Ratio (y) = 0.11255 0.34321
# Poissons Ratio (z) = 0.35812 0.52115
#
# Static dielectric constant tensor:
#      x y z
#    x 4.458430 0.000000 0.000000 
#    y 0.000000 3.941780 0.000000 
#    z 0.000000 0.000000 4.041270 
# 
# 
# High freq. dielectric constant tensor:
#      x y z
#    x 1.937920 0.000000 0.000000 
#    y 0.000000 1.918220 0.000000 
#    z 0.000000 0.000000 1.930090 
# 
# From -- ./inp_files/24058.got.cif
#   From: 2010.03.12/outbox.cif.g09.slc.cpg/sg20_13_cif.got.tgz:24058.got - 2010.04.14 01:38:04.
