data_PCOD8159297
_publ_section_title
;
Structure prediction by ZEFSAII (Michael W. Deem and Ramdas Pophale) SiO2 
 PCOD8159297
Probable space group: C 2 2 21
;
_chemical_formula_sum "Si O2"
_cell_formula_units_Z 64
_cell_length_a 18.151765
_cell_length_b 15.432622
_cell_length_c 11.524854
_cell_angle_alpha 90.000000
_cell_angle_beta 90.000000
_cell_angle_gamma 90.000000
_cell_volume 3228.449605
_symmetry_space_group_name_H-M "C 2 2 21"
_symmetry_group_IT_number 20
_symmetry_cell_setting 'orthorhombic'
loop_
_space_group_symop_operation_xyz
x,y,z
-x,-y,1/2+z
x,-y,-z
-x,y,1/2-z
1/2+x,1/2+y,z
1/2-x,1/2-y,1/2+z
1/2+x,1/2-y,-z
1/2-x,1/2+y,1/2-z
loop_
_atom_site_type_symbol
_atom_site_label
_atom_site_fract_x
_atom_site_fract_y
_atom_site_fract_z
Si Si1 0.702227 0.141409 0.527572
Si Si2 0.582985 0.666088 0.752077
Si Si3 0.528834 0.689656 0.132792
Si Si4 0.270381 0.981592 0.834658
Si Si5 0.600837 0.485942 0.869855
Si Si6 0.120377 0.811716 0.508086
Si Si7 0.242038 0.582641 0.078845
Si Si8 0.154034 0.251538 0.968946
O O1 0.682002 0.081158 0.417685
O O2 0.638846 0.212803 0.542642
O O3 0.779508 0.187938 0.498908
O O4 0.705519 0.082118 0.644384
O O5 0.500000 0.702144 0.750000
O O6 0.580663 0.565714 0.787775
O O7 0.625547 0.673844 0.630022
O O8 0.626592 0.724963 0.842231
O O9 0.500000 0.738246 0.250000
O O10 0.563476 0.600223 0.179792
O O11 0.462475 0.668651 0.045641
O O12 0.590253 0.745544 0.065720
O O13 0.187292 0.972454 0.876415
O O14 0.280858 0.950900 0.704630
O O15 0.570580 0.500000 0.000000
O O16 0.176679 0.875029 0.575531
O O17 0.181099 0.649845 0.033926
O O18 0.240969 0.500000 0.000000
#
# Coordination Sequence:
#
# PCOD8159297 Si02
#       8
#     8   8   8   8   8   8   8   8
#     4  10  21  39  69  92 125 167 215 260 315 383
#     4  12  21  38  63  93 130 167 205 258 318 391
#     4  12  24  39  60  92 130 168 208 262 315 393
#     4  11  18  39  64  95 124 161 217 263 314 377
#     4  12  19  35  62  94 131 169 199 245 329 385
#     4  11  25  41  61  99 129 166 214 262 313 386
#     4  11  26  40  61  92 130 163 211 270 316 372
#     4  11  22  43  63  87 124 177 210 253 325 386
#
# _framework density 19.823757000000001
#
# number of rings (size 3 to 8) (size 9 to 14) (size 15 to 20)
#    0.000    0.750    6.250    2.625    0.000    2.500 
#    0.000    0.000    2.750    0.750    0.000    0.000 
#    0.000    0.000    0.000    0.000    0.000    0.000 
#
# Total GULP energy -396853.080413 kJ/mol
# GULP energy per Si atom -12401.658763 kJ/mol
# Density = 1.977864 g / cm^3
# Si number density = 19.823757 Si / 1000 Ang^3
#
#
#
# Elastic Constant Matrix: (Units=GPa)
#
#
# Indices 1 2 3 4 5 6 
#
# 1 69.2942 41.2040 13.0073 0.0000 0.0000 0.0000
# 2 41.2040 140.1129 37.8848 0.0000 0.0000 0.0000
# 3 13.0073 37.8848 97.6902 0.0000 0.0000 0.0000
# 4 0.0000 0.0000 0.0000 17.0402 0.0000 0.0000
# 5 0.0000 0.0000 0.0000 0.0000 15.4009 0.0000
# 6 0.0000 0.0000 0.0000 0.0000 0.0000 14.2825
#
#
#
# Elastic Compliance Matrix: (Units=1/GPa)
#
#
# Indices 1 2 3 4 5 6 
#
# 1 0.017502 -0.005046 -0.000374 0.000000 0.000000 0.000000
# 2 -0.005046 0.009428 -0.002984 0.000000 0.000000 0.000000
# 3 -0.000374 -0.002984 0.011444 0.000000 0.000000 0.000000
# 4 0.000000 0.000000 0.000000 0.058685 0.000000 0.000000
# 5 0.000000 0.000000 0.000000 0.000000 0.064931 0.000000
# 6 0.000000 0.000000 0.000000 0.000000 0.000000 0.070016
#
#
# Mechanical properties :
#
#
# Convention : Reuss Voigt Hill
#
# Bulk Modulus (GPa) = 46.36993 54.58774 50.47884
# Shear Modulus (GPa) = 19.53119 23.67814 21.60467
#
# Velocity S-wave (km/s) = 3.14226 3.45981 3.30485
# Velocity P-wave (km/s) = 6.05037 6.59975 6.33102
#
# Compressibility (1/GPa) = 0.02156570
#
# Stress axis : x y z
#
# Youngs Moduli (GPa) = 57.13725 106.06813 87.38573
#
# Poissons Ratio (x) = 0.53521 0.03264
# Poissons Ratio (y) = 0.28831 0.26079
# Poissons Ratio (z) = 0.02134 0.31654
#
# Static dielectric constant tensor:
#      x y z
#    x 3.721140 0.000000 0.000000 
#    y 0.000000 3.686420 0.000000 
#    z 0.000000 0.000000 3.639870 
# 
# 
# High freq. dielectric constant tensor:
#      x y z
#    x 1.758180 0.000000 0.000000 
#    y 0.000000 1.767850 0.000000 
#    z 0.000000 0.000000 1.783170 
# 
# From -- ./inp_files/15900.got.cif
#   From: 2010.03.12/outbox.cif.g09.slc.cpg/sg20_8_cif.got.tgz:15900.got - 2010.04.14 01:38:04.
