data_PCOD8159928
_publ_section_title
;
Structure prediction by ZEFSAII (Michael W. Deem and Ramdas Pophale) SiO2 
 PCOD8159928
Probable space group: C 2 2 21
;
_chemical_formula_sum "Si O2"
_cell_formula_units_Z 32
_cell_length_a 9.343243
_cell_length_b 15.874329
_cell_length_c 8.317617
_cell_angle_alpha 90.000000
_cell_angle_beta 90.000000
_cell_angle_gamma 90.000000
_cell_volume 1233.649934
_symmetry_space_group_name_H-M "C 2 2 21"
_symmetry_group_IT_number 20
_symmetry_cell_setting 'orthorhombic'
loop_
_space_group_symop_operation_xyz
x,y,z
-x,-y,1/2+z
x,-y,-z
-x,y,1/2-z
1/2+x,1/2+y,z
1/2-x,1/2-y,1/2+z
1/2+x,1/2-y,-z
1/2-x,1/2+y,1/2-z
loop_
_atom_site_type_symbol
_atom_site_label
_atom_site_fract_x
_atom_site_fract_y
_atom_site_fract_z
Si Si1 0.293051 0.808878 0.075176
Si Si2 0.077433 0.662511 0.087169
Si Si3 0.132686 0.936002 0.856636
Si Si4 0.848248 0.549728 0.682856
O O1 0.212909 0.722385 0.115937
O O2 0.290354 0.863932 0.236578
O O3 0.458632 0.792551 0.026590
O O4 0.210717 0.855380 0.930481
O O5 0.000000 0.637039 0.250000
O O6 0.133598 0.574083 0.007317
O O7 0.000000 0.905534 0.750000
O O8 0.237601 0.976930 0.725857
O O9 0.088478 0.000000 0.000000
O O10 0.000000 0.521602 0.750000
#
# Coordination Sequence:
#
# PCOD8159928 Si02
#       4
#     8   8   8   8
#     4  10  23  41  63  98 137 177 227 284 351 420
#     4  11  23  40  68  99 132 177 229 290 352 415
#     4  10  23  42  65  95 136 184 235 290 349 420
#     4   9  21  43  64  90 135 182 230 286 347 419
#
# _framework density 25.939285999999999
#
# number of rings (size 3 to 8) (size 9 to 14) (size 15 to 20)
#    0.000    2.000    0.000    1.500    0.000   16.000 
#    0.000    6.250    0.000    0.000    0.000    0.000 
#    0.000    0.000    0.000    0.000    0.000    0.000 
#
# Total GULP energy -198464.372581 kJ/mol
# GULP energy per Si atom -12404.023286 kJ/mol
# Density = 2.588025 g / cm^3
# Si number density = 25.939286 Si / 1000 Ang^3
#
#
#
# Elastic Constant Matrix: (Units=GPa)
#
#
# Indices 1 2 3 4 5 6 
#
# 1 115.9981 25.6153 34.5049 0.0000 0.0000 0.0000
# 2 25.6153 94.4732 15.3977 0.0000 0.0000 0.0000
# 3 34.5049 15.3977 152.1897 0.0000 0.0000 0.0000
# 4 0.0000 0.0000 0.0000 -6.4770 0.0000 0.0000
# 5 0.0000 0.0000 0.0000 0.0000 61.1739 0.0000
# 6 0.0000 0.0000 0.0000 0.0000 0.0000 12.9631
#
#
#
# Elastic Compliance Matrix: (Units=1/GPa)
#
#
# Indices 1 2 3 4 5 6 
#
# 1 0.009718 -0.002314 -0.001969 0.000000 0.000000 0.000000
# 2 -0.002314 0.011313 -0.000620 0.000000 0.000000 0.000000
# 3 -0.001969 -0.000620 0.007080 0.000000 0.000000 0.000000
# 4 0.000000 0.000000 0.000000 -0.154392 0.000000 0.000000
# 5 0.000000 0.000000 0.000000 0.000000 0.016347 0.000000
# 6 0.000000 0.000000 0.000000 0.000000 0.000000 0.077142
#
#
# Mechanical properties :
#
#
# Convention : Reuss Voigt Hill
#
# Bulk Modulus (GPa) = 54.63006 57.07743 55.85374
# Shear Modulus (GPa) = -296.13907 32.67484 -131.73211
#
# Velocity S-wave (km/s) = -10.69645 3.55303 -7.13408
# Velocity P-wave (km/s) = 11.46497 6.23571 6.80300
#
# Compressibility (1/GPa) = 0.01830494
#
# Stress axis : x y z
#
# Youngs Moduli (GPa) = 102.90697 88.39038 141.24468
#
# Poissons Ratio (x) = 0.20452 0.27812
# Poissons Ratio (y) = 0.23811 0.08758
# Poissons Ratio (z) = 0.20263 0.05480
#
# Static dielectric constant tensor:
#      x y z
#    x 4.803540 0.000000 0.000000 
#    y 0.000000 4.397840 0.000000 
#    z 0.000000 0.000000 5.189460 
# 
# 
# High freq. dielectric constant tensor:
#      x y z
#    x 2.039730 0.000000 0.000000 
#    y 0.000000 2.041910 0.000000 
#    z 0.000000 0.000000 2.066080 
# 
# From -- ./inp_files/5791.got.cif
#   From: 2010.03.12/outbox.cif.g09.slc.cpg/sg20_3_cif.got.tgz:5791.got - 2010.04.14 01:38:04.
