data_PCOD8159306
_publ_section_title
;
Structure prediction by ZEFSAII (Michael W. Deem and Ramdas Pophale) SiO2 
 PCOD8159306
Probable space group: C 2 2 21
;
_chemical_formula_sum "Si O2"
_cell_formula_units_Z 32
_cell_length_a 12.456174
_cell_length_b 8.510383
_cell_length_c 14.701583
_cell_angle_alpha 90.000000
_cell_angle_beta 90.000000
_cell_angle_gamma 90.000000
_cell_volume 1558.467937
_symmetry_space_group_name_H-M "C 2 2 21"
_symmetry_group_IT_number 20
_symmetry_cell_setting 'orthorhombic'
loop_
_space_group_symop_operation_xyz
x,y,z
-x,-y,1/2+z
x,-y,-z
-x,y,1/2-z
1/2+x,1/2+y,z
1/2-x,1/2-y,1/2+z
1/2+x,1/2-y,-z
1/2-x,1/2+y,1/2-z
loop_
_atom_site_type_symbol
_atom_site_label
_atom_site_fract_x
_atom_site_fract_y
_atom_site_fract_z
Si Si1 0.710827 0.709940 0.328629
Si Si2 0.515579 0.137040 0.565685
Si Si3 0.205999 0.375671 0.141918
Si Si4 0.842022 0.179205 0.517626
O O1 0.605507 0.787308 0.371679
O O2 0.714339 0.521195 0.340284
O O3 0.716052 0.750311 0.222894
O O4 0.814564 0.782154 0.378359
O O5 0.418837 0.068113 0.629652
O O6 0.465587 0.275920 0.502827
O O7 0.561807 0.000000 0.500000
O O8 0.237100 0.283258 0.048610
O O9 0.819446 0.000000 0.500000
#
# Coordination Sequence:
#
# PCOD8159306 Si02
#       4
#     8   8   8   8
#     4  12  21  41  73  90 143 186 214 297 345 393
#     4  10  22  43  67  97 138 175 231 285 345 409
#     4  10  23  41  65 104 135 175 242 275 341 426
#     4  10  21  40  61  97 137 174 230 282 332 420
#
# _framework density 20.532985
#
# number of rings (size 3 to 8) (size 9 to 14) (size 15 to 20)
#    1.500    0.000    2.500    3.750    0.000    2.000 
#    0.000    0.000    0.000    0.000    0.000    0.000 
#    0.000    0.000    0.000    0.000    0.000    0.000 
#
# Total GULP energy -198248.398287 kJ/mol
# GULP energy per Si atom -12390.524893 kJ/mol
# Density = 2.048625 g / cm^3
# Si number density = 20.532985 Si / 1000 Ang^3
#
#
#
# Elastic Constant Matrix: (Units=GPa)
#
#
# Indices 1 2 3 4 5 6 
#
# 1 50.6417 12.0457 12.8074 0.0000 0.0000 0.0000
# 2 12.0457 133.6010 18.3698 0.0000 0.0000 0.0000
# 3 12.8074 18.3698 60.2201 0.0000 0.0000 0.0000
# 4 0.0000 0.0000 0.0000 39.9498 0.0000 0.0000
# 5 0.0000 0.0000 0.0000 0.0000 29.9675 0.0000
# 6 0.0000 0.0000 0.0000 0.0000 0.0000 30.2898
#
#
#
# Elastic Compliance Matrix: (Units=1/GPa)
#
#
# Indices 1 2 3 4 5 6 
#
# 1 0.021097 -0.001341 -0.004078 0.000000 0.000000 0.000000
# 2 -0.001341 0.007898 -0.002124 0.000000 0.000000 0.000000
# 3 -0.004078 -0.002124 0.018121 0.000000 0.000000 0.000000
# 4 0.000000 0.000000 0.000000 0.025031 0.000000 0.000000
# 5 0.000000 0.000000 0.000000 0.000000 0.033369 0.000000
# 6 0.000000 0.000000 0.000000 0.000000 0.000000 0.033014
#
#
# Mechanical properties :
#
#
# Convention : Reuss Voigt Hill
#
# Bulk Modulus (GPa) = 31.22101 36.76760 33.99431
# Shear Modulus (GPa) = 30.43333 33.45742 31.94538
#
# Velocity S-wave (km/s) = 3.85407 4.04102 3.94865
# Velocity P-wave (km/s) = 5.91975 6.30227 6.11400
#
# Compressibility (1/GPa) = 0.03202972
#
# Stress axis : x y z
#
# Youngs Moduli (GPa) = 47.40031 126.61500 55.18506
#
# Poissons Ratio (x) = 0.16985 0.22502
# Poissons Ratio (y) = 0.06359 0.11721
# Poissons Ratio (z) = 0.19328 0.26892
#
# Static dielectric constant tensor:
#      x y z
#    x 3.415390 0.000000 0.000000 
#    y 0.000000 3.632830 0.000000 
#    z 0.000000 0.000000 3.737720 
# 
# 
# High freq. dielectric constant tensor:
#      x y z
#    x 1.775700 0.000000 0.000000 
#    y 0.000000 1.807440 0.000000 
#    z 0.000000 0.000000 1.804600 
# 
# From -- ./inp_files/18368.got.cif
#   From: 2010.03.12/outbox.cif.g09.slc.cpg/sg20_10_cif.got.tgz:18368.got - 2010.04.14 01:38:04.
