data_PCOD8159230
_publ_section_title
;
Structure prediction by ZEFSAII (Michael W. Deem and Ramdas Pophale) SiO2 
 PCOD8159230
Probable space group: C 2 2 21
;
_chemical_formula_sum "Si O2"
_cell_formula_units_Z 60
_cell_length_a 16.834855
_cell_length_b 11.442515
_cell_length_c 15.737994
_cell_angle_alpha 90.000000
_cell_angle_beta 90.000000
_cell_angle_gamma 90.000000
_cell_volume 3031.658271
_symmetry_space_group_name_H-M "C 2 2 21"
_symmetry_group_IT_number 20
_symmetry_cell_setting 'orthorhombic'
loop_
_space_group_symop_operation_xyz
x,y,z
-x,-y,1/2+z
x,-y,-z
-x,y,1/2-z
1/2+x,1/2+y,z
1/2-x,1/2-y,1/2+z
1/2+x,1/2-y,-z
1/2-x,1/2+y,1/2-z
loop_
_atom_site_type_symbol
_atom_site_label
_atom_site_fract_x
_atom_site_fract_y
_atom_site_fract_z
Si Si1 0.189157 0.305334 0.622008
Si Si2 0.243393 0.500000 0.500000
Si Si3 0.317136 0.414273 0.334272
Si Si4 0.835854 0.043579 0.912005
Si Si5 0.651005 0.001457 0.098444
Si Si6 0.589556 0.193038 0.218668
Si Si7 0.407387 0.405935 0.764490
Si Si8 0.321517 0.190613 0.719203
O O1 0.189255 0.406405 0.550705
O O2 0.154034 0.183419 0.587455
O O3 0.138845 0.353874 0.701022
O O4 0.276742 0.278282 0.655434
O O5 0.295191 0.423227 0.433767
O O6 0.384241 0.319603 0.314143
O O7 0.355768 0.538525 0.311660
O O8 0.239080 0.385049 0.277295
O O9 0.746873 0.995068 0.895969
O O10 0.894315 0.987845 0.844754
O O11 0.869703 0.000000 0.000000
O O12 0.625072 0.891365 0.157186
O O13 0.606911 0.111971 0.138033
O O14 0.623631 0.000000 0.000000
O O15 0.500000 0.195998 0.250000
O O16 0.500000 0.402945 0.750000
O O17 0.377754 0.271770 0.777694
#
# Coordination Sequence:
#
# PCOD8159230 Si02
#       8
#     8   4   8   8   8   8   8   8
#     4  10  21  39  62  93 120 165 217 260 320 388
#     4  12  24  38  66 102 122 156 226 298 306 368
#     4  11  23  39  69  89 126 167 222 264 329 386
#     4  10  21  39  64  93 122 164 216 269 321 383
#     4  10  21  38  68  92 118 163 230 269 310 384
#     4  11  23  42  64  86 130 178 208 254 331 410
#     4  12  23  41  64  97 132 168 214 269 335 396
#     4  10  21  41  64  92 126 167 214 262 329 391
#
# _framework density 19.791148
#
# number of rings (size 3 to 8) (size 9 to 14) (size 15 to 20)
#    0.000    1.333    5.333    2.800    7.467    0.533 
#    2.400    1.333    0.000    0.000    0.000    0.000 
#    0.000    0.000    0.000    0.000    0.000    0.000 
#
# Total GULP energy -371789.025451 kJ/mol
# GULP energy per Si atom -12392.967515 kJ/mol
# Density = 1.974610 g / cm^3
# Si number density = 19.791148 Si / 1000 Ang^3
#
#
#
# Elastic Constant Matrix: (Units=GPa)
#
#
# Indices 1 2 3 4 5 6 
#
# 1 53.1481 41.4856 22.5091 0.0000 0.0000 0.0000
# 2 41.4856 88.1905 35.8115 0.0000 0.0000 0.0000
# 3 22.5091 35.8115 118.6980 0.0000 0.0000 0.0000
# 4 0.0000 0.0000 0.0000 45.7593 0.0000 0.0000
# 5 0.0000 0.0000 0.0000 0.0000 -47.4433 0.0000
# 6 0.0000 0.0000 0.0000 0.0000 0.0000 279.5765
#
#
#
# Elastic Compliance Matrix: (Units=1/GPa)
#
#
# Indices 1 2 3 4 5 6 
#
# 1 0.030007 -0.013453 -0.001632 0.000000 0.000000 0.000000
# 2 -0.013453 0.018954 -0.003167 0.000000 0.000000 0.000000
# 3 -0.001632 -0.003167 0.009690 0.000000 0.000000 0.000000
# 4 0.000000 0.000000 0.000000 0.021853 0.000000 0.000000
# 5 0.000000 0.000000 0.000000 0.000000 -0.021078 0.000000
# 6 0.000000 0.000000 0.000000 0.000000 0.000000 0.003577
#
#
# Mechanical properties :
#
#
# Convention : Reuss Voigt Hill
#
# Bulk Modulus (GPa) = 45.15306 51.07212 48.11259
# Shear Modulus (GPa) = 46.77718 66.26055 56.51886
#
# Velocity S-wave (km/s) = 4.86690 5.79246 5.34973
# Velocity P-wave (km/s) = 7.37879 8.40228 7.90711
#
# Compressibility (1/GPa) = 0.02214689
#
# Stress axis : x y z
#
# Youngs Moduli (GPa) = 33.32503 52.76005 103.20255
#
# Poissons Ratio (x) = 0.70980 0.16838
# Poissons Ratio (y) = 0.44833 0.32686
# Poissons Ratio (z) = 0.05437 0.16710
#
# Static dielectric constant tensor:
#      x y z
#    x 3.227650 0.000000 0.000000 
#    y 0.000000 4.374480 0.000000 
#    z 0.000000 0.000000 3.661660 
# 
# 
# High freq. dielectric constant tensor:
#      x y z
#    x 1.734090 0.000000 0.000000 
#    y 0.000000 1.787570 0.000000 
#    z 0.000000 0.000000 1.776240 
# 
# From -- ./inp_files/21465.got.cif
#   From: 2010.03.12/outbox.cif.g09.slc.cpg/sg20_11_cif.got.tgz:21465.got - 2010.04.14 01:38:04.
