data_PCOD8159931
_publ_section_title
;
Structure prediction by ZEFSAII (Michael W. Deem and Ramdas Pophale) SiO2 
 PCOD8159931
Probable space group: C 2 2 21
;
_chemical_formula_sum "Si O2"
_cell_formula_units_Z 60
_cell_length_a 16.289928
_cell_length_b 7.060931
_cell_length_c 23.985873
_cell_angle_alpha 90.000000
_cell_angle_beta 90.000000
_cell_angle_gamma 90.000000
_cell_volume 2758.904466
_symmetry_space_group_name_H-M "C 2 2 21"
_symmetry_group_IT_number 20
_symmetry_cell_setting 'orthorhombic'
loop_
_space_group_symop_operation_xyz
x,y,z
-x,-y,1/2+z
x,-y,-z
-x,y,1/2-z
1/2+x,1/2+y,z
1/2-x,1/2-y,1/2+z
1/2+x,1/2-y,-z
1/2-x,1/2+y,1/2-z
loop_
_atom_site_type_symbol
_atom_site_label
_atom_site_fract_x
_atom_site_fract_y
_atom_site_fract_z
Si Si1 0.805248 0.515393 0.615483
Si Si2 0.486836 0.909219 0.605332
Si Si3 0.273929 0.252476 0.800309
Si Si4 0.093720 0.500000 0.500000
Si Si5 0.348943 0.367805 0.951780
Si Si6 0.789168 0.118140 0.317683
Si Si7 0.544533 0.414076 0.193509
Si Si8 0.442020 0.726973 0.151590
O O1 0.895133 0.480910 0.590459
O O2 0.792906 0.391282 0.671259
O O3 0.737852 0.447934 0.570616
O O4 0.799925 0.741841 0.629771
O O5 0.480370 0.716612 0.640872
O O6 0.536537 0.896656 0.546948
O O7 0.533509 0.054730 0.645904
O O8 0.261091 0.250821 0.733884
O O9 0.365778 0.324462 0.809208
O O10 0.279856 0.041446 0.828542
O O11 0.156727 0.347879 0.473776
O O12 0.421744 0.370766 0.907272
O O13 0.381820 0.500000 0.000000
O O14 0.858736 0.957426 0.301403
O O15 0.500000 0.337664 0.250000
O O16 0.518205 0.627357 0.180051
#
# Coordination Sequence:
#
# PCOD8159931 Si02
#       8
#     8   8   8   4   8   8   8   8
#     4  11  24  40  65 101 137 170 225 276 329 404
#     4  11  24  43  69  98 132 178 225 282 344 401
#     4  11  23  39  62  94 134 185 217 261 327 399
#     4  10  24  48  74  96 134 172 232 290 348 404
#     4  10  23  44  70  95 127 168 224 279 339 400
#     4  12  23  39  64  96 141 180 220 268 330 397
#     4  12  24  39  67 101 135 180 227 276 336 413
#     4  10  23  41  64  94 131 169 217 274 330 397
#
# _framework density 21.747764
#
# number of rings (size 3 to 8) (size 9 to 14) (size 15 to 20)
#    0.000    1.067    5.333    0.800    0.933    8.000 
#    0.000    0.000    1.467    0.000    0.000    0.000 
#    0.000    0.000    0.000    0.000    0.000    0.000 
#
# Total GULP energy -371686.183969 kJ/mol
# GULP energy per Si atom -12389.539466 kJ/mol
# Density = 2.169826 g / cm^3
# Si number density = 21.747764 Si / 1000 Ang^3
#
#
#
# Elastic Constant Matrix: (Units=GPa)
#
#
# Indices 1 2 3 4 5 6 
#
# 1 61.1625 20.2105 13.7578 0.0000 0.0000 0.0000
# 2 20.2105 107.8650 34.8596 0.0000 0.0000 0.0000
# 3 13.7578 34.8596 83.0113 0.0000 0.0000 0.0000
# 4 0.0000 0.0000 0.0000 42.1057 0.0000 0.0000
# 5 0.0000 0.0000 0.0000 0.0000 13.1487 0.0000
# 6 0.0000 0.0000 0.0000 0.0000 0.0000 30.5479
#
#
#
# Elastic Compliance Matrix: (Units=1/GPa)
#
#
# Indices 1 2 3 4 5 6 
#
# 1 0.017653 -0.002733 -0.001778 0.000000 0.000000 0.000000
# 2 -0.002733 0.011150 -0.004229 0.000000 0.000000 0.000000
# 3 -0.001778 -0.004229 0.014117 0.000000 0.000000 0.000000
# 4 0.000000 0.000000 0.000000 0.023750 0.000000 0.000000
# 5 0.000000 0.000000 0.000000 0.000000 0.076053 0.000000
# 6 0.000000 0.000000 0.000000 0.000000 0.000000 0.032735
#
#
# Mechanical properties :
#
#
# Convention : Reuss Voigt Hill
#
# Bulk Modulus (GPa) = 39.30908 43.29940 41.30424
# Shear Modulus (GPa) = 24.82394 29.37452 27.09923
#
# Velocity S-wave (km/s) = 3.38220 3.67916 3.53380
# Velocity P-wave (km/s) = 5.77638 6.16452 5.97361
#
# Compressibility (1/GPa) = 0.02543941
#
# Stress axis : x y z
#
# Youngs Moduli (GPa) = 56.64788 89.68832 70.83533
#
# Poissons Ratio (x) = 0.24512 0.12595
# Poissons Ratio (y) = 0.15482 0.29958
# Poissons Ratio (z) = 0.10072 0.37931
#
# Static dielectric constant tensor:
#      x y z
#    x 3.832330 0.000000 0.000000 
#    y 0.000000 4.000570 0.000000 
#    z 0.000000 0.000000 3.880740 
# 
# 
# High freq. dielectric constant tensor:
#      x y z
#    x 1.855370 0.000000 0.000000 
#    y 0.000000 1.864410 0.000000 
#    z 0.000000 0.000000 1.844550 
# 
# From -- ./inp_files/30504.got.cif
#   From: 2010.03.12/outbox.cif.g09.slc.cpg/sg20_16_cif.got.tgz:30504.got - 2010.04.14 01:38:04.
