data_PCOD8159289
_publ_section_title
;
Structure prediction by ZEFSAII (Michael W. Deem and Ramdas Pophale) SiO2 
 PCOD8159289
Probable space group: C 2 2 21
;
_chemical_formula_sum "Si O2"
_cell_formula_units_Z 64
_cell_length_a 18.825701
_cell_length_b 14.450583
_cell_length_c 11.877515
_cell_angle_alpha 90.000000
_cell_angle_beta 90.000000
_cell_angle_gamma 90.000000
_cell_volume 3231.187150
_symmetry_space_group_name_H-M "C 2 2 21"
_symmetry_group_IT_number 20
_symmetry_cell_setting 'orthorhombic'
loop_
_space_group_symop_operation_xyz
x,y,z
-x,-y,1/2+z
x,-y,-z
-x,y,1/2-z
1/2+x,1/2+y,z
1/2-x,1/2-y,1/2+z
1/2+x,1/2-y,-z
1/2-x,1/2+y,1/2-z
loop_
_atom_site_type_symbol
_atom_site_label
_atom_site_fract_x
_atom_site_fract_y
_atom_site_fract_z
Si Si1 0.125520 0.260540 0.073041
Si Si2 0.796882 0.032009 0.125707
Si Si3 0.464894 0.204138 0.945274
Si Si4 0.571417 0.171895 0.308708
Si Si5 0.899546 0.525955 0.876783
Si Si6 0.078883 0.140001 0.272623
Si Si7 0.797378 0.285831 0.652404
Si Si8 0.787074 0.624344 0.735887
O O1 0.118161 0.173660 0.158099
O O2 0.160024 0.348427 0.134921
O O3 0.047465 0.284000 0.028728
O O4 0.174279 0.240728 0.964046
O O5 0.873338 0.060967 0.173605
O O6 0.738699 0.114032 0.133684
O O7 0.776211 0.939908 0.192879
O O8 0.808446 0.000000 0.000000
O O9 0.459578 0.104823 0.884581
O O10 0.429642 0.275671 0.859523
O O11 0.423171 0.210616 0.063692
O O12 0.500000 0.209016 0.250000
O O13 0.639376 0.206691 0.241485
O O14 0.568617 0.060490 0.309190
O O15 0.828082 0.562222 0.823299
O O16 0.873719 0.500000 0.000000
O O17 0.000000 0.099209 0.250000
O O18 0.739641 0.217270 0.704019
#
# Coordination Sequence:
#
# PCOD8159289 Si02
#       8
#     8   8   8   8   8   8   8   8
#     4  11  22  41  66  96 131 174 219 271 333 396
#     4  12  25  43  67 101 131 175 226 273 329 400
#     4  10  21  39  66  93 126 176 223 268 332 397
#     4  11  23  38  59  95 141 170 216 272 332 395
#     4  10  22  37  59  94 128 170 215 271 331 394
#     4  10  23  45  71  94 128 173 231 278 326 391
#     4  12  25  42  66 101 140 176 216 272 337 400
#     4  12  25  40  65  95 133 174 217 272 331 396
#
# _framework density 19.806961000000001
#
# number of rings (size 3 to 8) (size 9 to 14) (size 15 to 20)
#    0.000    1.000    6.250    0.000    3.500    3.000 
#    2.250    3.125    0.000    0.000    0.000    0.000 
#    0.000    0.000    0.000    0.000    0.000    0.000 
#
# Total GULP energy -396811.459136 kJ/mol
# GULP energy per Si atom -12400.358098 kJ/mol
# Density = 1.976188 g / cm^3
# Si number density = 19.806961 Si / 1000 Ang^3
#
#
#
# Elastic Constant Matrix: (Units=GPa)
#
#
# Indices 1 2 3 4 5 6 
#
# 1 94.0193 21.9036 49.0341 0.0000 0.0000 0.0000
# 2 21.9036 57.8130 34.9431 0.0000 0.0000 0.0000
# 3 49.0341 34.9431 100.6990 0.0000 0.0000 0.0000
# 4 0.0000 0.0000 0.0000 22.8203 0.0000 0.0000
# 5 0.0000 0.0000 0.0000 0.0000 30.3989 0.0000
# 6 0.0000 0.0000 0.0000 0.0000 0.0000 37.1807
#
#
#
# Elastic Compliance Matrix: (Units=1/GPa)
#
#
# Indices 1 2 3 4 5 6 
#
# 1 0.014364 -0.001537 -0.006461 0.000000 0.000000 0.000000
# 2 -0.001537 0.022052 -0.006904 0.000000 0.000000 0.000000
# 3 -0.006461 -0.006904 0.015472 0.000000 0.000000 0.000000
# 4 0.000000 0.000000 0.000000 0.043821 0.000000 0.000000
# 5 0.000000 0.000000 0.000000 0.000000 0.032896 0.000000
# 6 0.000000 0.000000 0.000000 0.000000 0.000000 0.026896
#
#
# Mechanical properties :
#
#
# Convention : Reuss Voigt Hill
#
# Bulk Modulus (GPa) = 45.27978 51.58809 48.43393
# Shear Modulus (GPa) = 25.95170 27.85668 26.90419
#
# Velocity S-wave (km/s) = 3.62364 3.75428 3.68954
# Velocity P-wave (km/s) = 6.35750 6.70036 6.53118
#
# Compressibility (1/GPa) = 0.02208491
#
# Stress axis : x y z
#
# Youngs Moduli (GPa) = 69.61970 45.34692 64.63147
#
# Poissons Ratio (x) = 0.06969 0.41758
# Poissons Ratio (y) = 0.10700 0.44621
# Poissons Ratio (z) = 0.44981 0.31307
#
# Static dielectric constant tensor:
#      x y z
#    x 3.620510 0.000000 0.000000 
#    y 0.000000 3.519070 0.000000 
#    z 0.000000 0.000000 3.135280 
# 
# 
# High freq. dielectric constant tensor:
#      x y z
#    x 1.778630 0.000000 0.000000 
#    y 0.000000 1.752600 0.000000 
#    z 0.000000 0.000000 1.789800 
# 
# From -- ./inp_files/15341.got.cif
#   From: 2010.03.12/outbox.cif.g09.slc.cpg/sg20_8_cif.got.tgz:15341.got - 2010.04.14 01:38:04.
