data_PCOD8159966
_publ_section_title
;
Structure prediction by ZEFSAII (Michael W. Deem and Ramdas Pophale) SiO2 
 PCOD8159966
Probable space group: C 2 2 21
;
_chemical_formula_sum "Si O2"
_cell_formula_units_Z 32
_cell_length_a 5.474291
_cell_length_b 28.466782
_cell_length_c 8.797269
_cell_angle_alpha 90.000000
_cell_angle_beta 90.000000
_cell_angle_gamma 90.000000
_cell_volume 1370.926360
_symmetry_space_group_name_H-M "C 2 2 21"
_symmetry_group_IT_number 20
_symmetry_cell_setting 'orthorhombic'
loop_
_space_group_symop_operation_xyz
x,y,z
-x,-y,1/2+z
x,-y,-z
-x,y,1/2-z
1/2+x,1/2+y,z
1/2-x,1/2-y,1/2+z
1/2+x,1/2-y,-z
1/2-x,1/2+y,1/2-z
loop_
_atom_site_type_symbol
_atom_site_label
_atom_site_fract_x
_atom_site_fract_y
_atom_site_fract_z
Si Si1 0.304741 0.054442 0.005542
Si Si2 0.500000 0.399321 0.750000
Si Si3 0.824762 0.633542 0.504311
Si Si4 0.000000 0.103358 0.750000
Si Si5 0.488722 0.770647 0.930341
O O1 0.123344 0.068991 0.871239
O O2 0.556418 0.082238 0.989555
O O3 0.190952 0.066545 0.168268
O O4 0.369571 0.000000 0.000000
O O5 0.368596 0.364221 0.867085
O O6 0.687631 0.638846 0.666180
O O7 0.023256 0.674222 0.476283
O O8 0.500000 0.763219 0.750000
O O9 0.240879 0.748440 0.995908
#
# Coordination Sequence:
#
# PCOD8159966 Si02
#       5
#     8   4   8   4   8
#     4  11  23  41  67 101 142 188 241 297 368 441
#     4  10  23  42  68  96 142 186 238 298 365 440
#     4  11  26  46  71 101 143 188 240 303 372 444
#     4  10  25  42  68 100 146 184 244 298 371 438
#     4  12  30  51  82 116 154 200 258 319 388 460
#
# _framework density 23.341881000000001
#
# number of rings (size 3 to 8) (size 9 to 14) (size 15 to 20)
#    0.000    1.000    0.000    4.500   12.250   10.000 
#    0.000    0.000    0.000    0.000    0.000    0.000 
#    0.000    0.000    0.000    0.000    0.000    0.000 
#
# Total GULP energy -198454.282890 kJ/mol
# GULP energy per Si atom -12403.392681 kJ/mol
# Density = 2.328875 g / cm^3
# Si number density = 23.341881 Si / 1000 Ang^3
#
#
#
# Elastic Constant Matrix: (Units=GPa)
#
#
# Indices 1 2 3 4 5 6 
#
# 1 114.5377 24.2036 42.3969 0.0000 0.0000 0.0000
# 2 24.2036 103.6675 26.2779 0.0000 0.0000 0.0000
# 3 42.3969 26.2779 148.3067 0.0000 0.0000 0.0000
# 4 0.0000 0.0000 0.0000 16.7295 0.0000 0.0000
# 5 0.0000 0.0000 0.0000 0.0000 25.2095 0.0000
# 6 0.0000 0.0000 0.0000 0.0000 0.0000 35.7711
#
#
#
# Elastic Compliance Matrix: (Units=1/GPa)
#
#
# Indices 1 2 3 4 5 6 
#
# 1 0.010040 -0.001693 -0.002570 0.000000 0.000000 0.000000
# 2 -0.001693 0.010385 -0.001356 0.000000 0.000000 0.000000
# 3 -0.002570 -0.001356 0.007718 0.000000 0.000000 0.000000
# 4 0.000000 0.000000 0.000000 0.059775 0.000000 0.000000
# 5 0.000000 0.000000 0.000000 0.000000 0.039668 0.000000
# 6 0.000000 0.000000 0.000000 0.000000 0.000000 0.027956
#
#
# Mechanical properties :
#
#
# Convention : Reuss Voigt Hill
#
# Bulk Modulus (GPa) = 59.15474 61.36319 60.25896
# Shear Modulus (GPa) = 29.00005 33.78426 31.39215
#
# Velocity S-wave (km/s) = 3.52860 3.80855 3.67125
# Velocity P-wave (km/s) = 6.48067 6.75915 6.62137
#
# Compressibility (1/GPa) = 0.01690482
#
# Stress axis : x y z
#
# Youngs Moduli (GPa) = 99.60367 96.29118 129.56979
#
# Poissons Ratio (x) = 0.16297 0.33302
# Poissons Ratio (y) = 0.16858 0.17573
# Poissons Ratio (z) = 0.25600 0.13060
#
# Static dielectric constant tensor:
#      x y z
#    x 4.291950 0.000000 0.000000 
#    y 0.000000 4.013570 0.000000 
#    z 0.000000 0.000000 4.596570 
# 
# 
# High freq. dielectric constant tensor:
#      x y z
#    x 1.934010 0.000000 0.000000 
#    y 0.000000 1.912770 0.000000 
#    z 0.000000 0.000000 1.948410 
# 
# From -- ./inp_files/5167.got.cif
#   From: 2010.03.12/outbox.cif.g09.slc.cpg/sg20_3_cif.got.tgz:5167.got - 2010.04.14 01:38:04.
