data_PCOD8159564
_publ_section_title
;
Structure prediction by ZEFSAII (Michael W. Deem and Ramdas Pophale) SiO2 
 PCOD8159564
Probable space group: C 2 2 21
;
_chemical_formula_sum "Si O2"
_cell_formula_units_Z 52
_cell_length_a 14.110360
_cell_length_b 7.783971
_cell_length_c 20.884942
_cell_angle_alpha 90.000000
_cell_angle_beta 90.000000
_cell_angle_gamma 90.000000
_cell_volume 2293.889941
_symmetry_space_group_name_H-M "C 2 2 21"
_symmetry_group_IT_number 20
_symmetry_cell_setting 'orthorhombic'
loop_
_space_group_symop_operation_xyz
x,y,z
-x,-y,1/2+z
x,-y,-z
-x,y,1/2-z
1/2+x,1/2+y,z
1/2-x,1/2-y,1/2+z
1/2+x,1/2-y,-z
1/2-x,1/2+y,1/2-z
loop_
_atom_site_type_symbol
_atom_site_label
_atom_site_fract_x
_atom_site_fract_y
_atom_site_fract_z
Si Si1 0.215117 0.626995 0.818232
Si Si2 0.500000 0.666401 0.750000
Si Si3 0.638243 0.610788 0.269312
Si Si4 0.927485 0.731491 0.893622
Si Si5 0.815461 0.699277 0.011439
Si Si6 0.610702 0.157898 0.357593
Si Si7 0.375785 0.141364 0.552072
O O1 0.256357 0.454712 0.786566
O O2 0.137488 0.713072 0.771103
O O3 0.290334 0.782962 0.825946
O O4 0.166984 0.560073 0.883211
O O5 0.412080 0.543535 0.730907
O O6 0.476412 0.779666 0.813065
O O7 0.578831 0.636096 0.335011
O O8 0.898647 0.545669 0.865589
O O9 0.030280 0.742709 0.926872
O O10 0.852817 0.795307 0.947873
O O11 0.883887 0.746992 0.071801
O O12 0.704621 0.737871 0.021723
O O13 0.827171 0.500000 0.000000
O O14 0.405733 0.000000 0.500000
#
# Coordination Sequence:
#
# PCOD8159564 Si02
#       7
#     8   4   8   8   8   8   8
#     4  10  22  39  61  90 126 166 209 257 317 375
#     4  10  22  38  58  90 124 162 206 254 310 372
#     4  11  22  39  61  91 128 166 209 261 315 377
#     4  11  22  40  64  90 123 166 212 262 317 374
#     4   9  20  42  63  86 122 162 212 266 317 375
#     4   9  20  39  61  86 123 166 208 260 315 374
#     4  11  22  38  61  91 121 161 211 261 319 379
#
# _framework density 22.668915999999999
#
# number of rings (size 3 to 8) (size 9 to 14) (size 15 to 20)
#    0.000    1.846    0.000    4.154    0.000    4.308 
#    0.000   20.769    0.000    0.000    0.000    0.000 
#    0.000    0.000    0.000    0.000    0.000    0.000 
#
# Total GULP energy -322214.832977 kJ/mol
# GULP energy per Si atom -12392.878191 kJ/mol
# Density = 2.261732 g / cm^3
# Si number density = 22.668916 Si / 1000 Ang^3
#
#
#
# Elastic Constant Matrix: (Units=GPa)
#
#
# Indices 1 2 3 4 5 6 
#
# 1 84.9600 11.9955 49.8549 0.0000 0.0000 0.0000
# 2 11.9955 42.0267 39.6113 0.0000 0.0000 0.0000
# 3 49.8549 39.6113 143.7885 0.0000 0.0000 0.0000
# 4 0.0000 0.0000 0.0000 37.9232 0.0000 0.0000
# 5 0.0000 0.0000 0.0000 0.0000 41.4624 0.0000
# 6 0.0000 0.0000 0.0000 0.0000 0.0000 36.9433
#
#
#
# Elastic Compliance Matrix: (Units=1/GPa)
#
#
# Indices 1 2 3 4 5 6 
#
# 1 0.014798 0.000827 -0.005359 0.000000 0.000000 0.000000
# 2 0.000827 0.032186 -0.009153 0.000000 0.000000 0.000000
# 3 -0.005359 -0.009153 0.011334 0.000000 0.000000 0.000000
# 4 0.000000 0.000000 0.000000 0.026369 0.000000 0.000000
# 5 0.000000 0.000000 0.000000 0.000000 0.024118 0.000000
# 6 0.000000 0.000000 0.000000 0.000000 0.000000 0.027068
#
#
# Mechanical properties :
#
#
# Convention : Reuss Voigt Hill
#
# Bulk Modulus (GPa) = 32.31251 52.63319 42.47285
# Shear Modulus (GPa) = 28.80856 34.55335 31.68096
#
# Velocity S-wave (km/s) = 3.56875 3.90841 3.74244
# Velocity P-wave (km/s) = 5.59163 6.60577 6.11975
#
# Compressibility (1/GPa) = 0.03094777
#
# Stress axis : x y z
#
# Youngs Moduli (GPa) = 67.57695 31.06976 88.22855
#
# Poissons Ratio (x) = -0.02569 0.47278
# Poissons Ratio (y) = -0.05588 0.80758
# Poissons Ratio (z) = 0.36212 0.28439
#
# Static dielectric constant tensor:
#      x y z
#    x 4.041720 0.000000 0.000000 
#    y 0.000000 3.795620 0.000000 
#    z 0.000000 0.000000 4.541490 
# 
# 
# High freq. dielectric constant tensor:
#      x y z
#    x 1.888410 0.000000 0.000000 
#    y 0.000000 1.870870 0.000000 
#    z 0.000000 0.000000 1.914060 
# 
# From -- ./inp_files/27502.got.cif
#   From: 2010.03.12/outbox.cif.g09.slc.cpg/sg20_14_cif.got.tgz:27502.got - 2010.04.14 01:38:04.
