data_PCOD8159266
_publ_section_title
;
Structure prediction by ZEFSAII (Michael W. Deem and Ramdas Pophale) SiO2 
 PCOD8159266
Probable space group: C 2 2 21
;
_chemical_formula_sum "Si O2"
_cell_formula_units_Z 24
_cell_length_a 11.839499
_cell_length_b 7.696214
_cell_length_c 11.234695
_cell_angle_alpha 90.000000
_cell_angle_beta 90.000000
_cell_angle_gamma 90.000000
_cell_volume 1023.697746
_symmetry_space_group_name_H-M "C 2 2 21"
_symmetry_group_IT_number 20
_symmetry_cell_setting 'orthorhombic'
loop_
_space_group_symop_operation_xyz
x,y,z
-x,-y,1/2+z
x,-y,-z
-x,y,1/2-z
1/2+x,1/2+y,z
1/2-x,1/2-y,1/2+z
1/2+x,1/2-y,-z
1/2-x,1/2+y,1/2-z
loop_
_atom_site_type_symbol
_atom_site_label
_atom_site_fract_x
_atom_site_fract_y
_atom_site_fract_z
Si Si1 0.601230 0.192442 0.322447
Si Si2 0.045773 0.169172 0.437944
Si Si3 0.655375 0.428319 0.783581
O O1 0.500000 0.098596 0.250000
O O2 0.559563 0.185533 0.460221
O O3 0.619165 0.380680 0.260871
O O4 0.713241 0.077705 0.313346
O O5 0.123139 0.207672 0.322222
O O6 0.915621 0.130833 0.399857
O O7 0.098325 0.000000 0.500000
#
# Coordination Sequence:
#
# PCOD8159266 Si02
#       3
#     8   8   8
#     4  11  22  39  64  88 119 158 202 240 302 350
#     4   9  18  39  62  83 117 164 190 239 300 351
#     4  10  21  39  64  85 122 155 199 245 295 349
#
# _framework density 23.444420999999998
#
# number of rings (size 3 to 8) (size 9 to 14) (size 15 to 20)
#    0.000    2.000    6.667    0.000    4.667    0.000 
#    6.000    0.000    0.000    0.000    0.000    0.000 
#    0.000    0.000    0.000    0.000    0.000    0.000 
#
# Total GULP energy -148665.544308 kJ/mol
# GULP energy per Si atom -12388.795359 kJ/mol
# Density = 2.339106 g / cm^3
# Si number density = 23.444421 Si / 1000 Ang^3
#
#
#
# Elastic Constant Matrix: (Units=GPa)
#
#
# Indices 1 2 3 4 5 6 
#
# 1 165.8449 20.6342 44.1613 0.0000 0.0000 0.0000
# 2 20.6342 23.2630 10.2685 0.0000 0.0000 0.0000
# 3 44.1613 10.2685 118.4280 0.0000 0.0000 0.0000
# 4 0.0000 0.0000 0.0000 8.0355 0.0000 0.0000
# 5 0.0000 0.0000 0.0000 0.0000 39.3058 0.0000
# 6 0.0000 0.0000 0.0000 0.0000 0.0000 29.2578
#
#
#
# Elastic Compliance Matrix: (Units=1/GPa)
#
#
# Indices 1 2 3 4 5 6 
#
# 1 0.007312 -0.005493 -0.002251 0.000000 0.000000 0.000000
# 2 -0.005493 0.048823 -0.002185 0.000000 0.000000 0.000000
# 3 -0.002251 -0.002185 0.009473 0.000000 0.000000 0.000000
# 4 0.000000 0.000000 0.000000 0.124448 0.000000 0.000000
# 5 0.000000 0.000000 0.000000 0.000000 0.025442 0.000000
# 6 0.000000 0.000000 0.000000 0.000000 0.000000 0.034179
#
#
# Mechanical properties :
#
#
# Convention : Reuss Voigt Hill
#
# Bulk Modulus (GPa) = 21.85712 50.85155 36.35433
# Shear Modulus (GPa) = 17.55719 30.81794 24.18757
#
# Velocity S-wave (km/s) = 2.73955 3.62955 3.21549
# Velocity P-wave (km/s) = 4.39886 6.26915 5.41536
#
# Compressibility (1/GPa) = 0.04575169
#
# Stress axis : x y z
#
# Youngs Moduli (GPa) = 136.75424 20.48203 105.56739
#
# Poissons Ratio (x) = 0.11250 0.23758
# Poissons Ratio (y) = 0.75115 0.23068
# Poissons Ratio (z) = 0.30777 0.04476
#
# Static dielectric constant tensor:
#      x y z
#    x 4.283350 0.000000 0.000000 
#    y 0.000000 3.616060 0.000000 
#    z 0.000000 0.000000 4.831410 
# 
# 
# High freq. dielectric constant tensor:
#      x y z
#    x 1.922390 0.000000 0.000000 
#    y 0.000000 1.882630 0.000000 
#    z 0.000000 0.000000 1.949780 
# 
# From -- ./inp_files/12279.got.cif
#   From: 2010.03.12/outbox.cif.g09.slc.cpg/sg20_7_cif.got.tgz:12279.got - 2010.04.14 01:38:04.
