data_PCOD8159753
_publ_section_title
;
Structure prediction by ZEFSAII (Michael W. Deem and Ramdas Pophale) SiO2 
 PCOD8159753
Probable space group: C 2 2 21
;
_chemical_formula_sum "Si O2"
_cell_formula_units_Z 40
_cell_length_a 5.146161
_cell_length_b 12.686402
_cell_length_c 26.892652
_cell_angle_alpha 90.000000
_cell_angle_beta 90.000000
_cell_angle_gamma 90.000000
_cell_volume 1755.720864
_symmetry_space_group_name_H-M "C 2 2 21"
_symmetry_group_IT_number 20
_symmetry_cell_setting 'orthorhombic'
loop_
_space_group_symop_operation_xyz
x,y,z
-x,-y,1/2+z
x,-y,-z
-x,y,1/2-z
1/2+x,1/2+y,z
1/2-x,1/2-y,1/2+z
1/2+x,1/2-y,-z
1/2-x,1/2+y,1/2-z
loop_
_atom_site_type_symbol
_atom_site_label
_atom_site_fract_x
_atom_site_fract_y
_atom_site_fract_z
Si Si1 0.937954 0.835963 0.875573
Si Si2 0.760932 0.721230 0.970204
Si Si3 0.829824 0.046703 0.596592
Si Si4 0.170967 0.374311 0.151101
Si Si5 0.256252 0.950471 0.718693
O O1 0.118069 0.750493 0.847352
O O2 0.759282 0.780804 0.917068
O O3 0.757636 0.889978 0.834012
O O4 0.115499 0.921766 0.904531
O O5 0.710539 0.597057 0.958550
O O6 0.542983 0.770256 0.005121
O O7 0.572886 0.063246 0.628631
O O8 0.072422 0.108862 0.619235
O O9 0.213003 0.424558 0.206096
O O10 0.500000 0.908127 0.750000
O O11 0.000000 0.930288 0.750000
#
# Coordination Sequence:
#
# PCOD8159753 Si02
#       5
#     8   8   8   8   8
#     4  10  24  46  70  93 134 181 217 273 339 390
#     4  11  24  43  67 100 137 176 224 274 330 393
#     4  10  22  42  67  94 128 169 218 264 316 388
#     4  10  22  42  65  92 128 167 209 267 324 385
#     4  11  24  43  67  98 129 166 222 275 331 406
#
# _framework density 22.782665000000001
#
# number of rings (size 3 to 8) (size 9 to 14) (size 15 to 20)
#    0.000    1.600    0.000    4.800    0.000   16.000 
#    0.000   16.000    0.000    0.000    0.000    0.000 
#    0.000    0.000    0.000    0.000    0.000    0.000 
#
# Total GULP energy -247952.168126 kJ/mol
# GULP energy per Si atom -12397.608406 kJ/mol
# Density = 2.273081 g / cm^3
# Si number density = 22.782665 Si / 1000 Ang^3
#
#
#
# Elastic Constant Matrix: (Units=GPa)
#
#
# Indices 1 2 3 4 5 6 
#
# 1 144.1366 28.5716 38.4064 0.0000 0.0000 0.0000
# 2 28.5716 149.0614 27.9344 0.0000 0.0000 0.0000
# 3 38.4064 27.9344 114.2222 0.0000 0.0000 0.0000
# 4 0.0000 0.0000 0.0000 39.4163 0.0000 0.0000
# 5 0.0000 0.0000 0.0000 0.0000 33.1511 0.0000
# 6 0.0000 0.0000 0.0000 0.0000 0.0000 28.8646
#
#
#
# Elastic Compliance Matrix: (Units=1/GPa)
#
#
# Indices 1 2 3 4 5 6 
#
# 1 0.007774 -0.001048 -0.002358 0.000000 0.000000 0.000000
# 2 -0.001048 0.007172 -0.001402 0.000000 0.000000 0.000000
# 3 -0.002358 -0.001402 0.009890 0.000000 0.000000 0.000000
# 4 0.000000 0.000000 0.000000 0.025370 0.000000 0.000000
# 5 0.000000 0.000000 0.000000 0.000000 0.030165 0.000000
# 6 0.000000 0.000000 0.000000 0.000000 0.000000 0.034644
#
#
# Mechanical properties :
#
#
# Convention : Reuss Voigt Hill
#
# Bulk Modulus (GPa) = 65.69586 66.36056 66.02821
# Shear Modulus (GPa) = 38.54913 41.12026 39.83470
#
# Velocity S-wave (km/s) = 4.11790 4.25301 4.18600
# Velocity P-wave (km/s) = 7.17691 7.30126 7.23935
#
# Compressibility (1/GPa) = 0.01522166
#
# Stress axis : x y z
#
# Youngs Moduli (GPa) = 128.63652 139.42659 101.10872
#
# Poissons Ratio (x) = 0.14616 0.23837
# Poissons Ratio (y) = 0.13484 0.14171
# Poissons Ratio (z) = 0.30327 0.19542
#
# Static dielectric constant tensor:
#      x y z
#    x 4.021070 0.000000 0.000000 
#    y 0.000000 4.364810 0.000000 
#    z 0.000000 0.000000 4.138980 
# 
# 
# High freq. dielectric constant tensor:
#      x y z
#    x 1.911550 0.000000 0.000000 
#    y 0.000000 1.903210 0.000000 
#    z 0.000000 0.000000 1.889670 
# 
# From -- ./inp_files/29709.got.cif
#   From: 2010.03.12/outbox.cif.g09.slc.cpg/sg20_15_cif.got.tgz:29709.got - 2010.04.14 01:38:04.
