data_PCOD8159148
_publ_section_title
;
Structure prediction by ZEFSAII (Michael W. Deem and Ramdas Pophale) SiO2 
 PCOD8159148
Probable space group: C 2 2 21
;
_chemical_formula_sum "Si O2"
_cell_formula_units_Z 32
_cell_length_a 5.063795
_cell_length_b 37.382011
_cell_length_c 8.588997
_cell_angle_alpha 90.000000
_cell_angle_beta 90.000000
_cell_angle_gamma 90.000000
_cell_volume 1625.852816
_symmetry_space_group_name_H-M "C 2 2 21"
_symmetry_group_IT_number 20
_symmetry_cell_setting 'orthorhombic'
loop_
_space_group_symop_operation_xyz
x,y,z
-x,-y,1/2+z
x,-y,-z
-x,y,1/2-z
1/2+x,1/2+y,z
1/2-x,1/2-y,1/2+z
1/2+x,1/2-y,-z
1/2-x,1/2+y,1/2-z
loop_
_atom_site_type_symbol
_atom_site_label
_atom_site_fract_x
_atom_site_fract_y
_atom_site_fract_z
Si Si1 0.257688 0.894084 0.647287
Si Si2 0.759344 0.344237 0.354363
Si Si3 0.093925 0.264622 0.079737
Si Si4 0.241398 0.475624 0.851556
O O1 0.500000 0.879093 0.750000
O O2 0.211333 0.871763 0.492154
O O3 0.313805 0.934881 0.596075
O O4 0.000000 0.890708 0.750000
O O5 0.500000 0.340636 0.250000
O O6 0.830720 0.306085 0.427659
O O7 0.000000 0.358647 0.250000
O O8 0.000000 0.252368 0.250000
O O9 0.350875 0.241397 0.037812
O O10 0.500000 0.478417 0.750000
O O11 0.000000 0.490565 0.750000
O O12 0.279146 0.500000 0.000000
#
# Coordination Sequence:
#
# PCOD8159148 Si02
#       4
#     8   8   8   8
#     4  10  22  39  58  85 116 149 189 233 278 333
#     4  11  23  40  59  84 115 148 188 234 280 335
#     4  11  23  40  59  84 114 146 187 234 281 335
#     4  10  21  37  58  85 117 149 189 233 277 331
#
# _framework density 19.681978000000001
#
# number of rings (size 3 to 8) (size 9 to 14) (size 15 to 20)
#    0.000    1.500    0.000    6.000    0.000    5.000 
#    0.000    0.000    0.000    0.000    0.000    0.000 
#    0.000    0.000    0.000    0.000    0.000    0.000 
#
# Total GULP energy -198484.093381 kJ/mol
# GULP energy per Si atom -12405.255836 kJ/mol
# Density = 1.963718 g / cm^3
# Si number density = 19.681978 Si / 1000 Ang^3
#
#
#
# Elastic Constant Matrix: (Units=GPa)
#
#
# Indices 1 2 3 4 5 6 
#
# 1 127.5152 35.7391 29.6873 0.0000 0.0000 0.0000
# 2 35.7391 94.3542 74.9912 0.0000 0.0000 0.0000
# 3 29.6873 74.9912 100.5901 0.0000 0.0000 0.0000
# 4 0.0000 0.0000 0.0000 -9.0754 0.0000 0.0000
# 5 0.0000 0.0000 0.0000 0.0000 44.8245 0.0000
# 6 0.0000 0.0000 0.0000 0.0000 0.0000 17.0702
#
#
#
# Elastic Compliance Matrix: (Units=1/GPa)
#
#
# Indices 1 2 3 4 5 6 
#
# 1 0.008777 -0.003106 -0.000275 0.000000 0.000000 0.000000
# 2 -0.003106 0.027109 -0.019293 0.000000 0.000000 0.000000
# 3 -0.000275 -0.019293 0.024406 0.000000 0.000000 0.000000
# 4 0.000000 0.000000 0.000000 -0.110188 0.000000 0.000000
# 5 0.000000 0.000000 0.000000 0.000000 0.022309 0.000000
# 6 0.000000 0.000000 0.000000 0.000000 0.000000 0.058582
#
#
# Mechanical properties :
#
#
# Convention : Reuss Voigt Hill
#
# Bulk Modulus (GPa) = 66.91978 67.03275 66.97627
# Shear Modulus (GPa) = 61.48288 22.69998 42.09143
#
# Velocity S-wave (km/s) = 5.59517 3.39977 4.62949
# Velocity P-wave (km/s) = 8.70722 7.03869 7.91703
#
# Compressibility (1/GPa) = 0.01494326
#
# Stress axis : x y z
#
# Youngs Moduli (GPa) = 113.93793 36.88814 40.97380
#
# Poissons Ratio (x) = 0.11458 0.01125
# Poissons Ratio (y) = 0.35391 0.79052
# Poissons Ratio (z) = 0.03129 0.71170
#
# Static dielectric constant tensor:
#      x y z
#    x 3.886580 0.000000 0.000000 
#    y 0.000000 3.589740 0.000000 
#    z 0.000000 0.000000 3.531000 
# 
# 
# High freq. dielectric constant tensor:
#      x y z
#    x 1.795020 0.000000 0.000000 
#    y 0.000000 1.761930 0.000000 
#    z 0.000000 0.000000 1.771600 
# 
# From -- ./inp_files/5129.got.cif
#   From: 2010.03.12/outbox.cif.g09.slc.cpg/sg20_3_cif.got.tgz:5129.got - 2010.04.14 01:38:04.
