data_PCOD8159814
_publ_section_title
;
Structure prediction by ZEFSAII (Michael W. Deem and Ramdas Pophale) SiO2 
 PCOD8159814
Probable space group: C 2 2 21
;
_chemical_formula_sum "Si O2"
_cell_formula_units_Z 56
_cell_length_a 11.757330
_cell_length_b 21.020685
_cell_length_c 11.099433
_cell_angle_alpha 90.000000
_cell_angle_beta 90.000000
_cell_angle_gamma 90.000000
_cell_volume 2743.193015
_symmetry_space_group_name_H-M "C 2 2 21"
_symmetry_group_IT_number 20
_symmetry_cell_setting 'orthorhombic'
loop_
_space_group_symop_operation_xyz
x,y,z
-x,-y,1/2+z
x,-y,-z
-x,y,1/2-z
1/2+x,1/2+y,z
1/2-x,1/2-y,1/2+z
1/2+x,1/2-y,-z
1/2-x,1/2+y,1/2-z
loop_
_atom_site_type_symbol
_atom_site_label
_atom_site_fract_x
_atom_site_fract_y
_atom_site_fract_z
Si Si1 0.001570 0.608580 0.610558
Si Si2 0.258888 0.062020 0.580802
Si Si3 0.329523 0.834899 0.693659
Si Si4 0.935418 0.705429 0.075130
Si Si5 0.859236 0.500000 0.000000
Si Si6 0.238741 0.036722 0.227531
Si Si7 0.000000 0.099281 0.250000
Si Si8 0.617901 0.334021 0.541685
O O1 0.872574 0.603608 0.561512
O O2 0.000000 0.625306 0.750000
O O3 0.073853 0.663777 0.545685
O O4 0.061581 0.541878 0.585782
O O5 0.154777 0.108194 0.546390
O O6 0.252776 0.000000 0.500000
O O7 0.252522 0.034558 0.717570
O O8 0.445875 0.814067 0.634016
O O9 0.332306 0.809945 0.832252
O O10 0.311404 0.911803 0.694259
O O11 0.223160 0.805768 0.620512
O O12 0.933346 0.779467 0.042696
O O13 0.780924 0.459758 0.909848
O O14 0.107036 0.054454 0.227322
O O15 0.980326 0.143022 0.132659
#
# Coordination Sequence:
#
# PCOD8159814 Si02
#       8
#     8   8   8   8   4   8   4   8
#     4  12  24  37  67 105 135 172 219 282 339 407
#     4  12  21  41  70  96 132 173 222 273 343 403
#     4  10  22  43  67  92 133 180 216 276 347 396
#     4  11  24  42  65  95 134 177 224 277 336 411
#     4  12  24  38  64 108 136 166 220 286 336 402
#     4  11  23  42  67  99 136 174 222 281 344 403
#     4  10  24  44  66  90 128 190 224 264 344 410
#     4  11  25  42  68  98 129 184 230 276 336 415
#
# _framework density 20.414166999999999
#
# number of rings (size 3 to 8) (size 9 to 14) (size 15 to 20)
#    0.000    0.857    7.857    0.000    1.000    4.571 
#    0.000    2.857    0.000    0.000    0.000    0.000 
#    0.000    0.000    0.000    0.000    0.000    0.000 
#
# Total GULP energy -347211.887729 kJ/mol
# GULP energy per Si atom -12400.424562 kJ/mol
# Density = 2.036770 g / cm^3
# Si number density = 20.414167 Si / 1000 Ang^3
#
#
#
# Elastic Constant Matrix: (Units=GPa)
#
#
# Indices 1 2 3 4 5 6 
#
# 1 85.4523 35.7153 35.5620 0.0000 0.0000 0.0000
# 2 35.7153 109.0109 44.7825 0.0000 0.0000 0.0000
# 3 35.5620 44.7825 110.3380 0.0000 0.0000 0.0000
# 4 0.0000 0.0000 0.0000 34.0069 0.0000 0.0000
# 5 0.0000 0.0000 0.0000 0.0000 30.6410 0.0000
# 6 0.0000 0.0000 0.0000 0.0000 0.0000 19.8464
#
#
#
# Elastic Compliance Matrix: (Units=1/GPa)
#
#
# Indices 1 2 3 4 5 6 
#
# 1 0.014492 -0.003395 -0.003293 0.000000 0.000000 0.000000
# 2 -0.003395 0.011804 -0.003697 0.000000 0.000000 0.000000
# 3 -0.003293 -0.003697 0.011625 0.000000 0.000000 0.000000
# 4 0.000000 0.000000 0.000000 0.029406 0.000000 0.000000
# 5 0.000000 0.000000 0.000000 0.000000 0.032636 0.000000
# 6 0.000000 0.000000 0.000000 0.000000 0.000000 0.050387
#
#
# Mechanical properties :
#
#
# Convention : Reuss Voigt Hill
#
# Bulk Modulus (GPa) = 58.30387 59.65786 58.98086
# Shear Modulus (GPa) = 28.27474 29.48161 28.87817
#
# Velocity S-wave (km/s) = 3.72567 3.80435 3.76522
# Velocity P-wave (km/s) = 6.86513 6.97027 6.91790
#
# Compressibility (1/GPa) = 0.01715152
#
# Stress axis : x y z
#
# Youngs Moduli (GPa) = 69.00446 84.71390 86.02394
#
# Poissons Ratio (x) = 0.28763 0.28325
# Poissons Ratio (y) = 0.23429 0.31801
# Poissons Ratio (z) = 0.22721 0.31316
#
# Static dielectric constant tensor:
#      x y z
#    x 3.625840 0.000000 0.000000 
#    y 0.000000 3.608280 0.000000 
#    z 0.000000 0.000000 4.091950 
# 
# 
# High freq. dielectric constant tensor:
#      x y z
#    x 1.788070 0.000000 0.000000 
#    y 0.000000 1.783630 0.000000 
#    z 0.000000 0.000000 1.814260 
# 
# From -- ./inp_files/14345.got.cif
#   From: 2010.03.12/outbox.cif.g09.slc.cpg/sg20_8_cif.got.tgz:14345.got - 2010.04.14 01:38:04.
