data_PCOD8159758
_publ_section_title
;
Structure prediction by ZEFSAII (Michael W. Deem and Ramdas Pophale) SiO2 
 PCOD8159758
Probable space group: C 2 2 21
;
_chemical_formula_sum "Si O2"
_cell_formula_units_Z 48
_cell_length_a 17.106397
_cell_length_b 14.649188
_cell_length_c 8.696134
_cell_angle_alpha 90.000000
_cell_angle_beta 90.000000
_cell_angle_gamma 90.000000
_cell_volume 2179.206184
_symmetry_space_group_name_H-M "C 2 2 21"
_symmetry_group_IT_number 20
_symmetry_cell_setting 'orthorhombic'
loop_
_space_group_symop_operation_xyz
x,y,z
-x,-y,1/2+z
x,-y,-z
-x,y,1/2-z
1/2+x,1/2+y,z
1/2-x,1/2-y,1/2+z
1/2+x,1/2-y,-z
1/2-x,1/2+y,1/2-z
loop_
_atom_site_type_symbol
_atom_site_label
_atom_site_fract_x
_atom_site_fract_y
_atom_site_fract_z
Si Si1 0.029090 0.762617 0.421081
Si Si2 0.787371 0.223152 0.930057
Si Si3 0.056825 0.072805 0.375343
Si Si4 0.781025 0.549453 0.650798
Si Si5 0.279925 0.627104 0.241425
Si Si6 0.459974 0.909868 0.412447
O O1 0.122492 0.746471 0.425254
O O2 0.011536 0.845744 0.536922
O O3 0.000000 0.786119 0.250000
O O4 0.981258 0.674851 0.478961
O O5 0.772195 0.138235 0.811142
O O6 0.735262 0.310721 0.889837
O O7 0.753831 0.186464 0.092506
O O8 0.129020 0.107972 0.275980
O O9 0.000000 0.027213 0.250000
O O10 0.085754 0.000000 0.500000
O O11 0.745818 0.500000 0.500000
O O12 0.770016 0.466722 0.772944
O O13 0.868589 0.583333 0.623388
O O14 0.500000 0.897591 0.250000
O O15 0.490013 0.000000 0.500000
#
# Coordination Sequence:
#
# PCOD8159758 Si02
#       6
#     8   8   8   8   8   8
#     4  11  25  41  65 101 136 173 222 274 333 404
#     4  10  23  39  66  92 128 175 222 273 326 403
#     4  11  24  44  70  98 136 176 226 284 336 405
#     4   9  21  41  64  88 127 177 211 264 336 389
#     4  10  22  42  65  96 132 177 224 276 338 397
#     4  11  25  41  66  94 133 176 221 272 334 402
#
# _framework density 22.02637
#
# number of rings (size 3 to 8) (size 9 to 14) (size 15 to 20)
#    0.000    1.667    0.000    4.000   16.333    0.000 
#    0.000    0.833    0.000    0.000    0.000    0.000 
#    0.000    0.000    0.000    0.000    0.000    0.000 
#
# Total GULP energy -297459.594323 kJ/mol
# GULP energy per Si atom -12394.149763 kJ/mol
# Density = 2.197624 g / cm^3
# Si number density = 22.026370 Si / 1000 Ang^3
#
#
#
# Elastic Constant Matrix: (Units=GPa)
#
#
# Indices 1 2 3 4 5 6 
#
# 1 108.4538 51.0860 40.8088 0.0000 0.0000 0.0000
# 2 51.0860 124.7654 9.8791 0.0000 0.0000 0.0000
# 3 40.8088 9.8791 51.7533 0.0000 0.0000 0.0000
# 4 0.0000 0.0000 0.0000 41.4013 0.0000 0.0000
# 5 0.0000 0.0000 0.0000 0.0000 24.2496 0.0000
# 6 0.0000 0.0000 0.0000 0.0000 0.0000 38.8212
#
#
#
# Elastic Compliance Matrix: (Units=1/GPa)
#
#
# Indices 1 2 3 4 5 6 
#
# 1 0.016388 -0.005774 -0.011820 0.000000 0.000000 0.000000
# 2 -0.005774 0.010173 0.002611 0.000000 0.000000 0.000000
# 3 -0.011820 0.002611 0.028145 0.000000 0.000000 0.000000
# 4 0.000000 0.000000 0.000000 0.024154 0.000000 0.000000
# 5 0.000000 0.000000 0.000000 0.000000 0.041238 0.000000
# 6 0.000000 0.000000 0.000000 0.000000 0.000000 0.025759
#
#
# Mechanical properties :
#
#
# Convention : Reuss Voigt Hill
#
# Bulk Modulus (GPa) = 40.42214 54.28004 47.35109
# Shear Modulus (GPa) = 27.16379 33.10767 30.13573
#
# Velocity S-wave (km/s) = 3.51556 3.88118 3.70289
# Velocity P-wave (km/s) = 5.90512 6.69189 6.31078
#
# Compressibility (1/GPa) = 0.02473892
#
# Stress axis : x y z
#
# Youngs Moduli (GPa) = 61.01979 98.30345 35.53086
#
# Poissons Ratio (x) = 0.56763 0.41998
# Poissons Ratio (y) = 0.35235 -0.09278
# Poissons Ratio (z) = 0.72127 -0.25670
#
# Static dielectric constant tensor:
#      x y z
#    x 3.880850 0.000000 0.000000 
#    y 0.000000 4.441990 0.000000 
#    z 0.000000 0.000000 3.836590 
# 
# 
# High freq. dielectric constant tensor:
#      x y z
#    x 1.866130 0.000000 0.000000 
#    y 0.000000 1.884750 0.000000 
#    z 0.000000 0.000000 1.843700 
# 
# From -- ./inp_files/9353.got.cif
#   From: 2010.03.12/outbox.cif.g09.slc.cpg/sg20_5_cif.got.tgz:9353.got - 2010.04.14 01:38:04.
