data_PCOD8159282
_publ_section_title
;
Structure prediction by ZEFSAII (Michael W. Deem and Ramdas Pophale) SiO2 
 PCOD8159282
Probable space group: C 2 2 21
;
_chemical_formula_sum "Si O2"
_cell_formula_units_Z 52
_cell_length_a 7.898966
_cell_length_b 12.300807
_cell_length_c 25.616462
_cell_angle_alpha 90.000000
_cell_angle_beta 90.000000
_cell_angle_gamma 90.000000
_cell_volume 2488.989109
_symmetry_space_group_name_H-M "C 2 2 21"
_symmetry_group_IT_number 20
_symmetry_cell_setting 'orthorhombic'
loop_
_space_group_symop_operation_xyz
x,y,z
-x,-y,1/2+z
x,-y,-z
-x,y,1/2-z
1/2+x,1/2+y,z
1/2-x,1/2-y,1/2+z
1/2+x,1/2-y,-z
1/2-x,1/2+y,1/2-z
loop_
_atom_site_type_symbol
_atom_site_label
_atom_site_fract_x
_atom_site_fract_y
_atom_site_fract_z
Si Si1 0.839635 0.252543 0.950144
Si Si2 0.834754 0.755512 0.831531
Si Si3 0.835694 0.517054 0.786709
Si Si4 0.000000 0.097022 0.250000
Si Si5 0.533524 0.694631 0.440767
Si Si6 0.243566 0.510913 0.942608
Si Si7 0.028062 0.386258 0.866997
O O1 0.666887 0.318092 0.943491
O O2 0.818319 0.128760 0.932637
O O3 0.977096 0.302407 0.911861
O O4 0.902304 0.263291 0.009556
O O5 0.802178 0.638105 0.806961
O O6 0.973037 0.824851 0.799591
O O7 0.904943 0.739971 0.889986
O O8 0.659233 0.822596 0.829943
O O9 0.665249 0.478422 0.757905
O O10 0.872283 0.432330 0.833584
O O11 0.000000 0.517437 0.750000
O O12 0.601511 0.572654 0.439898
O O13 0.112436 0.488822 0.896245
O O14 0.156534 0.500000 0.000000
#
# Coordination Sequence:
#
# PCOD8159282 Si02
#       7
#     8   8   8   4   8   8   8
#     4  11  21  40  64  95 135 174 207 266 324 389
#     4  11  24  45  68  97 131 172 219 279 331 388
#     4  12  26  46  69  96 128 174 221 277 335 390
#     4  12  26  46  70  94 130 168 228 280 328 396
#     4  10  21  39  65  95 133 170 217 263 323 396
#     4   9  20  39  62  93 130 169 210 259 315 390
#     4  11  24  41  67  97 132 167 222 265 331 398
#
# _framework density 20.892014
#
# number of rings (size 3 to 8) (size 9 to 14) (size 15 to 20)
#    0.000    1.231    2.308    4.615    0.000    4.923 
#    2.769   10.000    0.000    0.000    0.000    0.000 
#    0.000    0.000    0.000    0.000    0.000    0.000 
#
# Total GULP energy -322484.656498 kJ/mol
# GULP energy per Si atom -12403.256019 kJ/mol
# Density = 2.084446 g / cm^3
# Si number density = 20.892014 Si / 1000 Ang^3
#
#
#
# Elastic Constant Matrix: (Units=GPa)
#
#
# Indices 1 2 3 4 5 6 
#
# 1 106.5739 33.1923 41.2508 0.0000 0.0000 0.0000
# 2 33.1923 103.2818 60.2032 0.0000 0.0000 0.0000
# 3 41.2508 60.2032 115.8552 0.0000 0.0000 0.0000
# 4 0.0000 0.0000 0.0000 37.0676 0.0000 0.0000
# 5 0.0000 0.0000 0.0000 0.0000 39.0923 0.0000
# 6 0.0000 0.0000 0.0000 0.0000 0.0000 -58.8448
#
#
#
# Elastic Compliance Matrix: (Units=1/GPa)
#
#
# Indices 1 2 3 4 5 6 
#
# 1 0.011115 -0.001815 -0.003014 0.000000 0.000000 0.000000
# 2 -0.001815 0.014186 -0.006725 0.000000 0.000000 0.000000
# 3 -0.003014 -0.006725 0.013199 0.000000 0.000000 0.000000
# 4 0.000000 0.000000 0.000000 0.026978 0.000000 0.000000
# 5 0.000000 0.000000 0.000000 0.000000 0.025580 0.000000
# 6 0.000000 0.000000 0.000000 0.000000 0.000000 -0.016994
#
#
# Mechanical properties :
#
#
# Convention : Reuss Voigt Hill
#
# Bulk Modulus (GPa) = 64.97314 66.11149 65.54232
# Shear Modulus (GPa) = 48.87366 16.20066 32.53716
#
# Velocity S-wave (km/s) = 4.84193 2.78771 3.95067
# Velocity P-wave (km/s) = 7.90101 6.48651 7.22845
#
# Compressibility (1/GPa) = 0.01539097
#
# Stress axis : x y z
#
# Youngs Moduli (GPa) = 89.96653 70.49346 75.76055
#
# Poissons Ratio (x) = 0.12795 0.22838
# Poissons Ratio (y) = 0.16329 0.50951
# Poissons Ratio (z) = 0.27120 0.47408
#
# Static dielectric constant tensor:
#      x y z
#    x 3.784810 0.000000 0.000000 
#    y 0.000000 3.850180 0.000000 
#    z 0.000000 0.000000 4.698460 
# 
# 
# High freq. dielectric constant tensor:
#      x y z
#    x 1.816970 0.000000 0.000000 
#    y 0.000000 1.820960 0.000000 
#    z 0.000000 0.000000 1.831370 
# 
# From -- ./inp_files/30109.got.cif
#   From: 2010.03.12/outbox.cif.g09.slc.cpg/sg20_16_cif.got.tgz:30109.got - 2010.04.14 01:38:04.
