data_PCOD8159415
_publ_section_title
;
Structure prediction by ZEFSAII (Michael W. Deem and Ramdas Pophale) SiO2 
 PCOD8159415
Probable space group: C 2 2 21
;
_chemical_formula_sum "Si O2"
_cell_formula_units_Z 48
_cell_length_a 11.836378
_cell_length_b 8.881589
_cell_length_c 21.660281
_cell_angle_alpha 90.000000
_cell_angle_beta 90.000000
_cell_angle_gamma 90.000000
_cell_volume 2277.055335
_symmetry_space_group_name_H-M "C 2 2 21"
_symmetry_group_IT_number 20
_symmetry_cell_setting 'orthorhombic'
loop_
_space_group_symop_operation_xyz
x,y,z
-x,-y,1/2+z
x,-y,-z
-x,y,1/2-z
1/2+x,1/2+y,z
1/2-x,1/2-y,1/2+z
1/2+x,1/2-y,-z
1/2-x,1/2+y,1/2-z
loop_
_atom_site_type_symbol
_atom_site_label
_atom_site_fract_x
_atom_site_fract_y
_atom_site_fract_z
Si Si1 0.243905 0.332411 0.153563
Si Si2 0.954445 0.696558 0.564580
Si Si3 0.824354 0.854526 0.880727
Si Si4 0.082583 0.344944 0.930044
Si Si5 0.447346 0.851617 0.813413
Si Si6 0.111795 0.330428 0.272345
O O1 0.158713 0.261783 0.102722
O O2 0.324484 0.464765 0.127359
O O3 0.318735 0.196509 0.177558
O O4 0.176899 0.396770 0.212948
O O5 0.947577 0.744710 0.492476
O O6 0.961367 0.516345 0.566573
O O7 0.061371 0.788829 0.589960
O O8 0.716792 0.821080 0.923452
O O9 0.809236 0.775975 0.813836
O O10 0.020937 0.281663 0.869368
O O11 0.500000 0.787485 0.750000
O O12 0.441214 0.032860 0.812600
O O13 0.000000 0.237288 0.250000
#
# Coordination Sequence:
#
# PCOD8159415 Si02
#       6
#     8   8   8   8   8   8
#     4  11  23  38  62  97 128 162 207 268 317 373
#     4  10  21  42  63  91 123 170 212 253 317 384
#     4  11  21  41  66  90 121 168 211 258 318 375
#     4  10  22  40  66  89 123 170 210 255 319 379
#     4  11  22  41  62  90 130 163 208 265 320 375
#     4  11  19  39  65  90 122 165 213 252 316 381
#
# _framework density 21.079857000000001
#
# number of rings (size 3 to 8) (size 9 to 14) (size 15 to 20)
#    0.000    1.333    3.333    5.000    2.333    0.667 
#    6.000    0.000    0.000    0.000    0.000    0.000 
#    0.000    0.000    0.000    0.000    0.000    0.000 
#
# Total GULP energy -297421.771031 kJ/mol
# GULP energy per Si atom -12392.573793 kJ/mol
# Density = 2.103188 g / cm^3
# Si number density = 21.079857 Si / 1000 Ang^3
#
#
#
# Elastic Constant Matrix: (Units=GPa)
#
#
# Indices 1 2 3 4 5 6 
#
# 1 124.7503 44.7159 62.1864 0.0000 0.0000 0.0000
# 2 44.7159 38.8565 25.1880 0.0000 0.0000 0.0000
# 3 62.1864 25.1880 165.3479 0.0000 0.0000 0.0000
# 4 0.0000 0.0000 0.0000 10.7149 0.0000 0.0000
# 5 0.0000 0.0000 0.0000 0.0000 34.0571 0.0000
# 6 0.0000 0.0000 0.0000 0.0000 0.0000 40.3069
#
#
#
# Elastic Compliance Matrix: (Units=1/GPa)
#
#
# Indices 1 2 3 4 5 6 
#
# 1 0.015176 -0.015273 -0.003381 0.000000 0.000000 0.000000
# 2 -0.015273 0.043925 -0.000947 0.000000 0.000000 0.000000
# 3 -0.003381 -0.000947 0.007464 0.000000 0.000000 0.000000
# 4 0.000000 0.000000 0.000000 0.093328 0.000000 0.000000
# 5 0.000000 0.000000 0.000000 0.000000 0.029362 0.000000
# 6 0.000000 0.000000 0.000000 0.000000 0.000000 0.024810
#
#
# Mechanical properties :
#
#
# Convention : Reuss Voigt Hill
#
# Bulk Modulus (GPa) = 36.54563 65.90394 51.22479
# Shear Modulus (GPa) = 19.05577 30.14007 24.59792
#
# Velocity S-wave (km/s) = 3.00989 3.78538 3.41969
# Velocity P-wave (km/s) = 5.42712 7.10192 6.32024
#
# Compressibility (1/GPa) = 0.02736305
#
# Stress axis : x y z
#
# Youngs Moduli (GPa) = 65.89471 22.76588 133.98100
#
# Poissons Ratio (x) = 0.34769 0.45299
# Poissons Ratio (y) = 1.00638 0.12693
# Poissons Ratio (z) = 0.22279 0.02157
#
# Static dielectric constant tensor:
#      x y z
#    x 3.819300 0.000000 0.000000 
#    y 0.000000 3.333410 0.000000 
#    z 0.000000 0.000000 4.267480 
# 
# 
# High freq. dielectric constant tensor:
#      x y z
#    x 1.833230 0.000000 0.000000 
#    y 0.000000 1.782100 0.000000 
#    z 0.000000 0.000000 1.847400 
# 
# From -- ./inp_files/29078.got.cif
#   From: 2010.03.12/outbox.cif.g09.slc.cpg/sg20_15_cif.got.tgz:29078.got - 2010.04.14 01:38:04.
