data_PCOD8159343
_publ_section_title
;
Structure prediction by ZEFSAII (Michael W. Deem and Ramdas Pophale) SiO2 
 PCOD8159343
Probable space group: C 2 2 21
;
_chemical_formula_sum "Si O2"
_cell_formula_units_Z 60
_cell_length_a 6.490877
_cell_length_b 19.935577
_cell_length_c 22.011449
_cell_angle_alpha 90.000000
_cell_angle_beta 90.000000
_cell_angle_gamma 90.000000
_cell_volume 2848.267815
_symmetry_space_group_name_H-M "C 2 2 21"
_symmetry_group_IT_number 20
_symmetry_cell_setting 'orthorhombic'
loop_
_space_group_symop_operation_xyz
x,y,z
-x,-y,1/2+z
x,-y,-z
-x,y,1/2-z
1/2+x,1/2+y,z
1/2-x,1/2-y,1/2+z
1/2+x,1/2-y,-z
1/2-x,1/2+y,1/2-z
loop_
_atom_site_type_symbol
_atom_site_label
_atom_site_fract_x
_atom_site_fract_y
_atom_site_fract_z
Si Si1 0.480207 0.323460 0.970178
Si Si2 0.676760 0.054573 0.164194
Si Si3 0.326449 0.204262 0.367207
Si Si4 0.501989 0.469886 0.562826
Si Si5 0.957018 0.680372 0.821270
Si Si6 0.208520 0.776783 0.413272
Si Si7 0.289088 0.039657 0.848938
Si Si8 0.000000 0.002628 0.250000
O O1 0.276593 0.305748 0.932465
O O2 0.574146 0.393920 0.948104
O O3 0.653898 0.268362 0.958005
O O4 0.416036 0.326887 0.041538
O O5 0.629756 0.133249 0.164167
O O6 0.797686 0.028529 0.105148
O O7 0.473325 0.009447 0.171828
O O8 0.822456 0.048860 0.222436
O O9 0.551042 0.233611 0.374704
O O10 0.184017 0.253255 0.326158
O O11 0.579249 0.500000 0.500000
O O12 0.307235 0.511611 0.588436
O O13 0.164394 0.686356 0.860718
O O14 0.000000 0.666186 0.750000
O O15 0.854830 0.616570 0.854255
O O16 0.105155 0.043390 0.800362
#
# Coordination Sequence:
#
# PCOD8159343 Si02
#       8
#     8   8   8   8   8   8   8   4
#     4  10  21  40  65  99 131 171 220 269 339 417
#     4  10  22  42  66  94 125 173 216 268 333 395
#     4  10  23  42  65  96 132 172 213 279 337 391
#     4  10  24  39  63  97 135 164 218 276 326 402
#     4  11  27  44  64 101 137 177 236 276 335 414
#     4  11  22  40  70  93 133 176 218 275 340 403
#     4  11  24  45  66  96 130 177 219 275 340 403
#     4  10  22  42  72  88 126 166 220 266 322 398
#
# _framework density 21.065434
#
# number of rings (size 3 to 8) (size 9 to 14) (size 15 to 20)
#    0.000    1.600    1.333    2.000    4.667    4.267 
#    4.800    0.000    0.000    0.000    0.000    0.000 
#    0.000    0.000    0.000    0.000    0.000    0.000 
#
# Total GULP energy -371964.520468 kJ/mol
# GULP energy per Si atom -12398.817349 kJ/mol
# Density = 2.101749 g / cm^3
# Si number density = 21.065434 Si / 1000 Ang^3
#
#
#
# Elastic Constant Matrix: (Units=GPa)
#
#
# Indices 1 2 3 4 5 6 
#
# 1 92.4284 31.1136 32.9488 0.0000 0.0000 0.0000
# 2 31.1136 109.6240 31.5415 0.0000 0.0000 0.0000
# 3 32.9488 31.5415 106.9670 0.0000 0.0000 0.0000
# 4 0.0000 0.0000 0.0000 25.4693 0.0000 0.0000
# 5 0.0000 0.0000 0.0000 0.0000 25.5144 0.0000
# 6 0.0000 0.0000 0.0000 0.0000 0.0000 34.5916
#
#
#
# Elastic Compliance Matrix: (Units=1/GPa)
#
#
# Indices 1 2 3 4 5 6 
#
# 1 0.012867 -0.002744 -0.003154 0.000000 0.000000 0.000000
# 2 -0.002744 0.010553 -0.002266 0.000000 0.000000 0.000000
# 3 -0.003154 -0.002266 0.010989 0.000000 0.000000 0.000000
# 4 0.000000 0.000000 0.000000 0.039263 0.000000 0.000000
# 5 0.000000 0.000000 0.000000 0.000000 0.039194 0.000000
# 6 0.000000 0.000000 0.000000 0.000000 0.000000 0.028909
#
#
# Mechanical properties :
#
#
# Convention : Reuss Voigt Hill
#
# Bulk Modulus (GPa) = 55.31339 55.58080 55.44710
# Shear Modulus (GPa) = 30.46343 31.34275 30.90309
#
# Velocity S-wave (km/s) = 3.80693 3.86148 3.83430
# Velocity P-wave (km/s) = 6.75563 6.80614 6.78093
#
# Compressibility (1/GPa) = 0.01807880
#
# Stress axis : x y z
#
# Youngs Moduli (GPa) = 77.71528 94.75846 91.00351
#
# Poissons Ratio (x) = 0.26006 0.28705
# Poissons Ratio (y) = 0.21329 0.20625
# Poissons Ratio (z) = 0.24514 0.21476
#
# Static dielectric constant tensor:
#      x y z
#    x 3.837190 0.000000 0.000000 
#    y 0.000000 3.849940 0.000000 
#    z 0.000000 0.000000 3.797620 
# 
# 
# High freq. dielectric constant tensor:
#      x y z
#    x 1.831440 0.000000 0.000000 
#    y 0.000000 1.826980 0.000000 
#    z 0.000000 0.000000 1.828600 
# 
# From -- ./inp_files/28474.got.cif
#   From: 2010.03.12/outbox.cif.g09.slc.cpg/sg20_15_cif.got.tgz:28474.got - 2010.04.14 01:38:04.
