data_PCOD8159962
_publ_section_title
;
Structure prediction by ZEFSAII (Michael W. Deem and Ramdas Pophale) SiO2 
 PCOD8159962
Probable space group: C 2 2 21
;
_chemical_formula_sum "Si O2"
_cell_formula_units_Z 28
_cell_length_a 11.479761
_cell_length_b 7.652229
_cell_length_c 15.838805
_cell_angle_alpha 90.000000
_cell_angle_beta 90.000000
_cell_angle_gamma 90.000000
_cell_volume 1391.371863
_symmetry_space_group_name_H-M "C 2 2 21"
_symmetry_group_IT_number 20
_symmetry_cell_setting 'orthorhombic'
loop_
_space_group_symop_operation_xyz
x,y,z
-x,-y,1/2+z
x,-y,-z
-x,y,1/2-z
1/2+x,1/2+y,z
1/2-x,1/2-y,1/2+z
1/2+x,1/2-y,-z
1/2-x,1/2+y,1/2-z
loop_
_atom_site_type_symbol
_atom_site_label
_atom_site_fract_x
_atom_site_fract_y
_atom_site_fract_z
Si Si1 0.759527 0.646919 0.354323
Si Si2 0.880668 0.000000 0.000000
Si Si3 0.002536 0.335788 0.939871
Si Si4 0.118887 0.473282 0.296965
O O1 0.699203 0.509002 0.416917
O O2 0.877780 0.720664 0.395072
O O3 0.785649 0.550521 0.266592
O O4 0.670815 0.803727 0.340679
O O5 0.960044 0.827988 0.005719
O O6 0.907186 0.383769 0.868960
O O7 0.025548 0.500000 0.000000
O O8 0.000000 0.418872 0.250000
#
# Coordination Sequence:
#
# PCOD8159962 Si02
#       4
#     8   4   8   8
#     4  11  23  42  65  96 130 170 217 263 326 380
#     4  12  24  38  68  96 128 174 216 260 330 378
#     4  11  23  42  63  96 130 165 214 270 313 383
#     4  10  23  42  66  91 133 168 215 269 314 386
#
# _framework density 20.124023999999999
#
# number of rings (size 3 to 8) (size 9 to 14) (size 15 to 20)
#    0.000    1.143    4.286    1.714    0.000    4.571 
#    0.000    0.000    0.000    0.000    0.000    0.000 
#    0.000    0.000    0.000    0.000    0.000    0.000 
#
# Total GULP energy -173687.989030 kJ/mol
# GULP energy per Si atom -12406.284931 kJ/mol
# Density = 2.007822 g / cm^3
# Si number density = 20.124024 Si / 1000 Ang^3
#
#
#
# Elastic Constant Matrix: (Units=GPa)
#
#
# Indices 1 2 3 4 5 6 
#
# 1 73.5078 49.5008 26.5511 0.0000 0.0000 0.0000
# 2 49.5008 113.4109 41.0627 0.0000 0.0000 0.0000
# 3 26.5511 41.0627 99.5683 0.0000 0.0000 0.0000
# 4 0.0000 0.0000 0.0000 39.0821 0.0000 0.0000
# 5 0.0000 0.0000 0.0000 0.0000 41.1847 0.0000
# 6 0.0000 0.0000 0.0000 0.0000 0.0000 26.0847
#
#
#
# Elastic Compliance Matrix: (Units=1/GPa)
#
#
# Indices 1 2 3 4 5 6 
#
# 1 0.019599 -0.007832 -0.001997 0.000000 0.000000 0.000000
# 2 -0.007832 0.013495 -0.003477 0.000000 0.000000 0.000000
# 3 -0.001997 -0.003477 0.012010 0.000000 0.000000 0.000000
# 4 0.000000 0.000000 0.000000 0.025587 0.000000 0.000000
# 5 0.000000 0.000000 0.000000 0.000000 0.024281 0.000000
# 6 0.000000 0.000000 0.000000 0.000000 0.000000 0.038337
#
#
# Mechanical properties :
#
#
# Convention : Reuss Voigt Hill
#
# Bulk Modulus (GPa) = 54.07357 57.85735 55.96546
# Shear Modulus (GPa) = 30.10556 32.56181 31.33368
#
# Velocity S-wave (km/s) = 3.87201 4.02687 3.95020
# Velocity P-wave (km/s) = 6.84971 7.10167 6.97683
#
# Compressibility (1/GPa) = 0.01849332
#
# Stress axis : x y z
#
# Youngs Moduli (GPa) = 51.02308 74.10349 83.26633
#
# Poissons Ratio (x) = 0.58035 0.16624
# Poissons Ratio (y) = 0.39959 0.28951
# Poissons Ratio (z) = 0.10187 0.25765
#
# Static dielectric constant tensor:
#      x y z
#    x 3.650910 0.000000 0.000000 
#    y 0.000000 3.422100 0.000000 
#    z 0.000000 0.000000 3.902830 
# 
# 
# High freq. dielectric constant tensor:
#      x y z
#    x 1.791260 0.000000 0.000000 
#    y 0.000000 1.774890 0.000000 
#    z 0.000000 0.000000 1.805310 
# 
# From -- ./inp_files/18095.got.cif
#   From: 2010.03.12/outbox.cif.g09.slc.cpg/sg20_10_cif.got.tgz:18095.got - 2010.04.14 01:38:04.
