data_PCOD8159838
_publ_section_title
;
Structure prediction by ZEFSAII (Michael W. Deem and Ramdas Pophale) SiO2 
 PCOD8159838
Probable space group: C 2 2 21
;
_chemical_formula_sum "Si O2"
_cell_formula_units_Z 28
_cell_length_a 17.526847
_cell_length_b 5.093605
_cell_length_c 14.484399
_cell_angle_alpha 90.000000
_cell_angle_beta 90.000000
_cell_angle_gamma 90.000000
_cell_volume 1293.092338
_symmetry_space_group_name_H-M "C 2 2 21"
_symmetry_group_IT_number 20
_symmetry_cell_setting 'orthorhombic'
loop_
_space_group_symop_operation_xyz
x,y,z
-x,-y,1/2+z
x,-y,-z
-x,y,1/2-z
1/2+x,1/2+y,z
1/2-x,1/2-y,1/2+z
1/2+x,1/2-y,-z
1/2-x,1/2+y,1/2-z
loop_
_atom_site_type_symbol
_atom_site_label
_atom_site_fract_x
_atom_site_fract_y
_atom_site_fract_z
Si Si1 0.680875 0.245227 0.162729
Si Si2 0.953672 0.759838 0.943475
Si Si3 0.848350 0.757113 0.775887
Si Si4 0.099734 0.000000 0.000000
O O1 0.772300 0.267848 0.162060
O O2 0.652290 0.959659 0.194849
O O3 0.645447 0.456313 0.232395
O O4 0.652244 0.305018 0.059602
O O5 0.921136 0.721921 0.841273
O O6 0.937511 0.500000 0.000000
O O7 0.044571 0.821363 0.934650
O O8 0.913641 0.000000 0.000000
#
# Coordination Sequence:
#
# PCOD8159838 Si02
#       4
#     8   8   8   4
#     4  10  23  41  68  91 129 161 221 262 312 376
#     4  10  23  41  61  95 127 164 212 254 325 381
#     4  10  22  44  64  95 122 174 209 261 321 378
#     4  10  26  42  62 102 124 170 210 270 314 378
#
# _framework density 21.653518999999999
#
# number of rings (size 3 to 8) (size 9 to 14) (size 15 to 20)
#    0.857    1.143    0.000    1.714    6.000    1.143 
#    0.000    0.000    0.000    0.000    0.000    0.000 
#    0.000    0.000    0.000    0.000    0.000    0.000 
#
# Total GULP energy -173591.629637 kJ/mol
# GULP energy per Si atom -12399.402117 kJ/mol
# Density = 2.160424 g / cm^3
# Si number density = 21.653519 Si / 1000 Ang^3
#
#
#
# Elastic Constant Matrix: (Units=GPa)
#
#
# Indices 1 2 3 4 5 6 
#
# 1 77.1992 8.5203 41.9627 0.0000 0.0000 0.0000
# 2 8.5203 95.9438 -7.2341 0.0000 0.0000 0.0000
# 3 41.9627 -7.2341 58.0777 0.0000 0.0000 0.0000
# 4 0.0000 0.0000 0.0000 29.9454 0.0000 0.0000
# 5 0.0000 0.0000 0.0000 0.0000 44.5955 0.0000
# 6 0.0000 0.0000 0.0000 0.0000 0.0000 3.5097
#
#
#
# Elastic Compliance Matrix: (Units=1/GPa)
#
#
# Indices 1 2 3 4 5 6 
#
# 1 0.022276 -0.003222 -0.016496 0.000000 0.000000 0.000000
# 2 -0.003222 0.010988 0.003697 0.000000 0.000000 0.000000
# 3 -0.016496 0.003697 0.029598 0.000000 0.000000 0.000000
# 4 0.000000 0.000000 0.000000 0.033394 0.000000 0.000000
# 5 0.000000 0.000000 0.000000 0.000000 0.022424 0.000000
# 6 0.000000 0.000000 0.000000 0.000000 0.000000 0.284928
#
#
# Mechanical properties :
#
#
# Convention : Reuss Voigt Hill
#
# Bulk Modulus (GPa) = 32.44866 35.30205 33.87535
# Shear Modulus (GPa) = 11.21270 28.14157 19.67714
#
# Velocity S-wave (km/s) = 2.27804 3.60895 3.01778
# Velocity P-wave (km/s) = 4.68372 5.80556 5.27455
#
# Compressibility (1/GPa) = 0.03081792
#
# Stress axis : x y z
#
# Youngs Moduli (GPa) = 44.89168 91.01149 33.78641
#
# Poissons Ratio (x) = 0.29324 0.55735
# Poissons Ratio (y) = 0.14464 -0.12490
# Poissons Ratio (z) = 0.74054 -0.33643
#
# Static dielectric constant tensor:
#      x y z
#    x 3.821020 0.000000 0.000000 
#    y 0.000000 3.992560 0.000000 
#    z 0.000000 0.000000 3.702880 
# 
# 
# High freq. dielectric constant tensor:
#      x y z
#    x 1.841390 0.000000 0.000000 
#    y 0.000000 1.865490 0.000000 
#    z 0.000000 0.000000 1.836650 
# 
# From -- ./inp_files/21000.got.cif
#   From: 2010.03.12/outbox.cif.g09.slc.cpg/sg20_11_cif.got.tgz:21000.got - 2010.04.14 01:38:04.
