data_PCOD8159901
_publ_section_title
;
Structure prediction by ZEFSAII (Michael W. Deem and Ramdas Pophale) SiO2 
 PCOD8159901
Probable space group: C 2 2 21
;
_chemical_formula_sum "Si O2"
_cell_formula_units_Z 60
_cell_length_a 14.490057
_cell_length_b 17.978283
_cell_length_c 11.406094
_cell_angle_alpha 90.000000
_cell_angle_beta 90.000000
_cell_angle_gamma 90.000000
_cell_volume 2971.359864
_symmetry_space_group_name_H-M "C 2 2 21"
_symmetry_group_IT_number 20
_symmetry_cell_setting 'orthorhombic'
loop_
_space_group_symop_operation_xyz
x,y,z
-x,-y,1/2+z
x,-y,-z
-x,y,1/2-z
1/2+x,1/2+y,z
1/2-x,1/2-y,1/2+z
1/2+x,1/2-y,-z
1/2-x,1/2+y,1/2-z
loop_
_atom_site_type_symbol
_atom_site_label
_atom_site_fract_x
_atom_site_fract_y
_atom_site_fract_z
Si Si1 0.322392 0.105674 0.310300
Si Si2 0.580328 0.151220 0.841448
Si Si3 0.106448 0.160355 0.769514
Si Si4 0.343425 0.000000 0.000000
Si Si5 0.347413 0.787772 0.894012
Si Si6 0.764171 0.550792 0.770366
Si Si7 0.494640 0.104592 0.067374
Si Si8 0.681518 0.239613 0.026867
O O1 0.303812 0.150881 0.192330
O O2 0.432682 0.091895 0.327782
O O3 0.292395 0.158413 0.418753
O O4 0.268979 0.026908 0.302615
O O5 0.500000 0.175181 0.750000
O O6 0.661738 0.109672 0.774826
O O7 0.539990 0.093825 0.938964
O O8 0.622360 0.223888 0.908013
O O9 0.146573 0.207291 0.662413
O O10 0.160919 0.082606 0.763362
O O11 0.121298 0.208532 0.887657
O O12 0.000000 0.141345 0.750000
O O13 0.408128 0.050155 0.083485
O O14 0.280267 0.956215 0.090460
O O15 0.451264 0.811969 0.930560
O O16 0.277261 0.782249 0.002829
#
# Coordination Sequence:
#
# PCOD8159901 Si02
#       8
#     8   8   8   4   8   8   8   8
#     4  10  23  37  62  95 133 167 214 265 332 390
#     4  11  22  37  58  98 135 165 207 269 332 392
#     4  11  24  45  68  91 129 181 227 266 320 395
#     4  12  22  34  62  98 130 162 210 270 324 394
#     4  11  20  40  65  94 128 167 217 267 321 394
#     4  12  24  41  64  98 133 172 218 273 332 391
#     4  11  21  35  62  97 134 170 205 255 341 398
#     4  10  23  41  64  99 127 175 222 267 329 397
#
# _framework density 20.192775999999999
#
# number of rings (size 3 to 8) (size 9 to 14) (size 15 to 20)
#    0.000    1.067    4.000    4.400    0.000    1.600 
#    0.000    0.000    2.933    0.800    0.000    0.000 
#    0.000    0.000    0.000    0.000    0.000    0.000 
#
# Total GULP energy -371897.675670 kJ/mol
# GULP energy per Si atom -12396.589189 kJ/mol
# Density = 2.014682 g / cm^3
# Si number density = 20.192776 Si / 1000 Ang^3
#
#
#
# Elastic Constant Matrix: (Units=GPa)
#
#
# Indices 1 2 3 4 5 6 
#
# 1 129.4679 71.7907 48.7760 0.0000 0.0000 0.0000
# 2 71.7907 111.6085 41.0715 0.0000 0.0000 0.0000
# 3 48.7760 41.0715 81.1224 0.0000 0.0000 0.0000
# 4 0.0000 0.0000 0.0000 28.9328 0.0000 0.0000
# 5 0.0000 0.0000 0.0000 0.0000 37.0119 0.0000
# 6 0.0000 0.0000 0.0000 0.0000 0.0000 38.5968
#
#
#
# Elastic Compliance Matrix: (Units=1/GPa)
#
#
# Indices 1 2 3 4 5 6 
#
# 1 0.013207 -0.006849 -0.004473 0.000000 0.000000 0.000000
# 2 -0.006849 0.014563 -0.003255 0.000000 0.000000 0.000000
# 3 -0.004473 -0.003255 0.016665 0.000000 0.000000 0.000000
# 4 0.000000 0.000000 0.000000 0.034563 0.000000 0.000000
# 5 0.000000 0.000000 0.000000 0.000000 0.027018 0.000000
# 6 0.000000 0.000000 0.000000 0.000000 0.000000 0.025909
#
#
# Mechanical properties :
#
#
# Convention : Reuss Voigt Hill
#
# Bulk Modulus (GPa) = 65.44492 71.71947 68.58220
# Shear Modulus (GPa) = 30.08897 31.61233 30.85065
#
# Velocity S-wave (km/s) = 3.86435 3.96097 3.91296
# Velocity P-wave (km/s) = 7.23819 7.51755 7.37919
#
# Compressibility (1/GPa) = 0.01528002
#
# Stress axis : x y z
#
# Youngs Moduli (GPa) = 75.71697 68.66532 60.00691
#
# Poissons Ratio (x) = 0.47030 0.26843
# Poissons Ratio (y) = 0.51859 0.19533
# Poissons Ratio (z) = 0.33870 0.22352
#
# Static dielectric constant tensor:
#      x y z
#    x 3.562090 0.000000 0.000000 
#    y 0.000000 3.700650 0.000000 
#    z 0.000000 0.000000 3.846970 
# 
# 
# High freq. dielectric constant tensor:
#      x y z
#    x 1.772290 0.000000 0.000000 
#    y 0.000000 1.776000 0.000000 
#    z 0.000000 0.000000 1.800610 
# 
# From -- ./inp_files/15310.got.cif
#   From: 2010.03.12/outbox.cif.g09.slc.cpg/sg20_8_cif.got.tgz:15310.got - 2010.04.14 01:38:04.
