data_PCOD8159115
_publ_section_title
;
Structure prediction by ZEFSAII (Michael W. Deem and Ramdas Pophale) SiO2 
 PCOD8159115
Probable space group: C 2 2 21
;
_chemical_formula_sum "Si O2"
_cell_formula_units_Z 40
_cell_length_a 25.112431
_cell_length_b 8.385351
_cell_length_c 9.356831
_cell_angle_alpha 90.000000
_cell_angle_beta 90.000000
_cell_angle_gamma 90.000000
_cell_volume 1970.329176
_symmetry_space_group_name_H-M "C 2 2 21"
_symmetry_group_IT_number 20
_symmetry_cell_setting 'orthorhombic'
loop_
_space_group_symop_operation_xyz
x,y,z
-x,-y,1/2+z
x,-y,-z
-x,y,1/2-z
1/2+x,1/2+y,z
1/2-x,1/2-y,1/2+z
1/2+x,1/2-y,-z
1/2-x,1/2+y,1/2-z
loop_
_atom_site_type_symbol
_atom_site_label
_atom_site_fract_x
_atom_site_fract_y
_atom_site_fract_z
Si Si1 0.631388 0.567561 0.655946
Si Si2 0.213079 0.903237 0.853849
Si Si3 0.451827 0.411881 0.646363
Si Si4 0.832279 0.583369 0.147546
Si Si5 0.368639 0.864765 0.381889
O O1 0.618926 0.500000 0.500000
O O2 0.684369 0.490154 0.721653
O O3 0.583984 0.535328 0.765968
O O4 0.634680 0.755825 0.638669
O O5 0.272856 0.877900 0.794539
O O6 0.186199 0.734105 0.891170
O O7 0.208830 0.000000 0.000000
O O8 0.470422 0.500000 0.500000
O O9 0.500000 0.362602 0.750000
O O10 0.419432 0.251395 0.608378
O O11 0.867765 0.458570 0.233978
O O12 0.822392 0.500000 0.000000
O O13 0.371274 0.000000 0.500000
#
# Coordination Sequence:
#
# PCOD8159115 Si02
#       5
#     8   8   8   8   8
#     4  11  22  39  60  85 119 160 201 244 297 366
#     4  10  21  36  56  85 124 168 205 239 292 360
#     4  11  24  45  68  89 115 155 202 250 313 379
#     4  11  22  35  56  89 125 160 202 250 295 346
#     4  11  22  39  62  90 123 157 201 255 304 353
#
# _framework density 20.301175000000001
#
# number of rings (size 3 to 8) (size 9 to 14) (size 15 to 20)
#    0.000    1.200    0.000    9.000    0.000    6.400 
#    0.000    7.000    0.000    0.000    0.000    0.000 
#    0.000    0.000    0.000    0.000    0.000    0.000 
#
# Total GULP energy -247977.318192 kJ/mol
# GULP energy per Si atom -12398.865910 kJ/mol
# Density = 2.025497 g / cm^3
# Si number density = 20.301175 Si / 1000 Ang^3
#
#
#
# Elastic Constant Matrix: (Units=GPa)
#
#
# Indices 1 2 3 4 5 6 
#
# 1 56.9385 39.2374 22.2757 0.0000 0.0000 0.0000
# 2 39.2374 148.2510 36.5842 0.0000 0.0000 0.0000
# 3 22.2757 36.5842 110.2728 0.0000 0.0000 0.0000
# 4 0.0000 0.0000 0.0000 40.3593 0.0000 0.0000
# 5 0.0000 0.0000 0.0000 0.0000 30.1333 0.0000
# 6 0.0000 0.0000 0.0000 0.0000 0.0000 16.4588
#
#
#
# Elastic Compliance Matrix: (Units=1/GPa)
#
#
# Indices 1 2 3 4 5 6 
#
# 1 0.022229 -0.005201 -0.002765 0.000000 0.000000 0.000000
# 2 -0.005201 0.008564 -0.001790 0.000000 0.000000 0.000000
# 3 -0.002765 -0.001790 0.010221 0.000000 0.000000 0.000000
# 4 0.000000 0.000000 0.000000 0.024777 0.000000 0.000000
# 5 0.000000 0.000000 0.000000 0.000000 0.033186 0.000000
# 6 0.000000 0.000000 0.000000 0.000000 0.000000 0.060758
#
#
# Mechanical properties :
#
#
# Convention : Reuss Voigt Hill
#
# Bulk Modulus (GPa) = 46.51009 56.85076 51.68042
# Shear Modulus (GPa) = 26.82209 31.88128 29.35169
#
# Velocity S-wave (km/s) = 3.63879 3.96715 3.80651
# Velocity P-wave (km/s) = 6.37292 7.00348 6.69563
#
# Compressibility (1/GPa) = 0.02150071
#
# Stress axis : x y z
#
# Youngs Moduli (GPa) = 44.98726 116.77233 97.83833
#
# Poissons Ratio (x) = 0.60732 0.27051
# Poissons Ratio (y) = 0.23397 0.17518
# Poissons Ratio (z) = 0.12438 0.20908
#
# Static dielectric constant tensor:
#      x y z
#    x 3.742700 0.000000 0.000000 
#    y 0.000000 3.903150 0.000000 
#    z 0.000000 0.000000 3.792580 
# 
# 
# High freq. dielectric constant tensor:
#      x y z
#    x 1.777440 0.000000 0.000000 
#    y 0.000000 1.805740 0.000000 
#    z 0.000000 0.000000 1.808050 
# 
# From -- ./inp_files/6109.got.cif
#   From: 2010.03.12/outbox.cif.g09.slc.cpg/sg20_4_cif.got.tgz:6109.got - 2010.04.14 01:38:04.
