data_PCOD8159904
_publ_section_title
;
Structure prediction by ZEFSAII (Michael W. Deem and Ramdas Pophale) SiO2 
 PCOD8159904
Probable space group: C 2 2 21
;
_chemical_formula_sum "Si O2"
_cell_formula_units_Z 36
_cell_length_a 7.687850
_cell_length_b 7.074824
_cell_length_c 27.974617
_cell_angle_alpha 90.000000
_cell_angle_beta 90.000000
_cell_angle_gamma 90.000000
_cell_volume 1521.544613
_symmetry_space_group_name_H-M "C 2 2 21"
_symmetry_group_IT_number 20
_symmetry_cell_setting 'orthorhombic'
loop_
_space_group_symop_operation_xyz
x,y,z
-x,-y,1/2+z
x,-y,-z
-x,y,1/2-z
1/2+x,1/2+y,z
1/2-x,1/2-y,1/2+z
1/2+x,1/2-y,-z
1/2-x,1/2+y,1/2-z
loop_
_atom_site_type_symbol
_atom_site_label
_atom_site_fract_x
_atom_site_fract_y
_atom_site_fract_z
Si Si1 0.554598 0.638992 0.960427
Si Si2 0.999996 0.085190 0.852421
Si Si3 0.648364 0.345112 0.718359
Si Si4 0.111761 0.500000 0.500000
Si Si5 0.349132 0.065370 0.194459
O O1 0.480737 0.580779 0.909127
O O2 0.764490 0.612363 0.962267
O O3 0.509835 0.855818 0.971422
O O4 0.467431 0.500000 0.000000
O O5 0.833499 0.973991 0.829511
O O6 0.174526 0.974780 0.836681
O O7 0.987932 0.303127 0.833782
O O8 0.500000 0.447483 0.750000
O O9 0.817395 0.339573 0.752705
O O10 0.572274 0.141016 0.703436
#
# Coordination Sequence:
#
# PCOD8159904 Si02
#       5
#     8   8   8   4   8
#     4  10  25  45  72 101 141 180 234 294 351 421
#     4  11  24  42  66 102 131 180 233 281 350 410
#     4  10  23  38  62  96 141 182 222 283 335 412
#     4  10  24  46  74 100 140 176 228 288 356 406
#     4  11  23  40  66  97 138 178 230 277 343 410
#
# _framework density 23.660167999999999
#
# number of rings (size 3 to 8) (size 9 to 14) (size 15 to 20)
#    0.667    0.889    2.222    1.333    4.667    3.556 
#    0.000    0.000    0.000    0.000    0.000    0.000 
#    0.000    0.000    0.000    0.000    0.000    0.000 
#
# Total GULP energy -223013.967890 kJ/mol
# GULP energy per Si atom -12389.664883 kJ/mol
# Density = 2.360632 g / cm^3
# Si number density = 23.660168 Si / 1000 Ang^3
#
#
#
# Elastic Constant Matrix: (Units=GPa)
#
#
# Indices 1 2 3 4 5 6 
#
# 1 37.9592 21.3754 8.5894 0.0000 0.0000 0.0000
# 2 21.3754 136.0099 53.1709 0.0000 0.0000 0.0000
# 3 8.5894 53.1709 172.9400 0.0000 0.0000 0.0000
# 4 0.0000 0.0000 0.0000 39.3783 0.0000 0.0000
# 5 0.0000 0.0000 0.0000 0.0000 17.0349 0.0000
# 6 0.0000 0.0000 0.0000 0.0000 0.0000 40.9774
#
#
#
# Elastic Compliance Matrix: (Units=1/GPa)
#
#
# Indices 1 2 3 4 5 6 
#
# 1 0.028902 -0.004525 -0.000044 0.000000 0.000000 0.000000
# 2 -0.004525 0.009065 -0.002562 0.000000 0.000000 0.000000
# 3 -0.000044 -0.002562 0.006572 0.000000 0.000000 0.000000
# 4 0.000000 0.000000 0.000000 0.025395 0.000000 0.000000
# 5 0.000000 0.000000 0.000000 0.000000 0.058703 0.000000
# 6 0.000000 0.000000 0.000000 0.000000 0.000000 0.024404
#
#
# Mechanical properties :
#
#
# Convention : Reuss Voigt Hill
#
# Bulk Modulus (GPa) = 33.02891 57.02007 45.02449
# Shear Modulus (GPa) = 28.18542 37.06302 32.62422
#
# Velocity S-wave (km/s) = 3.45521 3.96216 3.71734
# Velocity P-wave (km/s) = 5.46882 6.71443 6.12338
#
# Compressibility (1/GPa) = 0.03027651
#
# Stress axis : x y z
#
# Youngs Moduli (GPa) = 34.59950 110.31087 152.15206
#
# Poissons Ratio (x) = 0.49916 0.00673
# Poissons Ratio (y) = 0.15656 0.38988
# Poissons Ratio (z) = 0.00153 0.28266
#
# Static dielectric constant tensor:
#      x y z
#    x 3.953350 0.000000 0.000000 
#    y 0.000000 4.226290 0.000000 
#    z 0.000000 0.000000 4.136010 
# 
# 
# High freq. dielectric constant tensor:
#      x y z
#    x 1.918640 0.000000 0.000000 
#    y 0.000000 1.946580 0.000000 
#    z 0.000000 0.000000 1.925210 
# 
# From -- ./inp_files/29029.got.cif
#   From: 2010.03.12/outbox.cif.g09.slc.cpg/sg20_15_cif.got.tgz:29029.got - 2010.04.14 01:38:04.
