data_PCOD8159788
_publ_section_title
;
Structure prediction by ZEFSAII (Michael W. Deem and Ramdas Pophale) SiO2 
 PCOD8159788
Probable space group: C 2 2 21
;
_chemical_formula_sum "Si O2"
_cell_formula_units_Z 60
_cell_length_a 10.105698
_cell_length_b 10.029401
_cell_length_c 28.408002
_cell_angle_alpha 90.000000
_cell_angle_beta 90.000000
_cell_angle_gamma 90.000000
_cell_volume 2879.267408
_symmetry_space_group_name_H-M "C 2 2 21"
_symmetry_group_IT_number 20
_symmetry_cell_setting 'orthorhombic'
loop_
_space_group_symop_operation_xyz
x,y,z
-x,-y,1/2+z
x,-y,-z
-x,y,1/2-z
1/2+x,1/2+y,z
1/2-x,1/2-y,1/2+z
1/2+x,1/2-y,-z
1/2-x,1/2+y,1/2-z
loop_
_atom_site_type_symbol
_atom_site_label
_atom_site_fract_x
_atom_site_fract_y
_atom_site_fract_z
Si Si1 0.317353 0.088960 0.418579
Si Si2 0.608461 0.423440 0.216218
Si Si3 0.957943 0.648537 0.324193
Si Si4 0.160164 0.688350 0.879062
Si Si5 0.866001 0.597381 0.724655
Si Si6 0.122340 0.323001 0.424599
Si Si7 0.496008 0.000000 0.000000
Si Si8 0.226955 0.548614 0.359563
O O1 0.396127 0.156499 0.375975
O O2 0.194023 0.181589 0.432355
O O3 0.269679 0.940829 0.402658
O O4 0.414035 0.079317 0.462948
O O5 0.500000 0.495231 0.250000
O O6 0.529843 0.295815 0.196052
O O7 0.741306 0.375371 0.242026
O O8 0.647149 0.522512 0.174157
O O9 0.870882 0.559866 0.288452
O O10 0.098642 0.573538 0.327298
O O11 0.154317 0.680444 0.822840
O O12 0.244505 0.820404 0.891323
O O13 0.013915 0.705124 0.898645
O O14 0.000000 0.646475 0.750000
O O15 0.096931 0.390864 0.475016
O O16 0.209964 0.421871 0.393067
#
# Coordination Sequence:
#
# PCOD8159788 Si02
#       8
#     8   8   8   8   8   8   4   8
#     4  10  22  45  70  96 133 171 218 278 341 412
#     4  12  26  39  63 105 135 184 238 284 336 408
#     4  11  22  43  67  90 138 183 221 284 350 387
#     4  10  24  40  65  95 130 179 222 274 336 393
#     4  11  21  40  63  90 132 183 231 279 325 397
#     4  11  22  46  70  99 132 174 219 273 346 418
#     4  10  22  42  70 106 128 170 218 278 344 418
#     4  12  23  44  67  95 135 180 226 280 344 399
#
# _framework density 20.838635
#
# number of rings (size 3 to 8) (size 9 to 14) (size 15 to 20)
#    0.000    1.067    6.667    1.200    1.867    5.867 
#    0.000    0.000    0.000    0.000    0.000    0.000 
#    0.000    0.000    0.000    0.000    0.000    0.000 
#
# Total GULP energy -372059.804288 kJ/mol
# GULP energy per Si atom -12401.993476 kJ/mol
# Density = 2.079120 g / cm^3
# Si number density = 20.838635 Si / 1000 Ang^3
#
#
#
# Elastic Constant Matrix: (Units=GPa)
#
#
# Indices 1 2 3 4 5 6 
#
# 1 75.9679 44.8649 21.2962 0.0000 0.0000 0.0000
# 2 44.8649 107.7510 23.4069 0.0000 0.0000 0.0000
# 3 21.2962 23.4069 89.4659 0.0000 0.0000 0.0000
# 4 0.0000 0.0000 0.0000 16.9296 0.0000 0.0000
# 5 0.0000 0.0000 0.0000 0.0000 25.5512 0.0000
# 6 0.0000 0.0000 0.0000 0.0000 0.0000 34.7042
#
#
#
# Elastic Compliance Matrix: (Units=1/GPa)
#
#
# Indices 1 2 3 4 5 6 
#
# 1 0.017951 -0.006941 -0.002457 0.000000 0.000000 0.000000
# 2 -0.006941 0.012523 -0.001624 0.000000 0.000000 0.000000
# 3 -0.002457 -0.001624 0.012187 0.000000 0.000000 0.000000
# 4 0.000000 0.000000 0.000000 0.059068 0.000000 0.000000
# 5 0.000000 0.000000 0.000000 0.000000 0.039137 0.000000
# 6 0.000000 0.000000 0.000000 0.000000 0.000000 0.028815
#
#
# Mechanical properties :
#
#
# Convention : Reuss Voigt Hill
#
# Bulk Modulus (GPa) = 48.50227 50.25785 49.38006
# Shear Modulus (GPa) = 25.17630 27.67812 26.42721
#
# Velocity S-wave (km/s) = 3.47962 3.64842 3.56502
# Velocity P-wave (km/s) = 6.28247 6.47441 6.37916
#
# Compressibility (1/GPa) = 0.02061759
#
# Stress axis : x y z
#
# Youngs Moduli (GPa) = 55.70626 79.85010 82.05253
#
# Poissons Ratio (x) = 0.55422 0.20162
# Poissons Ratio (y) = 0.38664 0.13328
# Poissons Ratio (z) = 0.13688 0.12970
#
# Static dielectric constant tensor:
#      x y z
#    x 3.653440 0.000000 0.000000 
#    y 0.000000 3.796700 0.000000 
#    z 0.000000 0.000000 3.872990 
# 
# 
# High freq. dielectric constant tensor:
#      x y z
#    x 1.807290 0.000000 0.000000 
#    y 0.000000 1.815800 0.000000 
#    z 0.000000 0.000000 1.817400 
# 
# From -- ./inp_files/30320.got.cif
#   From: 2010.03.12/outbox.cif.g09.slc.cpg/sg20_16_cif.got.tgz:30320.got - 2010.04.14 01:38:04.
