data_PCOD8159055
_publ_section_title
;
Structure prediction by ZEFSAII (Michael W. Deem and Ramdas Pophale) SiO2 
 PCOD8159055
Probable space group: C 2 2 21
;
_chemical_formula_sum "Si O2"
_cell_formula_units_Z 56
_cell_length_a 18.112382
_cell_length_b 13.463815
_cell_length_c 10.888619
_cell_angle_alpha 90.000000
_cell_angle_beta 90.000000
_cell_angle_gamma 90.000000
_cell_volume 2655.317798
_symmetry_space_group_name_H-M "C 2 2 21"
_symmetry_group_IT_number 20
_symmetry_cell_setting 'orthorhombic'
loop_
_space_group_symop_operation_xyz
x,y,z
-x,-y,1/2+z
x,-y,-z
-x,y,1/2-z
1/2+x,1/2+y,z
1/2-x,1/2-y,1/2+z
1/2+x,1/2-y,-z
1/2-x,1/2+y,1/2-z
loop_
_atom_site_type_symbol
_atom_site_label
_atom_site_fract_x
_atom_site_fract_y
_atom_site_fract_z
Si Si1 0.151888 0.327151 0.201963
Si Si2 0.676707 0.654049 0.653507
Si Si3 0.442601 0.014069 0.361739
Si Si4 0.419738 0.490038 0.726210
Si Si5 0.066088 0.171015 0.044110
Si Si6 0.420077 0.227386 0.306564
Si Si7 0.399595 0.308444 0.905338
O O1 0.237329 0.339731 0.173797
O O2 0.117952 0.433465 0.172778
O O3 0.119725 0.245066 0.113169
O O4 0.135849 0.290497 0.342374
O O5 0.645458 0.563327 0.735467
O O6 0.640395 0.756281 0.701149
O O7 0.654082 0.647589 0.510609
O O8 0.500000 0.010444 0.250000
O O9 0.402879 0.121446 0.368468
O O10 0.476620 0.000000 0.500000
O O11 0.500000 0.541020 0.750000
O O12 0.420848 0.443213 0.587716
O O13 0.410678 0.392201 0.805802
O O14 0.982513 0.214456 0.049478
O O15 0.087061 0.178555 0.900381
O O16 0.500000 0.224894 0.250000
#
# Coordination Sequence:
#
# PCOD8159055 Si02
#       7
#     8   8   8   8   8   8   8
#     4  11  25  40  67  95 135 176 217 274 343 397
#     4  12  25  40  63 100 139 172 210 276 336 406
#     4  11  24  42  70  98 128 175 232 283 327 397
#     4   9  21  40  67  96 121 167 217 267 319 393
#     4  10  20  43  70  91 124 172 225 275 317 391
#     4  11  23  40  67  98 127 171 225 278 325 385
#     4  10  22  43  69  94 128 174 229 270 323 393
#
# _framework density 21.089755
#
# number of rings (size 3 to 8) (size 9 to 14) (size 15 to 20)
#    0.000    1.429    2.857    3.000    2.000    4.000 
#    0.000    0.000    6.286    0.000    0.000    0.000 
#    0.000    0.000    0.000    0.000    0.000    0.000 
#
# Total GULP energy -346979.180908 kJ/mol
# GULP energy per Si atom -12392.113604 kJ/mol
# Density = 2.104175 g / cm^3
# Si number density = 21.089755 Si / 1000 Ang^3
#
#
#
# Elastic Constant Matrix: (Units=GPa)
#
#
# Indices 1 2 3 4 5 6 
#
# 1 144.0223 25.8029 30.4318 0.0000 0.0000 0.0000
# 2 25.8029 51.6017 23.7097 0.0000 0.0000 0.0000
# 3 30.4318 23.7097 89.4427 0.0000 0.0000 0.0000
# 4 0.0000 0.0000 0.0000 24.9088 0.0000 0.0000
# 5 0.0000 0.0000 0.0000 0.0000 25.5976 0.0000
# 6 0.0000 0.0000 0.0000 0.0000 0.0000 17.0651
#
#
#
# Elastic Compliance Matrix: (Units=1/GPa)
#
#
# Indices 1 2 3 4 5 6 
#
# 1 0.007891 -0.003088 -0.001866 0.000000 0.000000 0.000000
# 2 -0.003088 0.023276 -0.005119 0.000000 0.000000 0.000000
# 3 -0.001866 -0.005119 0.013172 0.000000 0.000000 0.000000
# 4 0.000000 0.000000 0.000000 0.040146 0.000000 0.000000
# 5 0.000000 0.000000 0.000000 0.000000 0.039066 0.000000
# 6 0.000000 0.000000 0.000000 0.000000 0.000000 0.058599
#
#
# Mechanical properties :
#
#
# Convention : Reuss Voigt Hill
#
# Bulk Modulus (GPa) = 41.33679 49.43950 45.38814
# Shear Modulus (GPa) = 23.76856 27.18912 25.47884
#
# Velocity S-wave (km/s) = 3.36075 3.59445 3.47956
# Velocity P-wave (km/s) = 5.89088 6.38123 6.14095
#
# Compressibility (1/GPa) = 0.02419153
#
# Stress axis : x y z
#
# Youngs Moduli (GPa) = 126.72675 42.96340 75.91695
#
# Poissons Ratio (x) = 0.13269 0.14167
# Poissons Ratio (y) = 0.39138 0.38863
# Poissons Ratio (z) = 0.23649 0.21994
#
# Static dielectric constant tensor:
#      x y z
#    x 3.638020 0.000000 0.000000 
#    y 0.000000 4.267060 0.000000 
#    z 0.000000 0.000000 4.296160 
# 
# 
# High freq. dielectric constant tensor:
#      x y z
#    x 1.801070 0.000000 0.000000 
#    y 0.000000 1.836950 0.000000 
#    z 0.000000 0.000000 1.847180 
# 
# From -- ./inp_files/15127.got.cif
#   From: 2010.03.12/outbox.cif.g09.slc.cpg/sg20_8_cif.got.tgz:15127.got - 2010.04.14 01:38:04.
