data_PCOD8159818
_publ_section_title
;
Structure prediction by ZEFSAII (Michael W. Deem and Ramdas Pophale) SiO2 
 PCOD8159818
Probable space group: C 2 2 21
;
_chemical_formula_sum "Si O2"
_cell_formula_units_Z 56
_cell_length_a 18.549036
_cell_length_b 15.204367
_cell_length_c 9.397460
_cell_angle_alpha 90.000000
_cell_angle_beta 90.000000
_cell_angle_gamma 90.000000
_cell_volume 2650.331351
_symmetry_space_group_name_H-M "C 2 2 21"
_symmetry_group_IT_number 20
_symmetry_cell_setting 'orthorhombic'
loop_
_space_group_symop_operation_xyz
x,y,z
-x,-y,1/2+z
x,-y,-z
-x,y,1/2-z
1/2+x,1/2+y,z
1/2-x,1/2-y,1/2+z
1/2+x,1/2-y,-z
1/2-x,1/2+y,1/2-z
loop_
_atom_site_type_symbol
_atom_site_label
_atom_site_fract_x
_atom_site_fract_y
_atom_site_fract_z
Si Si1 0.647044 0.000000 0.500000
Si Si2 0.582372 0.204686 0.078867
Si Si3 0.371056 0.500000 0.500000
Si Si4 0.780876 0.399393 0.479280
Si Si5 0.173532 0.220864 0.384781
Si Si6 0.079364 0.677790 0.400669
Si Si7 0.429467 0.343710 0.652213
Si Si8 0.745670 0.393548 0.163558
O O1 0.604916 0.079446 0.429559
O O2 0.693015 0.035210 0.631948
O O3 0.603773 0.213544 0.245133
O O4 0.504802 0.159045 0.077180
O O5 0.642950 0.150652 0.993466
O O6 0.567092 0.297223 0.001338
O O7 0.418027 0.447137 0.617131
O O8 0.326377 0.574002 0.585967
O O9 0.799526 0.500000 0.500000
O O10 0.718679 0.367533 0.586326
O O11 0.740547 0.383785 0.331083
O O12 0.110206 0.247548 0.494069
O O13 0.137510 0.202135 0.232938
O O14 0.233220 0.297611 0.394254
O O15 0.500000 0.333287 0.750000
#
# Coordination Sequence:
#
# PCOD8159818 Si02
#       8
#     4   8   4   8   8   8   8   8
#     4   9  20  42  68 100 145 174 226 276 347 406
#     4  11  24  43  69 100 140 179 236 271 345 412
#     4  11  26  46  72  96 143 176 234 288 351 410
#     4  12  25  39  67 107 137 173 229 285 338 409
#     4  11  24  43  70  96 141 177 229 277 349 414
#     4  10  23  43  68 100 137 191 223 280 336 418
#     4  12  25  50  69 100 133 188 233 290 345 408
#     4  10  22  43  69 102 133 182 219 282 349 409
#
# _framework density 21.129432000000001
#
# number of rings (size 3 to 8) (size 9 to 14) (size 15 to 20)
#    0.000    1.143    2.857    2.571    5.000    1.143 
#    6.429    0.000    0.000    0.000    0.000    0.000 
#    0.000    0.000    0.000    0.000    0.000    0.000 
#
# Total GULP energy -347031.971770 kJ/mol
# GULP energy per Si atom -12393.998992 kJ/mol
# Density = 2.108134 g / cm^3
# Si number density = 21.129432 Si / 1000 Ang^3
#
#
#
# Elastic Constant Matrix: (Units=GPa)
#
#
# Indices 1 2 3 4 5 6 
#
# 1 81.6758 40.8026 30.6771 0.0000 0.0000 0.0000
# 2 40.8026 104.1161 39.5265 0.0000 0.0000 0.0000
# 3 30.6771 39.5265 114.7854 0.0000 0.0000 0.0000
# 4 0.0000 0.0000 0.0000 36.8480 0.0000 0.0000
# 5 0.0000 0.0000 0.0000 0.0000 12.8087 0.0000
# 6 0.0000 0.0000 0.0000 0.0000 0.0000 18.6119
#
#
#
# Elastic Compliance Matrix: (Units=1/GPa)
#
#
# Indices 1 2 3 4 5 6 
#
# 1 0.015779 -0.005272 -0.002402 0.000000 0.000000 0.000000
# 2 -0.005272 0.012811 -0.003002 0.000000 0.000000 0.000000
# 3 -0.002402 -0.003002 0.010388 0.000000 0.000000 0.000000
# 4 0.000000 0.000000 0.000000 0.027138 0.000000 0.000000
# 5 0.000000 0.000000 0.000000 0.000000 0.078072 0.000000
# 6 0.000000 0.000000 0.000000 0.000000 0.000000 0.053729
#
#
# Mechanical properties :
#
#
# Convention : Reuss Voigt Hill
#
# Bulk Modulus (GPa) = 56.73647 58.06554 57.40101
# Shear Modulus (GPa) = 22.20797 26.29180 24.24988
#
# Velocity S-wave (km/s) = 3.24550 3.53132 3.39142
# Velocity P-wave (km/s) = 6.39957 6.64586 6.52388
#
# Compressibility (1/GPa) = 0.01762535
#
# Stress axis : x y z
#
# Youngs Moduli (GPa) = 63.37397 78.06054 96.26832
#
# Poissons Ratio (x) = 0.41154 0.23121
# Poissons Ratio (y) = 0.33411 0.28903
# Poissons Ratio (z) = 0.15220 0.23436
#
# Static dielectric constant tensor:
#      x y z
#    x 3.827950 0.000000 0.000000 
#    y 0.000000 3.769030 0.000000 
#    z 0.000000 0.000000 3.827790 
# 
# 
# High freq. dielectric constant tensor:
#      x y z
#    x 1.832130 0.000000 0.000000 
#    y 0.000000 1.829960 0.000000 
#    z 0.000000 0.000000 1.835810 
# 
# From -- ./inp_files/10243.got.cif
#   From: 2010.03.12/outbox.cif.g09.slc.cpg/sg20_6_cif.got.tgz:10243.got - 2010.04.14 01:38:04.
