data_PCOD8159821
_publ_section_title
;
Structure prediction by ZEFSAII (Michael W. Deem and Ramdas Pophale) SiO2 
 PCOD8159821
Probable space group: C 2 2 21
;
_chemical_formula_sum "Si O2"
_cell_formula_units_Z 64
_cell_length_a 8.633853
_cell_length_b 11.335259
_cell_length_c 30.945296
_cell_angle_alpha 90.000000
_cell_angle_beta 90.000000
_cell_angle_gamma 90.000000
_cell_volume 3028.522043
_symmetry_space_group_name_H-M "C 2 2 21"
_symmetry_group_IT_number 20
_symmetry_cell_setting 'orthorhombic'
loop_
_space_group_symop_operation_xyz
x,y,z
-x,-y,1/2+z
x,-y,-z
-x,y,1/2-z
1/2+x,1/2+y,z
1/2-x,1/2-y,1/2+z
1/2+x,1/2-y,-z
1/2-x,1/2+y,1/2-z
loop_
_atom_site_type_symbol
_atom_site_label
_atom_site_fract_x
_atom_site_fract_y
_atom_site_fract_z
Si Si1 0.951454 0.719937 0.703006
Si Si2 0.935560 0.932183 0.838708
Si Si3 0.063029 0.871788 0.986669
Si Si4 0.188057 0.130290 0.102931
Si Si5 0.588793 0.928915 0.374227
Si Si6 0.359018 0.699062 0.840944
Si Si7 0.716259 0.761705 0.443517
Si Si8 0.622627 0.866054 0.865379
O O1 0.766975 0.696443 0.697672
O O2 0.000000 0.674053 0.750000
O O3 0.972618 0.863276 0.699461
O O4 0.063528 0.653348 0.668089
O O5 0.760602 0.890155 0.832420
O O6 0.007381 0.877455 0.883109
O O7 0.944684 0.073279 0.841894
O O8 0.191992 0.879125 0.948497
O O9 0.905261 0.807624 0.973035
O O10 0.149458 0.813516 0.026604
O O11 0.006502 0.000000 0.000000
O O12 0.261875 0.257518 0.116535
O O13 0.269439 0.022959 0.129397
O O14 0.614595 0.857698 0.418125
O O15 0.435666 0.006087 0.380353
O O16 0.499607 0.791796 0.837114
O O17 0.818543 0.691719 0.409092
#
# Coordination Sequence:
#
# PCOD8159821 Si02
#       8
#     8   8   8   8   8   8   8   8
#     4  11  24  46  67 103 143 172 227 293 349 417
#     4  11  21  42  69  96 128 175 223 270 342 409
#     4  12  27  41  61 100 135 175 227 284 339 393
#     4  10  22  43  69  93 137 178 225 279 342 411
#     4  11  22  45  71  94 133 187 222 278 349 414
#     4  10  23  42  69  99 128 180 224 271 343 418
#     4  12  26  43  65  94 138 177 226 286 333 407
#     4  11  23  41  73  96 125 183 229 269 337 419
#
# _framework density 21.132418000000001
#
# number of rings (size 3 to 8) (size 9 to 14) (size 15 to 20)
#    0.000    1.000    5.000    1.500    3.500    1.000 
#    6.750    0.625    0.000    0.750    0.000    0.000 
#    0.000    0.000    0.000    0.000    0.000    0.000 
#
# Total GULP energy -396433.410409 kJ/mol
# GULP energy per Si atom -12388.544075 kJ/mol
# Density = 2.108432 g / cm^3
# Si number density = 21.132418 Si / 1000 Ang^3
#
#
#
# Elastic Constant Matrix: (Units=GPa)
#
#
# Indices 1 2 3 4 5 6 
#
# 1 79.6590 25.5386 7.7913 0.0000 0.0000 0.0000
# 2 25.5386 122.4688 23.6095 0.0000 0.0000 0.0000
# 3 7.7913 23.6095 67.3205 0.0000 0.0000 0.0000
# 4 0.0000 0.0000 0.0000 18.4663 0.0000 0.0000
# 5 0.0000 0.0000 0.0000 0.0000 25.2125 0.0000
# 6 0.0000 0.0000 0.0000 0.0000 0.0000 30.0435
#
#
#
# Elastic Compliance Matrix: (Units=1/GPa)
#
#
# Indices 1 2 3 4 5 6 
#
# 1 0.013477 -0.002692 -0.000616 0.000000 0.000000 0.000000
# 2 -0.002692 0.009295 -0.002948 0.000000 0.000000 0.000000
# 3 -0.000616 -0.002948 0.015960 0.000000 0.000000 0.000000
# 4 0.000000 0.000000 0.000000 0.054153 0.000000 0.000000
# 5 0.000000 0.000000 0.000000 0.000000 0.039663 0.000000
# 6 0.000000 0.000000 0.000000 0.000000 0.000000 0.033285
#
#
# Mechanical properties :
#
#
# Convention : Reuss Voigt Hill
#
# Bulk Modulus (GPa) = 38.13894 42.59191 40.36542
# Shear Modulus (GPa) = 26.72609 28.91171 27.81890
#
# Velocity S-wave (km/s) = 3.56011 3.70283 3.63217
# Velocity P-wave (km/s) = 5.91490 6.20320 6.06076
#
# Compressibility (1/GPa) = 0.02621992
#
# Stress axis : x y z
#
# Youngs Moduli (GPa) = 74.20234 107.58479 62.65843
#
# Poissons Ratio (x) = 0.28957 0.03858
# Poissons Ratio (y) = 0.19972 0.18473
# Poissons Ratio (z) = 0.04569 0.31719
#
# Static dielectric constant tensor:
#      x y z
#    x 4.079510 0.000000 0.000000 
#    y 0.000000 4.074380 0.000000 
#    z 0.000000 0.000000 3.530530 
# 
# 
# High freq. dielectric constant tensor:
#      x y z
#    x 1.847140 0.000000 0.000000 
#    y 0.000000 1.844220 0.000000 
#    z 0.000000 0.000000 1.793170 
# 
# From -- ./inp_files/31054.got.cif
#   From: 2010.03.12/outbox.cif.g09.slc.cpg/sg20_16_cif.got.tgz:31054.got - 2010.04.14 01:38:04.
