data_PCOD8159269
_publ_section_title
;
Structure prediction by ZEFSAII (Michael W. Deem and Ramdas Pophale) SiO2 
 PCOD8159269
Probable space group: C 2 2 21
;
_chemical_formula_sum "Si O2"
_cell_formula_units_Z 60
_cell_length_a 9.089961
_cell_length_b 17.056337
_cell_length_c 20.218224
_cell_angle_alpha 90.000000
_cell_angle_beta 90.000000
_cell_angle_gamma 90.000000
_cell_volume 3134.662525
_symmetry_space_group_name_H-M "C 2 2 21"
_symmetry_group_IT_number 20
_symmetry_cell_setting 'orthorhombic'
loop_
_space_group_symop_operation_xyz
x,y,z
-x,-y,1/2+z
x,-y,-z
-x,y,1/2-z
1/2+x,1/2+y,z
1/2-x,1/2-y,1/2+z
1/2+x,1/2-y,-z
1/2-x,1/2+y,1/2-z
loop_
_atom_site_type_symbol
_atom_site_label
_atom_site_fract_x
_atom_site_fract_y
_atom_site_fract_z
Si Si1 0.506345 0.016724 0.826811
Si Si2 0.011418 0.795420 0.172416
Si Si3 0.419742 0.500000 0.000000
Si Si4 0.648931 0.376806 0.977083
Si Si5 0.554552 0.795757 0.034884
Si Si6 0.704911 0.861869 0.389646
Si Si7 0.227941 0.101490 0.608429
Si Si8 0.061570 0.361273 0.596994
O O1 0.500000 0.996175 0.750000
O O2 0.366415 0.069555 0.846066
O O3 0.656122 0.063193 0.841519
O O4 0.506247 0.936244 0.867228
O O5 0.912702 0.868203 0.148355
O O6 0.955264 0.714350 0.142431
O O7 0.000000 0.787316 0.250000
O O8 0.179964 0.812677 0.153521
O O9 0.519529 0.436996 0.960966
O O10 0.317429 0.537230 0.944715
O O11 0.575427 0.292375 0.989276
O O12 0.765240 0.375167 0.917319
O O13 0.721329 0.402966 0.046581
O O14 0.417853 0.800121 0.085464
O O15 0.702141 0.824677 0.070292
O O16 0.524338 0.850612 0.971788
#
# Coordination Sequence:
#
# PCOD8159269 Si02
#       8
#     8   8   4   8   8   8   8   8
#     4  11  24  43  61  87 129 168 206 246 296 371
#     4  12  23  40  62  87 122 165 210 242 290 375
#     4  12  22  34  64  94 124 142 202 256 322 350
#     4  11  21  38  62  94 124 152 191 271 310 361
#     4  10  21  39  64  89 123 149 198 259 312 356
#     4  10  22  39  63  88 118 163 198 245 313 357
#     4  11  23  40  61  93 118 160 199 252 304 361
#     4  11  22  38  65  90 121 156 206 249 315 352
#
# _framework density 19.140816999999998
#
# number of rings (size 3 to 8) (size 9 to 14) (size 15 to 20)
#    0.000    1.067    4.000    2.800    1.867    4.800 
#    0.000    0.000    0.000    1.600    0.000    0.000 
#    0.000    0.000    0.000    0.000    0.000    0.000 
#
# Total GULP energy -372164.796900 kJ/mol
# GULP energy per Si atom -12405.493230 kJ/mol
# Density = 1.909725 g / cm^3
# Si number density = 19.140817 Si / 1000 Ang^3
#
#
#
# Elastic Constant Matrix: (Units=GPa)
#
#
# Indices 1 2 3 4 5 6 
#
# 1 97.6821 36.1631 42.2786 0.0000 0.0000 0.0000
# 2 36.1631 99.4224 35.7352 0.0000 0.0000 0.0000
# 3 42.2786 35.7352 109.9776 0.0000 0.0000 0.0000
# 4 0.0000 0.0000 0.0000 28.5819 0.0000 0.0000
# 5 0.0000 0.0000 0.0000 0.0000 24.8771 0.0000
# 6 0.0000 0.0000 0.0000 0.0000 0.0000 21.5705
#
#
#
# Elastic Compliance Matrix: (Units=1/GPa)
#
#
# Indices 1 2 3 4 5 6 
#
# 1 0.013210 -0.003374 -0.003982 0.000000 0.000000 0.000000
# 2 -0.003374 0.012250 -0.002683 0.000000 0.000000 0.000000
# 3 -0.003982 -0.002683 0.011495 0.000000 0.000000 0.000000
# 4 0.000000 0.000000 0.000000 0.034987 0.000000 0.000000
# 5 0.000000 0.000000 0.000000 0.000000 0.040198 0.000000
# 6 0.000000 0.000000 0.000000 0.000000 0.000000 0.046360
#
#
# Mechanical properties :
#
#
# Convention : Reuss Voigt Hill
#
# Bulk Modulus (GPa) = 59.25260 59.49287 59.37273
# Shear Modulus (GPa) = 27.14399 27.86625 27.50512
#
# Velocity S-wave (km/s) = 3.76988 3.81971 3.79487
# Velocity P-wave (km/s) = 7.06914 7.11356 7.09138
#
# Compressibility (1/GPa) = 0.01687690
#
# Stress axis : x y z
#
# Youngs Moduli (GPa) = 75.70187 81.63504 86.99060
#
# Poissons Ratio (x) = 0.27540 0.34640
# Poissons Ratio (y) = 0.25538 0.23343
# Poissons Ratio (z) = 0.30145 0.21906
#
# Static dielectric constant tensor:
#      x y z
#    x 3.703000 0.000000 0.000000 
#    y 0.000000 3.440790 0.000000 
#    z 0.000000 0.000000 3.422700 
# 
# 
# High freq. dielectric constant tensor:
#      x y z
#    x 1.758000 0.000000 0.000000 
#    y 0.000000 1.748470 0.000000 
#    z 0.000000 0.000000 1.735220 
# 
# From -- ./inp_files/23785.got.cif
#   From: 2010.03.12/outbox.cif.g09.slc.cpg/sg20_12_cif.got.tgz:23785.got - 2010.04.14 01:38:04.
