data_PCOD8159774
_publ_section_title
;
Structure prediction by ZEFSAII (Michael W. Deem and Ramdas Pophale) SiO2 
 PCOD8159774
Probable space group: C 2 2 21
;
_chemical_formula_sum "Si O2"
_cell_formula_units_Z 60
_cell_length_a 29.088388
_cell_length_b 8.618082
_cell_length_c 11.367347
_cell_angle_alpha 90.000000
_cell_angle_beta 90.000000
_cell_angle_gamma 90.000000
_cell_volume 2849.636035
_symmetry_space_group_name_H-M "C 2 2 21"
_symmetry_group_IT_number 20
_symmetry_cell_setting 'orthorhombic'
loop_
_space_group_symop_operation_xyz
x,y,z
-x,-y,1/2+z
x,-y,-z
-x,y,1/2-z
1/2+x,1/2+y,z
1/2-x,1/2-y,1/2+z
1/2+x,1/2-y,-z
1/2-x,1/2+y,1/2-z
loop_
_atom_site_type_symbol
_atom_site_label
_atom_site_fract_x
_atom_site_fract_y
_atom_site_fract_z
Si Si1 0.889508 0.250784 0.315612
Si Si2 0.218324 0.675519 0.240962
Si Si3 0.000000 0.779784 0.250000
Si Si4 0.555939 0.021979 0.121436
Si Si5 0.407747 0.425193 0.213211
Si Si6 0.306109 0.843097 0.170197
Si Si7 0.172393 0.838594 0.445985
Si Si8 0.134950 0.732371 0.081101
O O1 0.936307 0.357496 0.312671
O O2 0.848971 0.345643 0.256095
O O3 0.871433 0.205353 0.446973
O O4 0.901403 0.108238 0.230249
O O5 0.270522 0.706970 0.203815
O O6 0.216115 0.512522 0.311463
O O7 0.203988 0.807209 0.333594
O O8 0.187229 0.695391 0.122559
O O9 0.970974 0.661914 0.325069
O O10 0.961784 0.888085 0.187789
O O11 0.608424 0.071067 0.094722
O O12 0.528604 0.000000 0.000000
O O13 0.380124 0.359514 0.100367
O O14 0.389056 0.356807 0.334709
O O15 0.323755 0.804945 0.037715
O O16 0.190079 0.000000 0.500000
#
# Coordination Sequence:
#
# PCOD8159774 Si02
#       8
#     8   8   4   8   8   8   8   8
#     4  11  21  39  68  95 128 170 220 265 335 391
#     4  11  25  42  64  98 135 180 226 277 326 388
#     4  10  22  44  66  94 130 164 218 266 340 408
#     4   9  19  40  64  95 123 165 215 270 324 401
#     4  10  22  42  67  94 129 174 211 279 335 395
#     4  12  25  41  65  98 136 178 228 271 330 400
#     4  11  23  46  64  93 140 177 224 275 337 400
#     4   9  20  40  65  89 129 171 213 265 331 380
#
# _framework density 21.055319000000001
#
# number of rings (size 3 to 8) (size 9 to 14) (size 15 to 20)
#    0.000    1.600    2.667    1.600    3.733    0.533 
#    2.400    4.000    0.000    0.000    0.000    0.000 
#    0.000    0.000    0.000    0.000    0.000    0.000 
#
# Total GULP energy -371643.942832 kJ/mol
# GULP energy per Si atom -12388.131428 kJ/mol
# Density = 2.100740 g / cm^3
# Si number density = 21.055319 Si / 1000 Ang^3
#
#
#
# Elastic Constant Matrix: (Units=GPa)
#
#
# Indices 1 2 3 4 5 6 
#
# 1 82.0939 31.4925 39.6070 0.0000 0.0000 0.0000
# 2 31.4925 96.6456 24.4917 0.0000 0.0000 0.0000
# 3 39.6070 24.4917 91.6884 0.0000 0.0000 0.0000
# 4 0.0000 0.0000 0.0000 38.5099 0.0000 0.0000
# 5 0.0000 0.0000 0.0000 0.0000 -0.1706 0.0000
# 6 0.0000 0.0000 0.0000 0.0000 0.0000 30.0931
#
#
#
# Elastic Compliance Matrix: (Units=1/GPa)
#
#
# Indices 1 2 3 4 5 6 
#
# 1 0.016630 -0.003860 -0.006153 0.000000 0.000000 0.000000
# 2 -0.003860 0.011994 -0.001537 0.000000 0.000000 0.000000
# 3 -0.006153 -0.001537 0.013975 0.000000 0.000000 0.000000
# 4 0.000000 0.000000 0.000000 0.025967 0.000000 0.000000
# 5 0.000000 0.000000 0.000000 0.000000 -5.860032 0.000000
# 6 0.000000 0.000000 0.000000 0.000000 0.000000 0.033230
#
#
# Mechanical properties :
#
#
# Convention : Reuss Voigt Hill
#
# Bulk Modulus (GPa) = 51.27956 51.29003 51.28479
# Shear Modulus (GPa) = -0.87281 25.34225 12.23472
#
# Velocity S-wave (km/s) = -0.64454 3.47306 2.41317
# Velocity P-wave (km/s) = 4.88402 6.36360 5.67226
#
# Compressibility (1/GPa) = 0.01950095
#
# Stress axis : x y z
#
# Youngs Moduli (GPa) = 60.13091 83.37353 71.55731
#
# Poissons Ratio (x) = 0.32181 0.44028
# Poissons Ratio (y) = 0.23210 0.10995
# Poissons Ratio (z) = 0.36998 0.12811
#
# Static dielectric constant tensor:
#      x y z
#    x 2.612010 0.000000 0.000000 
#    y 0.000000 3.939710 0.000000 
#    z 0.000000 0.000000 3.811330 
# 
# 
# High freq. dielectric constant tensor:
#      x y z
#    x 1.809200 0.000000 0.000000 
#    y 0.000000 1.837340 0.000000 
#    z 0.000000 0.000000 1.821930 
# 
# From -- ./inp_files/17069.got.cif
#   From: 2010.03.12/outbox.cif.g09.slc.cpg/sg20_9_cif.got.tgz:17069.got - 2010.04.14 01:38:04.
