data_PCOD8159886
_publ_section_title
;
Structure prediction by ZEFSAII (Michael W. Deem and Ramdas Pophale) SiO2 
 PCOD8159886
Probable space group: C 2 2 21
;
_chemical_formula_sum "Si O2"
_cell_formula_units_Z 32
_cell_length_a 16.185496
_cell_length_b 7.650054
_cell_length_c 10.881686
_cell_angle_alpha 90.000000
_cell_angle_beta 90.000000
_cell_angle_gamma 90.000000
_cell_volume 1347.369473
_symmetry_space_group_name_H-M "C 2 2 21"
_symmetry_group_IT_number 20
_symmetry_cell_setting 'orthorhombic'
loop_
_space_group_symop_operation_xyz
x,y,z
-x,-y,1/2+z
x,-y,-z
-x,y,1/2-z
1/2+x,1/2+y,z
1/2-x,1/2-y,1/2+z
1/2+x,1/2-y,-z
1/2-x,1/2+y,1/2-z
loop_
_atom_site_type_symbol
_atom_site_label
_atom_site_fract_x
_atom_site_fract_y
_atom_site_fract_z
Si Si1 0.507449 0.684833 0.881199
Si Si2 0.921677 0.500000 0.500000
Si Si3 0.649885 0.500000 0.000000
Si Si4 0.661896 0.493636 0.634750
Si Si5 0.691239 0.791218 0.172691
O O1 0.500000 0.776916 0.750000
O O2 0.429196 0.561226 0.896373
O O3 0.589876 0.565039 0.888948
O O4 0.516290 0.838436 0.979312
O O5 0.868336 0.553153 0.621459
O O6 0.704496 0.652824 0.060190
O O7 0.706235 0.500000 0.500000
O O8 0.657582 0.305539 0.703835
O O9 0.720676 0.625495 0.712769
#
# Coordination Sequence:
#
# PCOD8159886 Si02
#       5
#     8   4   4   8   8
#     4  11  23  44  68 104 135 184 231 294 347 417
#     4  10  26  48  72  98 146 188 238 290 366 414
#     4  10  22  46  70  94 148 182 224 298 356 406
#     4  12  27  44  71 107 142 183 241 290 355 425
#     4  11  26  45  69 104 142 188 232 294 354 426
#
# _framework density 23.749984000000001
#
# number of rings (size 3 to 8) (size 9 to 14) (size 15 to 20)
#    0.000    1.000    5.000    0.000    7.000    3.000 
#    0.000    0.000    0.000    0.000    0.000    0.000 
#    0.000    0.000    0.000    0.000    0.000    0.000 
#
# Total GULP energy -198245.086717 kJ/mol
# GULP energy per Si atom -12390.317920 kJ/mol
# Density = 2.369593 g / cm^3
# Si number density = 23.749984 Si / 1000 Ang^3
#
#
#
# Elastic Constant Matrix: (Units=GPa)
#
#
# Indices 1 2 3 4 5 6 
#
# 1 94.8657 42.2371 20.3949 0.0000 0.0000 0.0000
# 2 42.2371 114.5274 31.4701 0.0000 0.0000 0.0000
# 3 20.3949 31.4701 96.8682 0.0000 0.0000 0.0000
# 4 0.0000 0.0000 0.0000 51.0476 0.0000 0.0000
# 5 0.0000 0.0000 0.0000 0.0000 19.5929 0.0000
# 6 0.0000 0.0000 0.0000 0.0000 0.0000 31.4294
#
#
#
# Elastic Compliance Matrix: (Units=1/GPa)
#
#
# Indices 1 2 3 4 5 6 
#
# 1 0.012753 -0.004354 -0.001270 0.000000 0.000000 0.000000
# 2 -0.004354 0.011074 -0.002681 0.000000 0.000000 0.000000
# 3 -0.001270 -0.002681 0.011462 0.000000 0.000000 0.000000
# 4 0.000000 0.000000 0.000000 0.019590 0.000000 0.000000
# 5 0.000000 0.000000 0.000000 0.000000 0.051039 0.000000
# 6 0.000000 0.000000 0.000000 0.000000 0.000000 0.031817
#
#
# Mechanical properties :
#
#
# Convention : Reuss Voigt Hill
#
# Bulk Modulus (GPa) = 53.54005 54.94061 54.24033
# Shear Modulus (GPa) = 31.13878 34.55792 32.84835
#
# Velocity S-wave (km/s) = 3.62485 3.81868 3.72303
# Velocity P-wave (km/s) = 6.33337 6.52887 6.43186
#
# Compressibility (1/GPa) = 0.01867761
#
# Stress axis : x y z
#
# Youngs Moduli (GPa) = 78.41322 90.30170 87.24657
#
# Poissons Ratio (x) = 0.39318 0.11085
# Poissons Ratio (y) = 0.34142 0.23390
# Poissons Ratio (z) = 0.09962 0.24209
#
# Static dielectric constant tensor:
#      x y z
#    x 3.944820 0.000000 0.000000 
#    y 0.000000 4.217430 0.000000 
#    z 0.000000 0.000000 4.712740 
# 
# 
# High freq. dielectric constant tensor:
#      x y z
#    x 1.927540 0.000000 0.000000 
#    y 0.000000 1.937590 0.000000 
#    z 0.000000 0.000000 1.949700 
# 
# From -- ./inp_files/12509.got.cif
#   From: 2010.03.12/outbox.cif.g09.slc.cpg/sg20_7_cif.got.tgz:12509.got - 2010.04.14 01:38:04.
