data_PCOD8159277
_publ_section_title
;
Structure prediction by ZEFSAII (Michael W. Deem and Ramdas Pophale) SiO2 
 PCOD8159277
Probable space group: C 2 2 21
;
_chemical_formula_sum "Si O2"
_cell_formula_units_Z 28
_cell_length_a 6.951968
_cell_length_b 21.527843
_cell_length_c 7.784961
_cell_angle_alpha 90.000000
_cell_angle_beta 90.000000
_cell_angle_gamma 90.000000
_cell_volume 1165.104080
_symmetry_space_group_name_H-M "C 2 2 21"
_symmetry_group_IT_number 20
_symmetry_cell_setting 'orthorhombic'
loop_
_space_group_symop_operation_xyz
x,y,z
-x,-y,1/2+z
x,-y,-z
-x,y,1/2-z
1/2+x,1/2+y,z
1/2-x,1/2-y,1/2+z
1/2+x,1/2-y,-z
1/2-x,1/2+y,1/2-z
loop_
_atom_site_type_symbol
_atom_site_label
_atom_site_fract_x
_atom_site_fract_y
_atom_site_fract_z
Si Si1 0.868301 0.936419 0.912939
Si Si2 0.212312 0.178249 0.629178
Si Si3 0.360180 0.188823 0.984142
Si Si4 0.500000 0.900648 0.750000
O O1 0.641130 0.943042 0.863733
O O2 0.000000 0.923146 0.750000
O O3 0.897752 0.880156 0.047012
O O4 0.936671 0.000000 0.000000
O O5 0.191025 0.179190 0.839140
O O6 0.436606 0.172498 0.597137
O O7 0.131612 0.240797 0.546700
O O8 0.344279 0.141904 0.144990
#
# Coordination Sequence:
#
# PCOD8159277 Si02
#       4
#     8   8   8   4
#     4  11  27  47  67  98 137 186 236 287 345 413
#     4  10  22  39  68  99 141 175 228 285 348 419
#     4  10  21  39  65 107 132 180 222 287 362 403
#     4  10  24  46  70  98 140 172 236 290 346 414
#
# _framework density 24.032187
#
# number of rings (size 3 to 8) (size 9 to 14) (size 15 to 20)
#    0.000    1.714    0.000    3.429    8.000    8.000 
#    2.571    0.000    0.000    0.000    0.000    0.000 
#    0.000    0.000    0.000    0.000    0.000    0.000 
#
# Total GULP energy -173552.489317 kJ/mol
# GULP energy per Si atom -12396.606380 kJ/mol
# Density = 2.397749 g / cm^3
# Si number density = 24.032187 Si / 1000 Ang^3
#
#
#
# Elastic Constant Matrix: (Units=GPa)
#
#
# Indices 1 2 3 4 5 6 
#
# 1 37.6493 46.5107 44.4799 0.0000 0.0000 0.0000
# 2 46.5107 128.5928 71.4878 0.0000 0.0000 0.0000
# 3 44.4799 71.4878 162.9793 0.0000 0.0000 0.0000
# 4 0.0000 0.0000 0.0000 35.1409 0.0000 0.0000
# 5 0.0000 0.0000 0.0000 0.0000 48.2605 0.0000
# 6 0.0000 0.0000 0.0000 0.0000 0.0000 -4.7036
#
#
#
# Elastic Compliance Matrix: (Units=1/GPa)
#
#
# Indices 1 2 3 4 5 6 
#
# 1 0.055517 -0.015416 -0.008390 0.000000 0.000000 0.000000
# 2 -0.015416 0.014565 -0.002181 0.000000 0.000000 0.000000
# 3 -0.008390 -0.002181 0.009382 0.000000 0.000000 0.000000
# 4 0.000000 0.000000 0.000000 0.028457 0.000000 0.000000
# 5 0.000000 0.000000 0.000000 0.000000 0.020721 0.000000
# 6 0.000000 0.000000 0.000000 0.000000 0.000000 -0.212604
#
#
# Mechanical properties :
#
#
# Convention : Reuss Voigt Hill
#
# Bulk Modulus (GPa) = 36.37639 72.68648 54.53144
# Shear Modulus (GPa) = -219.06288 26.85577 -96.10356
#
# Velocity S-wave (km/s) = -9.55782 3.34652 -6.33059
# Velocity P-wave (km/s) = 10.32633 6.72632 5.54029
#
# Compressibility (1/GPa) = 0.02749036
#
# Stress axis : x y z
#
# Youngs Moduli (GPa) = 18.01244 68.65792 106.58425
#
# Poissons Ratio (x) = 1.05843 0.89421
# Poissons Ratio (y) = 0.27768 0.23250
# Poissons Ratio (z) = 0.15112 0.14977
#
# Static dielectric constant tensor:
#      x y z
#    x 4.247320 0.000000 0.000000 
#    y 0.000000 4.004070 0.000000 
#    z 0.000000 0.000000 82.156760 
# 
# 
# High freq. dielectric constant tensor:
#      x y z
#    x 1.966870 0.000000 0.000000 
#    y 0.000000 1.933800 0.000000 
#    z 0.000000 0.000000 1.970520 
# 
# From -- ./inp_files/5659.got.cif
#   From: 2010.03.12/outbox.cif.g09.slc.cpg/sg20_3_cif.got.tgz:5659.got - 2010.04.14 01:38:04.
