data_PCOD8159808
_publ_section_title
;
Structure prediction by ZEFSAII (Michael W. Deem and Ramdas Pophale) SiO2 
 PCOD8159808
Probable space group: C 2 2 21
;
_chemical_formula_sum "Si O2"
_cell_formula_units_Z 64
_cell_length_a 10.440553
_cell_length_b 15.817173
_cell_length_c 17.701661
_cell_angle_alpha 90.000000
_cell_angle_beta 90.000000
_cell_angle_gamma 90.000000
_cell_volume 2923.252882
_symmetry_space_group_name_H-M "C 2 2 21"
_symmetry_group_IT_number 20
_symmetry_cell_setting 'orthorhombic'
loop_
_space_group_symop_operation_xyz
x,y,z
-x,-y,1/2+z
x,-y,-z
-x,y,1/2-z
1/2+x,1/2+y,z
1/2-x,1/2-y,1/2+z
1/2+x,1/2-y,-z
1/2-x,1/2+y,1/2-z
loop_
_atom_site_type_symbol
_atom_site_label
_atom_site_fract_x
_atom_site_fract_y
_atom_site_fract_z
Si Si1 0.647008 0.997794 0.819856
Si Si2 0.993165 0.365295 0.093624
Si Si3 0.726284 0.438877 0.070403
Si Si4 0.954704 0.183327 0.628648
Si Si5 0.103972 0.228070 0.191139
Si Si6 0.806247 0.580956 0.167164
Si Si7 0.186505 0.855595 0.282708
Si Si8 0.553560 0.130442 0.075311
O O1 0.619704 0.940020 0.745431
O O2 0.660865 0.930850 0.888216
O O3 0.533751 0.063846 0.843868
O O4 0.778869 0.047959 0.804948
O O5 0.029220 0.270187 0.120063
O O6 0.842269 0.371662 0.077413
O O7 0.065434 0.381017 0.014392
O O8 0.594349 0.384975 0.066757
O O9 0.728483 0.497367 0.144320
O O10 0.739450 0.500000 0.000000
O O11 0.888888 0.153586 0.705771
O O12 0.914043 0.275011 0.600913
O O13 0.106556 0.180278 0.645160
O O14 0.201906 0.154978 0.169231
O O15 0.183482 0.303677 0.229427
O O16 0.000000 0.192180 0.250000
O O17 0.913095 0.603844 0.105102
#
# Coordination Sequence:
#
# PCOD8159808 Si02
#       8
#     8   8   8   8   8   8   8   8
#     4  11  23  41  71 100 135 183 234 296 340 423
#     4  11  25  43  69 104 138 182 231 291 351 422
#     4  12  24  44  70  99 143 185 234 277 360 420
#     4  11  24  42  69  97 138 185 219 298 348 417
#     4  11  25  43  70 102 136 176 233 296 344 411
#     4  12  24  42  68 102 135 177 233 294 338 421
#     4  10  22  43  66 101 137 174 237 283 357 401
#     4  12  24  42  70 102 137 178 238 280 351 425
#
# _framework density 21.893419000000002
#
# number of rings (size 3 to 8) (size 9 to 14) (size 15 to 20)
#    0.000    0.750    5.000    2.250    5.250    1.000 
#    0.000    2.500    2.750    0.000    0.000    0.000 
#    0.000    0.000    0.000    0.000    0.000    0.000 
#
# Total GULP energy -396625.375883 kJ/mol
# GULP energy per Si atom -12394.542996 kJ/mol
# Density = 2.184359 g / cm^3
# Si number density = 21.893419 Si / 1000 Ang^3
#
#
#
# Elastic Constant Matrix: (Units=GPa)
#
#
# Indices 1 2 3 4 5 6 
#
# 1 67.5370 31.9667 20.2551 0.0000 0.0000 0.0000
# 2 31.9667 119.3047 27.6485 0.0000 0.0000 0.0000
# 3 20.2551 27.6485 87.5478 0.0000 0.0000 0.0000
# 4 0.0000 0.0000 0.0000 20.2542 0.0000 0.0000
# 5 0.0000 0.0000 0.0000 0.0000 22.7283 0.0000
# 6 0.0000 0.0000 0.0000 0.0000 0.0000 41.2280
#
#
#
# Elastic Compliance Matrix: (Units=1/GPa)
#
#
# Indices 1 2 3 4 5 6 
#
# 1 0.017563 -0.004061 -0.002781 0.000000 0.000000 0.000000
# 2 -0.004061 0.009983 -0.002213 0.000000 0.000000 0.000000
# 3 -0.002781 -0.002213 0.012765 0.000000 0.000000 0.000000
# 4 0.000000 0.000000 0.000000 0.049373 0.000000 0.000000
# 5 0.000000 0.000000 0.000000 0.000000 0.043998 0.000000
# 6 0.000000 0.000000 0.000000 0.000000 0.000000 0.024255
#
#
# Mechanical properties :
#
#
# Convention : Reuss Voigt Hill
#
# Bulk Modulus (GPa) = 45.04483 48.23669 46.64076
# Shear Modulus (GPa) = 27.25581 29.81004 28.53292
#
# Velocity S-wave (km/s) = 3.53219 3.69399 3.61399
# Velocity P-wave (km/s) = 6.10364 6.34621 6.22611
#
# Compressibility (1/GPa) = 0.02220011
#
# Stress axis : x y z
#
# Youngs Moduli (GPa) = 56.93769 100.17026 78.34162
#
# Poissons Ratio (x) = 0.40684 0.21785
# Poissons Ratio (y) = 0.23125 0.17338
# Poissons Ratio (z) = 0.15833 0.22168
#
# Static dielectric constant tensor:
#      x y z
#    x 4.086170 0.000000 0.000000 
#    y 0.000000 4.124430 0.000000 
#    z 0.000000 0.000000 4.040870 
# 
# 
# High freq. dielectric constant tensor:
#      x y z
#    x 1.843650 0.000000 0.000000 
#    y 0.000000 1.869250 0.000000 
#    z 0.000000 0.000000 1.859200 
# 
# From -- ./inp_files/24445.got.cif
#   From: 2010.03.12/outbox.cif.g09.slc.cpg/sg20_13_cif.got.tgz:24445.got - 2010.04.14 01:38:04.
