data_PCOD8159935
_publ_section_title
;
Structure prediction by ZEFSAII (Michael W. Deem and Ramdas Pophale) SiO2 
 PCOD8159935
Probable space group: C 2 2 21
;
_chemical_formula_sum "Si O2"
_cell_formula_units_Z 36
_cell_length_a 4.694443
_cell_length_b 13.894898
_cell_length_c 18.245892
_cell_angle_alpha 90.000000
_cell_angle_beta 90.000000
_cell_angle_gamma 90.000000
_cell_volume 1190.157761
_symmetry_space_group_name_H-M "C 2 2 21"
_symmetry_group_IT_number 20
_symmetry_cell_setting 'orthorhombic'
loop_
_space_group_symop_operation_xyz
x,y,z
-x,-y,1/2+z
x,-y,-z
-x,y,1/2-z
1/2+x,1/2+y,z
1/2-x,1/2-y,1/2+z
1/2+x,1/2-y,-z
1/2-x,1/2+y,1/2-z
loop_
_atom_site_type_symbol
_atom_site_label
_atom_site_fract_x
_atom_site_fract_y
_atom_site_fract_z
Si Si1 0.171846 0.296777 0.461854
Si Si2 0.422850 0.703479 0.830474
Si Si3 0.156066 0.000000 0.000000
Si Si4 0.248941 0.998036 0.372702
Si Si5 0.762367 0.412983 0.809702
O O1 0.361307 0.250772 0.528496
O O2 0.302999 0.272557 0.381457
O O3 0.147766 0.411865 0.472116
O O4 0.500000 0.663503 0.750000
O O5 0.236005 0.618735 0.868223
O O6 0.234899 0.798504 0.817229
O O7 0.935631 0.961595 0.939050
O O8 0.571486 0.039796 0.380489
O O9 0.061197 0.044932 0.304107
O O10 0.000000 0.447260 0.750000
#
# Coordination Sequence:
#
# PCOD8159935 Si02
#       5
#     8   8   4   8   8
#     4  11  24  43  65  93 128 167 213 260 312 378
#     4  10  23  41  65  95 127 166 212 263 317 372
#     4  10  24  40  66  92 122 166 208 254 312 372
#     4  11  24  42  63  92 126 162 208 257 310 374
#     4  11  23  40  62  88 122 162 203 253 312 369
#
# _framework density 30.248090999999999
#
# number of rings (size 3 to 8) (size 9 to 14) (size 15 to 20)
#    0.000    1.333    0.000    4.667    0.000   10.667 
#    0.000    7.778    0.000    0.000    0.000    0.000 
#    0.000    0.000    0.000    0.000    0.000    0.000 
#
# Total GULP energy -223262.094303 kJ/mol
# GULP energy per Si atom -12403.449683 kJ/mol
# Density = 3.017924 g / cm^3
# Si number density = 30.248091 Si / 1000 Ang^3
#
#
#
# Elastic Constant Matrix: (Units=GPa)
#
#
# Indices 1 2 3 4 5 6 
#
# 1 171.1943 39.7492 -4.1948 0.0000 0.0000 0.0000
# 2 39.7492 151.5993 -12.8918 0.0000 0.0000 0.0000
# 3 -4.1948 -12.8918 85.4655 0.0000 0.0000 0.0000
# 4 0.0000 0.0000 0.0000 38.6354 0.0000 0.0000
# 5 0.0000 0.0000 0.0000 0.0000 23.9710 0.0000
# 6 0.0000 0.0000 0.0000 0.0000 0.0000 15.2289
#
#
#
# Elastic Compliance Matrix: (Units=1/GPa)
#
#
# Indices 1 2 3 4 5 6 
#
# 1 0.006220 -0.001626 0.000060 0.000000 0.000000 0.000000
# 2 -0.001626 0.007107 0.000992 0.000000 0.000000 0.000000
# 3 0.000060 0.000992 0.011853 0.000000 0.000000 0.000000
# 4 0.000000 0.000000 0.000000 0.025883 0.000000 0.000000
# 5 0.000000 0.000000 0.000000 0.000000 0.041717 0.000000
# 6 0.000000 0.000000 0.000000 0.000000 0.000000 0.065665
#
#
# Mechanical properties :
#
#
# Convention : Reuss Voigt Hill
#
# Bulk Modulus (GPa) = 41.60869 50.39825 46.00347
# Shear Modulus (GPa) = 29.83230 41.27349 35.55289
#
# Velocity S-wave (km/s) = 3.14387 3.69792 3.43210
# Velocity P-wave (km/s) = 5.19271 5.91021 5.56304
#
# Compressibility (1/GPa) = 0.02403344
#
# Stress axis : x y z
#
# Youngs Moduli (GPa) = 160.76421 140.70616 84.36506
#
# Poissons Ratio (x) = 0.22877 -0.00507
# Poissons Ratio (y) = 0.26138 -0.08371
# Poissons Ratio (z) = -0.00965 -0.13961
#
# Static dielectric constant tensor:
#      x y z
#    x 5.273350 0.000000 0.000000 
#    y 0.000000 5.117890 0.000000 
#    z 0.000000 0.000000 6.958140 
# 
# 
# High freq. dielectric constant tensor:
#      x y z
#    x 2.244870 0.000000 0.000000 
#    y 0.000000 2.228650 0.000000 
#    z 0.000000 0.000000 2.289520 
# 
# From -- ./inp_files/25913.got.cif
#   From: 2010.03.12/outbox.cif.g09.slc.cpg/sg20_13_cif.got.tgz:25913.got - 2010.04.14 01:38:04.
