data_PCOD8159598
_publ_section_title
;
Structure prediction by ZEFSAII (Michael W. Deem and Ramdas Pophale) SiO2 
 PCOD8159598
Probable space group: C 2 2 21
;
_chemical_formula_sum "Si O2"
_cell_formula_units_Z 48
_cell_length_a 23.905589
_cell_length_b 5.097844
_cell_length_c 20.924117
_cell_angle_alpha 90.000000
_cell_angle_beta 90.000000
_cell_angle_gamma 90.000000
_cell_volume 2549.958602
_symmetry_space_group_name_H-M "C 2 2 21"
_symmetry_group_IT_number 20
_symmetry_cell_setting 'orthorhombic'
loop_
_space_group_symop_operation_xyz
x,y,z
-x,-y,1/2+z
x,-y,-z
-x,y,1/2-z
1/2+x,1/2+y,z
1/2-x,1/2-y,1/2+z
1/2+x,1/2-y,-z
1/2-x,1/2+y,1/2-z
loop_
_atom_site_type_symbol
_atom_site_label
_atom_site_fract_x
_atom_site_fract_y
_atom_site_fract_z
Si Si1 0.256278 0.549526 0.929788
Si Si2 0.098607 0.500000 0.500000
Si Si3 0.140996 0.495748 0.876553
Si Si4 0.915002 0.003611 0.428456
Si Si5 0.686038 0.052395 0.612345
Si Si6 0.710907 0.950965 0.748894
Si Si7 0.977924 0.000000 0.000000
O O1 0.190682 0.490411 0.928162
O O2 0.289450 0.346787 0.884708
O O3 0.265877 0.850445 0.910473
O O4 0.280443 0.500000 0.000000
O O5 0.133913 0.528524 0.564991
O O6 0.060468 0.249659 0.508781
O O7 0.099281 0.258326 0.889992
O O8 0.167745 0.480668 0.806624
O O9 0.105890 0.759551 0.884847
O O10 0.887350 0.000000 0.500000
O O11 0.982367 0.026015 0.437183
O O12 0.672168 0.980076 0.685537
O O13 0.759636 0.168146 0.751205
#
# Coordination Sequence:
#
# PCOD8159598 Si02
#       7
#     8   4   8   8   8   8   4
#     4  12  21  34  55  90 127 157 187 249 284 358
#     4  12  22  42  65  84 115 158 196 268 302 338
#     4  12  21  36  62  84 132 161 189 239 301 354
#     4  10  22  39  60  94 110 149 202 253 312 360
#     4  12  23  38  58  89 123 162 208 223 295 367
#     4  12  23  40  56  85 131 176 195 225 280 361
#     4  10  24  42  65  86 117 144 202 274 318 348
#
# _framework density 18.823836
#
# number of rings (size 3 to 8) (size 9 to 14) (size 15 to 20)
#    0.500    0.000    5.000    5.500    0.000    0.000 
#    0.000    0.000    0.000    6.000    0.000    0.000 
#    0.000    0.000    0.000    0.000    0.000    0.000 
#
# Total GULP energy -297568.928292 kJ/mol
# GULP energy per Si atom -12398.705346 kJ/mol
# Density = 1.878099 g / cm^3
# Si number density = 18.823836 Si / 1000 Ang^3
#
#
#
# Elastic Constant Matrix: (Units=GPa)
#
#
# Indices 1 2 3 4 5 6 
#
# 1 93.2545 29.2657 18.8771 0.0000 0.0000 0.0000
# 2 29.2657 98.7634 2.9971 0.0000 0.0000 0.0000
# 3 18.8771 2.9971 103.6596 0.0000 0.0000 0.0000
# 4 0.0000 0.0000 0.0000 26.1173 0.0000 0.0000
# 5 0.0000 0.0000 0.0000 0.0000 13.2566 0.0000
# 6 0.0000 0.0000 0.0000 0.0000 0.0000 28.7453
#
#
#
# Elastic Compliance Matrix: (Units=1/GPa)
#
#
# Indices 1 2 3 4 5 6 
#
# 1 0.012276 -0.003573 -0.002132 0.000000 0.000000 0.000000
# 2 -0.003573 0.011174 0.000328 0.000000 0.000000 0.000000
# 3 -0.002132 0.000328 0.010026 0.000000 0.000000 0.000000
# 4 0.000000 0.000000 0.000000 0.038289 0.000000 0.000000
# 5 0.000000 0.000000 0.000000 0.000000 0.075434 0.000000
# 6 0.000000 0.000000 0.000000 0.000000 0.000000 0.034788
#
#
# Mechanical properties :
#
#
# Convention : Reuss Voigt Hill
#
# Bulk Modulus (GPa) = 44.01276 44.21748 44.11512
# Shear Modulus (GPa) = 24.96056 29.92635 27.44346
#
# Velocity S-wave (km/s) = 3.64539 3.99157 3.82240
# Velocity P-wave (km/s) = 6.41488 6.69213 6.55497
#
# Compressibility (1/GPa) = 0.02272068
#
# Stress axis : x y z
#
# Youngs Moduli (GPa) = 81.45789 89.49327 99.74273
#
# Poissons Ratio (x) = 0.31976 0.21268
# Poissons Ratio (y) = 0.29105 -0.03267
# Poissons Ratio (z) = 0.17369 -0.02932
#
# Static dielectric constant tensor:
#      x y z
#    x 3.287140 0.000000 0.000000 
#    y 0.000000 3.637300 0.000000 
#    z 0.000000 0.000000 3.720520 
# 
# 
# High freq. dielectric constant tensor:
#      x y z
#    x 1.704080 0.000000 0.000000 
#    y 0.000000 1.756500 0.000000 
#    z 0.000000 0.000000 1.729350 
# 
# From -- ./inp_files/27983.got.cif
#   From: 2010.03.12/outbox.cif.g09.slc.cpg/sg20_14_cif.got.tgz:27983.got - 2010.04.14 01:38:04.
