data_PCOD8159430
_publ_section_title
;
Structure prediction by ZEFSAII (Michael W. Deem and Ramdas Pophale) SiO2 
 PCOD8159430
Probable space group: C 2 2 21
;
_chemical_formula_sum "Si O2"
_cell_formula_units_Z 60
_cell_length_a 14.789609
_cell_length_b 7.951781
_cell_length_c 23.461731
_cell_angle_alpha 90.000000
_cell_angle_beta 90.000000
_cell_angle_gamma 90.000000
_cell_volume 2759.187121
_symmetry_space_group_name_H-M "C 2 2 21"
_symmetry_group_IT_number 20
_symmetry_cell_setting 'orthorhombic'
loop_
_space_group_symop_operation_xyz
x,y,z
-x,-y,1/2+z
x,-y,-z
-x,y,1/2-z
1/2+x,1/2+y,z
1/2-x,1/2-y,1/2+z
1/2+x,1/2-y,-z
1/2-x,1/2+y,1/2-z
loop_
_atom_site_type_symbol
_atom_site_label
_atom_site_fract_x
_atom_site_fract_y
_atom_site_fract_z
Si Si1 0.726272 0.658776 0.187791
Si Si2 0.291111 0.687938 0.991420
Si Si3 0.744767 0.265589 0.191662
Si Si4 0.431309 0.602847 0.383024
Si Si5 0.544405 0.720353 0.812451
Si Si6 0.385396 0.827612 0.884268
Si Si7 0.114921 0.282204 0.400574
Si Si8 0.345739 0.500000 0.500000
O O1 0.729642 0.460558 0.187625
O O2 0.702758 0.726412 0.249939
O O3 0.653659 0.714081 0.139446
O O4 0.824428 0.726006 0.169851
O O5 0.350130 0.705378 0.934018
O O6 0.248843 0.500000 0.000000
O O7 0.368415 0.707436 0.038010
O O8 0.214003 0.829668 0.000504
O O9 0.643226 0.187455 0.188250
O O10 0.811061 0.200389 0.142163
O O11 0.451128 0.472762 0.332017
O O12 0.513581 0.731890 0.385182
O O13 0.407962 0.510179 0.443132
O O14 0.500000 0.735970 0.750000
O O15 0.487708 0.807857 0.863207
O O16 0.371471 0.018369 0.903622
#
# Coordination Sequence:
#
# PCOD8159430 Si02
#       8
#     8   8   8   8   8   8   8   4
#     4  10  21  42  65  97 133 187 218 294 352 410
#     4  12  24  46  79 101 137 191 234 291 368 421
#     4  10  23  40  66  92 139 178 231 282 354 420
#     4  11  26  43  69 100 142 184 233 301 354 417
#     4  11  23  41  67 102 137 185 236 295 357 422
#     4  11  22  45  69  99 145 177 237 298 348 426
#     4  11  25  45  66 101 139 189 230 299 358 415
#     4  12  24  54  70 102 152 176 242 304 342 434
#
# _framework density 21.745535
#
# number of rings (size 3 to 8) (size 9 to 14) (size 15 to 20)
#    0.000    1.067    4.000    2.400    6.533    2.133 
#    4.800    0.000    0.000    0.000    0.000    0.000 
#    0.000    0.000    0.000    0.000    0.000    0.000 
#
# Total GULP energy -371806.795476 kJ/mol
# GULP energy per Si atom -12393.559849 kJ/mol
# Density = 2.169604 g / cm^3
# Si number density = 21.745535 Si / 1000 Ang^3
#
#
#
# Elastic Constant Matrix: (Units=GPa)
#
#
# Indices 1 2 3 4 5 6 
#
# 1 131.6518 31.4433 52.5096 0.0000 0.0000 0.0000
# 2 31.4433 73.9687 21.1705 0.0000 0.0000 0.0000
# 3 52.5096 21.1705 118.7782 0.0000 0.0000 0.0000
# 4 0.0000 0.0000 0.0000 36.2706 0.0000 0.0000
# 5 0.0000 0.0000 0.0000 0.0000 38.6771 0.0000
# 6 0.0000 0.0000 0.0000 0.0000 0.0000 30.9246
#
#
#
# Elastic Compliance Matrix: (Units=1/GPa)
#
#
# Indices 1 2 3 4 5 6 
#
# 1 0.009853 -0.003100 -0.003803 0.000000 0.000000 0.000000
# 2 -0.003100 0.015221 -0.001343 0.000000 0.000000 0.000000
# 3 -0.003803 -0.001343 0.010340 0.000000 0.000000 0.000000
# 4 0.000000 0.000000 0.000000 0.027571 0.000000 0.000000
# 5 0.000000 0.000000 0.000000 0.000000 0.025855 0.000000
# 6 0.000000 0.000000 0.000000 0.000000 0.000000 0.032337
#
#
# Mechanical properties :
#
#
# Convention : Reuss Voigt Hill
#
# Bulk Modulus (GPa) = 52.84729 59.40505 56.12617
# Shear Modulus (GPa) = 34.72810 35.79281 35.26045
#
# Velocity S-wave (km/s) = 4.00061 4.06147 4.03116
# Velocity P-wave (km/s) = 6.75982 7.02650 6.89445
#
# Compressibility (1/GPa) = 0.01892245
#
# Stress axis : x y z
#
# Youngs Moduli (GPa) = 101.49040 65.69774 96.71415
#
# Poissons Ratio (x) = 0.20366 0.36784
# Poissons Ratio (y) = 0.31461 0.12984
# Poissons Ratio (z) = 0.38601 0.08820
#
# Static dielectric constant tensor:
#      x y z
#    x 4.448000 0.000000 0.000000 
#    y 0.000000 3.671640 0.000000 
#    z 0.000000 0.000000 3.796810 
# 
# 
# High freq. dielectric constant tensor:
#      x y z
#    x 1.863280 0.000000 0.000000 
#    y 0.000000 1.832680 0.000000 
#    z 0.000000 0.000000 1.871020 
# 
# From -- ./inp_files/29326.got.cif
#   From: 2010.03.12/outbox.cif.g09.slc.cpg/sg20_15_cif.got.tgz:29326.got - 2010.04.14 01:38:04.
