data_PCOD8159271
_publ_section_title
;
Structure prediction by ZEFSAII (Michael W. Deem and Ramdas Pophale) SiO2 
 PCOD8159271
Probable space group: C 2 2 21
;
_chemical_formula_sum "Si O2"
_cell_formula_units_Z 40
_cell_length_a 27.394897
_cell_length_b 7.823120
_cell_length_c 8.057794
_cell_angle_alpha 90.000000
_cell_angle_beta 90.000000
_cell_angle_gamma 90.000000
_cell_volume 1726.894571
_symmetry_space_group_name_H-M "C 2 2 21"
_symmetry_group_IT_number 20
_symmetry_cell_setting 'orthorhombic'
loop_
_space_group_symop_operation_xyz
x,y,z
-x,-y,1/2+z
x,-y,-z
-x,y,1/2-z
1/2+x,1/2+y,z
1/2-x,1/2-y,1/2+z
1/2+x,1/2-y,-z
1/2-x,1/2+y,1/2-z
loop_
_atom_site_type_symbol
_atom_site_label
_atom_site_fract_x
_atom_site_fract_y
_atom_site_fract_z
Si Si1 0.053312 0.564459 0.185703
Si Si2 0.211952 0.346469 0.887559
Si Si3 0.191415 0.863905 0.810114
Si Si4 0.625969 0.148913 0.615077
Si Si5 0.630812 0.317770 0.292451
O O1 0.075476 0.413755 0.301510
O O2 0.084378 0.740954 0.194088
O O3 0.000000 0.609802 0.250000
O O4 0.051513 0.500000 0.000000
O O5 0.210795 0.169602 0.000972
O O6 0.193214 0.500000 0.000000
O O7 0.264719 0.399295 0.817271
O O8 0.175552 0.315517 0.736036
O O9 0.165893 0.686813 0.755687
O O10 0.147927 0.002522 0.786106
O O11 0.619152 0.315076 0.491263
O O12 0.646813 0.000000 0.500000
#
# Coordination Sequence:
#
# PCOD8159271 Si02
#       5
#     8   8   8   8   8
#     4  11  23  44  72 101 131 174 224 274 340 416
#     4  12  24  39  60  90 131 180 225 273 337 414
#     4  12  24  40  63  95 133 176 225 283 341 403
#     4  10  21  39  64  93 129 172 217 272 334 405
#     4  11  23  40  63  95 133 174 226 286 340 398
#
# _framework density 23.162966000000001
#
# number of rings (size 3 to 8) (size 9 to 14) (size 15 to 20)
#    0.000    0.800    0.000   10.800    0.000    1.600 
#    0.000    1.000    0.000    7.200    0.000    0.000 
#    0.000    0.000    0.000    0.000    0.000    0.000 
#
# Total GULP energy -247847.902385 kJ/mol
# GULP energy per Si atom -12392.395119 kJ/mol
# Density = 2.311025 g / cm^3
# Si number density = 23.162966 Si / 1000 Ang^3
#
#
#
# Elastic Constant Matrix: (Units=GPa)
#
#
# Indices 1 2 3 4 5 6 
#
# 1 143.3044 40.4582 49.4206 0.0000 0.0000 0.0000
# 2 40.4582 47.3797 28.6503 0.0000 0.0000 0.0000
# 3 49.4206 28.6503 138.3244 0.0000 0.0000 0.0000
# 4 0.0000 0.0000 0.0000 24.0200 0.0000 0.0000
# 5 0.0000 0.0000 0.0000 0.0000 43.1766 0.0000
# 6 0.0000 0.0000 0.0000 0.0000 0.0000 28.4621
#
#
#
# Elastic Compliance Matrix: (Units=1/GPa)
#
#
# Indices 1 2 3 4 5 6 
#
# 1 0.009652 -0.007038 -0.001991 0.000000 0.000000 0.000000
# 2 -0.007038 0.029260 -0.003546 0.000000 0.000000 0.000000
# 3 -0.001991 -0.003546 0.008675 0.000000 0.000000 0.000000
# 4 0.000000 0.000000 0.000000 0.041632 0.000000 0.000000
# 5 0.000000 0.000000 0.000000 0.000000 0.023161 0.000000
# 6 0.000000 0.000000 0.000000 0.000000 0.000000 0.035134
#
#
# Mechanical properties :
#
#
# Convention : Reuss Voigt Hill
#
# Bulk Modulus (GPa) = 44.56771 62.89630 53.73200
# Shear Modulus (GPa) = 27.75586 33.16370 30.45978
#
# Velocity S-wave (km/s) = 3.46538 3.78796 3.63026
# Velocity P-wave (km/s) = 5.94092 6.80766 6.38901
#
# Compressibility (1/GPa) = 0.02243777
#
# Stress axis : x y z
#
# Youngs Moduli (GPa) = 103.60952 34.17621 115.27326
#
# Poissons Ratio (x) = 0.24053 0.22946
# Poissons Ratio (y) = 0.72920 0.40875
# Poissons Ratio (z) = 0.20625 0.12119
#
# Static dielectric constant tensor:
#      x y z
#    x 3.943240 0.000000 0.000000 
#    y 0.000000 4.505950 0.000000 
#    z 0.000000 0.000000 4.951090 
# 
# 
# High freq. dielectric constant tensor:
#      x y z
#    x 1.886650 0.000000 0.000000 
#    y 0.000000 1.917880 0.000000 
#    z 0.000000 0.000000 1.944500 
# 
# From -- ./inp_files/10505.got.cif
#   From: 2010.03.12/outbox.cif.g09.slc.cpg/sg20_6_cif.got.tgz:10505.got - 2010.04.14 01:38:04.
