data_PCOD8159525
_publ_section_title
;
Structure prediction by ZEFSAII (Michael W. Deem and Ramdas Pophale) SiO2 
 PCOD8159525
Probable space group: C 2 2 21
;
_chemical_formula_sum "Si O2"
_cell_formula_units_Z 60
_cell_length_a 23.076928
_cell_length_b 33.557649
_cell_length_c 5.203549
_cell_angle_alpha 90.000000
_cell_angle_beta 90.000000
_cell_angle_gamma 90.000000
_cell_volume 4029.667111
_symmetry_space_group_name_H-M "C 2 2 21"
_symmetry_group_IT_number 20
_symmetry_cell_setting 'orthorhombic'
loop_
_space_group_symop_operation_xyz
x,y,z
-x,-y,1/2+z
x,-y,-z
-x,y,1/2-z
1/2+x,1/2+y,z
1/2-x,1/2-y,1/2+z
1/2+x,1/2-y,-z
1/2-x,1/2+y,1/2-z
loop_
_atom_site_type_symbol
_atom_site_label
_atom_site_fract_x
_atom_site_fract_y
_atom_site_fract_z
Si Si1 0.397182 0.180978 0.455585
Si Si2 0.816248 0.593765 0.927703
Si Si3 0.069286 0.644122 0.538942
Si Si4 0.219125 0.629332 0.068345
Si Si5 0.393961 0.024645 0.752880
Si Si6 0.674112 0.256716 0.076686
Si Si7 0.790106 0.794803 0.920382
Si Si8 0.500000 0.078544 0.750000
O O1 0.436272 0.171677 0.706050
O O2 0.340079 0.154073 0.444249
O O3 0.380876 0.227471 0.440578
O O4 0.437754 0.171102 0.212174
O O5 0.867225 0.625501 0.946501
O O6 0.773239 0.605202 0.696097
O O7 0.840188 0.549666 0.865701
O O8 0.781759 0.597236 0.197426
O O9 0.022547 0.608097 0.525358
O O10 0.273884 0.658648 0.091982
O O11 0.446615 0.052073 0.648551
O O12 0.374204 0.000000 0.500000
O O13 0.417163 0.000000 0.000000
O O14 0.732284 0.231135 0.077324
O O15 0.671485 0.284246 0.330015
O O16 0.672010 0.285266 0.830010
#
# Coordination Sequence:
#
# PCOD8159525 Si02
#       8
#     8   8   8   8   8   8   8   4
#     4   9  16  26  37  50  68  89 107 125 153 194
#     4   9  17  28  40  52  67  85 104 129 162 209
#     4   9  18  28  40  52  64  84 107 133 170 208
#     4   9  15  25  38  52  69  87 107 125 148 184
#     4  11  22  34  46  58  70  85 107 141 191 238
#     4   9  15  22  32  49  71  89 107 125 143 171
#     4   9  15  21  33  51  69  89 107 125 143 166
#     4  10  22  34  46  58  70  82 110 152 190 230
#
# _framework density 14.889567
#
# number of rings (size 3 to 8) (size 9 to 14) (size 15 to 20)
#    0.000    2.667    0.000    2.800    0.000   11.200 
#    0.000    0.000    0.000    0.000    0.000    0.000 
#    0.000    0.000    0.000    0.000    0.000    0.000 
#
# Total GULP energy -371808.062095 kJ/mol
# GULP energy per Si atom -12393.602070 kJ/mol
# Density = 1.485568 g / cm^3
# Si number density = 14.889567 Si / 1000 Ang^3
#
#
#
# Elastic Constant Matrix: (Units=GPa)
#
#
# Indices 1 2 3 4 5 6 
#
# 1 15.0041 29.0347 17.9585 0.0000 0.0000 0.0000
# 2 29.0347 63.7431 31.5115 0.0000 0.0000 0.0000
# 3 17.9585 31.5115 112.8209 0.0000 0.0000 0.0000
# 4 0.0000 0.0000 0.0000 19.9890 0.0000 0.0000
# 5 0.0000 0.0000 0.0000 0.0000 8.7745 0.0000
# 6 0.0000 0.0000 0.0000 0.0000 0.0000 21.1393
#
#
#
# Elastic Compliance Matrix: (Units=1/GPa)
#
#
# Indices 1 2 3 4 5 6 
#
# 1 0.607771 -0.265698 -0.022532 0.000000 0.000000 0.000000
# 2 -0.265698 0.134356 0.004767 0.000000 0.000000 0.000000
# 3 -0.022532 0.004767 0.011119 0.000000 0.000000 0.000000
# 4 0.000000 0.000000 0.000000 0.050028 0.000000 0.000000
# 5 0.000000 0.000000 0.000000 0.000000 0.113966 0.000000
# 6 0.000000 0.000000 0.000000 0.000000 0.000000 0.047305
#
#
# Mechanical properties :
#
#
# Convention : Reuss Voigt Hill
#
# Bulk Modulus (GPa) = 5.36714 38.73081 22.04898
# Shear Modulus (GPa) = 3.13759 17.51813 10.32786
#
# Velocity S-wave (km/s) = 1.45321 3.43379 2.63654
# Velocity P-wave (km/s) = 2.53539 6.46450 4.91009
#
# Compressibility (1/GPa) = 0.18631899
#
# Stress axis : x y z
#
# Youngs Moduli (GPa) = 1.64536 7.44294 89.93736
#
# Poissons Ratio (x) = 1.97757 2.02649
# Poissons Ratio (y) = 0.43717 -0.42870
# Poissons Ratio (z) = 0.03707 -0.03548
#
# Static dielectric constant tensor:
#      x y z
#    x 2.395140 0.000000 0.000000 
#    y 0.000000 2.830840 0.000000 
#    z 0.000000 0.000000 3.180030 
# 
# 
# High freq. dielectric constant tensor:
#      x y z
#    x 1.493570 0.000000 0.000000 
#    y 0.000000 1.546280 0.000000 
#    z 0.000000 0.000000 1.594040 
# 
# From -- ./inp_files/3946.got.cif
#   From: 2010.03.12/outbox.cif.g09.slc.cpg/sg20_2_cif.got.tgz:3946.got - 2010.04.14 01:38:04.
