data_PCOD8159391
_publ_section_title
;
Structure prediction by ZEFSAII (Michael W. Deem and Ramdas Pophale) SiO2 
 PCOD8159391
Probable space group: C 2 2 21
;
_chemical_formula_sum "Si O2"
_cell_formula_units_Z 44
_cell_length_a 7.567698
_cell_length_b 11.880474
_cell_length_c 22.700466
_cell_angle_alpha 90.000000
_cell_angle_beta 90.000000
_cell_angle_gamma 90.000000
_cell_volume 2040.949850
_symmetry_space_group_name_H-M "C 2 2 21"
_symmetry_group_IT_number 20
_symmetry_cell_setting 'orthorhombic'
loop_
_space_group_symop_operation_xyz
x,y,z
-x,-y,1/2+z
x,-y,-z
-x,y,1/2-z
1/2+x,1/2+y,z
1/2-x,1/2-y,1/2+z
1/2+x,1/2-y,-z
1/2-x,1/2+y,1/2-z
loop_
_atom_site_type_symbol
_atom_site_label
_atom_site_fract_x
_atom_site_fract_y
_atom_site_fract_z
Si Si1 0.574144 0.348898 0.504625
Si Si2 0.022064 0.612966 0.026196
Si Si3 0.513372 0.496303 0.397351
Si Si4 0.500000 0.961502 0.250000
Si Si5 0.863659 0.612753 0.350692
Si Si6 0.345052 0.357193 0.297844
O O1 0.768842 0.390219 0.517963
O O2 0.564265 0.214919 0.509868
O O3 0.532590 0.385331 0.438027
O O4 0.449313 0.405492 0.556063
O O5 0.994965 0.621828 0.095971
O O6 0.935058 0.500000 0.000000
O O7 0.690653 0.540397 0.366400
O O8 0.380998 0.457737 0.345375
O O9 0.666207 0.882272 0.262926
O O10 0.470555 0.043734 0.303666
O O11 0.814748 0.737786 0.329469
O O12 0.500000 0.349607 0.250000
#
# Coordination Sequence:
#
# PCOD8159391 Si02
#       6
#     8   8   8   4   8   8
#     4  10  21  41  68 101 135 178 219 279 350 409
#     4  11  22  41  67  98 138 174 223 283 342 413
#     4  10  21  45  67  95 144 177 221 291 346 405
#     4  12  28  42  70 102 130 188 242 270 348 412
#     4  11  23  44  67  99 137 180 232 286 344 407
#     4  12  25  45  71  99 140 182 231 291 344 404
#
# _framework density 21.558589000000001
#
# number of rings (size 3 to 8) (size 9 to 14) (size 15 to 20)
#    0.000    1.091    8.182    0.000    0.000    5.818 
#    3.273    0.000    0.000    0.000    0.000    0.000 
#    0.000    0.000    0.000    0.000    0.000    0.000 
#
# Total GULP energy -272644.304272 kJ/mol
# GULP energy per Si atom -12392.922921 kJ/mol
# Density = 2.150952 g / cm^3
# Si number density = 21.558589 Si / 1000 Ang^3
#
#
#
# Elastic Constant Matrix: (Units=GPa)
#
#
# Indices 1 2 3 4 5 6 
#
# 1 63.1705 27.8371 34.4487 0.0000 0.0000 0.0000
# 2 27.8371 173.0300 51.1029 0.0000 0.0000 0.0000
# 3 34.4487 51.1029 124.1292 0.0000 0.0000 0.0000
# 4 0.0000 0.0000 0.0000 39.1386 0.0000 0.0000
# 5 0.0000 0.0000 0.0000 0.0000 38.0826 0.0000
# 6 0.0000 0.0000 0.0000 0.0000 0.0000 32.5292
#
#
#
# Elastic Compliance Matrix: (Units=1/GPa)
#
#
# Indices 1 2 3 4 5 6 
#
# 1 0.019090 -0.001715 -0.004592 0.000000 0.000000 0.000000
# 2 -0.001715 0.006733 -0.002296 0.000000 0.000000 0.000000
# 3 -0.004592 -0.002296 0.010276 0.000000 0.000000 0.000000
# 4 0.000000 0.000000 0.000000 0.025550 0.000000 0.000000
# 5 0.000000 0.000000 0.000000 0.000000 0.026259 0.000000
# 6 0.000000 0.000000 0.000000 0.000000 0.000000 0.030742
#
#
# Mechanical properties :
#
#
# Convention : Reuss Voigt Hill
#
# Bulk Modulus (GPa) = 52.92923 65.23411 59.08167
# Shear Modulus (GPa) = 35.17326 38.41281 36.79303
#
# Velocity S-wave (km/s) = 4.04359 4.22570 4.13565
# Velocity P-wave (km/s) = 6.81216 7.35754 7.09009
#
# Compressibility (1/GPa) = 0.01889315
#
# Stress axis : x y z
#
# Youngs Moduli (GPa) = 52.38342 148.51346 97.31639
#
# Poissons Ratio (x) = 0.25471 0.44686
# Poissons Ratio (y) = 0.08984 0.22345
# Poissons Ratio (z) = 0.24054 0.34100
#
# Static dielectric constant tensor:
#      x y z
#    x 3.541760 0.000000 0.000000 
#    y 0.000000 3.621760 0.000000 
#    z 0.000000 0.000000 4.210510 
# 
# 
# High freq. dielectric constant tensor:
#      x y z
#    x 1.821970 0.000000 0.000000 
#    y 0.000000 1.858870 0.000000 
#    z 0.000000 0.000000 1.866800 
# 
# From -- ./inp_files/28659.got.cif
#   From: 2010.03.12/outbox.cif.g09.slc.cpg/sg20_15_cif.got.tgz:28659.got - 2010.04.14 01:38:04.
