data_PCOD8159679
_publ_section_title
;
Structure prediction by ZEFSAII (Michael W. Deem and Ramdas Pophale) SiO2 
 PCOD8159679
Probable space group: C 2 2 21
;
_chemical_formula_sum "Si O2"
_cell_formula_units_Z 52
_cell_length_a 11.926418
_cell_length_b 8.238256
_cell_length_c 24.395018
_cell_angle_alpha 90.000000
_cell_angle_beta 90.000000
_cell_angle_gamma 90.000000
_cell_volume 2396.880890
_symmetry_space_group_name_H-M "C 2 2 21"
_symmetry_group_IT_number 20
_symmetry_cell_setting 'orthorhombic'
loop_
_space_group_symop_operation_xyz
x,y,z
-x,-y,1/2+z
x,-y,-z
-x,y,1/2-z
1/2+x,1/2+y,z
1/2-x,1/2-y,1/2+z
1/2+x,1/2-y,-z
1/2-x,1/2+y,1/2-z
loop_
_atom_site_type_symbol
_atom_site_label
_atom_site_fract_x
_atom_site_fract_y
_atom_site_fract_z
Si Si1 0.788250 0.076064 0.764993
Si Si2 0.500000 0.373074 0.750000
Si Si3 0.019652 0.500000 0.500000
Si Si4 0.589971 0.500000 0.500000
Si Si5 0.574172 0.721498 0.057578
Si Si6 0.928189 0.397250 0.329118
Si Si7 0.321018 0.804732 0.932761
Si Si8 0.643708 0.893722 0.688489
O O1 0.695921 0.039858 0.812939
O O2 0.832761 0.261624 0.763773
O O3 0.730681 0.038790 0.705127
O O4 0.899925 0.974456 0.777143
O O5 0.555398 0.268200 0.796917
O O6 0.100485 0.545252 0.449330
O O7 0.941538 0.655740 0.507159
O O8 0.517119 0.420174 0.549255
O O9 0.660114 0.362983 0.466889
O O10 0.558491 0.843732 0.108420
O O11 0.694633 0.638927 0.055121
O O12 0.018138 0.534904 0.312226
O O13 0.331349 0.793726 0.867154
#
# Coordination Sequence:
#
# PCOD8159679 Si02
#       8
#     8   4   4   4   8   8   8   8
#     4  12  25  45  67 101 135 186 229 291 338 423
#     4  12  26  42  68  96 138 180 226 284 338 410
#     4  10  22  40  68  92 134 178 224 282 340 402
#     4  10  26  42  68 102 136 180 232 284 342 418
#     4  11  22  42  66  96 131 176 224 280 342 400
#     4  12  24  44  67  97 141 179 231 288 338 420
#     4  11  22  44  65 100 137 177 226 287 340 413
#     4  12  24  45  69  99 141 185 236 281 359 411
#
# _framework density 21.694859999999998
#
# number of rings (size 3 to 8) (size 9 to 14) (size 15 to 20)
#    0.000    0.615    6.154    0.923    4.308    0.000 
#    0.000    0.000    0.000    0.000    0.000    0.000 
#    0.000    0.000    0.000    0.000    0.000    0.000 
#
# Total GULP energy -322145.956740 kJ/mol
# GULP energy per Si atom -12390.229105 kJ/mol
# Density = 2.164548 g / cm^3
# Si number density = 21.694860 Si / 1000 Ang^3
#
#
#
# Elastic Constant Matrix: (Units=GPa)
#
#
# Indices 1 2 3 4 5 6 
#
# 1 114.1033 45.5403 38.9551 0.0000 0.0000 0.0000
# 2 45.5403 85.0418 33.3057 0.0000 0.0000 0.0000
# 3 38.9551 33.3057 88.8627 0.0000 0.0000 0.0000
# 4 0.0000 0.0000 0.0000 38.1364 0.0000 0.0000
# 5 0.0000 0.0000 0.0000 0.0000 26.4988 0.0000
# 6 0.0000 0.0000 0.0000 0.0000 0.0000 -13.3276
#
#
#
# Elastic Compliance Matrix: (Units=1/GPa)
#
#
# Indices 1 2 3 4 5 6 
#
# 1 0.011928 -0.005086 -0.003323 0.000000 0.000000 0.000000
# 2 -0.005086 0.015951 -0.003749 0.000000 0.000000 0.000000
# 3 -0.003323 -0.003749 0.014115 0.000000 0.000000 0.000000
# 4 0.000000 0.000000 0.000000 0.026222 0.000000 0.000000
# 5 0.000000 0.000000 0.000000 0.000000 0.037738 0.000000
# 6 0.000000 0.000000 0.000000 0.000000 0.000000 -0.075032
#
#
# Mechanical properties :
#
#
# Convention : Reuss Voigt Hill
#
# Bulk Modulus (GPa) = 56.56545 58.17889 57.37217
# Shear Modulus (GPa) = 81.79322 21.60862 51.70092
#
# Velocity S-wave (km/s) = 6.14683 3.15941 4.88699
# Velocity P-wave (km/s) = 8.74687 6.33911 7.63846
#
# Compressibility (1/GPa) = 0.01767864
#
# Stress axis : x y z
#
# Youngs Moduli (GPa) = 83.83323 62.69264 70.84718
#
# Poissons Ratio (x) = 0.31888 0.23541
# Poissons Ratio (y) = 0.42641 0.26558
# Poissons Ratio (z) = 0.27856 0.23501
#
# Static dielectric constant tensor:
#      x y z
#    x 4.273910 0.000000 0.000000 
#    y 0.000000 3.992620 0.000000 
#    z 0.000000 0.000000 4.087550 
# 
# 
# High freq. dielectric constant tensor:
#      x y z
#    x 1.866910 0.000000 0.000000 
#    y 0.000000 1.854890 0.000000 
#    z 0.000000 0.000000 1.839240 
# 
# From -- ./inp_files/30141.got.cif
#   From: 2010.03.12/outbox.cif.g09.slc.cpg/sg20_16_cif.got.tgz:30141.got - 2010.04.14 01:38:04.
