data_PCOD8159389
_publ_section_title
;
Structure prediction by ZEFSAII (Michael W. Deem and Ramdas Pophale) SiO2 
 PCOD8159389
Probable space group: C 2 2 21
;
_chemical_formula_sum "Si O2"
_cell_formula_units_Z 44
_cell_length_a 11.252449
_cell_length_b 13.683390
_cell_length_c 14.130156
_cell_angle_alpha 90.000000
_cell_angle_beta 90.000000
_cell_angle_gamma 90.000000
_cell_volume 2175.643408
_symmetry_space_group_name_H-M "C 2 2 21"
_symmetry_group_IT_number 20
_symmetry_cell_setting 'orthorhombic'
loop_
_space_group_symop_operation_xyz
x,y,z
-x,-y,1/2+z
x,-y,-z
-x,y,1/2-z
1/2+x,1/2+y,z
1/2-x,1/2-y,1/2+z
1/2+x,1/2-y,-z
1/2-x,1/2+y,1/2-z
loop_
_atom_site_type_symbol
_atom_site_label
_atom_site_fract_x
_atom_site_fract_y
_atom_site_fract_z
Si Si1 0.131935 0.493721 0.723904
Si Si2 0.809560 0.628275 0.396661
Si Si3 0.244376 0.660464 0.608516
Si Si4 0.421713 0.167972 0.074458
Si Si5 0.993439 0.124117 0.862579
Si Si6 0.143078 0.000000 0.500000
O O1 0.197231 0.453898 0.816411
O O2 0.196801 0.591699 0.691462
O O3 0.136191 0.406923 0.647936
O O4 0.000000 0.525086 0.750000
O O5 0.757289 0.728796 0.353925
O O6 0.723510 0.594490 0.480018
O O7 0.940680 0.639397 0.441952
O O8 0.155030 0.655782 0.520175
O O9 0.378461 0.627237 0.585385
O O10 0.417996 0.277456 0.116095
O O11 0.000000 0.110163 0.750000
O O12 0.933785 0.028803 0.908376
#
# Coordination Sequence:
#
# PCOD8159389 Si02
#       6
#     8   8   8   8   8   4
#     4  10  22  39  66  95 128 169 217 269 331 394
#     4  10  23  41  63  95 134 171 216 271 332 390
#     4  11  22  42  65  97 128 169 225 273 325 401
#     4  10  21  41  67  95 127 169 218 269 332 397
#     4  11  24  44  66  92 138 182 217 270 345 401
#     4  12  24  42  64  98 128 182 220 276 326 408
#
# _framework density 20.223903
#
# number of rings (size 3 to 8) (size 9 to 14) (size 15 to 20)
#    0.000    1.455    1.818    4.364    7.636    0.000 
#    0.000    2.727    0.000    0.000    0.000    0.000 
#    0.000    0.000    0.000    0.000    0.000    0.000 
#
# Total GULP energy -272747.345196 kJ/mol
# GULP energy per Si atom -12397.606600 kJ/mol
# Density = 2.017787 g / cm^3
# Si number density = 20.223903 Si / 1000 Ang^3
#
#
#
# Elastic Constant Matrix: (Units=GPa)
#
#
# Indices 1 2 3 4 5 6 
#
# 1 97.2003 61.6086 59.4815 0.0000 0.0000 0.0000
# 2 61.6086 100.0035 39.3689 0.0000 0.0000 0.0000
# 3 59.4815 39.3689 105.7581 0.0000 0.0000 0.0000
# 4 0.0000 0.0000 0.0000 33.7769 0.0000 0.0000
# 5 0.0000 0.0000 0.0000 0.0000 27.0454 0.0000
# 6 0.0000 0.0000 0.0000 0.0000 0.0000 23.7420
#
#
#
# Elastic Compliance Matrix: (Units=1/GPa)
#
#
# Indices 1 2 3 4 5 6 
#
# 1 0.021980 -0.010164 -0.008579 0.000000 0.000000 0.000000
# 2 -0.010164 0.016417 -0.000395 0.000000 0.000000 0.000000
# 3 -0.008579 -0.000395 0.014427 0.000000 0.000000 0.000000
# 4 0.000000 0.000000 0.000000 0.029606 0.000000 0.000000
# 5 0.000000 0.000000 0.000000 0.000000 0.036975 0.000000
# 6 0.000000 0.000000 0.000000 0.000000 0.000000 0.042119
#
#
# Mechanical properties :
#
#
# Convention : Reuss Voigt Hill
#
# Bulk Modulus (GPa) = 68.73076 69.31997 69.02537
# Shear Modulus (GPa) = 24.43218 26.41305 25.42262
#
# Velocity S-wave (km/s) = 3.47952 3.61783 3.54935
# Velocity P-wave (km/s) = 7.08530 7.19738 7.14156
#
# Compressibility (1/GPa) = 0.01454953
#
# Stress axis : x y z
#
# Youngs Moduli (GPa) = 45.49628 60.91393 69.31291
#
# Poissons Ratio (x) = 0.61912 0.59461
# Poissons Ratio (y) = 0.46242 0.02736
# Poissons Ratio (z) = 0.39029 0.02404
#
# Static dielectric constant tensor:
#      x y z
#    x 3.791210 0.000000 0.000000 
#    y 0.000000 3.747290 0.000000 
#    z 0.000000 0.000000 3.545230 
# 
# 
# High freq. dielectric constant tensor:
#      x y z
#    x 1.796790 0.000000 0.000000 
#    y 0.000000 1.800110 0.000000 
#    z 0.000000 0.000000 1.779820 
# 
# From -- ./inp_files/19842.got.cif
#   From: 2010.03.12/outbox.cif.g09.slc.cpg/sg20_10_cif.got.tgz:19842.got - 2010.04.14 01:38:04.
