data_PCOD8159583
_publ_section_title
;
Structure prediction by ZEFSAII (Michael W. Deem and Ramdas Pophale) SiO2 
 PCOD8159583
Probable space group: C 2 2 21
;
_chemical_formula_sum "Si O2"
_cell_formula_units_Z 40
_cell_length_a 26.510926
_cell_length_b 13.868409
_cell_length_c 5.083337
_cell_angle_alpha 90.000000
_cell_angle_beta 90.000000
_cell_angle_gamma 90.000000
_cell_volume 1868.961869
_symmetry_space_group_name_H-M "C 2 2 21"
_symmetry_group_IT_number 20
_symmetry_cell_setting 'orthorhombic'
loop_
_space_group_symop_operation_xyz
x,y,z
-x,-y,1/2+z
x,-y,-z
-x,y,1/2-z
1/2+x,1/2+y,z
1/2-x,1/2-y,1/2+z
1/2+x,1/2-y,-z
1/2-x,1/2+y,1/2-z
loop_
_atom_site_type_symbol
_atom_site_label
_atom_site_fract_x
_atom_site_fract_y
_atom_site_fract_z
Si Si1 0.500000 0.341268 0.250000
Si Si2 0.933606 0.000000 0.000000
Si Si3 0.863363 0.860267 0.772958
Si Si4 0.656787 0.064533 0.252599
Si Si5 0.746676 0.313123 0.704797
Si Si6 0.899418 0.247149 0.714262
O O1 0.529826 0.410880 0.446276
O O2 0.542409 0.271660 0.125150
O O3 0.895201 0.961357 0.772140
O O4 0.804123 0.876811 0.828512
O O5 0.865122 0.811117 0.489027
O O6 0.886905 0.790118 0.993978
O O7 0.708625 0.120030 0.312099
O O8 0.611356 0.139409 0.201172
O O9 0.641751 0.000000 0.500000
O O10 0.664466 0.000000 0.000000
O O11 0.761549 0.270694 0.420342
#
# Coordination Sequence:
#
# PCOD8159583 Si02
#       6
#     4   4   8   8   8   8
#     4  10  22  42  68  94 126 172 212 266 346 398
#     4  10  22  38  66 102 134 160 216 280 324 410
#     4  11  22  40  63  96 134 170 211 261 328 397
#     4  12  25  42  64  96 132 171 226 279 312 379
#     4  12  22  42  65  92 130 176 217 251 327 395
#     4  11  23  43  66  89 127 173 215 268 331 390
#
# _framework density 21.402253999999999
#
# number of rings (size 3 to 8) (size 9 to 14) (size 15 to 20)
#    0.000    0.800    4.000    3.600    1.400    4.800 
#    3.600    1.000    0.000    0.000    0.000    0.000 
#    0.000    0.000    0.000    0.000    0.000    0.000 
#
# Total GULP energy -247920.662916 kJ/mol
# GULP energy per Si atom -12396.033146 kJ/mol
# Density = 2.135354 g / cm^3
# Si number density = 21.402254 Si / 1000 Ang^3
#
#
#
# Elastic Constant Matrix: (Units=GPa)
#
#
# Indices 1 2 3 4 5 6 
#
# 1 168.5146 61.8774 7.0973 0.0000 0.0000 0.0000
# 2 61.8774 109.1806 21.7611 0.0000 0.0000 0.0000
# 3 7.0973 21.7611 77.7545 0.0000 0.0000 0.0000
# 4 0.0000 0.0000 0.0000 37.9352 0.0000 0.0000
# 5 0.0000 0.0000 0.0000 0.0000 22.9096 0.0000
# 6 0.0000 0.0000 0.0000 0.0000 0.0000 55.6199
#
#
#
# Elastic Compliance Matrix: (Units=1/GPa)
#
#
# Indices 1 2 3 4 5 6 
#
# 1 0.007515 -0.004366 0.000536 0.000000 0.000000 0.000000
# 2 -0.004366 0.012237 -0.003026 0.000000 0.000000 0.000000
# 3 0.000536 -0.003026 0.013659 0.000000 0.000000 0.000000
# 4 0.000000 0.000000 0.000000 0.026361 0.000000 0.000000
# 5 0.000000 0.000000 0.000000 0.000000 0.043650 0.000000
# 6 0.000000 0.000000 0.000000 0.000000 0.000000 0.017979
#
#
# Mechanical properties :
#
#
# Convention : Reuss Voigt Hill
#
# Bulk Modulus (GPa) = 50.76572 59.65789 55.21181
# Shear Modulus (GPa) = 35.29130 40.94052 38.11591
#
# Velocity S-wave (km/s) = 4.06514 4.37842 4.22468
# Velocity P-wave (km/s) = 6.76794 7.31409 7.04631
#
# Compressibility (1/GPa) = 0.01969833
#
# Stress axis : x y z
#
# Youngs Moduli (GPa) = 133.07262 81.72257 73.21182
#
# Poissons Ratio (x) = 0.35678 -0.03923
# Poissons Ratio (y) = 0.58096 0.22155
# Poissons Ratio (z) = -0.07131 0.24730
#
# Static dielectric constant tensor:
#      x y z
#    x 4.251940 0.000000 0.000000 
#    y 0.000000 4.054860 0.000000 
#    z 0.000000 0.000000 3.616970 
# 
# 
# High freq. dielectric constant tensor:
#      x y z
#    x 1.850940 0.000000 0.000000 
#    y 0.000000 1.826700 0.000000 
#    z 0.000000 0.000000 1.838340 
# 
# From -- ./inp_files/4115.got.cif
#   From: 2010.03.12/outbox.cif.g09.slc.cpg/sg20_3_cif.got.tgz:4115.got - 2010.04.14 01:38:04.
