data_PCOD8159539
_publ_section_title
;
Structure prediction by ZEFSAII (Michael W. Deem and Ramdas Pophale) SiO2 
 PCOD8159539
Probable space group: C 2 2 21
;
_chemical_formula_sum "Si O2"
_cell_formula_units_Z 44
_cell_length_a 11.570302
_cell_length_b 8.531802
_cell_length_c 20.083977
_cell_angle_alpha 90.000000
_cell_angle_beta 90.000000
_cell_angle_gamma 90.000000
_cell_volume 1982.600349
_symmetry_space_group_name_H-M "C 2 2 21"
_symmetry_group_IT_number 20
_symmetry_cell_setting 'orthorhombic'
loop_
_space_group_symop_operation_xyz
x,y,z
-x,-y,1/2+z
x,-y,-z
-x,y,1/2-z
1/2+x,1/2+y,z
1/2-x,1/2-y,1/2+z
1/2+x,1/2-y,-z
1/2-x,1/2+y,1/2-z
loop_
_atom_site_type_symbol
_atom_site_label
_atom_site_fract_x
_atom_site_fract_y
_atom_site_fract_z
Si Si1 0.371945 0.738219 0.906742
Si Si2 0.811381 0.002989 0.423429
Si Si3 0.768615 0.000000 0.000000
Si Si4 0.229611 0.569710 0.794129
Si Si5 0.890562 0.885898 0.706504
Si Si6 0.137073 0.671992 0.110430
O O1 0.307389 0.902635 0.916572
O O2 0.352126 0.637359 0.973646
O O3 0.325239 0.637780 0.844707
O O4 0.505018 0.776280 0.896532
O O5 0.906100 0.086472 0.373542
O O6 0.857212 0.000000 0.500000
O O7 0.786127 0.828001 0.397721
O O8 0.677455 0.948835 0.944838
O O9 0.139039 0.705984 0.776786
O O10 0.290115 0.507833 0.727306
O O11 0.160595 0.416376 0.820351
O O12 0.000000 0.932738 0.750000
#
# Coordination Sequence:
#
# PCOD8159539 Si02
#       6
#     8   8   4   8   8   8
#     4  10  23  41  64  97 133 175 219 275 338 393
#     4  11  23  43  67 102 135 173 228 278 337 417
#     4  10  22  36  58  96 134 166 224 262 322 404
#     4  10  24  43  64 101 128 171 234 275 325 417
#     4  11  24  45  71  96 135 182 226 283 346 403
#     4  11  23  40  65  94 135 177 215 278 331 397
#
# _framework density 22.193076999999999
#
# number of rings (size 3 to 8) (size 9 to 14) (size 15 to 20)
#    0.000    1.455    1.818    2.182    2.545    4.364 
#    0.000    4.545    0.000    0.000    0.000    0.000 
#    0.000    0.000    0.000    0.000    0.000    0.000 
#
# Total GULP energy -272735.980102 kJ/mol
# GULP energy per Si atom -12397.090005 kJ/mol
# Density = 2.214256 g / cm^3
# Si number density = 22.193077 Si / 1000 Ang^3
#
#
#
# Elastic Constant Matrix: (Units=GPa)
#
#
# Indices 1 2 3 4 5 6 
#
# 1 104.7424 36.9067 42.3837 0.0000 0.0000 0.0000
# 2 36.9067 135.0917 32.6405 0.0000 0.0000 0.0000
# 3 42.3837 32.6405 106.4545 0.0000 0.0000 0.0000
# 4 0.0000 0.0000 0.0000 41.1012 0.0000 0.0000
# 5 0.0000 0.0000 0.0000 0.0000 22.2385 0.0000
# 6 0.0000 0.0000 0.0000 0.0000 0.0000 30.4173
#
#
#
# Elastic Compliance Matrix: (Units=1/GPa)
#
#
# Indices 1 2 3 4 5 6 
#
# 1 0.012005 -0.002295 -0.004076 0.000000 0.000000 0.000000
# 2 -0.002295 0.008433 -0.001672 0.000000 0.000000 0.000000
# 3 -0.004076 -0.001672 0.011529 0.000000 0.000000 0.000000
# 4 0.000000 0.000000 0.000000 0.024330 0.000000 0.000000
# 5 0.000000 0.000000 0.000000 0.000000 0.044967 0.000000
# 6 0.000000 0.000000 0.000000 0.000000 0.000000 0.032876
#
#
# Mechanical properties :
#
#
# Convention : Reuss Voigt Hill
#
# Bulk Modulus (GPa) = 62.96601 63.35003 63.15802
# Shear Modulus (GPa) = 32.14997 34.37526 33.26262
#
# Velocity S-wave (km/s) = 3.81024 3.93990 3.87561
# Velocity P-wave (km/s) = 6.91309 7.02168 6.96759
#
# Compressibility (1/GPa) = 0.01588158
#
# Stress axis : x y z
#
# Youngs Moduli (GPa) = 83.29690 118.57672 86.73611
#
# Poissons Ratio (x) = 0.27213 0.35354
# Poissons Ratio (y) = 0.19116 0.14503
# Poissons Ratio (z) = 0.33953 0.19827
#
# Static dielectric constant tensor:
#      x y z
#    x 3.595880 0.000000 0.000000 
#    y 0.000000 4.372770 0.000000 
#    z 0.000000 0.000000 4.237180 
# 
# 
# High freq. dielectric constant tensor:
#      x y z
#    x 1.844170 0.000000 0.000000 
#    y 0.000000 1.896440 0.000000 
#    z 0.000000 0.000000 1.883760 
# 
# From -- ./inp_files/29060.got.cif
#   From: 2010.03.12/outbox.cif.g09.slc.cpg/sg20_15_cif.got.tgz:29060.got - 2010.04.14 01:38:04.
