data_PCOD8159894
_publ_section_title
;
Structure prediction by ZEFSAII (Michael W. Deem and Ramdas Pophale) SiO2 
 PCOD8159894
Probable space group: C 2 2 21
;
_chemical_formula_sum "Si O2"
_cell_formula_units_Z 48
_cell_length_a 8.112337
_cell_length_b 17.804596
_cell_length_c 15.349446
_cell_angle_alpha 90.000000
_cell_angle_beta 90.000000
_cell_angle_gamma 90.000000
_cell_volume 2217.026134
_symmetry_space_group_name_H-M "C 2 2 21"
_symmetry_group_IT_number 20
_symmetry_cell_setting 'orthorhombic'
loop_
_space_group_symop_operation_xyz
x,y,z
-x,-y,1/2+z
x,-y,-z
-x,y,1/2-z
1/2+x,1/2+y,z
1/2-x,1/2-y,1/2+z
1/2+x,1/2-y,-z
1/2-x,1/2+y,1/2-z
loop_
_atom_site_type_symbol
_atom_site_label
_atom_site_fract_x
_atom_site_fract_y
_atom_site_fract_z
Si Si1 0.325789 0.324509 0.723977
Si Si2 0.372645 0.806824 0.610063
Si Si3 0.658323 0.190148 0.912817
Si Si4 0.511529 0.341705 0.349454
Si Si5 0.117304 0.568575 0.385022
Si Si6 0.330181 0.096224 0.920594
O O1 0.500000 0.359202 0.750000
O O2 0.259098 0.290209 0.814688
O O3 0.341356 0.261336 0.650437
O O4 0.219958 0.395056 0.692754
O O5 0.305251 0.787392 0.513545
O O6 0.519751 0.748535 0.632773
O O7 0.436114 0.892975 0.614339
O O8 0.477584 0.154163 0.902205
O O9 0.808731 0.132709 0.886595
O O10 0.500000 0.363938 0.250000
O O11 0.349671 0.376556 0.392338
O O12 0.111894 0.479313 0.370461
O O13 0.199869 0.584113 0.477680
#
# Coordination Sequence:
#
# PCOD8159894 Si02
#       6
#     8   8   8   8   8   8
#     4  12  24  40  68 102 132 174 227 272 328 401
#     4  11  23  43  68  97 133 177 220 275 332 389
#     4  11  25  43  70 100 134 175 226 275 330 395
#     4  12  23  42  67  99 135 166 223 277 325 390
#     4  10  22  48  65  92 137 173 219 274 337 392
#     4  10  25  45  70  95 132 180 216 276 339 391
#
# _framework density 21.650625999999999
#
# number of rings (size 3 to 8) (size 9 to 14) (size 15 to 20)
#    0.000    1.000    3.333    2.500    7.000    0.667 
#    9.000    1.667    0.000    0.000    0.000    0.000 
#    0.000    0.000    0.000    0.000    0.000    0.000 
#
# Total GULP energy -297442.177273 kJ/mol
# GULP energy per Si atom -12393.424053 kJ/mol
# Density = 2.160135 g / cm^3
# Si number density = 21.650626 Si / 1000 Ang^3
#
#
#
# Elastic Constant Matrix: (Units=GPa)
#
#
# Indices 1 2 3 4 5 6 
#
# 1 89.6712 -5.2322 35.1082 0.0000 0.0000 0.0000
# 2 -5.2322 67.2682 17.1164 0.0000 0.0000 0.0000
# 3 35.1082 17.1164 150.4225 0.0000 0.0000 0.0000
# 4 0.0000 0.0000 0.0000 22.3877 0.0000 0.0000
# 5 0.0000 0.0000 0.0000 0.0000 37.1337 0.0000
# 6 0.0000 0.0000 0.0000 0.0000 0.0000 23.3222
#
#
#
# Elastic Compliance Matrix: (Units=1/GPa)
#
#
# Indices 1 2 3 4 5 6 
#
# 1 0.012473 0.001762 -0.003112 0.000000 0.000000 0.000000
# 2 0.001762 0.015558 -0.002182 0.000000 0.000000 0.000000
# 3 -0.003112 -0.002182 0.007622 0.000000 0.000000 0.000000
# 4 0.000000 0.000000 0.000000 0.044667 0.000000 0.000000
# 5 0.000000 0.000000 0.000000 0.000000 0.026930 0.000000
# 6 0.000000 0.000000 0.000000 0.000000 0.000000 0.042878
#
#
# Mechanical properties :
#
#
# Convention : Reuss Voigt Hill
#
# Bulk Modulus (GPa) = 34.97626 44.59408 39.78517
# Shear Modulus (GPa) = 29.99027 33.92670 31.95848
#
# Velocity S-wave (km/s) = 3.72585 3.96284 3.84617
# Velocity P-wave (km/s) = 5.89061 6.44831 6.17575
#
# Compressibility (1/GPa) = 0.02859082
#
# Stress axis : x y z
#
# Youngs Moduli (GPa) = 80.17361 64.27556 131.19183
#
# Poissons Ratio (x) = -0.11325 0.40822
# Poissons Ratio (y) = -0.14126 0.28620
# Poissons Ratio (z) = 0.24947 0.14022
#
# Static dielectric constant tensor:
#      x y z
#    x 4.030670 0.000000 0.000000 
#    y 0.000000 3.808500 0.000000 
#    z 0.000000 0.000000 4.130350 
# 
# 
# High freq. dielectric constant tensor:
#      x y z
#    x 1.860280 0.000000 0.000000 
#    y 0.000000 1.823100 0.000000 
#    z 0.000000 0.000000 1.869070 
# 
# From -- ./inp_files/18912.got.cif
#   From: 2010.03.12/outbox.cif.g09.slc.cpg/sg20_10_cif.got.tgz:18912.got - 2010.04.14 01:38:04.
