data_PCOD8159379
_publ_section_title
;
Structure prediction by ZEFSAII (Michael W. Deem and Ramdas Pophale) SiO2 
 PCOD8159379
Probable space group: C 2 2 21
;
_chemical_formula_sum "Si O2"
_cell_formula_units_Z 48
_cell_length_a 8.363161
_cell_length_b 15.276458
_cell_length_c 18.126619
_cell_angle_alpha 90.000000
_cell_angle_beta 90.000000
_cell_angle_gamma 90.000000
_cell_volume 2315.847377
_symmetry_space_group_name_H-M "C 2 2 21"
_symmetry_group_IT_number 20
_symmetry_cell_setting 'orthorhombic'
loop_
_space_group_symop_operation_xyz
x,y,z
-x,-y,1/2+z
x,-y,-z
-x,y,1/2-z
1/2+x,1/2+y,z
1/2-x,1/2-y,1/2+z
1/2+x,1/2-y,-z
1/2-x,1/2+y,1/2-z
loop_
_atom_site_type_symbol
_atom_site_label
_atom_site_fract_x
_atom_site_fract_y
_atom_site_fract_z
Si Si1 0.946634 0.648855 0.170051
Si Si2 0.569135 0.622984 0.172926
Si Si3 0.098609 0.216874 0.941916
Si Si4 0.038456 0.544408 0.665285
Si Si5 0.969613 0.283244 0.090705
Si Si6 0.140483 0.028839 0.919615
O O1 0.757125 0.641464 0.171285
O O2 0.026462 0.554121 0.149626
O O3 0.000000 0.681336 0.250000
O O4 0.005219 0.719202 0.111875
O O5 0.500000 0.588047 0.250000
O O6 0.478410 0.713341 0.156500
O O7 0.527640 0.548755 0.111677
O O8 0.286946 0.210688 0.931930
O O9 0.035727 0.117421 0.929721
O O10 0.077992 0.249566 0.024605
O O11 0.225940 0.544279 0.643751
O O12 0.000000 0.567745 0.750000
O O13 0.960658 0.621961 0.616232
O O14 0.212084 0.000000 0.000000
#
# Coordination Sequence:
#
# PCOD8159379 Si02
#       6
#     8   8   8   8   8   8
#     4  10  22  41  61  92 126 160 211 260 317 376
#     4  11  22  40  66  90 124 169 208 259 319 381
#     4  11  23  39  64  93 124 172 211 263 317 385
#     4   9  21  38  64  90 123 167 210 257 320 381
#     4  11  22  39  61  91 128 165 216 256 324 375
#     4  10  21  41  64  90 128 170 211 261 322 378
#
# _framework density 20.726755000000001
#
# number of rings (size 3 to 8) (size 9 to 14) (size 15 to 20)
#    0.000    1.667    1.667    2.500    7.000    2.000 
#    0.000   15.000    0.000    0.000    0.000    0.000 
#    0.000    0.000    0.000    0.000    0.000    0.000 
#
# Total GULP energy -297446.401439 kJ/mol
# GULP energy per Si atom -12393.600060 kJ/mol
# Density = 2.067958 g / cm^3
# Si number density = 20.726755 Si / 1000 Ang^3
#
#
#
# Elastic Constant Matrix: (Units=GPa)
#
#
# Indices 1 2 3 4 5 6 
#
# 1 46.6254 29.9782 33.9218 0.0000 0.0000 0.0000
# 2 29.9782 154.1544 61.6101 0.0000 0.0000 0.0000
# 3 33.9218 61.6101 130.2128 0.0000 0.0000 0.0000
# 4 0.0000 0.0000 0.0000 44.3007 0.0000 0.0000
# 5 0.0000 0.0000 0.0000 0.0000 37.3523 0.0000
# 6 0.0000 0.0000 0.0000 0.0000 0.0000 47.3972
#
#
#
# Elastic Compliance Matrix: (Units=1/GPa)
#
#
# Indices 1 2 3 4 5 6 
#
# 1 0.027596 -0.003075 -0.005734 0.000000 0.000000 0.000000
# 2 -0.003075 0.008342 -0.003146 0.000000 0.000000 0.000000
# 3 -0.005734 -0.003146 0.010662 0.000000 0.000000 0.000000
# 4 0.000000 0.000000 0.000000 0.022573 0.000000 0.000000
# 5 0.000000 0.000000 0.000000 0.000000 0.026772 0.000000
# 6 0.000000 0.000000 0.000000 0.000000 0.000000 0.021098
#
#
# Mechanical properties :
#
#
# Convention : Reuss Voigt Hill
#
# Bulk Modulus (GPa) = 44.07150 64.66812 54.36981
# Shear Modulus (GPa) = 33.66582 39.50887 36.58734
#
# Velocity S-wave (km/s) = 4.03459 4.37072 4.20601
# Velocity P-wave (km/s) = 6.55844 7.53252 7.06230
#
# Compressibility (1/GPa) = 0.02269040
#
# Stress axis : x y z
#
# Youngs Moduli (GPa) = 36.23648 119.86993 93.78938
#
# Poissons Ratio (x) = 0.36858 0.53782
# Poissons Ratio (y) = 0.11142 0.29508
# Poissons Ratio (z) = 0.20779 0.37713
#
# Static dielectric constant tensor:
#      x y z
#    x 3.253130 0.000000 0.000000 
#    y 0.000000 4.547300 0.000000 
#    z 0.000000 0.000000 3.889560 
# 
# 
# High freq. dielectric constant tensor:
#      x y z
#    x 1.772110 0.000000 0.000000 
#    y 0.000000 1.839230 0.000000 
#    z 0.000000 0.000000 1.821300 
# 
# From -- ./inp_files/23452.got.cif
#   From: 2010.03.12/outbox.cif.g09.slc.cpg/sg20_12_cif.got.tgz:23452.got - 2010.04.14 01:38:04.
