data_PCOD8159106
_publ_section_title
;
Structure prediction by ZEFSAII (Michael W. Deem and Ramdas Pophale) SiO2 
 PCOD8159106
Probable space group: C 2 2 21
;
_chemical_formula_sum "Si O2"
_cell_formula_units_Z 64
_cell_length_a 22.931141
_cell_length_b 15.043325
_cell_length_c 8.279052
_cell_angle_alpha 90.000000
_cell_angle_beta 90.000000
_cell_angle_gamma 90.000000
_cell_volume 2855.946801
_symmetry_space_group_name_H-M "C 2 2 21"
_symmetry_group_IT_number 20
_symmetry_cell_setting 'orthorhombic'
loop_
_space_group_symop_operation_xyz
x,y,z
-x,-y,1/2+z
x,-y,-z
-x,y,1/2-z
1/2+x,1/2+y,z
1/2-x,1/2-y,1/2+z
1/2+x,1/2-y,-z
1/2-x,1/2+y,1/2-z
loop_
_atom_site_type_symbol
_atom_site_label
_atom_site_fract_x
_atom_site_fract_y
_atom_site_fract_z
Si Si1 0.623883 0.818830 0.630494
Si Si2 0.753890 0.348611 0.840053
Si Si3 0.903126 0.398916 0.529801
Si Si4 0.469014 0.408938 0.582101
Si Si5 0.646103 0.557542 0.248440
Si Si6 0.340634 0.624265 0.900093
Si Si7 0.503439 0.776086 0.558958
Si Si8 0.283859 0.828439 0.474558
O O1 0.685141 0.858962 0.555512
O O2 0.606488 0.879592 0.781484
O O3 0.636689 0.715503 0.677669
O O4 0.568559 0.811603 0.507534
O O5 0.711452 0.433737 0.828078
O O6 0.777971 0.320837 0.665990
O O7 0.713022 0.271319 0.908663
O O8 0.921315 0.500000 0.500000
O O9 0.956084 0.337009 0.466867
O O10 0.844123 0.377936 0.429386
O O11 0.490156 0.500000 0.500000
O O12 0.500000 0.399619 0.750000
O O13 0.399470 0.409914 0.613534
O O14 0.490418 0.326710 0.475296
O O15 0.634381 0.454536 0.289630
O O16 0.639433 0.615309 0.412563
O O17 0.270100 0.618207 0.896405
O O18 0.500000 0.788652 0.750000
#
# Coordination Sequence:
#
# PCOD8159106 Si02
#       8
#     8   8   8   8   8   8   8   8
#     4   9  19  36  63  86 125 167 211 257 331 389
#     4   9  18  35  58  90 118 160 206 256 318 384
#     4  10  21  35  64  94 120 160 220 269 313 381
#     4  12  27  40  62  94 130 174 217 267 323 402
#     4  10  21  35  60  92 133 162 219 266 318 398
#     4   9  19  34  61  93 126 175 204 261 332 403
#     4  10  22  42  64  89 125 171 216 269 332 380
#     4   9  18  33  58  87 125 158 206 257 319 384
#
# _framework density 22.409381
#
# number of rings (size 3 to 8) (size 9 to 14) (size 15 to 20)
#    0.000    2.250    0.000    1.875   12.250    0.000 
#    2.250    1.875    0.000    0.750    0.000    0.000 
#    0.000    0.000    0.000    0.000    0.000    0.000 
#
# Total GULP energy -396525.372554 kJ/mol
# GULP energy per Si atom -12391.417892 kJ/mol
# Density = 2.235838 g / cm^3
# Si number density = 22.409381 Si / 1000 Ang^3
#
#
#
# Elastic Constant Matrix: (Units=GPa)
#
#
# Indices 1 2 3 4 5 6 
#
# 1 140.0785 37.0023 14.9412 0.0000 0.0000 0.0000
# 2 37.0023 104.6742 14.3416 0.0000 0.0000 0.0000
# 3 14.9412 14.3416 22.1334 0.0000 0.0000 0.0000
# 4 0.0000 0.0000 0.0000 30.7965 0.0000 0.0000
# 5 0.0000 0.0000 0.0000 0.0000 31.3847 0.0000
# 6 0.0000 0.0000 0.0000 0.0000 0.0000 -5.9042
#
#
#
# Elastic Compliance Matrix: (Units=1/GPa)
#
#
# Indices 1 2 3 4 5 6 
#
# 1 0.008186 -0.002345 -0.004006 0.000000 0.000000 0.000000
# 2 -0.002345 0.011156 -0.005646 0.000000 0.000000 0.000000
# 3 -0.004006 -0.005646 0.051543 0.000000 0.000000 0.000000
# 4 0.000000 0.000000 0.000000 0.032471 0.000000 0.000000
# 5 0.000000 0.000000 0.000000 0.000000 0.031863 0.000000
# 6 0.000000 0.000000 0.000000 0.000000 0.000000 -0.169370
#
#
# Mechanical properties :
#
#
# Convention : Reuss Voigt Hill
#
# Bulk Modulus (GPa) = 21.32602 44.38404 32.85503
# Shear Modulus (GPa) = 913.58610 24.62878 469.10744
#
# Velocity S-wave (km/s) = 20.21300 3.31877 14.48412
# Velocity P-wave (km/s) = 23.54338 5.87662 17.15846
#
# Compressibility (1/GPa) = 0.04689108
#
# Stress axis : x y z
#
# Youngs Moduli (GPa) = 122.16649 89.63926 19.40111
#
# Poissons Ratio (x) = 0.21017 0.07773
# Poissons Ratio (y) = 0.28644 0.10953
# Poissons Ratio (z) = 0.48945 0.50608
#
# Static dielectric constant tensor:
#      x y z
#    x 5.089700 0.000000 0.000000 
#    y 0.000000 3.309660 0.000000 
#    z 0.000000 0.000000 4.077480 
# 
# 
# High freq. dielectric constant tensor:
#      x y z
#    x 1.909970 0.000000 0.000000 
#    y 0.000000 1.866170 0.000000 
#    z 0.000000 0.000000 1.841920 
# 
# From -- ./inp_files/10796.got.cif
#   From: 2010.03.12/outbox.cif.g09.slc.cpg/sg20_6_cif.got.tgz:10796.got - 2010.04.14 01:38:04.
