data_PCOD8159521
_publ_section_title
;
Structure prediction by ZEFSAII (Michael W. Deem and Ramdas Pophale) SiO2 
 PCOD8159521
Probable space group: C 2 2 21
;
_chemical_formula_sum "Si O2"
_cell_formula_units_Z 60
_cell_length_a 13.200106
_cell_length_b 17.571275
_cell_length_c 11.961951
_cell_angle_alpha 90.000000
_cell_angle_beta 90.000000
_cell_angle_gamma 90.000000
_cell_volume 2774.487123
_symmetry_space_group_name_H-M "C 2 2 21"
_symmetry_group_IT_number 20
_symmetry_cell_setting 'orthorhombic'
loop_
_space_group_symop_operation_xyz
x,y,z
-x,-y,1/2+z
x,-y,-z
-x,y,1/2-z
1/2+x,1/2+y,z
1/2-x,1/2-y,1/2+z
1/2+x,1/2-y,-z
1/2-x,1/2+y,1/2-z
loop_
_atom_site_type_symbol
_atom_site_label
_atom_site_fract_x
_atom_site_fract_y
_atom_site_fract_z
Si Si1 0.863486 0.328318 0.936442
Si Si2 0.596042 0.805607 0.934989
Si Si3 0.386077 0.061489 0.261311
Si Si4 0.569295 0.500000 0.500000
Si Si5 0.068738 0.903603 0.850275
Si Si6 0.756897 0.821880 0.347037
Si Si7 0.807427 0.970559 0.221401
Si Si8 0.317375 0.249576 0.641548
O O1 0.855674 0.401159 0.856223
O O2 0.801419 0.256941 0.887919
O O3 0.976107 0.295298 0.941659
O O4 0.814616 0.353947 0.054429
O O5 0.624608 0.877477 0.860447
O O6 0.651297 0.730834 0.887970
O O7 0.634177 0.815886 0.062880
O O8 0.500000 0.028909 0.250000
O O9 0.310074 0.993992 0.292141
O O10 0.498495 0.568354 0.454915
O O11 0.638504 0.531816 0.600753
O O12 0.134552 0.831739 0.887683
O O13 0.000000 0.872966 0.750000
O O14 0.137286 0.972356 0.805795
O O15 0.810410 0.888029 0.276695
O O16 0.676913 0.774803 0.270311
#
# Coordination Sequence:
#
# PCOD8159521 Si02
#       8
#     8   8   8   4   8   8   8   8
#     4  10  22  43  66  94 134 179 224 281 337 402
#     4  10  23  42  67  99 130 180 232 277 345 410
#     4  10  21  46  70  94 134 190 228 276 355 410
#     4  10  26  44  68 100 136 190 220 280 356 410
#     4  10  23  43  65  97 134 184 224 276 353 412
#     4  11  25  41  67 108 130 178 231 288 342 403
#     4  11  24  46  69 100 146 174 234 287 343 425
#     4  11  23  42  67  98 134 176 225 290 337 408
#
# _framework density 21.625616999999998
#
# number of rings (size 3 to 8) (size 9 to 14) (size 15 to 20)
#    0.000    1.600    2.667    0.000    7.467    1.600 
#    7.200    0.000    0.000    0.000    0.000    0.000 
#    0.000    0.000    0.000    0.000    0.000    0.000 
#
# Total GULP energy -371952.414781 kJ/mol
# GULP energy per Si atom -12398.413826 kJ/mol
# Density = 2.157640 g / cm^3
# Si number density = 21.625617 Si / 1000 Ang^3
#
#
#
# Elastic Constant Matrix: (Units=GPa)
#
#
# Indices 1 2 3 4 5 6 
#
# 1 117.7264 26.7854 44.7124 0.0000 0.0000 0.0000
# 2 26.7854 54.0502 23.7333 0.0000 0.0000 0.0000
# 3 44.7124 23.7333 138.3170 0.0000 0.0000 0.0000
# 4 0.0000 0.0000 0.0000 20.5544 0.0000 0.0000
# 5 0.0000 0.0000 0.0000 0.0000 36.6698 0.0000
# 6 0.0000 0.0000 0.0000 0.0000 0.0000 29.7316
#
#
#
# Elastic Compliance Matrix: (Units=1/GPa)
#
#
# Indices 1 2 3 4 5 6 
#
# 1 0.010421 -0.003985 -0.002685 0.000000 0.000000 0.000000
# 2 -0.003985 0.021533 -0.002406 0.000000 0.000000 0.000000
# 3 -0.002685 -0.002406 0.008511 0.000000 0.000000 0.000000
# 4 0.000000 0.000000 0.000000 0.048651 0.000000 0.000000
# 5 0.000000 0.000000 0.000000 0.000000 0.027270 0.000000
# 6 0.000000 0.000000 0.000000 0.000000 0.000000 0.033634
#
#
# Mechanical properties :
#
#
# Convention : Reuss Voigt Hill
#
# Bulk Modulus (GPa) = 44.82061 55.61734 50.21897
# Shear Modulus (GPa) = 28.47213 31.71532 30.09373
#
# Velocity S-wave (km/s) = 3.63242 3.83373 3.73443
# Velocity P-wave (km/s) = 6.19382 6.73578 6.47048
#
# Compressibility (1/GPa) = 0.02231116
#
# Stress axis : x y z
#
# Youngs Moduli (GPa) = 95.96302 46.44044 117.50086
#
# Poissons Ratio (x) = 0.18508 0.31546
# Poissons Ratio (y) = 0.38244 0.28276
# Poissons Ratio (z) = 0.25764 0.11176
#
# Static dielectric constant tensor:
#      x y z
#    x 4.146360 0.000000 0.000000 
#    y 0.000000 3.514900 0.000000 
#    z 0.000000 0.000000 4.229970 
# 
# 
# High freq. dielectric constant tensor:
#      x y z
#    x 1.863300 0.000000 0.000000 
#    y 0.000000 1.823010 0.000000 
#    z 0.000000 0.000000 1.867120 
# 
# From -- ./inp_files/14372.got.cif
#   From: 2010.03.12/outbox.cif.g09.slc.cpg/sg20_8_cif.got.tgz:14372.got - 2010.04.14 01:38:04.
