data_PCOD8159533
_publ_section_title
;
Structure prediction by ZEFSAII (Michael W. Deem and Ramdas Pophale) SiO2 
 PCOD8159533
Probable space group: C 2 2 21
;
_chemical_formula_sum "Si O2"
_cell_formula_units_Z 60
_cell_length_a 5.383060
_cell_length_b 16.901696
_cell_length_c 30.845599
_cell_angle_alpha 90.000000
_cell_angle_beta 90.000000
_cell_angle_gamma 90.000000
_cell_volume 2806.420312
_symmetry_space_group_name_H-M "C 2 2 21"
_symmetry_group_IT_number 20
_symmetry_cell_setting 'orthorhombic'
loop_
_space_group_symop_operation_xyz
x,y,z
-x,-y,1/2+z
x,-y,-z
-x,y,1/2-z
1/2+x,1/2+y,z
1/2-x,1/2-y,1/2+z
1/2+x,1/2-y,-z
1/2-x,1/2+y,1/2-z
loop_
_atom_site_type_symbol
_atom_site_label
_atom_site_fract_x
_atom_site_fract_y
_atom_site_fract_z
Si Si1 0.007967 0.481786 0.701001
Si Si2 0.744471 0.347841 0.501995
Si Si3 0.563115 0.238087 0.431125
Si Si4 0.006752 0.669418 0.701718
Si Si5 0.435234 0.000000 0.000000
Si Si6 0.994145 0.171302 0.845615
Si Si7 0.012757 0.983380 0.651945
Si Si8 0.861427 0.913184 0.564951
O O1 0.998263 0.575487 0.702943
O O2 0.759237 0.451933 0.676416
O O3 0.000000 0.447374 0.750000
O O4 0.261349 0.454554 0.676645
O O5 0.730640 0.299439 0.457702
O O6 0.837820 0.287876 0.538609
O O7 0.915130 0.421133 0.490114
O O8 0.492514 0.382478 0.521270
O O9 0.459022 0.284178 0.390233
O O10 0.704918 0.159346 0.415598
O O11 0.764902 0.700723 0.675729
O O12 0.000000 0.704532 0.750000
O O13 0.268270 0.697879 0.682320
O O14 0.293682 0.013347 0.045673
O O15 0.987932 0.077533 0.852485
O O16 0.030690 0.946128 0.603785
#
# Coordination Sequence:
#
# PCOD8159533 Si02
#       8
#     8   8   8   8   4   8   8   8
#     4   9  18  36  61  94 128 162 203 266 325 382
#     4  11  24  44  63  90 124 176 215 271 324 389
#     4  11  25  41  63  89 128 171 219 258 325 391
#     4   9  18  36  60  93 129 160 205 263 326 376
#     4  10  26  40  68  90 124 166 218 276 326 378
#     4  10  22  35  63  97 124 165 211 269 315 383
#     4  10  22  36  63  96 128 161 215 266 321 381
#     4  11  25  43  60  93 126 174 208 272 325 386
#
# _framework density 21.379550999999999
#
# number of rings (size 3 to 8) (size 9 to 14) (size 15 to 20)
#    0.000    1.867    1.333    1.200    9.333    5.333 
#    0.000    0.000    0.000    3.200    0.000    0.000 
#    0.000    0.000    0.000    0.000    0.000    0.000 
#
# Total GULP energy -371892.326199 kJ/mol
# GULP energy per Si atom -12396.410873 kJ/mol
# Density = 2.133089 g / cm^3
# Si number density = 21.379551 Si / 1000 Ang^3
#
#
#
# Elastic Constant Matrix: (Units=GPa)
#
#
# Indices 1 2 3 4 5 6 
#
# 1 132.3811 24.0842 47.1924 0.0000 0.0000 0.0000
# 2 24.0842 53.7581 47.8985 0.0000 0.0000 0.0000
# 3 47.1924 47.8985 130.2893 0.0000 0.0000 0.0000
# 4 0.0000 0.0000 0.0000 23.3802 0.0000 0.0000
# 5 0.0000 0.0000 0.0000 0.0000 -34.8149 0.0000
# 6 0.0000 0.0000 0.0000 0.0000 0.0000 84.7998
#
#
#
# Elastic Compliance Matrix: (Units=1/GPa)
#
#
# Indices 1 2 3 4 5 6 
#
# 1 0.008769 -0.001634 -0.002576 0.000000 0.000000 0.000000
# 2 -0.001634 0.027968 -0.009690 0.000000 0.000000 0.000000
# 3 -0.002576 -0.009690 0.012171 0.000000 0.000000 0.000000
# 4 0.000000 0.000000 0.000000 0.042771 0.000000 0.000000
# 5 0.000000 0.000000 0.000000 0.000000 -0.028723 0.000000
# 6 0.000000 0.000000 0.000000 0.000000 0.000000 0.011792
#
#
# Mechanical properties :
#
#
# Convention : Reuss Voigt Hill
#
# Bulk Modulus (GPa) = 47.37433 61.64207 54.50820
# Shear Modulus (GPa) = 45.62739 27.82323 36.72531
#
# Velocity S-wave (km/s) = 4.62471 3.61140 4.14910
# Velocity P-wave (km/s) = 7.12208 6.80327 6.96450
#
# Compressibility (1/GPa) = 0.02110848
#
# Stress axis : x y z
#
# Youngs Moduli (GPa) = 114.03268 35.75563 82.16554
#
# Poissons Ratio (x) = 0.05842 0.21164
# Poissons Ratio (y) = 0.18631 0.79618
# Poissons Ratio (z) = 0.29372 0.34647
#
# Static dielectric constant tensor:
#      x y z
#    x 4.051130 0.000000 0.000000 
#    y 0.000000 3.925270 0.000000 
#    z 0.000000 0.000000 3.987800 
# 
# 
# High freq. dielectric constant tensor:
#      x y z
#    x 1.846340 0.000000 0.000000 
#    y 0.000000 1.818450 0.000000 
#    z 0.000000 0.000000 1.843310 
# 
# From -- ./inp_files/29923.got.cif
#   From: 2010.03.12/outbox.cif.g09.slc.cpg/sg20_15_cif.got.tgz:29923.got - 2010.04.14 01:38:04.
