data_PCOD8159435
_publ_section_title
;
Structure prediction by ZEFSAII (Michael W. Deem and Ramdas Pophale) SiO2 
 PCOD8159435
Probable space group: C 2 2 21
;
_chemical_formula_sum "Si O2"
_cell_formula_units_Z 48
_cell_length_a 5.133308
_cell_length_b 33.720301
_cell_length_c 13.793080
_cell_angle_alpha 90.000000
_cell_angle_beta 90.000000
_cell_angle_gamma 90.000000
_cell_volume 2387.536505
_symmetry_space_group_name_H-M "C 2 2 21"
_symmetry_group_IT_number 20
_symmetry_cell_setting 'orthorhombic'
loop_
_space_group_symop_operation_xyz
x,y,z
-x,-y,1/2+z
x,-y,-z
-x,y,1/2-z
1/2+x,1/2+y,z
1/2-x,1/2-y,1/2+z
1/2+x,1/2-y,-z
1/2-x,1/2+y,1/2-z
loop_
_atom_site_type_symbol
_atom_site_label
_atom_site_fract_x
_atom_site_fract_y
_atom_site_fract_z
Si Si1 0.076532 0.416640 0.139480
Si Si2 0.567867 0.387718 0.046908
Si Si3 0.996796 0.201729 0.966426
Si Si4 0.584841 0.003946 0.146017
Si Si5 0.073206 0.964139 0.927774
Si Si6 0.504377 0.235874 0.632803
O O1 0.359359 0.396359 0.131917
O O2 0.089180 0.461078 0.090872
O O3 0.000000 0.417171 0.250000
O O4 0.862634 0.390841 0.083492
O O5 0.517796 0.344212 0.004838
O O6 0.516382 0.420081 0.964092
O O7 0.739081 0.209797 0.903040
O O8 0.232955 0.213232 0.895581
O O9 0.001842 0.223267 0.071164
O O10 0.500000 0.989857 0.250000
O O11 0.371669 0.033918 0.103953
O O12 0.859532 0.026752 0.155233
O O13 0.008845 0.000000 0.000000
O O14 0.500000 0.243396 0.750000
#
# Coordination Sequence:
#
# PCOD8159435 Si02
#       6
#     8   8   8   8   8   8
#     4  11  22  35  53  81 116 154 192 241 296 336
#     4  12  23  36  57  86 120 148 190 247 283 342
#     4  10  23  39  61  96 120 150 199 240 293 362
#     4  11  22  38  55  77 109 152 207 245 277 337
#     4  12  21  37  58  80 109 159 198 227 288 339
#     4  10  21  42  67  87 120 158 189 236 300 366
#
# _framework density 20.104403999999999
#
# number of rings (size 3 to 8) (size 9 to 14) (size 15 to 20)
#    0.000    1.000    3.333    4.000    0.000    6.667 
#    0.000    1.667    0.000    0.000    0.000    0.000 
#    0.000    0.000    0.000    0.000    0.000    0.000 
#
# Total GULP energy -297445.520029 kJ/mol
# GULP energy per Si atom -12393.563335 kJ/mol
# Density = 2.005865 g / cm^3
# Si number density = 20.104404 Si / 1000 Ang^3
#
#
#
# Elastic Constant Matrix: (Units=GPa)
#
#
# Indices 1 2 3 4 5 6 
#
# 1 104.2805 29.5819 17.8065 0.0000 0.0000 0.0000
# 2 29.5819 150.7454 37.7501 0.0000 0.0000 0.0000
# 3 17.8065 37.7501 79.7612 0.0000 0.0000 0.0000
# 4 0.0000 0.0000 0.0000 14.2358 0.0000 0.0000
# 5 0.0000 0.0000 0.0000 0.0000 31.4164 0.0000
# 6 0.0000 0.0000 0.0000 0.0000 0.0000 12.0683
#
#
#
# Elastic Compliance Matrix: (Units=1/GPa)
#
#
# Indices 1 2 3 4 5 6 
#
# 1 0.010316 -0.001642 -0.001526 0.000000 0.000000 0.000000
# 2 -0.001642 0.007787 -0.003319 0.000000 0.000000 0.000000
# 3 -0.001526 -0.003319 0.014449 0.000000 0.000000 0.000000
# 4 0.000000 0.000000 0.000000 0.070246 0.000000 0.000000
# 5 0.000000 0.000000 0.000000 0.000000 0.031830 0.000000
# 6 0.000000 0.000000 0.000000 0.000000 0.000000 0.082862
#
#
# Mechanical properties :
#
#
# Convention : Reuss Voigt Hill
#
# Bulk Modulus (GPa) = 51.07771 56.11822 53.59796
# Shear Modulus (GPa) = 21.09799 28.18734 24.64267
#
# Velocity S-wave (km/s) = 3.24299 3.74846 3.50485
# Velocity P-wave (km/s) = 6.28363 6.83437 6.56478
#
# Compressibility (1/GPa) = 0.01957801
#
# Stress axis : x y z
#
# Youngs Moduli (GPa) = 96.93746 128.41729 69.20968
#
# Poissons Ratio (x) = 0.21090 0.10560
# Poissons Ratio (y) = 0.15920 0.22970
# Poissons Ratio (z) = 0.14790 0.42621
#
# Static dielectric constant tensor:
#      x y z
#    x 4.071640 0.000000 0.000000 
#    y 0.000000 3.591190 0.000000 
#    z 0.000000 0.000000 3.579030 
# 
# 
# High freq. dielectric constant tensor:
#      x y z
#    x 1.813260 0.000000 0.000000 
#    y 0.000000 1.773030 0.000000 
#    z 0.000000 0.000000 1.765900 
# 
# From -- ./inp_files/17901.got.cif
#   From: 2010.03.12/outbox.cif.g09.slc.cpg/sg20_9_cif.got.tgz:17901.got - 2010.04.14 01:38:04.
