data_PCOD8159476
_publ_section_title
;
Structure prediction by ZEFSAII (Michael W. Deem and Ramdas Pophale) SiO2 
 PCOD8159476
Probable space group: C 2 2 21
;
_chemical_formula_sum "Si O2"
_cell_formula_units_Z 60
_cell_length_a 10.944319
_cell_length_b 20.184867
_cell_length_c 12.124380
_cell_angle_alpha 90.000000
_cell_angle_beta 90.000000
_cell_angle_gamma 90.000000
_cell_volume 2678.392220
_symmetry_space_group_name_H-M "C 2 2 21"
_symmetry_group_IT_number 20
_symmetry_cell_setting 'orthorhombic'
loop_
_space_group_symop_operation_xyz
x,y,z
-x,-y,1/2+z
x,-y,-z
-x,y,1/2-z
1/2+x,1/2+y,z
1/2-x,1/2-y,1/2+z
1/2+x,1/2-y,-z
1/2-x,1/2+y,1/2-z
loop_
_atom_site_type_symbol
_atom_site_label
_atom_site_fract_x
_atom_site_fract_y
_atom_site_fract_z
Si Si1 0.111333 0.078202 0.007726
Si Si2 0.140205 0.875204 0.220780
Si Si3 0.611508 0.088228 0.830758
Si Si4 0.664148 0.339680 0.790532
Si Si5 0.140025 0.872071 0.555929
Si Si6 0.617272 0.773339 0.809417
Si Si7 0.706774 0.000000 0.000000
Si Si8 0.658131 0.214029 0.949646
O O1 0.171565 0.098421 0.125448
O O2 0.980735 0.112531 0.987739
O O3 0.183927 0.106377 0.903122
O O4 0.102183 0.000000 0.000000
O O5 0.246148 0.909453 0.291795
O O6 0.156570 0.797029 0.242495
O O7 0.000000 0.898796 0.250000
O O8 0.500000 0.075922 0.750000
O O9 0.580157 0.155546 0.895458
O O10 0.611790 0.025545 0.909462
O O11 0.581109 0.353258 0.679808
O O12 0.786558 0.331496 0.715596
O O13 0.651633 0.273150 0.861567
O O14 0.216707 0.940197 0.555577
O O15 0.207444 0.811873 0.490657
O O16 0.500000 0.801317 0.750000
O O17 0.590314 0.762896 0.939186
#
# Coordination Sequence:
#
# PCOD8159476 Si02
#       8
#     8   8   8   8   8   8   4   8
#     4  12  26  41  66 108 141 182 233 305 354 421
#     4  11  23  42  70 102 138 184 230 288 356 423
#     4  11  25  45  71 100 135 188 234 290 355 424
#     4  11  23  40  65 103 139 172 234 287 353 418
#     4  10  23  43  71  95 140 188 232 288 361 432
#     4  10  22  42  68  98 137 180 227 287 357 424
#     4  10  22  48  70  92 134 192 238 274 356 436
#     4  10  21  43  65 101 136 178 228 289 351 418
#
# _framework density 22.401496999999999
#
# number of rings (size 3 to 8) (size 9 to 14) (size 15 to 20)
#    0.000    1.333    3.333    2.000    3.733    2.133 
#    1.200    6.000    0.000    0.000    0.000    0.000 
#    0.000    0.000    0.000    0.000    0.000    0.000 
#
# Total GULP energy -371645.869394 kJ/mol
# GULP energy per Si atom -12388.195646 kJ/mol
# Density = 2.235051 g / cm^3
# Si number density = 22.401497 Si / 1000 Ang^3
#
#
#
# Elastic Constant Matrix: (Units=GPa)
#
#
# Indices 1 2 3 4 5 6 
#
# 1 59.0473 23.9218 25.9500 0.0000 0.0000 0.0000
# 2 23.9218 109.0157 52.9478 0.0000 0.0000 0.0000
# 3 25.9500 52.9478 149.2799 0.0000 0.0000 0.0000
# 4 0.0000 0.0000 0.0000 45.7516 0.0000 0.0000
# 5 0.0000 0.0000 0.0000 0.0000 31.7349 0.0000
# 6 0.0000 0.0000 0.0000 0.0000 0.0000 21.6755
#
#
#
# Elastic Compliance Matrix: (Units=1/GPa)
#
#
# Indices 1 2 3 4 5 6 
#
# 1 0.019181 -0.003128 -0.002225 0.000000 0.000000 0.000000
# 2 -0.003128 0.011592 -0.003568 0.000000 0.000000 0.000000
# 3 -0.002225 -0.003568 0.008351 0.000000 0.000000 0.000000
# 4 0.000000 0.000000 0.000000 0.021857 0.000000 0.000000
# 5 0.000000 0.000000 0.000000 0.000000 0.031511 0.000000
# 6 0.000000 0.000000 0.000000 0.000000 0.000000 0.046135
#
#
# Mechanical properties :
#
#
# Convention : Reuss Voigt Hill
#
# Bulk Modulus (GPa) = 46.98759 58.10914 52.54836
# Shear Modulus (GPa) = 30.56924 34.13397 32.35160
#
# Velocity S-wave (km/s) = 3.69807 3.90774 3.80435
# Velocity P-wave (km/s) = 6.26538 6.80858 6.54262
#
# Compressibility (1/GPa) = 0.02128222
#
# Stress axis : x y z
#
# Youngs Moduli (GPa) = 52.13580 86.26394 119.74596
#
# Poissons Ratio (x) = 0.26987 0.26639
# Poissons Ratio (y) = 0.16310 0.42723
# Poissons Ratio (z) = 0.11598 0.30778
#
# Static dielectric constant tensor:
#      x y z
#    x 3.902540 0.000000 0.000000 
#    y 0.000000 4.132600 0.000000 
#    z 0.000000 0.000000 4.602060 
# 
# 
# High freq. dielectric constant tensor:
#      x y z
#    x 1.860500 0.000000 0.000000 
#    y 0.000000 1.876270 0.000000 
#    z 0.000000 0.000000 1.914970 
# 
# From -- ./inp_files/14380.got.cif
#   From: 2010.03.12/outbox.cif.g09.slc.cpg/sg20_8_cif.got.tgz:14380.got - 2010.04.14 01:38:04.
