data_PCOD8159588
_publ_section_title
;
Structure prediction by ZEFSAII (Michael W. Deem and Ramdas Pophale) SiO2 
 PCOD8159588
Probable space group: C 2 2 21
;
_chemical_formula_sum "Si O2"
_cell_formula_units_Z 64
_cell_length_a 12.314356
_cell_length_b 13.746975
_cell_length_c 17.621017
_cell_angle_alpha 90.000000
_cell_angle_beta 90.000000
_cell_angle_gamma 90.000000
_cell_volume 2982.976402
_symmetry_space_group_name_H-M "C 2 2 21"
_symmetry_group_IT_number 20
_symmetry_cell_setting 'orthorhombic'
loop_
_space_group_symop_operation_xyz
x,y,z
-x,-y,1/2+z
x,-y,-z
-x,y,1/2-z
1/2+x,1/2+y,z
1/2-x,1/2-y,1/2+z
1/2+x,1/2-y,-z
1/2-x,1/2+y,1/2-z
loop_
_atom_site_type_symbol
_atom_site_label
_atom_site_fract_x
_atom_site_fract_y
_atom_site_fract_z
Si Si1 0.552570 0.922200 0.108520
Si Si2 0.910458 0.890650 0.813495
Si Si3 0.273767 0.275134 0.480255
Si Si4 0.344874 0.826491 0.166517
Si Si5 0.478303 0.602662 0.475627
Si Si6 0.063772 0.635191 0.061320
Si Si7 0.270969 0.417524 0.195669
Si Si8 0.394759 0.289536 0.092071
O O1 0.463504 0.876685 0.164978
O O2 0.673075 0.897192 0.136871
O O3 0.547479 0.038689 0.109740
O O4 0.526928 0.879766 0.025667
O O5 0.855766 0.784402 0.804242
O O6 0.976073 0.895154 0.891460
O O7 0.000000 0.910203 0.750000
O O8 0.816276 0.972327 0.806891
O O9 0.209047 0.335018 0.416639
O O10 0.384621 0.320109 0.511326
O O11 0.310264 0.171637 0.442035
O O12 0.204255 0.269992 0.556284
O O13 0.267402 0.890145 0.220259
O O14 0.428710 0.500000 0.500000
O O15 0.578021 0.626617 0.531135
O O16 0.993769 0.716146 0.105550
O O17 0.365263 0.341918 0.171022
#
# Coordination Sequence:
#
# PCOD8159588 Si02
#       8
#     8   8   8   8   8   8   8   8
#     4  11  22  42  66  98 130 170 220 275 332 399
#     4  12  27  46  67 100 139 180 229 278 350 406
#     4  11  22  41  69  98 133 172 223 277 343 389
#     4  12  26  45  66  99 140 178 223 281 341 412
#     4  11  24  42  69 100 133 177 228 288 326 412
#     4  10  22  38  68  99 128 163 222 283 321 396
#     4  12  27  42  69  96 135 182 222 277 345 412
#     4  11  22  42  67 100 129 174 227 272 335 403
#
# _framework density 21.455081
#
# number of rings (size 3 to 8) (size 9 to 14) (size 15 to 20)
#    0.000    0.750    5.000    2.625    3.500    2.000 
#    0.000    1.250    0.000    0.000    0.000    0.000 
#    0.000    0.000    0.000    0.000    0.000    0.000 
#
# Total GULP energy -396796.460528 kJ/mol
# GULP energy per Si atom -12399.889392 kJ/mol
# Density = 2.140625 g / cm^3
# Si number density = 21.455081 Si / 1000 Ang^3
#
#
#
# Elastic Constant Matrix: (Units=GPa)
#
#
# Indices 1 2 3 4 5 6 
#
# 1 70.5754 7.3123 9.3413 0.0000 0.0000 0.0000
# 2 7.3123 86.5357 9.0469 0.0000 0.0000 0.0000
# 3 9.3413 9.0469 55.7078 0.0000 0.0000 0.0000
# 4 0.0000 0.0000 0.0000 28.5169 0.0000 0.0000
# 5 0.0000 0.0000 0.0000 0.0000 33.7944 0.0000
# 6 0.0000 0.0000 0.0000 0.0000 0.0000 37.5887
#
#
#
# Elastic Compliance Matrix: (Units=1/GPa)
#
#
# Indices 1 2 3 4 5 6 
#
# 1 0.014574 -0.000993 -0.002283 0.000000 0.000000 0.000000
# 2 -0.000993 0.011823 -0.001754 0.000000 0.000000 0.000000
# 3 -0.002283 -0.001754 0.018618 0.000000 0.000000 0.000000
# 4 0.000000 0.000000 0.000000 0.035067 0.000000 0.000000
# 5 0.000000 0.000000 0.000000 0.000000 0.029591 0.000000
# 6 0.000000 0.000000 0.000000 0.000000 0.000000 0.026604
#
#
# Mechanical properties :
#
#
# Convention : Reuss Voigt Hill
#
# Bulk Modulus (GPa) = 28.60612 29.35778 28.98195
# Shear Modulus (GPa) = 31.64802 32.45457 32.05130
#
# Velocity S-wave (km/s) = 3.84485 3.89353 3.86927
# Velocity P-wave (km/s) = 5.75086 5.82459 5.78785
#
# Compressibility (1/GPa) = 0.03495755
#
# Stress axis : x y z
#
# Youngs Moduli (GPa) = 68.61416 84.57983 53.71046
#
# Poissons Ratio (x) = 0.08398 0.12260
# Poissons Ratio (y) = 0.06813 0.09419
# Poissons Ratio (z) = 0.15662 0.14832
#
# Static dielectric constant tensor:
#      x y z
#    x 3.912010 0.000000 0.000000 
#    y 0.000000 4.144850 0.000000 
#    z 0.000000 0.000000 3.729030 
# 
# 
# High freq. dielectric constant tensor:
#      x y z
#    x 1.850870 0.000000 0.000000 
#    y 0.000000 1.849000 0.000000 
#    z 0.000000 0.000000 1.829080 
# 
# From -- ./inp_files/24438.got.cif
#   From: 2010.03.12/outbox.cif.g09.slc.cpg/sg20_13_cif.got.tgz:24438.got - 2010.04.14 01:38:04.
