data_PCOD8159308
_publ_section_title
;
Structure prediction by ZEFSAII (Michael W. Deem and Ramdas Pophale) SiO2 
 PCOD8159308
Probable space group: C 2 2 21
;
_chemical_formula_sum "Si O2"
_cell_formula_units_Z 64
_cell_length_a 29.147604
_cell_length_b 8.720347
_cell_length_c 11.879332
_cell_angle_alpha 90.000000
_cell_angle_beta 90.000000
_cell_angle_gamma 90.000000
_cell_volume 3019.455596
_symmetry_space_group_name_H-M "C 2 2 21"
_symmetry_group_IT_number 20
_symmetry_cell_setting 'orthorhombic'
loop_
_space_group_symop_operation_xyz
x,y,z
-x,-y,1/2+z
x,-y,-z
-x,y,1/2-z
1/2+x,1/2+y,z
1/2-x,1/2-y,1/2+z
1/2+x,1/2-y,-z
1/2-x,1/2+y,1/2-z
loop_
_atom_site_type_symbol
_atom_site_label
_atom_site_fract_x
_atom_site_fract_y
_atom_site_fract_z
Si Si1 0.633468 0.267515 0.566342
Si Si2 0.950367 0.815949 0.240076
Si Si3 0.439900 0.178680 0.478477
Si Si4 0.195429 0.606029 0.728851
Si Si5 0.209632 0.262194 0.816373
Si Si6 0.342625 0.173315 0.535077
Si Si7 0.961196 0.679620 0.002936
Si Si8 0.141897 0.911735 0.334961
O O1 0.657988 0.122589 0.627555
O O2 0.577913 0.254343 0.576926
O O3 0.644507 0.283181 0.433651
O O4 0.654023 0.419595 0.622911
O O5 0.939304 0.707522 0.345325
O O6 0.951889 0.707527 0.133116
O O7 0.908273 0.931629 0.221740
O O8 0.000000 0.901776 0.250000
O O9 0.393333 0.254045 0.530481
O O10 0.487867 0.244890 0.531445
O O11 0.440561 0.000000 0.500000
O O12 0.205459 0.428496 0.756729
O O13 0.239207 0.699769 0.687105
O O14 0.176982 0.691402 0.840210
O O15 0.178533 0.136988 0.756291
O O16 0.194163 0.260457 0.946705
O O17 0.351874 0.000000 0.500000
O O18 0.958403 0.500000 0.000000
#
# Coordination Sequence:
#
# PCOD8159308 Si02
#       8
#     8   8   8   8   8   8   8   8
#     4  10  23  39  59  89 128 156 202 252 307 360
#     4   9  17  32  57  85 115 161 208 242 295 371
#     4   9  16  32  56  88 120 158 199 250 300 361
#     4  11  25  41  63  92 121 156 202 258 306 371
#     4  11  23  42  66  88 120 162 208 251 314 365
#     4   9  20  38  61  88 123 156 196 246 308 362
#     4   9  19  31  56  90 125 155 202 253 303 360
#     4  10  21  40  62  85 119 167 199 250 305 361
#
# _framework density 21.195875000000001
#
# number of rings (size 3 to 8) (size 9 to 14) (size 15 to 20)
#    0.000    2.250    1.250    0.750    5.250    0.000 
#    0.000    3.750    0.000    1.500    0.000    0.000 
#    0.000    0.000    0.000    0.000    0.000    0.000 
#
# Total GULP energy -396446.084447 kJ/mol
# GULP energy per Si atom -12388.940139 kJ/mol
# Density = 2.114763 g / cm^3
# Si number density = 21.195875 Si / 1000 Ang^3
#
#
#
# Elastic Constant Matrix: (Units=GPa)
#
#
# Indices 1 2 3 4 5 6 
#
# 1 159.0425 13.4289 46.9291 0.0000 0.0000 0.0000
# 2 13.4289 35.6092 4.5171 0.0000 0.0000 0.0000
# 3 46.9291 4.5171 65.9468 0.0000 0.0000 0.0000
# 4 0.0000 0.0000 0.0000 24.8835 0.0000 0.0000
# 5 0.0000 0.0000 0.0000 0.0000 33.8667 0.0000
# 6 0.0000 0.0000 0.0000 0.0000 0.0000 4.0091
#
#
#
# Elastic Compliance Matrix: (Units=1/GPa)
#
#
# Indices 1 2 3 4 5 6 
#
# 1 0.008151 -0.002358 -0.005639 0.000000 0.000000 0.000000
# 2 -0.002358 0.029011 -0.000309 0.000000 0.000000 0.000000
# 3 -0.005639 -0.000309 0.019197 0.000000 0.000000 0.000000
# 4 0.000000 0.000000 0.000000 0.040187 0.000000 0.000000
# 5 0.000000 0.000000 0.000000 0.000000 0.029528 0.000000
# 6 0.000000 0.000000 0.000000 0.000000 0.000000 0.249435
#
#
# Mechanical properties :
#
#
# Convention : Reuss Voigt Hill
#
# Bulk Modulus (GPa) = 25.15883 43.37207 34.26545
# Shear Modulus (GPa) = 12.33443 25.60008 18.96725
#
# Velocity S-wave (km/s) = 2.41493 3.47909 2.99466
# Velocity P-wave (km/s) = 4.43523 6.05357 5.30646
#
# Compressibility (1/GPa) = 0.03974748
#
# Stress axis : x y z
#
# Youngs Moduli (GPa) = 122.69108 34.46944 52.09035
#
# Poissons Ratio (x) = 0.08130 0.29371
# Poissons Ratio (y) = 0.28936 0.01609
# Poissons Ratio (z) = 0.69180 0.01064
#
# Static dielectric constant tensor:
#      x y z
#    x 4.487820 0.000000 0.000000 
#    y 0.000000 3.394130 0.000000 
#    z 0.000000 0.000000 3.886250 
# 
# 
# High freq. dielectric constant tensor:
#      x y z
#    x 1.855510 0.000000 0.000000 
#    y 0.000000 1.795890 0.000000 
#    z 0.000000 0.000000 1.826720 
# 
# From -- ./inp_files/17258.got.cif
#   From: 2010.03.12/outbox.cif.g09.slc.cpg/sg20_9_cif.got.tgz:17258.got - 2010.04.14 01:38:04.
