data_PCOD8159425
_publ_section_title
;
Structure prediction by ZEFSAII (Michael W. Deem and Ramdas Pophale) SiO2 
 PCOD8159425
Probable space group: C 2 2 21
;
_chemical_formula_sum "Si O2"
_cell_formula_units_Z 36
_cell_length_a 20.600482
_cell_length_b 7.695999
_cell_length_c 10.680557
_cell_angle_alpha 90.000000
_cell_angle_beta 90.000000
_cell_angle_gamma 90.000000
_cell_volume 1693.309273
_symmetry_space_group_name_H-M "C 2 2 21"
_symmetry_group_IT_number 20
_symmetry_cell_setting 'orthorhombic'
loop_
_space_group_symop_operation_xyz
x,y,z
-x,-y,1/2+z
x,-y,-z
-x,y,1/2-z
1/2+x,1/2+y,z
1/2-x,1/2-y,1/2+z
1/2+x,1/2-y,-z
1/2-x,1/2+y,1/2-z
loop_
_atom_site_type_symbol
_atom_site_label
_atom_site_fract_x
_atom_site_fract_y
_atom_site_fract_z
Si Si1 0.310957 0.406024 0.632473
Si Si2 0.387388 0.080507 0.123899
Si Si3 0.989316 0.500000 0.500000
Si Si4 0.789980 0.885290 0.125667
Si Si5 0.570669 0.789821 0.196411
O O1 0.310877 0.500000 0.500000
O O2 0.274569 0.225723 0.605261
O O3 0.276358 0.504940 0.747817
O O4 0.384673 0.378691 0.680923
O O5 0.464346 0.109736 0.095074
O O6 0.351825 0.260246 0.156033
O O7 0.386800 0.933610 0.230092
O O8 0.352116 0.000000 0.000000
O O9 0.941454 0.637499 0.559537
O O10 0.803294 0.000000 0.000000
O O11 0.500000 0.738761 0.250000
#
# Coordination Sequence:
#
# PCOD8159425 Si02
#       5
#     8   8   4   8   8
#     4  12  27  43  67 102 132 174 224 278 330 385
#     4   9  19  39  66  92 121 174 217 253 328 389
#     4   8  20  36  70  86 128 174 214 256 328 392
#     4  12  25  44  69  96 134 174 221 278 331 390
#     4  10  21  42  64  95 133 172 215 265 328 397
#
# _framework density 21.260144
#
# number of rings (size 3 to 8) (size 9 to 14) (size 15 to 20)
#    0.667    0.889    0.000    4.667    4.667    0.000 
#    4.000    0.000    0.000    0.000    0.000    0.000 
#    0.000    0.000    0.000    0.000    0.000    0.000 
#
# Total GULP energy -222986.858876 kJ/mol
# GULP energy per Si atom -12388.158826 kJ/mol
# Density = 2.121176 g / cm^3
# Si number density = 21.260144 Si / 1000 Ang^3
#
#
#
# Elastic Constant Matrix: (Units=GPa)
#
#
# Indices 1 2 3 4 5 6 
#
# 1 100.8061 49.9540 28.1546 0.0000 0.0000 0.0000
# 2 49.9540 85.6009 47.8505 0.0000 0.0000 0.0000
# 3 28.1546 47.8505 135.1290 0.0000 0.0000 0.0000
# 4 0.0000 0.0000 0.0000 39.6993 0.0000 0.0000
# 5 0.0000 0.0000 0.0000 0.0000 95.4350 0.0000
# 6 0.0000 0.0000 0.0000 0.0000 0.0000 43.2101
#
#
#
# Elastic Compliance Matrix: (Units=1/GPa)
#
#
# Indices 1 2 3 4 5 6 
#
# 1 0.013956 -0.008128 -0.000030 0.000000 0.000000 0.000000
# 2 -0.008128 0.019299 -0.005140 0.000000 0.000000 0.000000
# 3 -0.000030 -0.005140 0.009227 0.000000 0.000000 0.000000
# 4 0.000000 0.000000 0.000000 0.025189 0.000000 0.000000
# 5 0.000000 0.000000 0.000000 0.000000 0.010478 0.000000
# 6 0.000000 0.000000 0.000000 0.000000 0.000000 0.023143
#
#
# Mechanical properties :
#
#
# Convention : Reuss Voigt Hill
#
# Bulk Modulus (GPa) = 62.94906 63.71714 63.33310
# Shear Modulus (GPa) = 37.54242 48.70735 43.12489
#
# Velocity S-wave (km/s) = 4.20677 4.79165 4.50870
# Velocity P-wave (km/s) = 7.29857 7.78771 7.54711
#
# Compressibility (1/GPa) = 0.01588586
#
# Stress axis : x y z
#
# Youngs Moduli (GPa) = 71.65393 51.81707 108.38002
#
# Poissons Ratio (x) = 0.42115 0.00322
# Poissons Ratio (y) = 0.58238 0.55712
# Poissons Ratio (z) = 0.00213 0.26636
#
# Static dielectric constant tensor:
#      x y z
#    x 3.834490 0.000000 0.000000 
#    y 0.000000 3.565240 0.000000 
#    z 0.000000 0.000000 3.921840 
# 
# 
# High freq. dielectric constant tensor:
#      x y z
#    x 1.840960 0.000000 0.000000 
#    y 0.000000 1.809480 0.000000 
#    z 0.000000 0.000000 1.844980 
# 
# From -- ./inp_files/16538.got.cif
#   From: 2010.03.12/outbox.cif.g09.slc.cpg/sg20_9_cif.got.tgz:16538.got - 2010.04.14 01:38:04.
