data_PCOD8159682
_publ_section_title
;
Structure prediction by ZEFSAII (Michael W. Deem and Ramdas Pophale) SiO2 
 PCOD8159682
Probable space group: C 2 2 21
;
_chemical_formula_sum "Si O2"
_cell_formula_units_Z 48
_cell_length_a 17.199294
_cell_length_b 9.082197
_cell_length_c 14.880866
_cell_angle_alpha 90.000000
_cell_angle_beta 90.000000
_cell_angle_gamma 90.000000
_cell_volume 2324.501036
_symmetry_space_group_name_H-M "C 2 2 21"
_symmetry_group_IT_number 20
_symmetry_cell_setting 'orthorhombic'
loop_
_space_group_symop_operation_xyz
x,y,z
-x,-y,1/2+z
x,-y,-z
-x,y,1/2-z
1/2+x,1/2+y,z
1/2-x,1/2-y,1/2+z
1/2+x,1/2-y,-z
1/2-x,1/2+y,1/2-z
loop_
_atom_site_type_symbol
_atom_site_label
_atom_site_fract_x
_atom_site_fract_y
_atom_site_fract_z
Si Si1 0.936707 0.151517 0.680004
Si Si2 0.776506 0.110005 0.782811
Si Si3 0.688953 0.696565 0.344388
Si Si4 0.031056 0.905216 0.584346
Si Si5 0.756011 0.668739 0.526186
Si Si6 0.571300 0.828830 0.994735
O O1 0.854705 0.125460 0.726731
O O2 0.927572 0.281005 0.608621
O O3 0.000000 0.209189 0.750000
O O4 0.965610 0.999372 0.635224
O O5 0.703065 0.169457 0.724844
O O6 0.784671 0.199296 0.877526
O O7 0.758688 0.939645 0.807314
O O8 0.600134 0.638452 0.347548
O O9 0.714340 0.754428 0.443858
O O10 0.994405 0.754153 0.550507
O O11 0.064624 0.000000 0.500000
O O12 0.748681 0.500000 0.500000
O O13 0.845667 0.714226 0.536779
O O14 0.552205 0.000000 0.000000
#
# Coordination Sequence:
#
# PCOD8159682 Si02
#       6
#     8   8   8   8   8   8
#     4  11  22  41  66  97 130 173 225 276 332 402
#     4  11  23  40  66  94 129 169 223 268 328 395
#     4  11  22  43  63  97 127 171 219 270 330 399
#     4  10  22  40  69  92 133 177 222 272 333 399
#     4   9  20  38  62  84 127 169 204 260 329 387
#     4  10  22  43  63  94 134 178 216 275 342 394
#
# _framework density 20.649592999999999
#
# number of rings (size 3 to 8) (size 9 to 14) (size 15 to 20)
#    0.000    1.667    3.333    1.500    4.667    0.000 
#    3.000    1.667    0.000    0.000    0.000    0.000 
#    0.000    0.000    0.000    0.000    0.000    0.000 
#
# Total GULP energy -297576.686790 kJ/mol
# GULP energy per Si atom -12399.028616 kJ/mol
# Density = 2.060259 g / cm^3
# Si number density = 20.649593 Si / 1000 Ang^3
#
#
#
# Elastic Constant Matrix: (Units=GPa)
#
#
# Indices 1 2 3 4 5 6 
#
# 1 90.0397 45.4591 47.2501 0.0000 0.0000 0.0000
# 2 45.4591 79.5955 42.8039 0.0000 0.0000 0.0000
# 3 47.2501 42.8039 140.5527 0.0000 0.0000 0.0000
# 4 0.0000 0.0000 0.0000 29.5176 0.0000 0.0000
# 5 0.0000 0.0000 0.0000 0.0000 48.4437 0.0000
# 6 0.0000 0.0000 0.0000 0.0000 0.0000 20.4863
#
#
#
# Elastic Compliance Matrix: (Units=1/GPa)
#
#
# Indices 1 2 3 4 5 6 
#
# 1 0.016764 -0.007825 -0.003252 0.000000 0.000000 0.000000
# 2 -0.007825 0.018677 -0.003057 0.000000 0.000000 0.000000
# 3 -0.003252 -0.003057 0.009139 0.000000 0.000000 0.000000
# 4 0.000000 0.000000 0.000000 0.033878 0.000000 0.000000
# 5 0.000000 0.000000 0.000000 0.000000 0.020643 0.000000
# 6 0.000000 0.000000 0.000000 0.000000 0.000000 0.048813
#
#
# Mechanical properties :
#
#
# Convention : Reuss Voigt Hill
#
# Bulk Modulus (GPa) = 61.31185 64.57935 62.94560
# Shear Modulus (GPa) = 27.53004 31.33450 29.43227
#
# Velocity S-wave (km/s) = 3.65526 3.89966 3.77944
# Velocity P-wave (km/s) = 6.89714 7.18458 7.04233
#
# Compressibility (1/GPa) = 0.01631006
#
# Stress axis : x y z
#
# Youngs Moduli (GPa) = 59.65254 53.54252 109.41873
#
# Poissons Ratio (x) = 0.41898 0.35588
# Poissons Ratio (y) = 0.46679 0.33452
# Poissons Ratio (z) = 0.19402 0.16369
#
# Static dielectric constant tensor:
#      x y z
#    x 3.692010 0.000000 0.000000 
#    y 0.000000 3.484040 0.000000 
#    z 0.000000 0.000000 4.255050 
# 
# 
# High freq. dielectric constant tensor:
#      x y z
#    x 1.804390 0.000000 0.000000 
#    y 0.000000 1.777330 0.000000 
#    z 0.000000 0.000000 1.827720 
# 
# From -- ./inp_files/21295.got.cif
#   From: 2010.03.12/outbox.cif.g09.slc.cpg/sg20_11_cif.got.tgz:21295.got - 2010.04.14 01:38:04.
