data_PCOD8159504
_publ_section_title
;
Structure prediction by ZEFSAII (Michael W. Deem and Ramdas Pophale) SiO2 
 PCOD8159504
Probable space group: C 2 2 21
;
_chemical_formula_sum "Si O2"
_cell_formula_units_Z 48
_cell_length_a 16.906674
_cell_length_b 13.111190
_cell_length_c 10.715633
_cell_angle_alpha 90.000000
_cell_angle_beta 90.000000
_cell_angle_gamma 90.000000
_cell_volume 2375.298096
_symmetry_space_group_name_H-M "C 2 2 21"
_symmetry_group_IT_number 20
_symmetry_cell_setting 'orthorhombic'
loop_
_space_group_symop_operation_xyz
x,y,z
-x,-y,1/2+z
x,-y,-z
-x,y,1/2-z
1/2+x,1/2+y,z
1/2-x,1/2-y,1/2+z
1/2+x,1/2-y,-z
1/2-x,1/2+y,1/2-z
loop_
_atom_site_type_symbol
_atom_site_label
_atom_site_fract_x
_atom_site_fract_y
_atom_site_fract_z
Si Si1 0.651007 0.659170 0.680956
Si Si2 0.426655 0.500000 0.500000
Si Si3 0.189266 0.185789 0.951387
Si Si4 0.913835 0.544662 0.805270
Si Si5 0.861426 0.357818 0.956141
Si Si6 0.000000 0.031335 0.750000
Si Si7 0.190179 0.599349 0.921143
O O1 0.694582 0.704833 0.803037
O O2 0.615940 0.747369 0.593778
O O3 0.577074 0.594492 0.719465
O O4 0.715986 0.593463 0.606027
O O5 0.376991 0.397742 0.480487
O O6 0.479825 0.470957 0.622227
O O7 0.270192 0.138902 0.003177
O O8 0.168386 0.295138 0.010458
O O9 0.873889 0.438220 0.844846
O O10 0.859033 0.600034 0.705531
O O11 0.000000 0.524469 0.750000
O O12 0.918647 0.617136 0.927268
O O13 0.165455 0.500000 0.000000
#
# Coordination Sequence:
#
# PCOD8159504 Si02
#       7
#     8   4   8   8   8   4   8
#     4  10  22  42  66  92 124 169 216 261 329 379
#     4  10  22  44  64  94 132 168 222 258 336 390
#     4  10  21  44  70  92 124 174 212 271 328 390
#     4  11  24  39  62  93 132 171 215 263 327 385
#     4  10  22  41  64  90 129 169 217 271 317 388
#     4  10  24  40  64  94 128 168 212 268 318 388
#     4  11  24  41  66  97 126 163 218 265 317 386
#
# _framework density 20.207989999999999
#
# number of rings (size 3 to 8) (size 9 to 14) (size 15 to 20)
#    0.000    1.667    1.667    2.000    7.000    2.667 
#    4.500    0.000    0.000    0.000    0.000    0.000 
#    0.000    0.000    0.000    0.000    0.000    0.000 
#
# Total GULP energy -297548.132794 kJ/mol
# GULP energy per Si atom -12397.838866 kJ/mol
# Density = 2.016200 g / cm^3
# Si number density = 20.207990 Si / 1000 Ang^3
#
#
#
# Elastic Constant Matrix: (Units=GPa)
#
#
# Indices 1 2 3 4 5 6 
#
# 1 72.2263 37.0046 35.0973 0.0000 0.0000 0.0000
# 2 37.0046 96.1018 45.0072 0.0000 0.0000 0.0000
# 3 35.0973 45.0072 115.1726 0.0000 0.0000 0.0000
# 4 0.0000 0.0000 0.0000 37.7719 0.0000 0.0000
# 5 0.0000 0.0000 0.0000 0.0000 39.6637 0.0000
# 6 0.0000 0.0000 0.0000 0.0000 0.0000 20.9639
#
#
#
# Elastic Compliance Matrix: (Units=1/GPa)
#
#
# Indices 1 2 3 4 5 6 
#
# 1 0.018307 -0.005430 -0.003457 0.000000 0.000000 0.000000
# 2 -0.005430 0.014347 -0.003952 0.000000 0.000000 0.000000
# 3 -0.003457 -0.003952 0.011280 0.000000 0.000000 0.000000
# 4 0.000000 0.000000 0.000000 0.026475 0.000000 0.000000
# 5 0.000000 0.000000 0.000000 0.000000 0.025212 0.000000
# 6 0.000000 0.000000 0.000000 0.000000 0.000000 0.047701
#
#
# Mechanical properties :
#
#
# Convention : Reuss Voigt Hill
#
# Bulk Modulus (GPa) = 54.77366 57.52433 56.14899
# Shear Modulus (GPa) = 28.55727 30.77268 29.66498
#
# Velocity S-wave (km/s) = 3.76329 3.90654 3.83558
# Velocity P-wave (km/s) = 6.78579 6.99114 6.88923
#
# Compressibility (1/GPa) = 0.01825695
#
# Stress axis : x y z
#
# Youngs Moduli (GPa) = 54.62263 69.69896 88.64983
#
# Poissons Ratio (x) = 0.37850 0.30645
# Poissons Ratio (y) = 0.29663 0.35033
# Poissons Ratio (z) = 0.18882 0.27544
#
# Static dielectric constant tensor:
#      x y z
#    x 3.571980 0.000000 0.000000 
#    y 0.000000 3.547540 0.000000 
#    z 0.000000 0.000000 4.298030 
# 
# 
# High freq. dielectric constant tensor:
#      x y z
#    x 1.788550 0.000000 0.000000 
#    y 0.000000 1.778720 0.000000 
#    z 0.000000 0.000000 1.812620 
# 
# From -- ./inp_files/15738.got.cif
#   From: 2010.03.12/outbox.cif.g09.slc.cpg/sg20_8_cif.got.tgz:15738.got - 2010.04.14 01:38:04.
