data_PCOD8159649
_publ_section_title
;
Structure prediction by ZEFSAII (Michael W. Deem and Ramdas Pophale) SiO2 
 PCOD8159649
Probable space group: C 2 2 21
;
_chemical_formula_sum "Si O2"
_cell_formula_units_Z 40
_cell_length_a 16.088343
_cell_length_b 7.676340
_cell_length_c 15.549291
_cell_angle_alpha 90.000000
_cell_angle_beta 90.000000
_cell_angle_gamma 90.000000
_cell_volume 1920.331077
_symmetry_space_group_name_H-M "C 2 2 21"
_symmetry_group_IT_number 20
_symmetry_cell_setting 'orthorhombic'
loop_
_space_group_symop_operation_xyz
x,y,z
-x,-y,1/2+z
x,-y,-z
-x,y,1/2-z
1/2+x,1/2+y,z
1/2-x,1/2-y,1/2+z
1/2+x,1/2-y,-z
1/2-x,1/2+y,1/2-z
loop_
_atom_site_type_symbol
_atom_site_label
_atom_site_fract_x
_atom_site_fract_y
_atom_site_fract_z
Si Si1 0.100392 0.617772 0.804746
Si Si2 0.562815 0.984641 0.630404
Si Si3 0.747794 0.861527 0.068575
Si Si4 0.500000 0.580482 0.250000
Si Si5 0.936134 0.098700 0.913940
Si Si6 0.695186 0.000000 0.500000
O O1 0.096113 0.469543 0.729546
O O2 0.188933 0.625904 0.848979
O O3 0.083012 0.802115 0.758387
O O4 0.024561 0.588285 0.872465
O O5 0.546158 0.803446 0.581937
O O6 0.636183 0.077974 0.575976
O O7 0.837720 0.926525 0.099714
O O8 0.748650 0.662940 0.031895
O O9 0.712561 0.000000 0.000000
O O10 0.510160 0.465679 0.334238
O O11 0.966568 0.000000 0.000000
#
# Coordination Sequence:
#
# PCOD8159649 Si02
#       6
#     8   8   8   4   8   4
#     4  10  23  39  63  97 118 171 207 267 318 388
#     4   9  21  40  67  82 130 162 216 251 330 374
#     4  10  24  42  63  93 131 162 214 260 329 374
#     4  10  22  40  64  92 126 160 224 258 314 392
#     4  10  22  40  65  94 125 172 212 266 322 389
#     4  10  22  44  62  90 124 176 200 264 316 384
#
# _framework density 20.829740999999999
#
# number of rings (size 3 to 8) (size 9 to 14) (size 15 to 20)
#    0.000    2.400    0.000    1.200   18.200    3.200 
#    9.000    0.000    0.000    0.000    0.000    0.000 
#    0.000    0.000    0.000    0.000    0.000    0.000 
#
# Total GULP energy -247880.866807 kJ/mol
# GULP energy per Si atom -12394.043340 kJ/mol
# Density = 2.078233 g / cm^3
# Si number density = 20.829741 Si / 1000 Ang^3
#
#
#
# Elastic Constant Matrix: (Units=GPa)
#
#
# Indices 1 2 3 4 5 6 
#
# 1 58.0731 9.7769 40.6716 0.0000 0.0000 0.0000
# 2 9.7769 79.9415 33.9261 0.0000 0.0000 0.0000
# 3 40.6716 33.9261 116.1695 0.0000 0.0000 0.0000
# 4 0.0000 0.0000 0.0000 36.9566 0.0000 0.0000
# 5 0.0000 0.0000 0.0000 0.0000 47.5923 0.0000
# 6 0.0000 0.0000 0.0000 0.0000 0.0000 15.4090
#
#
#
# Elastic Compliance Matrix: (Units=1/GPa)
#
#
# Indices 1 2 3 4 5 6 
#
# 1 0.022846 0.000685 -0.008199 0.000000 0.000000 0.000000
# 2 0.000685 0.014299 -0.004416 0.000000 0.000000 0.000000
# 3 -0.008199 -0.004416 0.012768 0.000000 0.000000 0.000000
# 4 0.000000 0.000000 0.000000 0.027059 0.000000 0.000000
# 5 0.000000 0.000000 0.000000 0.000000 0.021012 0.000000
# 6 0.000000 0.000000 0.000000 0.000000 0.000000 0.064897
#
#
# Mechanical properties :
#
#
# Convention : Reuss Voigt Hill
#
# Bulk Modulus (GPa) = 38.38016 46.99261 42.68638
# Shear Modulus (GPa) = 25.58523 31.31222 28.44872
#
# Velocity S-wave (km/s) = 3.50852 3.88138 3.69965
# Velocity P-wave (km/s) = 5.90581 6.53423 6.22795
#
# Compressibility (1/GPa) = 0.02605513
#
# Stress axis : x y z
#
# Youngs Moduli (GPa) = 43.77078 69.93307 78.31982
#
# Poissons Ratio (x) = -0.04793 0.64212
# Poissons Ratio (y) = -0.03000 0.34585
# Poissons Ratio (z) = 0.35887 0.30882
#
# Static dielectric constant tensor:
#      x y z
#    x 3.496070 0.000000 0.000000 
#    y 0.000000 3.772120 0.000000 
#    z 0.000000 0.000000 4.095640 
# 
# 
# High freq. dielectric constant tensor:
#      x y z
#    x 1.792070 0.000000 0.000000 
#    y 0.000000 1.814560 0.000000 
#    z 0.000000 0.000000 1.821090 
# 
# From -- ./inp_files/21167.got.cif
#   From: 2010.03.12/outbox.cif.g09.slc.cpg/sg20_11_cif.got.tgz:21167.got - 2010.04.14 01:38:04.
