data_PCOD8159360
_publ_section_title
;
Structure prediction by ZEFSAII (Michael W. Deem and Ramdas Pophale) SiO2 
 PCOD8159360
Probable space group: C 2 2 21
;
_chemical_formula_sum "Si O2"
_cell_formula_units_Z 28
_cell_length_a 29.828881
_cell_length_b 7.702689
_cell_length_c 5.240621
_cell_angle_alpha 90.000000
_cell_angle_beta 90.000000
_cell_angle_gamma 90.000000
_cell_volume 1204.098673
_symmetry_space_group_name_H-M "C 2 2 21"
_symmetry_group_IT_number 20
_symmetry_cell_setting 'orthorhombic'
loop_
_space_group_symop_operation_xyz
x,y,z
-x,-y,1/2+z
x,-y,-z
-x,y,1/2-z
1/2+x,1/2+y,z
1/2-x,1/2-y,1/2+z
1/2+x,1/2-y,-z
1/2-x,1/2+y,1/2-z
loop_
_atom_site_type_symbol
_atom_site_label
_atom_site_fract_x
_atom_site_fract_y
_atom_site_fract_z
Si Si1 0.131118 0.177772 0.236147
Si Si2 0.234519 0.831587 0.862610
Si Si3 0.500000 0.882523 0.750000
Si Si4 0.593290 0.293923 0.262546
O O1 0.183217 0.136072 0.211240
O O2 0.120389 0.284177 0.494269
O O3 0.102108 0.000587 0.249537
O O4 0.113881 0.290029 0.995195
O O5 0.260318 0.809210 0.591887
O O6 0.255570 0.000000 0.000000
O O7 0.458542 0.752902 0.787687
O O8 0.493740 0.000000 0.500000
#
# Coordination Sequence:
#
# PCOD8159360 Si02
#       4
#     8   8   4   8
#     4  10  21  41  71  93 123 174 235 278 336 415
#     4  12  25  44  72 103 145 185 242 314 358 421
#     4  12  26  44  62 104 144 176 222 282 356 420
#     4  10  21  40  71  93 130 177 221 285 332 416
#
# _framework density 23.253906000000001
#
# number of rings (size 3 to 8) (size 9 to 14) (size 15 to 20)
#    0.000    1.143    2.857    4.286    4.000    4.571 
#    0.000   14.286    0.000    0.000    0.000    0.000 
#    0.000    0.000    0.000    0.000    0.000    0.000 
#
# Total GULP energy -173446.812074 kJ/mol
# GULP energy per Si atom -12389.058005 kJ/mol
# Density = 2.320098 g / cm^3
# Si number density = 23.253906 Si / 1000 Ang^3
#
#
#
# Elastic Constant Matrix: (Units=GPa)
#
#
# Indices 1 2 3 4 5 6 
#
# 1 129.3698 52.8742 58.4323 0.0000 0.0000 0.0000
# 2 52.8742 56.5392 17.8404 0.0000 0.0000 0.0000
# 3 58.4323 17.8404 244.3677 0.0000 0.0000 0.0000
# 4 0.0000 0.0000 0.0000 21.0627 0.0000 0.0000
# 5 0.0000 0.0000 0.0000 0.0000 35.6199 0.0000
# 6 0.0000 0.0000 0.0000 0.0000 0.0000 5.5885
#
#
#
# Elastic Compliance Matrix: (Units=1/GPa)
#
#
# Indices 1 2 3 4 5 6 
#
# 1 0.013770 -0.012117 -0.002408 0.000000 0.000000 0.000000
# 2 -0.012117 0.028767 0.000797 0.000000 0.000000 0.000000
# 3 -0.002408 0.000797 0.004610 0.000000 0.000000 0.000000
# 4 0.000000 0.000000 0.000000 0.047477 0.000000 0.000000
# 5 0.000000 0.000000 0.000000 0.000000 0.028074 0.000000
# 6 0.000000 0.000000 0.000000 0.000000 0.000000 0.178940
#
#
# Mechanical properties :
#
#
# Convention : Reuss Voigt Hill
#
# Bulk Modulus (GPa) = 50.78559 76.50785 63.64672
# Shear Modulus (GPa) = 14.89613 32.52953 23.71283
#
# Velocity S-wave (km/s) = 2.53373 3.74422 3.19679
# Velocity P-wave (km/s) = 5.51785 7.18782 6.40748
#
# Compressibility (1/GPa) = 0.01969062
#
# Stress axis : x y z
#
# Youngs Moduli (GPa) = 72.62250 34.76181 216.93076
#
# Poissons Ratio (x) = 0.42122 0.52236
# Poissons Ratio (y) = 0.88000 -0.17296
# Poissons Ratio (z) = 0.17487 -0.02772
#
# Static dielectric constant tensor:
#      x y z
#    x 3.953340 0.000000 0.000000 
#    y 0.000000 3.773390 0.000000 
#    z 0.000000 0.000000 7.339450 
# 
# 
# High freq. dielectric constant tensor:
#      x y z
#    x 1.910830 0.000000 0.000000 
#    y 0.000000 1.877830 0.000000 
#    z 0.000000 0.000000 1.972800 
# 
# From -- ./inp_files/3996.got.cif
#   From: 2010.03.12/outbox.cif.g09.slc.cpg/sg20_2_cif.got.tgz:3996.got - 2010.04.14 01:38:04.
