data_PCOD8159064
_publ_section_title
;
Structure prediction by ZEFSAII (Michael W. Deem and Ramdas Pophale) SiO2 
 PCOD8159064
Probable space group: C 2 2 21
;
_chemical_formula_sum "Si O2"
_cell_formula_units_Z 56
_cell_length_a 8.697901
_cell_length_b 22.026646
_cell_length_c 13.884982
_cell_angle_alpha 90.000000
_cell_angle_beta 90.000000
_cell_angle_gamma 90.000000
_cell_volume 2660.162417
_symmetry_space_group_name_H-M "C 2 2 21"
_symmetry_group_IT_number 20
_symmetry_cell_setting 'orthorhombic'
loop_
_space_group_symop_operation_xyz
x,y,z
-x,-y,1/2+z
x,-y,-z
-x,y,1/2-z
1/2+x,1/2+y,z
1/2-x,1/2-y,1/2+z
1/2+x,1/2-y,-z
1/2-x,1/2+y,1/2-z
loop_
_atom_site_type_symbol
_atom_site_label
_atom_site_fract_x
_atom_site_fract_y
_atom_site_fract_z
Si Si1 0.260739 0.090878 0.994656
Si Si2 0.177783 0.769806 0.724549
Si Si3 0.304296 0.817141 0.535870
Si Si4 0.009741 0.500000 0.000000
Si Si5 0.659287 0.211731 0.418111
Si Si6 0.006165 0.000000 0.000000
Si Si7 0.174258 0.370606 0.283874
Si Si8 0.752019 0.069647 0.904433
O O1 0.406411 0.055621 0.039164
O O2 0.280913 0.091396 0.878415
O O3 0.244622 0.158349 0.032850
O O4 0.111916 0.055718 0.034119
O O5 0.210622 0.812938 0.634414
O O6 0.301491 0.789070 0.805187
O O7 0.207710 0.699930 0.695492
O O8 0.000000 0.779872 0.750000
O O9 0.480570 0.797428 0.555453
O O10 0.226586 0.774351 0.456730
O O11 0.284805 0.884459 0.493213
O O12 0.111168 0.521954 0.908590
O O13 0.903734 0.971072 0.084218
O O14 0.275611 0.395374 0.195568
O O15 0.000000 0.380123 0.250000
#
# Coordination Sequence:
#
# PCOD8159064 Si02
#       8
#     8   8   8   4   8   4   8   8
#     4  11  23  44  71  97 139 175 230 277 343 403
#     4  11  25  41  66 107 140 178 233 282 352 413
#     4  12  24  42  69 101 141 180 222 286 350 407
#     4  10  20  44  66  90 124 186 226 270 324 414
#     4  12  24  42  69 101 141 180 222 286 350 407
#     4  10  28  44  66  98 132 182 226 282 340 394
#     4  11  20  40  71 104 125 173 234 275 325 416
#     4  11  23  44  71  97 139 175 230 277 343 403
#
# _framework density 21.051348000000001
#
# number of rings (size 3 to 8) (size 9 to 14) (size 15 to 20)
#    0.000    0.857    5.714    1.286    4.000    0.571 
#    2.571    8.571    0.000    0.000    0.000    0.000 
#    0.000    0.000    0.000    0.000    0.000    0.000 
#
# Total GULP energy -347103.247858 kJ/mol
# GULP energy per Si atom -12396.544566 kJ/mol
# Density = 2.100343 g / cm^3
# Si number density = 21.051348 Si / 1000 Ang^3
#
#
#
# Elastic Constant Matrix: (Units=GPa)
#
#
# Indices 1 2 3 4 5 6 
#
# 1 117.9798 44.8934 28.5458 0.0000 0.0000 0.0000
# 2 44.8934 86.6787 51.7240 0.0000 0.0000 0.0000
# 3 28.5458 51.7240 115.6391 0.0000 0.0000 0.0000
# 4 0.0000 0.0000 0.0000 17.6461 0.0000 0.0000
# 5 0.0000 0.0000 0.0000 0.0000 26.0768 0.0000
# 6 0.0000 0.0000 0.0000 0.0000 0.0000 24.3666
#
#
#
# Elastic Compliance Matrix: (Units=1/GPa)
#
#
# Indices 1 2 3 4 5 6 
#
# 1 0.010561 -0.005339 -0.000219 0.000000 0.000000 0.000000
# 2 -0.005339 0.018437 -0.006928 0.000000 0.000000 0.000000
# 3 -0.000219 -0.006928 0.011801 0.000000 0.000000 0.000000
# 4 0.000000 0.000000 0.000000 0.056670 0.000000 0.000000
# 5 0.000000 0.000000 0.000000 0.000000 0.038348 0.000000
# 6 0.000000 0.000000 0.000000 0.000000 0.000000 0.041040
#
#
# Mechanical properties :
#
#
# Convention : Reuss Voigt Hill
#
# Bulk Modulus (GPa) = 63.19091 63.40266 63.29679
# Shear Modulus (GPa) = 24.14252 26.62685 25.38468
#
# Velocity S-wave (km/s) = 3.39018 3.56033 3.47630
# Velocity P-wave (km/s) = 6.73848 6.86184 6.80044
#
# Compressibility (1/GPa) = 0.01582506
#
# Stress axis : x y z
#
# Youngs Moduli (GPa) = 94.69184 54.24006 84.74117
#
# Poissons Ratio (x) = 0.28959 0.01854
# Poissons Ratio (y) = 0.50556 0.58713
# Poissons Ratio (z) = 0.02072 0.37580
#
# Static dielectric constant tensor:
#      x y z
#    x 4.018930 0.000000 0.000000 
#    y 0.000000 3.928170 0.000000 
#    z 0.000000 0.000000 3.701480 
# 
# 
# High freq. dielectric constant tensor:
#      x y z
#    x 1.835500 0.000000 0.000000 
#    y 0.000000 1.834550 0.000000 
#    z 0.000000 0.000000 1.805950 
# 
# From -- ./inp_files/19255.got.cif
#   From: 2010.03.12/outbox.cif.g09.slc.cpg/sg20_10_cif.got.tgz:19255.got - 2010.04.14 01:38:04.
