data_PCOD8159287
_publ_section_title
;
Structure prediction by ZEFSAII (Michael W. Deem and Ramdas Pophale) SiO2 
 PCOD8159287
Probable space group: C 2 2 21
;
_chemical_formula_sum "Si O2"
_cell_formula_units_Z 40
_cell_length_a 26.035246
_cell_length_b 8.743112
_cell_length_c 8.066077
_cell_angle_alpha 90.000000
_cell_angle_beta 90.000000
_cell_angle_gamma 90.000000
_cell_volume 1836.073620
_symmetry_space_group_name_H-M "C 2 2 21"
_symmetry_group_IT_number 20
_symmetry_cell_setting 'orthorhombic'
loop_
_space_group_symop_operation_xyz
x,y,z
-x,-y,1/2+z
x,-y,-z
-x,y,1/2-z
1/2+x,1/2+y,z
1/2-x,1/2-y,1/2+z
1/2+x,1/2-y,-z
1/2-x,1/2+y,1/2-z
loop_
_atom_site_type_symbol
_atom_site_label
_atom_site_fract_x
_atom_site_fract_y
_atom_site_fract_z
Si Si1 0.000000 0.328935 0.750000
Si Si2 0.429053 0.000000 0.000000
Si Si3 0.085091 0.827057 0.043060
Si Si4 0.230320 0.679124 0.533733
Si Si5 0.324678 0.202182 0.295546
Si Si6 0.140010 0.637233 0.752016
O O1 0.038505 0.434941 0.650393
O O2 0.030867 0.232975 0.887633
O O3 0.393053 0.870280 0.081757
O O4 0.128095 0.819944 0.185857
O O5 0.107847 0.731366 0.887312
O O6 0.073926 0.000000 0.000000
O O7 0.240492 0.500000 0.500000
O O8 0.283651 0.769375 0.556744
O O9 0.201744 0.747781 0.375417
O O10 0.194660 0.709795 0.696480
O O11 0.348380 0.033882 0.316506
#
# Coordination Sequence:
#
# PCOD8159287 Si02
#       6
#     4   4   8   8   8   8
#     4  12  26  44  74 102 132 180 232 292 350 400
#     4  12  22  46  76 106 130 170 242 286 346 406
#     4  12  27  45  67 100 142 181 229 285 350 406
#     4  10  21  39  66 102 141 178 228 281 343 403
#     4  11  21  41  66 101 134 184 231 277 336 406
#     4  11  22  45  72 101 138 180 230 285 337 412
#
# _framework density 21.785616999999998
#
# number of rings (size 3 to 8) (size 9 to 14) (size 15 to 20)
#    0.000    0.800    5.000    3.600    0.000    4.800 
#    0.000    7.000    0.000    0.000    0.000    0.000 
#    0.000    0.000    0.000    0.000    0.000    0.000 
#
# Total GULP energy -247956.135020 kJ/mol
# GULP energy per Si atom -12397.806751 kJ/mol
# Density = 2.173603 g / cm^3
# Si number density = 21.785617 Si / 1000 Ang^3
#
#
#
# Elastic Constant Matrix: (Units=GPa)
#
#
# Indices 1 2 3 4 5 6 
#
# 1 97.3959 23.8957 17.3552 0.0000 0.0000 0.0000
# 2 23.8957 66.9390 23.8573 0.0000 0.0000 0.0000
# 3 17.3552 23.8573 80.5344 0.0000 0.0000 0.0000
# 4 0.0000 0.0000 0.0000 30.9699 0.0000 0.0000
# 5 0.0000 0.0000 0.0000 0.0000 57.2441 0.0000
# 6 0.0000 0.0000 0.0000 0.0000 0.0000 11.0515
#
#
#
# Elastic Compliance Matrix: (Units=1/GPa)
#
#
# Indices 1 2 3 4 5 6 
#
# 1 0.011392 -0.003568 -0.001398 0.000000 0.000000 0.000000
# 2 -0.003568 0.017820 -0.004510 0.000000 0.000000 0.000000
# 3 -0.001398 -0.004510 0.014054 0.000000 0.000000 0.000000
# 4 0.000000 0.000000 0.000000 0.032289 0.000000 0.000000
# 5 0.000000 0.000000 0.000000 0.000000 0.017469 0.000000
# 6 0.000000 0.000000 0.000000 0.000000 0.000000 0.090485
#
#
# Mechanical properties :
#
#
# Convention : Reuss Voigt Hill
#
# Bulk Modulus (GPa) = 41.12885 41.67620 41.40253
# Shear Modulus (GPa) = 23.74535 31.83718 27.79127
#
# Velocity S-wave (km/s) = 3.30503 3.82695 3.57553
# Velocity P-wave (km/s) = 5.78655 6.22086 6.00763
#
# Compressibility (1/GPa) = 0.02431383
#
# Stress axis : x y z
#
# Youngs Moduli (GPa) = 87.78111 56.11597 71.15244
#
# Poissons Ratio (x) = 0.20025 0.09946
# Poissons Ratio (y) = 0.31324 0.32090
# Poissons Ratio (z) = 0.12271 0.25308
#
# Static dielectric constant tensor:
#      x y z
#    x 4.255040 0.000000 0.000000 
#    y 0.000000 3.616190 0.000000 
#    z 0.000000 0.000000 4.187950 
# 
# 
# High freq. dielectric constant tensor:
#      x y z
#    x 1.880290 0.000000 0.000000 
#    y 0.000000 1.821330 0.000000 
#    z 0.000000 0.000000 1.875990 
# 
# From -- ./inp_files/6184.got.cif
#   From: 2010.03.12/outbox.cif.g09.slc.cpg/sg20_4_cif.got.tgz:6184.got - 2010.04.14 01:38:04.
