data_PCOD8159579
_publ_section_title
;
Structure prediction by ZEFSAII (Michael W. Deem and Ramdas Pophale) SiO2 
 PCOD8159579
Probable space group: C 2 2 21
;
_chemical_formula_sum "Si O2"
_cell_formula_units_Z 28
_cell_length_a 8.742768
_cell_length_b 29.723099
_cell_length_c 5.015038
_cell_angle_alpha 90.000000
_cell_angle_beta 90.000000
_cell_angle_gamma 90.000000
_cell_volume 1303.218601
_symmetry_space_group_name_H-M "C 2 2 21"
_symmetry_group_IT_number 20
_symmetry_cell_setting 'orthorhombic'
loop_
_space_group_symop_operation_xyz
x,y,z
-x,-y,1/2+z
x,-y,-z
-x,y,1/2-z
1/2+x,1/2+y,z
1/2-x,1/2-y,1/2+z
1/2+x,1/2-y,-z
1/2-x,1/2+y,1/2-z
loop_
_atom_site_type_symbol
_atom_site_label
_atom_site_fract_x
_atom_site_fract_y
_atom_site_fract_z
Si Si1 0.392960 0.635975 0.001265
Si Si2 0.101361 0.500000 0.500000
Si Si3 0.176871 0.229787 0.327097
Si Si4 0.825849 0.043970 0.163154
O O1 0.500000 0.644719 0.750000
O O2 0.500000 0.627913 0.250000
O O3 0.289219 0.679941 0.054470
O O4 0.296336 0.589457 0.987184
O O5 0.210422 0.542514 0.416071
O O6 0.000000 0.516265 0.750000
O O7 0.221918 0.264496 0.560905
O O8 0.000000 0.236460 0.250000
O O9 0.000000 0.039150 0.250000
O O10 0.778157 0.000000 0.000000
#
# Coordination Sequence:
#
# PCOD8159579 Si02
#       4
#     8   4   8   8
#     4  10  22  38  65 101 129 164 221 280 324 370
#     4  12  26  42  60  92 138 178 208 264 342 380
#     4  11  22  42  67  95 131 171 215 273 335 392
#     4  11  22  40  71  96 125 171 234 269 305 389
#
# _framework density 21.485268000000001
#
# number of rings (size 3 to 8) (size 9 to 14) (size 15 to 20)
#    0.000    1.143    2.857    5.143    4.000    0.000 
#    0.000    4.286    0.000    0.000    0.000    0.000 
#    0.000    0.000    0.000    0.000    0.000    0.000 
#
# Total GULP energy -173486.107053 kJ/mol
# GULP energy per Si atom -12391.864789 kJ/mol
# Density = 2.143637 g / cm^3
# Si number density = 21.485268 Si / 1000 Ang^3
#
#
#
# Elastic Constant Matrix: (Units=GPa)
#
#
# Indices 1 2 3 4 5 6 
#
# 1 113.5811 53.5829 53.3384 0.0000 0.0000 0.0000
# 2 53.5829 155.0882 52.8051 0.0000 0.0000 0.0000
# 3 53.3384 52.8051 142.7897 0.0000 0.0000 0.0000
# 4 0.0000 0.0000 0.0000 35.3617 0.0000 0.0000
# 5 0.0000 0.0000 0.0000 0.0000 52.1146 0.0000
# 6 0.0000 0.0000 0.0000 0.0000 0.0000 14.8355
#
#
#
# Elastic Compliance Matrix: (Units=1/GPa)
#
#
# Indices 1 2 3 4 5 6 
#
# 1 0.011737 -0.002931 -0.003300 0.000000 0.000000 0.000000
# 2 -0.002931 0.008109 -0.001904 0.000000 0.000000 0.000000
# 3 -0.003300 -0.001904 0.008940 0.000000 0.000000 0.000000
# 4 0.000000 0.000000 0.000000 0.028279 0.000000 0.000000
# 5 0.000000 0.000000 0.000000 0.000000 0.019188 0.000000
# 6 0.000000 0.000000 0.000000 0.000000 0.000000 0.067406
#
#
# Mechanical properties :
#
#
# Convention : Reuss Voigt Hill
#
# Bulk Modulus (GPa) = 79.90259 81.21242 80.55751
# Shear Modulus (GPa) = 30.46884 37.24455 33.85670
#
# Velocity S-wave (km/s) = 3.76989 4.16804 3.97395
# Velocity P-wave (km/s) = 7.49797 7.81310 7.65716
#
# Compressibility (1/GPa) = 0.01251524
#
# Stress axis : x y z
#
# Youngs Moduli (GPa) = 85.20042 123.32049 111.85540
#
# Poissons Ratio (x) = 0.36151 0.36915
# Poissons Ratio (y) = 0.24976 0.21294
# Poissons Ratio (z) = 0.28118 0.23477
#
# Static dielectric constant tensor:
#      x y z
#    x 3.818590 0.000000 0.000000 
#    y 0.000000 4.675320 0.000000 
#    z 0.000000 0.000000 4.216270 
# 
# 
# High freq. dielectric constant tensor:
#      x y z
#    x 1.822000 0.000000 0.000000 
#    y 0.000000 1.839360 0.000000 
#    z 0.000000 0.000000 1.863940 
# 
# From -- ./inp_files/456.got.cif
#   From: 2010.03.12/outbox.cif.g09.slc.cpg/sg20_1_cif.got.tgz:456.got - 2010.04.14 01:38:04.
