data_PCOD8159431
_publ_section_title
;
Structure prediction by ZEFSAII (Michael W. Deem and Ramdas Pophale) SiO2 
 PCOD8159431
Probable space group: C 2 2 21
;
_chemical_formula_sum "Si O2"
_cell_formula_units_Z 48
_cell_length_a 23.061616
_cell_length_b 10.533669
_cell_length_c 8.674440
_cell_angle_alpha 90.000000
_cell_angle_beta 90.000000
_cell_angle_gamma 90.000000
_cell_volume 2107.224714
_symmetry_space_group_name_H-M "C 2 2 21"
_symmetry_group_IT_number 20
_symmetry_cell_setting 'orthorhombic'
loop_
_space_group_symop_operation_xyz
x,y,z
-x,-y,1/2+z
x,-y,-z
-x,y,1/2-z
1/2+x,1/2+y,z
1/2-x,1/2-y,1/2+z
1/2+x,1/2-y,-z
1/2-x,1/2+y,1/2-z
loop_
_atom_site_type_symbol
_atom_site_label
_atom_site_fract_x
_atom_site_fract_y
_atom_site_fract_z
Si Si1 0.297356 0.870330 0.908008
Si Si2 0.029084 0.752815 0.410930
Si Si3 0.922633 0.321201 0.434858
Si Si4 0.834794 0.877623 0.607736
Si Si5 0.595393 0.949361 0.754341
Si Si6 0.359520 0.633919 0.049555
O O1 0.231908 0.845550 0.854097
O O2 0.338791 0.897320 0.761939
O O3 0.316449 0.749616 0.009457
O O4 0.302937 0.000000 0.000000
O O5 0.056902 0.611126 0.383110
O O6 0.079660 0.849137 0.460717
O O7 0.000000 0.801268 0.250000
O O8 0.984221 0.752861 0.556130
O O9 0.867274 0.235302 0.479558
O O10 0.911280 0.395996 0.270908
O O11 0.929752 0.410339 0.582453
O O12 0.869693 0.882904 0.768111
O O13 0.840321 0.000000 0.500000
O O14 0.330917 0.500000 0.000000
#
# Coordination Sequence:
#
# PCOD8159431 Si02
#       6
#     8   8   8   8   8   8
#     4  10  23  45  69  97 142 178 237 298 350 419
#     4   9  21  44  66  99 142 183 227 297 354 433
#     4  10  21  42  66 100 133 178 229 284 359 419
#     4  11  27  43  68 101 144 185 234 299 357 431
#     4   9  20  41  67  98 130 177 230 284 346 417
#     4  11  26  45  72 103 136 195 237 285 367 436
#
# _framework density 22.778776000000001
#
# number of rings (size 3 to 8) (size 9 to 14) (size 15 to 20)
#    0.000    2.000    0.000    1.000    9.333    4.000 
#   48.000    0.000    0.000    0.000    0.000    0.000 
#    0.000    0.000    0.000    0.000    0.000    0.000 
#
# Total GULP energy -297325.654013 kJ/mol
# GULP energy per Si atom -12388.568917 kJ/mol
# Density = 2.272693 g / cm^3
# Si number density = 22.778776 Si / 1000 Ang^3
#
#
#
# Elastic Constant Matrix: (Units=GPa)
#
#
# Indices 1 2 3 4 5 6 
#
# 1 148.2818 53.9265 39.2137 0.0000 0.0000 0.0000
# 2 53.9265 118.9289 33.3038 0.0000 0.0000 0.0000
# 3 39.2137 33.3038 87.9704 0.0000 0.0000 0.0000
# 4 0.0000 0.0000 0.0000 30.7108 0.0000 0.0000
# 5 0.0000 0.0000 0.0000 0.0000 30.1851 0.0000
# 6 0.0000 0.0000 0.0000 0.0000 0.0000 19.4356
#
#
#
# Elastic Compliance Matrix: (Units=1/GPa)
#
#
# Indices 1 2 3 4 5 6 
#
# 1 0.008588 -0.003157 -0.002633 0.000000 0.000000 0.000000
# 2 -0.003157 0.010566 -0.002593 0.000000 0.000000 0.000000
# 3 -0.002633 -0.002593 0.013523 0.000000 0.000000 0.000000
# 4 0.000000 0.000000 0.000000 0.032562 0.000000 0.000000
# 5 0.000000 0.000000 0.000000 0.000000 0.033129 0.000000
# 6 0.000000 0.000000 0.000000 0.000000 0.000000 0.051452
#
#
# Mechanical properties :
#
#
# Convention : Reuss Voigt Hill
#
# Bulk Modulus (GPa) = 62.84861 67.56323 65.20592
# Shear Modulus (GPa) = 29.08846 31.31543 30.20195
#
# Velocity S-wave (km/s) = 3.57739 3.71180 3.64522
# Velocity P-wave (km/s) = 6.68688 6.93505 6.81210
#
# Compressibility (1/GPa) = 0.01591125
#
# Stress axis : x y z
#
# Youngs Moduli (GPa) = 116.43665 94.64412 73.94899
#
# Poissons Ratio (x) = 0.29878 0.19472
# Poissons Ratio (y) = 0.36758 0.19174
# Poissons Ratio (z) = 0.30660 0.24540
#
# Static dielectric constant tensor:
#      x y z
#    x 4.260340 0.000000 0.000000 
#    y 0.000000 4.430560 0.000000 
#    z 0.000000 0.000000 4.064620 
# 
# 
# High freq. dielectric constant tensor:
#      x y z
#    x 1.903920 0.000000 0.000000 
#    y 0.000000 1.892460 0.000000 
#    z 0.000000 0.000000 1.890420 
# 
# From -- ./inp_files/10639.got.cif
#   From: 2010.03.12/outbox.cif.g09.slc.cpg/sg20_6_cif.got.tgz:10639.got - 2010.04.14 01:38:04.
