data_PCOD8159888
_publ_section_title
;
Structure prediction by ZEFSAII (Michael W. Deem and Ramdas Pophale) SiO2 
 PCOD8159888
Probable space group: C 2 2 21
;
_chemical_formula_sum "Si O2"
_cell_formula_units_Z 32
_cell_length_a 17.577284
_cell_length_b 13.882933
_cell_length_c 4.985686
_cell_angle_alpha 90.000000
_cell_angle_beta 90.000000
_cell_angle_gamma 90.000000
_cell_volume 1216.628317
_symmetry_space_group_name_H-M "C 2 2 21"
_symmetry_group_IT_number 20
_symmetry_cell_setting 'orthorhombic'
loop_
_space_group_symop_operation_xyz
x,y,z
-x,-y,1/2+z
x,-y,-z
-x,y,1/2-z
1/2+x,1/2+y,z
1/2-x,1/2-y,1/2+z
1/2+x,1/2-y,-z
1/2-x,1/2+y,1/2-z
loop_
_atom_site_type_symbol
_atom_site_label
_atom_site_fract_x
_atom_site_fract_y
_atom_site_fract_z
Si Si1 0.053457 0.000000 0.000000
Si Si2 0.500000 0.843929 0.750000
Si Si3 0.708058 0.000000 0.000000
Si Si4 0.780684 0.796731 0.970333
Si Si5 0.920180 0.200345 0.384474
Si Si6 0.400150 0.000000 0.000000
O O1 0.106990 0.095907 0.002011
O O2 0.000000 0.985011 0.250000
O O3 0.433735 0.781314 0.608752
O O4 0.544421 0.908445 0.533382
O O5 0.763798 0.090208 0.042619
O O6 0.653127 0.979531 0.248076
O O7 0.719040 0.741589 0.778283
O O8 0.861026 0.766220 0.841529
O O9 0.000000 0.177639 0.250000
#
# Coordination Sequence:
#
# PCOD8159888 Si02
#       6
#     4   4   4   8   8   4
#     4  10  22  46  72 112 146 194 252 320 404 464
#     4  12  28  50  82 118 160 210 278 348 396 474
#     4  12  29  55  80 113 171 210 270 332 406 500
#     4  12  30  51  81 118 163 216 269 328 414 488
#     4  11  28  48  81 114 160 203 272 338 402 476
#     4  12  29  49  82 119 157 220 274 332 406 478
#
# _framework density 26.302202000000001
#
# number of rings (size 3 to 8) (size 9 to 14) (size 15 to 20)
#    0.000    0.500    1.250    3.750   15.750    7.000 
#    0.000    0.000    0.000    0.000    0.000    0.000 
#    0.000    0.000    0.000    0.000    0.000    0.000 
#
# Total GULP energy -198444.784724 kJ/mol
# GULP energy per Si atom -12402.799045 kJ/mol
# Density = 2.624234 g / cm^3
# Si number density = 26.302202 Si / 1000 Ang^3
#
#
#
# Elastic Constant Matrix: (Units=GPa)
#
#
# Indices 1 2 3 4 5 6 
#
# 1 80.4929 18.7471 -0.7783 0.0000 0.0000 0.0000
# 2 18.7471 176.9193 23.5605 0.0000 0.0000 0.0000
# 3 -0.7783 23.5605 123.6190 0.0000 0.0000 0.0000
# 4 0.0000 0.0000 0.0000 47.3179 0.0000 0.0000
# 5 0.0000 0.0000 0.0000 0.0000 34.2016 0.0000
# 6 0.0000 0.0000 0.0000 0.0000 0.0000 22.0860
#
#
#
# Elastic Compliance Matrix: (Units=1/GPa)
#
#
# Indices 1 2 3 4 5 6 
#
# 1 0.012752 -0.001397 0.000347 0.000000 0.000000 0.000000
# 2 -0.001397 0.005953 -0.001143 0.000000 0.000000 0.000000
# 3 0.000347 -0.001143 0.008309 0.000000 0.000000 0.000000
# 4 0.000000 0.000000 0.000000 0.021134 0.000000 0.000000
# 5 0.000000 0.000000 0.000000 0.000000 0.029238 0.000000
# 6 0.000000 0.000000 0.000000 0.000000 0.000000 0.045278
#
#
# Mechanical properties :
#
#
# Convention : Reuss Voigt Hill
#
# Bulk Modulus (GPa) = 44.19672 51.56553 47.88112
# Shear Modulus (GPa) = 37.14867 43.35456 40.25161
#
# Velocity S-wave (km/s) = 3.76224 4.06436 3.91621
# Velocity P-wave (km/s) = 5.97599 6.45546 6.22035
#
# Compressibility (1/GPa) = 0.02262611
#
# Stress axis : x y z
#
# Youngs Moduli (GPa) = 78.41737 167.99298 120.34486
#
# Poissons Ratio (x) = 0.23476 -0.04172
# Poissons Ratio (y) = 0.10958 0.13759
# Poissons Ratio (z) = -0.02718 0.19207
#
# Static dielectric constant tensor:
#      x y z
#    x 4.687460 0.000000 0.000000 
#    y 0.000000 5.311720 0.000000 
#    z 0.000000 0.000000 4.767380 
# 
# 
# High freq. dielectric constant tensor:
#      x y z
#    x 2.053680 0.000000 0.000000 
#    y 0.000000 2.077330 0.000000 
#    z 0.000000 0.000000 2.064780 
# 
# From -- ./inp_files/1632.got.cif
#   From: 2010.03.12/outbox.cif.g09.slc.cpg/sg20_1_cif.got.tgz:1632.got - 2010.04.14 01:38:04.
