data_PCOD8159190
_publ_section_title
;
Structure prediction by ZEFSAII (Michael W. Deem and Ramdas Pophale) SiO2 
 PCOD8159190
Probable space group: C 2 2 21
;
_chemical_formula_sum "Si O2"
_cell_formula_units_Z 56
_cell_length_a 5.204267
_cell_length_b 21.209134
_cell_length_c 24.136342
_cell_angle_alpha 90.000000
_cell_angle_beta 90.000000
_cell_angle_gamma 90.000000
_cell_volume 2664.121065
_symmetry_space_group_name_H-M "C 2 2 21"
_symmetry_group_IT_number 20
_symmetry_cell_setting 'orthorhombic'
loop_
_space_group_symop_operation_xyz
x,y,z
-x,-y,1/2+z
x,-y,-z
-x,y,1/2-z
1/2+x,1/2+y,z
1/2-x,1/2-y,1/2+z
1/2+x,1/2-y,-z
1/2-x,1/2+y,1/2-z
loop_
_atom_site_type_symbol
_atom_site_label
_atom_site_fract_x
_atom_site_fract_y
_atom_site_fract_z
Si Si1 0.025653 0.139670 0.123491
Si Si2 0.022610 0.823481 0.185237
Si Si3 0.522612 0.823481 0.814763
Si Si4 0.559265 0.750000 0.035969
Si Si5 0.435720 0.569934 0.023947
Si Si6 0.564280 0.069934 0.523947
Si Si7 0.525651 0.139670 0.876509
O O1 0.800477 0.151511 0.167410
O O2 0.297031 0.138436 0.154743
O O3 0.015059 0.189760 0.074378
O O4 0.982864 0.073131 0.090630
O O5 0.990466 0.750000 0.170562
O O6 0.797028 0.861564 0.154743
O O7 0.000000 0.835703 0.250000
O O8 0.300474 0.848489 0.167409
O O9 0.500000 0.835703 0.750000
O O10 0.515058 0.810240 0.074378
O O11 0.347940 0.750000 0.987524
O O12 0.389896 0.500000 0.000000
O O13 0.168838 0.605018 0.008370
O O14 0.668838 0.605018 0.991630
O O15 0.517136 0.073131 0.590630
O O16 0.610105 0.000000 0.500000
#
# Coordination Sequence:
#
# PCOD8159190 Si02
#       7
#     8   8   8   8   8   8   8
#     4  12  21  37  57  85 119 161 196 238 301 343
#     4  11  22  38  57  84 120 161 205 243 287 347
#     4  11  22  38  57  84 120 161 205 243 287 347
#     4  12  22  32  49  80 121 154 184 230 282 352
#     4  10  21  38  59  86 115 151 201 241 291 354
#     4  10  21  38  59  86 115 151 201 241 291 354
#     4  12  21  37  57  85 119 161 196 238 301 343
#
# _framework density 21.020064000000001
#
# number of rings (size 3 to 8) (size 9 to 14) (size 15 to 20)
#    0.000    0.857    2.857    6.000    0.000    2.286 
#    0.000    0.000    0.000    0.000    0.000   80.000 
#    0.000    0.000    0.000    0.000    0.000    0.000 
#
# Total GULP energy -347089.610199 kJ/mol
# GULP energy per Si atom -12396.057507 kJ/mol
# Density = 2.097222 g / cm^3
# Si number density = 21.020064 Si / 1000 Ang^3
#
#
#
# Elastic Constant Matrix: (Units=GPa)
#
#
# Indices 1 2 3 4 5 6 
#
# 1 136.7627 -13.8419 23.6560 0.0000 0.0000 0.0000
# 2 -13.8419 40.7653 24.0256 0.0000 0.0000 0.0000
# 3 23.6560 24.0256 100.2354 0.0000 0.0000 0.0000
# 4 0.0000 0.0000 0.0000 30.4791 0.0000 0.0000
# 5 0.0000 0.0000 0.0000 0.0000 54.2948 0.0000
# 6 0.0000 0.0000 0.0000 0.0000 0.0000 0.7026
#
#
#
# Elastic Compliance Matrix: (Units=1/GPa)
#
#
# Indices 1 2 3 4 5 6 
#
# 1 0.008312 0.004633 -0.003072 0.000000 0.000000 0.000000
# 2 0.004633 0.031149 -0.008559 0.000000 0.000000 0.000000
# 3 -0.003072 -0.008559 0.012753 0.000000 0.000000 0.000000
# 4 0.000000 0.000000 0.000000 0.032809 0.000000 0.000000
# 5 0.000000 0.000000 0.000000 0.000000 0.018418 0.000000
# 6 0.000000 0.000000 0.000000 0.000000 0.000000 1.423366
#
#
# Mechanical properties :
#
#
# Convention : Reuss Voigt Hill
#
# Bulk Modulus (GPa) = 26.16653 38.38255 32.27454
# Shear Modulus (GPa) = 3.21845 33.35687 18.28766
#
# Velocity S-wave (km/s) = 1.23873 3.98792 2.95279
# Velocity P-wave (km/s) = 3.81069 6.28524 5.19738
#
# Compressibility (1/GPa) = 0.03821676
#
# Stress axis : x y z
#
# Youngs Moduli (GPa) = 120.30406 32.10425 78.41156
#
# Poissons Ratio (x) = -0.14874 0.24090
# Poissons Ratio (y) = -0.55738 0.67116
# Poissons Ratio (z) = 0.36960 0.27480
#
# Static dielectric constant tensor:
#      x y z
#    x 4.679890 0.000000 0.000000 
#    y 0.000000 3.900770 0.000000 
#    z 0.000000 0.000000 3.893030 
# 
# 
# High freq. dielectric constant tensor:
#      x y z
#    x 1.859690 0.000000 0.000000 
#    y 0.000000 1.789280 0.000000 
#    z 0.000000 0.000000 1.824290 
# 
# From -- ./inp_files/26176.got.cif
#   From: 2010.03.12/outbox.cif.g09.slc.cpg/sg20_14_cif.got.tgz:26176.got - 2010.04.14 01:38:04.
