data_PCOD8159812
_publ_section_title
;
Structure prediction by ZEFSAII (Michael W. Deem and Ramdas Pophale) SiO2 
 PCOD8159812
Probable space group: C 2 2 21
;
_chemical_formula_sum "Si O2"
_cell_formula_units_Z 64
_cell_length_a 15.136580
_cell_length_b 8.601952
_cell_length_c 22.743533
_cell_angle_alpha 90.000000
_cell_angle_beta 90.000000
_cell_angle_gamma 90.000000
_cell_volume 2961.302032
_symmetry_space_group_name_H-M "C 2 2 21"
_symmetry_group_IT_number 20
_symmetry_cell_setting 'orthorhombic'
loop_
_space_group_symop_operation_xyz
x,y,z
-x,-y,1/2+z
x,-y,-z
-x,y,1/2-z
1/2+x,1/2+y,z
1/2-x,1/2-y,1/2+z
1/2+x,1/2-y,-z
1/2-x,1/2+y,1/2-z
loop_
_atom_site_type_symbol
_atom_site_label
_atom_site_fract_x
_atom_site_fract_y
_atom_site_fract_z
Si Si1 0.409215 0.963624 0.777616
Si Si2 0.345740 0.125559 0.104736
Si Si3 0.401618 0.319792 0.746243
Si Si4 0.269525 0.803197 0.081125
Si Si5 0.078952 0.815897 0.503432
Si Si6 0.265370 0.105079 0.310271
Si Si7 0.814838 0.288608 0.364783
Si Si8 0.378084 0.316408 0.509148
O O1 0.500000 0.906026 0.750000
O O2 0.417089 0.934097 0.847913
O O3 0.331776 0.867461 0.744326
O O4 0.395229 0.147582 0.772783
O O5 0.385403 0.230056 0.053846
O O6 0.283837 0.230301 0.145443
O O7 0.286196 0.987771 0.076981
O O8 0.500000 0.391830 0.750000
O O9 0.331465 0.428144 0.781251
O O10 0.380594 0.306834 0.677110
O O11 0.245639 0.755208 0.147819
O O12 0.361535 0.725790 0.059901
O O13 0.186546 0.749456 0.041247
O O14 0.978575 0.754594 0.507598
O O15 0.082798 0.000000 0.500000
O O16 0.308720 0.970441 0.349911
O O17 0.840793 0.252712 0.431055
O O18 0.378621 0.500000 0.500000
#
# Coordination Sequence:
#
# PCOD8159812 Si02
#       8
#     8   8   8   8   8   8   8   8
#     4  10  23  42  67  99 138 176 226 277 336 407
#     4  12  22  45  70  92 138 179 222 278 347 406
#     4  10  22  43  67 100 133 179 224 274 342 401
#     4  12  24  43  67  97 133 178 227 271 345 399
#     4  11  26  44  67 100 134 172 228 285 337 404
#     4  11  24  40  68 102 135 176 228 284 329 402
#     4  11  23  43  69  95 138 179 221 277 339 401
#     4  11  24  45  67  98 134 181 225 275 343 404
#
# _framework density 21.612114999999999
#
# number of rings (size 3 to 8) (size 9 to 14) (size 15 to 20)
#    0.000    1.000    5.000    1.125    3.500    1.000 
#    2.250    0.625    0.000    0.000    0.000    0.000 
#    0.000    0.000    0.000    0.000    0.000    0.000 
#
# Total GULP energy -396606.149054 kJ/mol
# GULP energy per Si atom -12393.942158 kJ/mol
# Density = 2.156293 g / cm^3
# Si number density = 21.612115 Si / 1000 Ang^3
#
#
#
# Elastic Constant Matrix: (Units=GPa)
#
#
# Indices 1 2 3 4 5 6 
#
# 1 147.0633 20.3325 40.3615 0.0000 0.0000 0.0000
# 2 20.3325 59.0946 36.7449 0.0000 0.0000 0.0000
# 3 40.3615 36.7449 116.1284 0.0000 0.0000 0.0000
# 4 0.0000 0.0000 0.0000 24.1391 0.0000 0.0000
# 5 0.0000 0.0000 0.0000 0.0000 32.8243 0.0000
# 6 0.0000 0.0000 0.0000 0.0000 0.0000 41.2709
#
#
#
# Elastic Compliance Matrix: (Units=1/GPa)
#
#
# Indices 1 2 3 4 5 6 
#
# 1 0.007585 -0.001208 -0.002254 0.000000 0.000000 0.000000
# 2 -0.001208 0.021259 -0.006307 0.000000 0.000000 0.000000
# 3 -0.002254 -0.006307 0.011390 0.000000 0.000000 0.000000
# 4 0.000000 0.000000 0.000000 0.041427 0.000000 0.000000
# 5 0.000000 0.000000 0.000000 0.000000 0.030465 0.000000
# 6 0.000000 0.000000 0.000000 0.000000 0.000000 0.024230
#
#
# Mechanical properties :
#
#
# Convention : Reuss Voigt Hill
#
# Bulk Modulus (GPa) = 48.31730 57.46268 52.88999
# Shear Modulus (GPa) = 30.71361 34.63670 32.67516
#
# Velocity S-wave (km/s) = 3.77388 4.00766 3.89252
# Velocity P-wave (km/s) = 6.43387 6.93260 6.68789
#
# Compressibility (1/GPa) = 0.02069652
#
# Stress axis : x y z
#
# Youngs Moduli (GPa) = 131.83082 47.03807 87.79497
#
# Poissons Ratio (x) = 0.05684 0.19790
# Poissons Ratio (y) = 0.15930 0.55371
# Poissons Ratio (z) = 0.29716 0.29666
#
# Static dielectric constant tensor:
#      x y z
#    x 4.342210 0.000000 0.000000 
#    y 0.000000 3.799540 0.000000 
#    z 0.000000 0.000000 3.779270 
# 
# 
# High freq. dielectric constant tensor:
#      x y z
#    x 1.859290 0.000000 0.000000 
#    y 0.000000 1.827530 0.000000 
#    z 0.000000 0.000000 1.863110 
# 
# From -- ./inp_files/29383.got.cif
#   From: 2010.03.12/outbox.cif.g09.slc.cpg/sg20_15_cif.got.tgz:29383.got - 2010.04.14 01:38:04.
