data_PCOD8159016
_publ_section_title
;
Structure prediction by ZEFSAII (Michael W. Deem and Ramdas Pophale) SiO2 
 PCOD8159016
Probable space group: C 2 2 21
;
_chemical_formula_sum "Si O2"
_cell_formula_units_Z 60
_cell_length_a 9.380372
_cell_length_b 17.274006
_cell_length_c 17.479365
_cell_angle_alpha 90.000000
_cell_angle_beta 90.000000
_cell_angle_gamma 90.000000
_cell_volume 2832.296913
_symmetry_space_group_name_H-M "C 2 2 21"
_symmetry_group_IT_number 20
_symmetry_cell_setting 'orthorhombic'
loop_
_space_group_symop_operation_xyz
x,y,z
-x,-y,1/2+z
x,-y,-z
-x,y,1/2-z
1/2+x,1/2+y,z
1/2-x,1/2-y,1/2+z
1/2+x,1/2-y,-z
1/2-x,1/2+y,1/2-z
loop_
_atom_site_type_symbol
_atom_site_label
_atom_site_fract_x
_atom_site_fract_y
_atom_site_fract_z
Si Si1 0.651688 0.840174 0.007754
Si Si2 0.359459 0.261752 0.801452
Si Si3 0.715087 0.906659 0.847831
Si Si4 0.500000 0.002078 0.750000
Si Si5 0.233391 0.099730 0.780467
Si Si6 0.332300 0.437640 0.112799
Si Si7 0.159250 0.710525 0.533724
Si Si8 0.631448 0.568538 0.939796
O O1 0.688555 0.905645 0.070966
O O2 0.485743 0.822724 0.002210
O O3 0.667691 0.859879 0.920164
O O4 0.759385 0.768520 0.024486
O O5 0.500000 0.253674 0.750000
O O6 0.287027 0.346272 0.787434
O O7 0.248040 0.192317 0.787149
O O8 0.396220 0.254949 0.890702
O O9 0.578063 0.948181 0.811484
O O10 0.827251 0.969848 0.878861
O O11 0.386983 0.059637 0.787589
O O12 0.153964 0.092333 0.699501
O O13 0.149855 0.053892 0.848189
O O14 0.462104 0.413731 0.056372
O O15 0.271710 0.641736 0.543609
O O16 0.671458 0.500000 0.000000
#
# Coordination Sequence:
#
# PCOD8159016 Si02
#       8
#     8   8   8   4   8   8   8   8
#     4  11  22  42  65  91 131 175 218 278 347 395
#     4  10  20  42  63  93 127 174 221 279 338 404
#     4  10  24  39  63  93 132 164 225 276 343 403
#     4  10  22  42  60  96 128 168 224 280 324 422
#     4  10  22  41  68  91 133 177 226 271 342 406
#     4  11  23  43  66  95 132 180 219 279 340 410
#     4  10  24  40  63  99 130 171 232 279 327 426
#     4  11  24  40  65 100 133 174 223 281 336 404
#
# _framework density 21.18422
#
# number of rings (size 3 to 8) (size 9 to 14) (size 15 to 20)
#    0.000    1.600    0.667    3.200    7.467    3.200 
#   12.000    0.000    0.000    0.000    0.000    0.000 
#    0.000    0.000    0.000    0.000    0.000    0.000 
#
# Total GULP energy -371652.606797 kJ/mol
# GULP energy per Si atom -12388.420227 kJ/mol
# Density = 2.113600 g / cm^3
# Si number density = 21.184220 Si / 1000 Ang^3
#
#
#
# Elastic Constant Matrix: (Units=GPa)
#
#
# Indices 1 2 3 4 5 6 
#
# 1 107.7071 58.5611 36.3160 0.0000 0.0000 0.0000
# 2 58.5611 125.1219 30.9413 0.0000 0.0000 0.0000
# 3 36.3160 30.9413 71.6636 0.0000 0.0000 0.0000
# 4 0.0000 0.0000 0.0000 26.3395 0.0000 0.0000
# 5 0.0000 0.0000 0.0000 0.0000 34.3122 0.0000
# 6 0.0000 0.0000 0.0000 0.0000 0.0000 26.1293
#
#
#
# Elastic Compliance Matrix: (Units=1/GPa)
#
#
# Indices 1 2 3 4 5 6 
#
# 1 0.013727 -0.005267 -0.004682 0.000000 0.000000 0.000000
# 2 -0.005267 0.010968 -0.002067 0.000000 0.000000 0.000000
# 3 -0.004682 -0.002067 0.017219 0.000000 0.000000 0.000000
# 4 0.000000 0.000000 0.000000 0.037966 0.000000 0.000000
# 5 0.000000 0.000000 0.000000 0.000000 0.029144 0.000000
# 6 0.000000 0.000000 0.000000 0.000000 0.000000 0.038271
#
#
# Mechanical properties :
#
#
# Convention : Reuss Voigt Hill
#
# Bulk Modulus (GPa) = 55.91912 61.79216 58.85564
# Shear Modulus (GPa) = 28.20282 29.26781 28.73532
#
# Velocity S-wave (km/s) = 3.65267 3.72100 3.68700
# Velocity P-wave (km/s) = 6.65156 6.90604 6.78000
#
# Compressibility (1/GPa) = 0.01788297
#
# Stress axis : x y z
#
# Youngs Moduli (GPa) = 72.85090 91.17214 58.07502
#
# Poissons Ratio (x) = 0.48018 0.27192
# Poissons Ratio (y) = 0.38368 0.12002
# Poissons Ratio (z) = 0.34110 0.18843
#
# Static dielectric constant tensor:
#      x y z
#    x 3.923470 0.000000 0.000000 
#    y 0.000000 4.124740 0.000000 
#    z 0.000000 0.000000 4.021290 
# 
# 
# High freq. dielectric constant tensor:
#      x y z
#    x 1.832480 0.000000 0.000000 
#    y 0.000000 1.836960 0.000000 
#    z 0.000000 0.000000 1.830280 
# 
# From -- ./inp_files/23793.got.cif
#   From: 2010.03.12/outbox.cif.g09.slc.cpg/sg20_12_cif.got.tgz:23793.got - 2010.04.14 01:38:04.
