data_PCOD8159401
_publ_section_title
;
Structure prediction by ZEFSAII (Michael W. Deem and Ramdas Pophale) SiO2 
 PCOD8159401
Probable space group: C 2 2 21
;
_chemical_formula_sum "Si O2"
_cell_formula_units_Z 48
_cell_length_a 9.657847
_cell_length_b 17.367060
_cell_length_c 12.467185
_cell_angle_alpha 90.000000
_cell_angle_beta 90.000000
_cell_angle_gamma 90.000000
_cell_volume 2091.101096
_symmetry_space_group_name_H-M "C 2 2 21"
_symmetry_group_IT_number 20
_symmetry_cell_setting 'orthorhombic'
loop_
_space_group_symop_operation_xyz
x,y,z
-x,-y,1/2+z
x,-y,-z
-x,y,1/2-z
1/2+x,1/2+y,z
1/2-x,1/2-y,1/2+z
1/2+x,1/2-y,-z
1/2-x,1/2+y,1/2-z
loop_
_atom_site_type_symbol
_atom_site_label
_atom_site_fract_x
_atom_site_fract_y
_atom_site_fract_z
Si Si1 0.101475 0.130687 0.895914
Si Si2 0.352468 0.945448 0.700969
Si Si3 0.305981 0.408992 0.165382
Si Si4 0.523249 0.804455 0.914457
Si Si5 0.725859 0.359184 0.877821
Si Si6 0.418997 0.208901 0.647061
O O1 0.179198 0.095946 0.793989
O O2 0.088903 0.223000 0.880166
O O3 0.949845 0.091212 0.899871
O O4 0.188807 0.110167 0.002955
O O5 0.500000 0.971492 0.750000
O O6 0.371565 0.871908 0.622810
O O7 0.237731 0.929169 0.794284
O O8 0.285021 0.015874 0.635009
O O9 0.225543 0.333416 0.127614
O O10 0.374324 0.817225 0.862265
O O11 0.491500 0.806809 0.041236
O O12 0.607792 0.299941 0.840737
O O13 0.500000 0.176803 0.750000
#
# Coordination Sequence:
#
# PCOD8159401 Si02
#       6
#     8   8   8   8   8   8
#     4  10  22  40  70  92 135 178 225 281 339 402
#     4  10  23  41  67  95 135 175 223 281 344 407
#     4  11  22  41  62  98 135 176 216 279 345 401
#     4  10  21  41  69  99 126 175 229 281 337 394
#     4  10  21  42  66  97 126 176 230 280 334 406
#     4  11  22  38  66  97 130 169 228 283 329 404
#
# _framework density 22.954415999999998
#
# number of rings (size 3 to 8) (size 9 to 14) (size 15 to 20)
#    0.000    1.667    1.667    2.500    4.667    2.667 
#    3.000    6.667    0.000    0.000    0.000    0.000 
#    0.000    0.000    0.000    0.000    0.000    0.000 
#
# Total GULP energy -297584.795096 kJ/mol
# GULP energy per Si atom -12399.366462 kJ/mol
# Density = 2.290217 g / cm^3
# Si number density = 22.954416 Si / 1000 Ang^3
#
#
#
# Elastic Constant Matrix: (Units=GPa)
#
#
# Indices 1 2 3 4 5 6 
#
# 1 58.5589 31.2993 7.8090 0.0000 0.0000 0.0000
# 2 31.2993 98.6710 24.2373 0.0000 0.0000 0.0000
# 3 7.8090 24.2373 76.9987 0.0000 0.0000 0.0000
# 4 0.0000 0.0000 0.0000 20.7817 0.0000 0.0000
# 5 0.0000 0.0000 0.0000 0.0000 38.0069 0.0000
# 6 0.0000 0.0000 0.0000 0.0000 0.0000 37.5091
#
#
#
# Elastic Compliance Matrix: (Units=1/GPa)
#
#
# Indices 1 2 3 4 5 6 
#
# 1 0.020563 -0.006514 -0.000035 0.000000 0.000000 0.000000
# 2 -0.006514 0.013048 -0.003446 0.000000 0.000000 0.000000
# 3 -0.000035 -0.003446 0.014076 0.000000 0.000000 0.000000
# 4 0.000000 0.000000 0.000000 0.048119 0.000000 0.000000
# 5 0.000000 0.000000 0.000000 0.000000 0.026311 0.000000
# 6 0.000000 0.000000 0.000000 0.000000 0.000000 0.026660
#
#
# Mechanical properties :
#
#
# Convention : Reuss Voigt Hill
#
# Bulk Modulus (GPa) = 36.10720 40.10220 38.10470
# Shear Modulus (GPa) = 28.08986 30.65173 29.37080
#
# Velocity S-wave (km/s) = 3.50197 3.65818 3.58093
# Velocity P-wave (km/s) = 5.66708 5.94570 5.80806
#
# Compressibility (1/GPa) = 0.02769531
#
# Stress axis : x y z
#
# Youngs Moduli (GPa) = 48.63032 76.64217 71.04480
#
# Poissons Ratio (x) = 0.49927 0.00248
# Poissons Ratio (y) = 0.31679 0.24485
# Poissons Ratio (z) = 0.00170 0.26414
#
# Static dielectric constant tensor:
#      x y z
#    x 3.979120 0.000000 0.000000 
#    y 0.000000 3.948590 0.000000 
#    z 0.000000 0.000000 4.208060 
# 
# 
# High freq. dielectric constant tensor:
#      x y z
#    x 1.900010 0.000000 0.000000 
#    y 0.000000 1.899030 0.000000 
#    z 0.000000 0.000000 1.903710 
# 
# From -- ./inp_files/18851.got.cif
#   From: 2010.03.12/outbox.cif.g09.slc.cpg/sg20_10_cif.got.tgz:18851.got - 2010.04.14 01:38:04.
