data_PCOD8159678
_publ_section_title
;
Structure prediction by ZEFSAII (Michael W. Deem and Ramdas Pophale) SiO2 
 PCOD8159678
Probable space group: C 2 2 21
;
_chemical_formula_sum "Si O2"
_cell_formula_units_Z 36
_cell_length_a 8.417941
_cell_length_b 19.453258
_cell_length_c 10.709572
_cell_angle_alpha 90.000000
_cell_angle_beta 90.000000
_cell_angle_gamma 90.000000
_cell_volume 1753.760722
_symmetry_space_group_name_H-M "C 2 2 21"
_symmetry_group_IT_number 20
_symmetry_cell_setting 'orthorhombic'
loop_
_space_group_symop_operation_xyz
x,y,z
-x,-y,1/2+z
x,-y,-z
-x,y,1/2-z
1/2+x,1/2+y,z
1/2-x,1/2-y,1/2+z
1/2+x,1/2-y,-z
1/2-x,1/2+y,1/2-z
loop_
_atom_site_type_symbol
_atom_site_label
_atom_site_fract_x
_atom_site_fract_y
_atom_site_fract_z
Si Si1 0.500000 0.650548 0.750000
Si Si2 0.481136 0.943149 0.106202
Si Si3 0.523735 0.307972 0.607796
Si Si4 0.743464 0.183909 0.574011
Si Si5 0.675543 0.421118 0.468392
O O1 0.358586 0.698147 0.694132
O O2 0.557706 0.600605 0.640998
O O3 0.500000 0.972204 0.250000
O O4 0.339597 0.888914 0.099612
O O5 0.644506 0.905484 0.070643
O O6 0.445006 0.000000 0.000000
O O7 0.500000 0.291621 0.750000
O O8 0.614344 0.242655 0.549744
O O9 0.350748 0.318776 0.549121
O O10 0.633039 0.375417 0.589387
O O11 0.647333 0.500000 0.500000
#
# Coordination Sequence:
#
# PCOD8159678 Si02
#       5
#     4   8   8   8   8
#     4  10  22  40  68  90 130 178 204 274 336 388
#     4  11  23  43  70  99 136 181 224 274 334 403
#     4  11  26  42  66  99 130 171 224 281 326 397
#     4  11  24  42  69  94 133 175 219 270 341 397
#     4  10  23  42  66  96 130 172 220 269 331 395
#
# _framework density 20.527315000000002
#
# number of rings (size 3 to 8) (size 9 to 14) (size 15 to 20)
#    0.000    1.333    2.222    2.000    7.778    7.111 
#    0.000    0.000    0.000    0.000    0.000    0.000 
#    0.000    0.000    0.000    0.000    0.000    0.000 
#
# Total GULP energy -223162.735793 kJ/mol
# GULP energy per Si atom -12397.929766 kJ/mol
# Density = 2.048059 g / cm^3
# Si number density = 20.527315 Si / 1000 Ang^3
#
#
#
# Elastic Constant Matrix: (Units=GPa)
#
#
# Indices 1 2 3 4 5 6 
#
# 1 97.4459 37.1179 31.8811 0.0000 0.0000 0.0000
# 2 37.1179 92.5778 32.3835 0.0000 0.0000 0.0000
# 3 31.8811 32.3835 96.8460 0.0000 0.0000 0.0000
# 4 0.0000 0.0000 0.0000 24.4265 0.0000 0.0000
# 5 0.0000 0.0000 0.0000 0.0000 33.7311 0.0000
# 6 0.0000 0.0000 0.0000 0.0000 0.0000 26.8308
#
#
#
# Elastic Compliance Matrix: (Units=1/GPa)
#
#
# Indices 1 2 3 4 5 6 
#
# 1 0.012757 -0.004129 -0.002819 0.000000 0.000000 0.000000
# 2 -0.004129 0.013569 -0.003178 0.000000 0.000000 0.000000
# 3 -0.002819 -0.003178 0.012316 0.000000 0.000000 0.000000
# 4 0.000000 0.000000 0.000000 0.040939 0.000000 0.000000
# 5 0.000000 0.000000 0.000000 0.000000 0.029646 0.000000
# 6 0.000000 0.000000 0.000000 0.000000 0.000000 0.037271
#
#
# Mechanical properties :
#
#
# Convention : Reuss Voigt Hill
#
# Bulk Modulus (GPa) = 54.37516 54.40387 54.38951
# Shear Modulus (GPa) = 28.92186 29.36350 29.14268
#
# Velocity S-wave (km/s) = 3.75766 3.78624 3.77198
# Velocity P-wave (km/s) = 6.73598 6.75832 6.74716
#
# Compressibility (1/GPa) = 0.01839075
#
# Stress axis : x y z
#
# Youngs Moduli (GPa) = 78.38810 73.69889 81.19307
#
# Poissons Ratio (x) = 0.30428 0.22888
# Poissons Ratio (y) = 0.32364 0.25803
# Poissons Ratio (z) = 0.22097 0.23421
#
# Static dielectric constant tensor:
#      x y z
#    x 4.162670 0.000000 0.000000 
#    y 0.000000 3.565400 0.000000 
#    z 0.000000 0.000000 3.865430 
# 
# 
# High freq. dielectric constant tensor:
#      x y z
#    x 1.825020 0.000000 0.000000 
#    y 0.000000 1.787830 0.000000 
#    z 0.000000 0.000000 1.809060 
# 
# From -- ./inp_files/5895.got.cif
#   From: 2010.03.12/outbox.cif.g09.slc.cpg/sg20_3_cif.got.tgz:5895.got - 2010.04.14 01:38:04.
