data_PCOD8159751
_publ_section_title
;
Structure prediction by ZEFSAII (Michael W. Deem and Ramdas Pophale) SiO2 
 PCOD8159751
Probable space group: C 2 2 21
;
_chemical_formula_sum "Si O2"
_cell_formula_units_Z 48
_cell_length_a 14.761922
_cell_length_b 5.020716
_cell_length_c 27.286230
_cell_angle_alpha 90.000000
_cell_angle_beta 90.000000
_cell_angle_gamma 90.000000
_cell_volume 2022.330341
_symmetry_space_group_name_H-M "C 2 2 21"
_symmetry_group_IT_number 20
_symmetry_cell_setting 'orthorhombic'
loop_
_space_group_symop_operation_xyz
x,y,z
-x,-y,1/2+z
x,-y,-z
-x,y,1/2-z
1/2+x,1/2+y,z
1/2-x,1/2-y,1/2+z
1/2+x,1/2-y,-z
1/2-x,1/2+y,1/2-z
loop_
_atom_site_type_symbol
_atom_site_label
_atom_site_fract_x
_atom_site_fract_y
_atom_site_fract_z
Si Si1 0.140765 0.469763 0.095855
Si Si2 0.058696 0.464651 0.595812
Si Si3 0.207265 0.181919 0.252711
Si Si4 0.125630 0.028896 0.841139
Si Si5 0.464732 0.213821 0.803058
Si Si6 0.837506 0.034836 0.056549
O O1 0.152604 0.169305 0.114834
O O2 0.228085 0.524462 0.061998
O O3 0.041345 0.508180 0.069646
O O4 0.137071 0.670977 0.141453
O O5 0.042742 0.490903 0.654649
O O6 0.127987 0.680439 0.574691
O O7 0.105447 0.181020 0.587125
O O8 0.212018 0.482469 0.230335
O O9 0.190808 0.992590 0.205064
O O10 0.133138 0.157920 0.294831
O O11 0.025282 0.956712 0.822546
O O12 0.500000 0.099304 0.750000
O O13 0.861287 0.000000 0.000000
#
# Coordination Sequence:
#
# PCOD8159751 Si02
#       6
#     8   8   8   8   8   8
#     4  11  24  46  70 101 139 180 230 295 351 422
#     4  11  25  47  77 105 144 195 237 296 368 439
#     4  11  24  36  59  98 136 179 227 282 335 404
#     4  10  22  42  64  93 133 182 231 272 343 415
#     4   9  22  44  67  99 144 192 235 289 352 424
#     4  12  28  47  74 110 140 181 244 304 374 446
#
# _framework density 23.734992999999999
#
# number of rings (size 3 to 8) (size 9 to 14) (size 15 to 20)
#    0.000    1.333    0.000    4.500    7.000    4.000 
#    0.000   13.333    0.000    0.000    0.000    0.000 
#    0.000    0.000    0.000    0.000    0.000    0.000 
#
# Total GULP energy -297321.834513 kJ/mol
# GULP energy per Si atom -12388.409771 kJ/mol
# Density = 2.368097 g / cm^3
# Si number density = 23.734993 Si / 1000 Ang^3
#
#
#
# Elastic Constant Matrix: (Units=GPa)
#
#
# Indices 1 2 3 4 5 6 
#
# 1 92.3162 28.0843 29.5282 0.0000 0.0000 0.0000
# 2 28.0843 75.2766 9.4890 0.0000 0.0000 0.0000
# 3 29.5282 9.4890 94.9519 0.0000 0.0000 0.0000
# 4 0.0000 0.0000 0.0000 18.9847 0.0000 0.0000
# 5 0.0000 0.0000 0.0000 0.0000 27.1211 0.0000
# 6 0.0000 0.0000 0.0000 0.0000 0.0000 35.4427
#
#
#
# Elastic Compliance Matrix: (Units=1/GPa)
#
#
# Indices 1 2 3 4 5 6 
#
# 1 0.013399 -0.004531 -0.003714 0.000000 0.000000 0.000000
# 2 -0.004531 0.014986 -0.000089 0.000000 0.000000 0.000000
# 3 -0.003714 -0.000089 0.011695 0.000000 0.000000 0.000000
# 4 0.000000 0.000000 0.000000 0.052674 0.000000 0.000000
# 5 0.000000 0.000000 0.000000 0.000000 0.036872 0.000000
# 6 0.000000 0.000000 0.000000 0.000000 0.000000 0.028215
#
#
# Mechanical properties :
#
#
# Convention : Reuss Voigt Hill
#
# Bulk Modulus (GPa) = 42.71053 44.08307 43.39680
# Shear Modulus (GPa) = 27.42568 29.33925 28.38247
#
# Velocity S-wave (km/s) = 3.40295 3.51966 3.46180
# Velocity P-wave (km/s) = 5.78566 5.92712 5.85682
#
# Compressibility (1/GPa) = 0.02341343
#
# Stress axis : x y z
#
# Youngs Moduli (GPa) = 74.63491 66.72987 85.50325
#
# Poissons Ratio (x) = 0.30233 0.31755
# Poissons Ratio (y) = 0.33814 0.00758
# Poissons Ratio (z) = 0.27719 0.00592
#
# Static dielectric constant tensor:
#      x y z
#    x 4.722670 0.000000 0.000000 
#    y 0.000000 4.473970 0.000000 
#    z 0.000000 0.000000 4.126150 
# 
# 
# High freq. dielectric constant tensor:
#      x y z
#    x 1.960180 0.000000 0.000000 
#    y 0.000000 1.948410 0.000000 
#    z 0.000000 0.000000 1.916460 
# 
# From -- ./inp_files/30405.got.cif
#   From: 2010.03.12/outbox.cif.g09.slc.cpg/sg20_16_cif.got.tgz:30405.got - 2010.04.14 01:38:04.
