data_PCOD8159610
_publ_section_title
;
Structure prediction by ZEFSAII (Michael W. Deem and Ramdas Pophale) SiO2 
 PCOD8159610
Probable space group: C 2 2 21
;
_chemical_formula_sum "Si O2"
_cell_formula_units_Z 40
_cell_length_a 10.418303
_cell_length_b 18.289206
_cell_length_c 10.023476
_cell_angle_alpha 90.000000
_cell_angle_beta 90.000000
_cell_angle_gamma 90.000000
_cell_volume 1909.898073
_symmetry_space_group_name_H-M "C 2 2 21"
_symmetry_group_IT_number 20
_symmetry_cell_setting 'orthorhombic'
loop_
_space_group_symop_operation_xyz
x,y,z
-x,-y,1/2+z
x,-y,-z
-x,y,1/2-z
1/2+x,1/2+y,z
1/2-x,1/2-y,1/2+z
1/2+x,1/2-y,-z
1/2-x,1/2+y,1/2-z
loop_
_atom_site_type_symbol
_atom_site_label
_atom_site_fract_x
_atom_site_fract_y
_atom_site_fract_z
Si Si1 0.000000 0.069561 0.250000
Si Si2 0.146602 0.694737 0.741738
Si Si3 0.622124 0.500000 0.000000
Si Si4 0.371440 0.081930 0.527613
Si Si5 0.842068 0.606729 0.000382
Si Si6 0.241774 0.653944 0.224690
O O1 0.118439 0.119630 0.291623
O O2 0.031516 0.019465 0.123467
O O3 0.174654 0.623101 0.836010
O O4 0.170094 0.679814 0.585579
O O5 0.243504 0.761487 0.768970
O O6 0.000000 0.721295 0.750000
O O7 0.717122 0.436671 0.048255
O O8 0.523925 0.068367 0.537676
O O9 0.336801 0.139002 0.410359
O O10 0.310834 0.000000 0.500000
O O11 0.840442 0.617472 0.158449
#
# Coordination Sequence:
#
# PCOD8159610 Si02
#       6
#     4   8   4   8   8   8
#     4  10  24  38  62  86 124 168 204 250 320 368
#     4  10  22  40  60  89 126 164 204 253 320 372
#     4  10  22  40  60  88 126 156 210 262 308 370
#     4  11  24  38  67  97 121 160 215 264 312 367
#     4  10  22  39  64  88 125 160 205 264 318 355
#     4  11  22  41  62  87 127 164 208 254 311 385
#
# _framework density 20.943527
#
# number of rings (size 3 to 8) (size 9 to 14) (size 15 to 20)
#    0.000    1.600    2.000    1.800    7.000    1.600 
#    0.000    0.000    0.000    0.000    0.000    0.000 
#    0.000    0.000    0.000    0.000    0.000    0.000 
#
# Total GULP energy -247840.749904 kJ/mol
# GULP energy per Si atom -12392.037495 kJ/mol
# Density = 2.089586 g / cm^3
# Si number density = 20.943527 Si / 1000 Ang^3
#
#
#
# Elastic Constant Matrix: (Units=GPa)
#
#
# Indices 1 2 3 4 5 6 
#
# 1 62.5368 23.2207 34.4441 0.0000 0.0000 0.0000
# 2 23.2207 109.1422 35.1039 0.0000 0.0000 0.0000
# 3 34.4441 35.1039 114.4010 0.0000 0.0000 0.0000
# 4 0.0000 0.0000 0.0000 33.0330 0.0000 0.0000
# 5 0.0000 0.0000 0.0000 0.0000 25.1733 0.0000
# 6 0.0000 0.0000 0.0000 0.0000 0.0000 14.3594
#
#
#
# Elastic Compliance Matrix: (Units=1/GPa)
#
#
# Indices 1 2 3 4 5 6 
#
# 1 0.019787 -0.002545 -0.005177 0.000000 0.000000 0.000000
# 2 -0.002545 0.010493 -0.002454 0.000000 0.000000 0.000000
# 3 -0.005177 -0.002454 0.011053 0.000000 0.000000 0.000000
# 4 0.000000 0.000000 0.000000 0.030273 0.000000 0.000000
# 5 0.000000 0.000000 0.000000 0.000000 0.039725 0.000000
# 6 0.000000 0.000000 0.000000 0.000000 0.000000 0.069641
#
#
# Mechanical properties :
#
#
# Convention : Reuss Voigt Hill
#
# Bulk Modulus (GPa) = 47.65896 52.40195 50.03046
# Shear Modulus (GPa) = 24.00221 27.40057 25.70139
#
# Velocity S-wave (km/s) = 3.38900 3.62098 3.50691
# Velocity P-wave (km/s) = 6.17407 6.52356 6.35122
#
# Compressibility (1/GPa) = 0.02098241
#
# Stress axis : x y z
#
# Youngs Moduli (GPa) = 50.53921 95.30231 90.47628
#
# Poissons Ratio (x) = 0.24252 0.46835
# Poissons Ratio (y) = 0.12861 0.22199
# Poissons Ratio (z) = 0.26162 0.23383
#
# Static dielectric constant tensor:
#      x y z
#    x 3.675160 0.000000 0.000000 
#    y 0.000000 3.870670 0.000000 
#    z 0.000000 0.000000 3.756960 
# 
# 
# High freq. dielectric constant tensor:
#      x y z
#    x 1.812420 0.000000 0.000000 
#    y 0.000000 1.815450 0.000000 
#    z 0.000000 0.000000 1.828370 
# 
# From -- ./inp_files/7091.got.cif
#   From: 2010.03.12/outbox.cif.g09.slc.cpg/sg20_4_cif.got.tgz:7091.got - 2010.04.14 01:38:04.
