data_PCOD8159959
_publ_section_title
;
Structure prediction by ZEFSAII (Michael W. Deem and Ramdas Pophale) SiO2 
 PCOD8159959
Probable space group: C 2 2 21
;
_chemical_formula_sum "Si O2"
_cell_formula_units_Z 40
_cell_length_a 19.076951
_cell_length_b 12.256552
_cell_length_c 7.936677
_cell_angle_alpha 90.000000
_cell_angle_beta 90.000000
_cell_angle_gamma 90.000000
_cell_volume 1855.735101
_symmetry_space_group_name_H-M "C 2 2 21"
_symmetry_group_IT_number 20
_symmetry_cell_setting 'orthorhombic'
loop_
_space_group_symop_operation_xyz
x,y,z
-x,-y,1/2+z
x,-y,-z
-x,y,1/2-z
1/2+x,1/2+y,z
1/2-x,1/2-y,1/2+z
1/2+x,1/2-y,-z
1/2-x,1/2+y,1/2-z
loop_
_atom_site_type_symbol
_atom_site_label
_atom_site_fract_x
_atom_site_fract_y
_atom_site_fract_z
Si Si1 0.724606 0.627855 0.528389
Si Si2 0.423864 0.688048 0.106036
Si Si3 0.939146 0.880043 0.516881
Si Si4 0.336552 0.241686 0.311935
Si Si5 0.060627 0.391108 0.606792
O O1 0.737117 0.500000 0.500000
O O2 0.656008 0.663612 0.430078
O O3 0.713301 0.668907 0.719579
O O4 0.792882 0.690450 0.463088
O O5 0.476115 0.606043 0.003665
O O6 0.427891 0.679069 0.305584
O O7 0.453693 0.803634 0.040032
O O8 0.905669 0.804543 0.374517
O O9 0.904812 0.000000 0.500000
O O10 0.365429 0.144001 0.193873
O O11 0.070853 0.500000 0.500000
O O12 0.000000 0.400833 0.750000
#
# Coordination Sequence:
#
# PCOD8159959 Si02
#       5
#     8   8   8   8   8
#     4  11  24  42  66  93 136 182 222 285 349 417
#     4  10  23  42  66 100 134 171 229 281 347 413
#     4  11  22  40  70  99 133 174 224 290 348 410
#     4  11  25  43  65 101 137 178 238 290 345 426
#     4  11  25  43  69  97 139 184 236 292 355 412
#
# _framework density 21.5548
#
# number of rings (size 3 to 8) (size 9 to 14) (size 15 to 20)
#    0.000    1.200    2.000    3.000    2.800   10.400 
#    0.000    2.000    0.000    0.000    0.000    0.000 
#    0.000    0.000    0.000    0.000    0.000    0.000 
#
# Total GULP energy -247782.699764 kJ/mol
# GULP energy per Si atom -12389.134988 kJ/mol
# Density = 2.150574 g / cm^3
# Si number density = 21.554800 Si / 1000 Ang^3
#
#
#
# Elastic Constant Matrix: (Units=GPa)
#
#
# Indices 1 2 3 4 5 6 
#
# 1 76.2518 18.6959 24.3116 0.0000 0.0000 0.0000
# 2 18.6959 129.6882 56.3182 0.0000 0.0000 0.0000
# 3 24.3116 56.3182 107.8097 0.0000 0.0000 0.0000
# 4 0.0000 0.0000 0.0000 34.3008 0.0000 0.0000
# 5 0.0000 0.0000 0.0000 0.0000 36.6367 0.0000
# 6 0.0000 0.0000 0.0000 0.0000 0.0000 25.8984
#
#
#
# Elastic Compliance Matrix: (Units=1/GPa)
#
#
# Indices 1 2 3 4 5 6 
#
# 1 0.014202 -0.000849 -0.002759 0.000000 0.000000 0.000000
# 2 -0.000849 0.010024 -0.005045 0.000000 0.000000 0.000000
# 3 -0.002759 -0.005045 0.012533 0.000000 0.000000 0.000000
# 4 0.000000 0.000000 0.000000 0.029154 0.000000 0.000000
# 5 0.000000 0.000000 0.000000 0.000000 0.027295 0.000000
# 6 0.000000 0.000000 0.000000 0.000000 0.000000 0.038612
#
#
# Mechanical properties :
#
#
# Convention : Reuss Voigt Hill
#
# Bulk Modulus (GPa) = 51.40564 56.93343 54.16954
# Shear Modulus (GPa) = 32.13130 33.66212 32.89671
#
# Velocity S-wave (km/s) = 3.86512 3.95612 3.91089
# Velocity P-wave (km/s) = 6.61963 6.88030 6.75122
#
# Compressibility (1/GPa) = 0.01945312
#
# Stress axis : x y z
#
# Youngs Moduli (GPa) = 70.41088 99.76040 79.78839
#
# Poissons Ratio (x) = 0.08472 0.22014
# Poissons Ratio (y) = 0.05980 0.40252
# Poissons Ratio (z) = 0.19427 0.50328
#
# Static dielectric constant tensor:
#      x y z
#    x 4.042270 0.000000 0.000000 
#    y 0.000000 3.975140 0.000000 
#    z 0.000000 0.000000 4.002460 
# 
# 
# High freq. dielectric constant tensor:
#      x y z
#    x 1.850060 0.000000 0.000000 
#    y 0.000000 1.848150 0.000000 
#    z 0.000000 0.000000 1.852960 
# 
# From -- ./inp_files/7035.got.cif
#   From: 2010.03.12/outbox.cif.g09.slc.cpg/sg20_4_cif.got.tgz:7035.got - 2010.04.14 01:38:04.
