data_PCOD8159870
_publ_section_title
;
Structure prediction by ZEFSAII (Michael W. Deem and Ramdas Pophale) SiO2 
 PCOD8159870
Probable space group: C 2 2 21
;
_chemical_formula_sum "Si O2"
_cell_formula_units_Z 32
_cell_length_a 9.485696
_cell_length_b 10.909776
_cell_length_c 12.403906
_cell_angle_alpha 90.000000
_cell_angle_beta 90.000000
_cell_angle_gamma 90.000000
_cell_volume 1283.640770
_symmetry_space_group_name_H-M "C 2 2 21"
_symmetry_group_IT_number 20
_symmetry_cell_setting 'orthorhombic'
loop_
_space_group_symop_operation_xyz
x,y,z
-x,-y,1/2+z
x,-y,-z
-x,y,1/2-z
1/2+x,1/2+y,z
1/2-x,1/2-y,1/2+z
1/2+x,1/2-y,-z
1/2-x,1/2+y,1/2-z
loop_
_atom_site_type_symbol
_atom_site_label
_atom_site_fract_x
_atom_site_fract_y
_atom_site_fract_z
Si Si1 0.126422 0.000000 0.500000
Si Si2 0.606809 0.676982 0.047156
Si Si3 0.647376 0.052423 0.344789
Si Si4 0.349966 0.125375 0.381456
Si Si5 0.000000 0.330724 0.250000
O O1 0.231674 0.019275 0.398967
O O2 0.027323 0.118783 0.513808
O O3 0.715500 0.568396 0.081038
O O4 0.556872 0.747310 0.153682
O O5 0.687002 0.761332 0.959789
O O6 0.506881 0.080263 0.414522
O O7 0.657270 0.152037 0.246361
O O8 0.628650 0.916695 0.293198
#
# Coordination Sequence:
#
# PCOD8159870 Si02
#       5
#     4   8   8   8   4
#     4  12  26  40  64 102 136 172 232 290 348 420
#     4  12  25  43  72 105 139 186 236 296 362 421
#     4  10  24  45  72 102 139 191 242 286 352 435
#     4  10  22  45  68  96 142 187 230 293 356 420
#     4  10  24  46  72 102 144 184 236 302 360 426
#
# _framework density 24.929095
#
# number of rings (size 3 to 8) (size 9 to 14) (size 15 to 20)
#    0.000    1.500    0.000    6.000    0.000    7.000 
#    0.000    7.500    0.000    0.000    0.000    0.000 
#    0.000    0.000    0.000    0.000    0.000    0.000 
#
# Total GULP energy -198254.864475 kJ/mol
# GULP energy per Si atom -12390.929030 kJ/mol
# Density = 2.487235 g / cm^3
# Si number density = 24.929095 Si / 1000 Ang^3
#
#
#
# Elastic Constant Matrix: (Units=GPa)
#
#
# Indices 1 2 3 4 5 6 
#
# 1 177.0144 61.2676 59.9455 0.0000 0.0000 0.0000
# 2 61.2676 108.2267 52.6345 0.0000 0.0000 0.0000
# 3 59.9455 52.6345 97.4244 0.0000 0.0000 0.0000
# 4 0.0000 0.0000 0.0000 37.9832 0.0000 0.0000
# 5 0.0000 0.0000 0.0000 0.0000 43.5848 0.0000
# 6 0.0000 0.0000 0.0000 0.0000 0.0000 49.7962
#
#
#
# Elastic Compliance Matrix: (Units=1/GPa)
#
#
# Indices 1 2 3 4 5 6 
#
# 1 0.007712 -0.002791 -0.003237 0.000000 0.000000 0.000000
# 2 -0.002791 0.013543 -0.005599 0.000000 0.000000 0.000000
# 3 -0.003237 -0.005599 0.015281 0.000000 0.000000 0.000000
# 4 0.000000 0.000000 0.000000 0.026327 0.000000 0.000000
# 5 0.000000 0.000000 0.000000 0.000000 0.022944 0.000000
# 6 0.000000 0.000000 0.000000 0.000000 0.000000 0.020082
#
#
# Mechanical properties :
#
#
# Convention : Reuss Voigt Hill
#
# Bulk Modulus (GPa) = 75.29683 81.15118 78.22401
# Shear Modulus (GPa) = 37.43326 40.19401 38.81364
#
# Velocity S-wave (km/s) = 3.87924 4.01974 3.95012
# Velocity P-wave (km/s) = 7.09469 7.35989 7.22850
#
# Compressibility (1/GPa) = 0.01328077
#
# Stress axis : x y z
#
# Youngs Moduli (GPa) = 129.67561 73.83781 65.44012
#
# Poissons Ratio (x) = 0.20611 0.21182
# Poissons Ratio (y) = 0.36197 0.36642
# Poissons Ratio (z) = 0.41975 0.41344
#
# Static dielectric constant tensor:
#      x y z
#    x 4.667960 0.000000 0.000000 
#    y 0.000000 4.307700 0.000000 
#    z 0.000000 0.000000 4.447420 
# 
# 
# High freq. dielectric constant tensor:
#      x y z
#    x 2.004260 0.000000 0.000000 
#    y 0.000000 1.973360 0.000000 
#    z 0.000000 0.000000 1.994440 
# 
# From -- ./inp_files/18246.got.cif
#   From: 2010.03.12/outbox.cif.g09.slc.cpg/sg20_10_cif.got.tgz:18246.got - 2010.04.14 01:38:04.
