data_PCOD8159150
_publ_section_title
;
Structure prediction by ZEFSAII (Michael W. Deem and Ramdas Pophale) SiO2 
 PCOD8159150
Probable space group: C 2 2 21
;
_chemical_formula_sum "Si O2"
_cell_formula_units_Z 56
_cell_length_a 22.575604
_cell_length_b 14.231428
_cell_length_c 8.878840
_cell_angle_alpha 90.000000
_cell_angle_beta 90.000000
_cell_angle_gamma 90.000000
_cell_volume 2852.621088
_symmetry_space_group_name_H-M "C 2 2 21"
_symmetry_group_IT_number 20
_symmetry_cell_setting 'orthorhombic'
loop_
_space_group_symop_operation_xyz
x,y,z
-x,-y,1/2+z
x,-y,-z
-x,y,1/2-z
1/2+x,1/2+y,z
1/2-x,1/2-y,1/2+z
1/2+x,1/2-y,-z
1/2-x,1/2+y,1/2-z
loop_
_atom_site_type_symbol
_atom_site_label
_atom_site_fract_x
_atom_site_fract_y
_atom_site_fract_z
Si Si1 0.465231 0.086833 0.395595
Si Si2 0.012803 0.240793 0.427009
Si Si3 0.896192 0.853717 0.528554
Si Si4 0.261416 0.578859 0.111747
Si Si5 0.869871 0.839658 0.061409
Si Si6 0.860387 0.003740 0.722977
Si Si7 0.148809 0.700657 0.161050
O O1 0.500000 0.050408 0.250000
O O2 0.505257 0.160466 0.488318
O O3 0.404309 0.127717 0.332487
O O4 0.449255 0.000000 0.500000
O O5 0.077771 0.200281 0.457772
O O6 0.000000 0.254644 0.250000
O O7 0.965204 0.168645 0.499283
O O8 0.869410 0.930786 0.418735
O O9 0.857693 0.759272 0.496940
O O10 0.890727 0.900814 0.694896
O O11 0.290908 0.519895 0.249071
O O12 0.210276 0.646221 0.170531
O O13 0.234801 0.500000 0.000000
O O14 0.311530 0.645512 0.038145
O O15 0.887489 0.942269 0.131391
O O16 0.855074 0.769340 0.196802
#
# Coordination Sequence:
#
# PCOD8159150 Si02
#       7
#     8   8   8   8   8   8   8
#     4  11  22  41  68  92 126 160 208 265 321 374
#     4  11  22  40  63  96 129 159 205 257 316 386
#     4   9  20  37  59  89 121 163 205 252 315 373
#     4  10  21  37  58  87 125 160 210 258 310 373
#     4  10  21  39  60  90 125 165 204 257 310 372
#     4   9  19  38  56  86 126 158 205 255 300 369
#     4  10  21  37  65  86 119 168 209 257 318 372
#
# _framework density 19.631067999999999
#
# number of rings (size 3 to 8) (size 9 to 14) (size 15 to 20)
#    0.000    2.000    1.429    1.714    2.000    0.000 
#   15.429    0.000    9.429    0.000    0.000    0.000 
#    0.000    0.000    0.000    0.000    0.000    0.000 
#
# Total GULP energy -346904.516051 kJ/mol
# GULP energy per Si atom -12389.447002 kJ/mol
# Density = 1.958639 g / cm^3
# Si number density = 19.631068 Si / 1000 Ang^3
#
#
#
# Elastic Constant Matrix: (Units=GPa)
#
#
# Indices 1 2 3 4 5 6 
#
# 1 100.1768 42.4594 36.9527 0.0000 0.0000 0.0000
# 2 42.4594 80.9287 34.2767 0.0000 0.0000 0.0000
# 3 36.9527 34.2767 79.9013 0.0000 0.0000 0.0000
# 4 0.0000 0.0000 0.0000 35.3586 0.0000 0.0000
# 5 0.0000 0.0000 0.0000 0.0000 22.5690 0.0000
# 6 0.0000 0.0000 0.0000 0.0000 0.0000 -8.0720
#
#
#
# Elastic Compliance Matrix: (Units=1/GPa)
#
#
# Indices 1 2 3 4 5 6 
#
# 1 0.013813 -0.005550 -0.004007 0.000000 0.000000 0.000000
# 2 -0.005550 0.017330 -0.004868 0.000000 0.000000 0.000000
# 3 -0.004007 -0.004868 0.016457 0.000000 0.000000 0.000000
# 4 0.000000 0.000000 0.000000 0.028282 0.000000 0.000000
# 5 0.000000 0.000000 0.000000 0.000000 0.044308 0.000000
# 6 0.000000 0.000000 0.000000 0.000000 0.000000 -0.123885
#
#
# Mechanical properties :
#
#
# Convention : Reuss Voigt Hill
#
# Bulk Modulus (GPa) = 53.33294 54.26493 53.79894
# Shear Modulus (GPa) = 159.21270 19.79231 89.50251
#
# Velocity S-wave (km/s) = 9.01546 3.17868 6.75953
# Velocity P-wave (km/s) = 11.64465 6.41673 9.40139
#
# Compressibility (1/GPa) = 0.01875014
#
# Stress axis : x y z
#
# Youngs Moduli (GPa) = 72.39693 57.70396 60.76446
#
# Poissons Ratio (x) = 0.32023 0.24351
# Poissons Ratio (y) = 0.40177 0.29579
# Poissons Ratio (z) = 0.29012 0.28089
#
# Static dielectric constant tensor:
#      x y z
#    x 3.378240 0.000000 0.000000 
#    y 0.000000 3.883900 0.000000 
#    z 0.000000 0.000000 3.915130 
# 
# 
# High freq. dielectric constant tensor:
#      x y z
#    x 1.746510 0.000000 0.000000 
#    y 0.000000 1.776340 0.000000 
#    z 0.000000 0.000000 1.770410 
# 
# From -- ./inp_files/10198.got.cif
#   From: 2010.03.12/outbox.cif.g09.slc.cpg/sg20_6_cif.got.tgz:10198.got - 2010.04.14 01:38:04.
