data_PCOD8159673
_publ_section_title
;
Structure prediction by ZEFSAII (Michael W. Deem and Ramdas Pophale) SiO2 
 PCOD8159673
Probable space group: C 2 2 21
;
_chemical_formula_sum "Si O2"
_cell_formula_units_Z 52
_cell_length_a 17.192006
_cell_length_b 7.239919
_cell_length_c 20.022853
_cell_angle_alpha 90.000000
_cell_angle_beta 90.000000
_cell_angle_gamma 90.000000
_cell_volume 2492.219102
_symmetry_space_group_name_H-M "C 2 2 21"
_symmetry_group_IT_number 20
_symmetry_cell_setting 'orthorhombic'
loop_
_space_group_symop_operation_xyz
x,y,z
-x,-y,1/2+z
x,-y,-z
-x,y,1/2-z
1/2+x,1/2+y,z
1/2-x,1/2-y,1/2+z
1/2+x,1/2-y,-z
1/2-x,1/2+y,1/2-z
loop_
_atom_site_type_symbol
_atom_site_label
_atom_site_fract_x
_atom_site_fract_y
_atom_site_fract_z
Si Si1 0.639367 0.288735 0.800321
Si Si2 0.167972 0.000000 0.000000
Si Si3 0.640505 0.833700 0.350848
Si Si4 0.017266 0.486996 0.824882
Si Si5 0.933674 0.892758 0.376878
Si Si6 0.601048 0.519245 0.576839
Si Si7 0.771134 0.322662 0.896317
O O1 0.650914 0.254913 0.722237
O O2 0.612056 0.498007 0.817940
O O3 0.718710 0.232998 0.838034
O O4 0.571737 0.162983 0.829172
O O5 0.112780 0.095869 0.945886
O O6 0.221896 0.844843 0.964652
O O7 0.646042 0.665192 0.402090
O O8 0.562037 0.951969 0.360560
O O9 0.709202 0.972489 0.369423
O O10 0.000000 0.421145 0.750000
O O11 0.061844 0.323021 0.861409
O O12 0.021464 0.968645 0.381649
O O13 0.579655 0.500000 0.500000
O O14 0.653855 0.697920 0.590848
#
# Coordination Sequence:
#
# PCOD8159673 Si02
#       7
#     8   4   8   8   8   8   8
#     4  10  25  42  66 101 133 167 223 278 333 399
#     4  10  24  48  64  96 134 176 226 278 318 408
#     4  11  24  43  67 100 137 171 224 277 332 407
#     4  10  22  40  68 100 128 171 221 270 333 392
#     4  11  22  43  70  94 131 176 221 276 331 386
#     4  12  25  41  69  98 129 180 224 269 331 396
#     4  11  25  45  66  96 138 174 219 276 344 391
#
# _framework density 20.864937999999999
#
# number of rings (size 3 to 8) (size 9 to 14) (size 15 to 20)
#    0.000    1.231    3.846    0.923    4.308    3.692 
#    2.769    5.385    0.000    0.000    0.000    0.000 
#    0.000    0.000    0.000    0.000    0.000    0.000 
#
# Total GULP energy -322471.057748 kJ/mol
# GULP energy per Si atom -12402.732990 kJ/mol
# Density = 2.081745 g / cm^3
# Si number density = 20.864938 Si / 1000 Ang^3
#
#
#
# Elastic Constant Matrix: (Units=GPa)
#
#
# Indices 1 2 3 4 5 6 
#
# 1 84.3360 12.9853 27.3945 0.0000 0.0000 0.0000
# 2 12.9853 86.9616 47.5839 0.0000 0.0000 0.0000
# 3 27.3945 47.5839 81.7053 0.0000 0.0000 0.0000
# 4 0.0000 0.0000 0.0000 23.6517 0.0000 0.0000
# 5 0.0000 0.0000 0.0000 0.0000 28.2070 0.0000
# 6 0.0000 0.0000 0.0000 0.0000 0.0000 29.5217
#
#
#
# Elastic Compliance Matrix: (Units=1/GPa)
#
#
# Indices 1 2 3 4 5 6 
#
# 1 0.013333 0.000668 -0.004859 0.000000 0.000000 0.000000
# 2 0.000668 0.016911 -0.010073 0.000000 0.000000 0.000000
# 3 -0.004859 -0.010073 0.019735 0.000000 0.000000 0.000000
# 4 0.000000 0.000000 0.000000 0.042280 0.000000 0.000000
# 5 0.000000 0.000000 0.000000 0.000000 0.035452 0.000000
# 6 0.000000 0.000000 0.000000 0.000000 0.000000 0.033873
#
#
# Mechanical properties :
#
#
# Convention : Reuss Voigt Hill
#
# Bulk Modulus (GPa) = 46.61895 47.65892 47.13893
# Shear Modulus (GPa) = 25.34687 27.27870 26.31279
#
# Velocity S-wave (km/s) = 3.48919 3.61971 3.55505
# Velocity P-wave (km/s) = 6.21484 6.35303 6.28432
#
# Compressibility (1/GPa) = 0.02145051
#
# Stress axis : x y z
#
# Youngs Moduli (GPa) = 75.00228 59.13228 50.67236
#
# Poissons Ratio (x) = -0.03950 0.24624
# Poissons Ratio (y) = -0.05011 0.51041
# Poissons Ratio (z) = 0.36447 0.59563
#
# Static dielectric constant tensor:
#      x y z
#    x 3.871100 0.000000 0.000000 
#    y 0.000000 3.661710 0.000000 
#    z 0.000000 0.000000 3.782560 
# 
# 
# High freq. dielectric constant tensor:
#      x y z
#    x 1.831320 0.000000 0.000000 
#    y 0.000000 1.816100 0.000000 
#    z 0.000000 0.000000 1.816460 
# 
# From -- ./inp_files/27898.got.cif
#   From: 2010.03.12/outbox.cif.g09.slc.cpg/sg20_14_cif.got.tgz:27898.got - 2010.04.14 01:38:04.
