data_PCOD8159152
_publ_section_title
;
Structure prediction by ZEFSAII (Michael W. Deem and Ramdas Pophale) SiO2 
 PCOD8159152
Probable space group: C 2 2 21
;
_chemical_formula_sum "Si O2"
_cell_formula_units_Z 36
_cell_length_a 6.607375
_cell_length_b 17.403699
_cell_length_c 13.821265
_cell_angle_alpha 90.000000
_cell_angle_beta 90.000000
_cell_angle_gamma 90.000000
_cell_volume 1589.345488
_symmetry_space_group_name_H-M "C 2 2 21"
_symmetry_group_IT_number 20
_symmetry_cell_setting 'orthorhombic'
loop_
_space_group_symop_operation_xyz
x,y,z
-x,-y,1/2+z
x,-y,-z
-x,y,1/2-z
1/2+x,1/2+y,z
1/2-x,1/2-y,1/2+z
1/2+x,1/2-y,-z
1/2-x,1/2+y,1/2-z
loop_
_atom_site_type_symbol
_atom_site_label
_atom_site_fract_x
_atom_site_fract_y
_atom_site_fract_z
Si Si1 0.183315 0.775507 0.115807
Si Si2 0.847337 0.366385 0.491477
Si Si3 0.717292 0.762878 0.173426
Si Si4 0.053434 0.000000 0.500000
Si Si5 0.232640 0.883085 0.939114
O O1 0.324919 0.778486 0.212781
O O2 0.198285 0.848820 0.046727
O O3 0.951878 0.773604 0.147866
O O4 0.257232 0.698946 0.058649
O O5 0.916823 0.321253 0.393448
O O6 0.693275 0.432578 0.457350
O O7 0.028122 0.403341 0.555748
O O8 0.670246 0.674442 0.146586
O O9 0.902872 0.040430 0.422068
#
# Coordination Sequence:
#
# PCOD8159152 Si02
#       5
#     8   8   8   4   8
#     4   9  18  37  62  86 113 151 198 243 286 345
#     4  10  21  37  59  86 117 154 196 238 290 350
#     4   9  18  37  62  86 113 151 198 243 286 345
#     4  12  22  40  58  86 128 156 186 244 302 350
#     4  10  21  37  59  86 117 154 196 238 290 350
#
# _framework density 22.650836000000002
#
# number of rings (size 3 to 8) (size 9 to 14) (size 15 to 20)
#    0.000    2.222    2.222    0.667    3.111    0.889 
#    0.000    4.444    0.000    5.333    0.000    0.000 
#    0.000    0.000    0.000    0.000    0.000    0.000 
#
# Total GULP energy -223027.112579 kJ/mol
# GULP energy per Si atom -12390.395143 kJ/mol
# Density = 2.259928 g / cm^3
# Si number density = 22.650836 Si / 1000 Ang^3
#
#
#
# Elastic Constant Matrix: (Units=GPa)
#
#
# Indices 1 2 3 4 5 6 
#
# 1 51.8634 29.2626 3.5231 0.0000 0.0000 0.0000
# 2 29.2626 94.8905 9.6693 0.0000 0.0000 0.0000
# 3 3.5231 9.6693 119.5002 0.0000 0.0000 0.0000
# 4 0.0000 0.0000 0.0000 14.3092 0.0000 0.0000
# 5 0.0000 0.0000 0.0000 0.0000 28.9550 0.0000
# 6 0.0000 0.0000 0.0000 0.0000 0.0000 52.0006
#
#
#
# Elastic Compliance Matrix: (Units=1/GPa)
#
#
# Indices 1 2 3 4 5 6 
#
# 1 0.023344 -0.007188 -0.000107 0.000000 0.000000 0.000000
# 2 -0.007188 0.012839 -0.000827 0.000000 0.000000 0.000000
# 3 -0.000107 -0.000827 0.008438 0.000000 0.000000 0.000000
# 4 0.000000 0.000000 0.000000 0.069885 0.000000 0.000000
# 5 0.000000 0.000000 0.000000 0.000000 0.034536 0.000000
# 6 0.000000 0.000000 0.000000 0.000000 0.000000 0.019231
#
#
# Mechanical properties :
#
#
# Convention : Reuss Voigt Hill
#
# Bulk Modulus (GPa) = 35.23782 39.01823 37.12802
# Shear Modulus (GPa) = 25.77622 33.97290 29.87456
#
# Velocity S-wave (km/s) = 3.37706 3.87699 3.63563
# Velocity P-wave (km/s) = 5.54948 6.10776 5.83530
#
# Compressibility (1/GPa) = 0.02837860
#
# Stress axis : x y z
#
# Youngs Moduli (GPa) = 42.83691 77.88513 118.50809
#
# Poissons Ratio (x) = 0.55985 0.01263
# Poissons Ratio (y) = 0.30792 0.09800
# Poissons Ratio (z) = 0.00457 0.06441
#
# Static dielectric constant tensor:
#      x y z
#    x 4.545940 0.000000 0.000000 
#    y 0.000000 3.892240 0.000000 
#    z 0.000000 0.000000 4.139600 
# 
# 
# High freq. dielectric constant tensor:
#      x y z
#    x 1.938500 0.000000 0.000000 
#    y 0.000000 1.865520 0.000000 
#    z 0.000000 0.000000 1.860320 
# 
# From -- ./inp_files/18645.got.cif
#   From: 2010.03.12/outbox.cif.g09.slc.cpg/sg20_10_cif.got.tgz:18645.got - 2010.04.14 01:38:04.
