data_PCOD8159138
_publ_section_title
;
Structure prediction by ZEFSAII (Michael W. Deem and Ramdas Pophale) SiO2 
 PCOD8159138
Probable space group: C 2 2 21
;
_chemical_formula_sum "Si O2"
_cell_formula_units_Z 64
_cell_length_a 21.843956
_cell_length_b 11.648069
_cell_length_c 11.677551
_cell_angle_alpha 90.000000
_cell_angle_beta 90.000000
_cell_angle_gamma 90.000000
_cell_volume 2971.234987
_symmetry_space_group_name_H-M "C 2 2 21"
_symmetry_group_IT_number 20
_symmetry_cell_setting 'orthorhombic'
loop_
_space_group_symop_operation_xyz
x,y,z
-x,-y,1/2+z
x,-y,-z
-x,y,1/2-z
1/2+x,1/2+y,z
1/2-x,1/2-y,1/2+z
1/2+x,1/2-y,-z
1/2-x,1/2+y,1/2-z
loop_
_atom_site_type_symbol
_atom_site_label
_atom_site_fract_x
_atom_site_fract_y
_atom_site_fract_z
Si Si1 0.756165 0.763000 0.893841
Si Si2 0.480567 0.381872 0.438516
Si Si3 0.906388 0.145245 0.781308
Si Si4 0.357659 0.074412 0.885131
Si Si5 0.832526 0.641069 0.207002
Si Si6 0.351716 0.414862 0.803941
Si Si7 0.460435 0.741115 0.140895
Si Si8 0.785280 0.887642 0.573201
O O1 0.795467 0.648569 0.863941
O O2 0.704021 0.797515 0.805967
O O3 0.804157 0.869852 0.901943
O O4 0.714166 0.732740 0.003182
O O5 0.461239 0.500000 0.500000
O O6 0.539800 0.400858 0.360858
O O7 0.425824 0.343444 0.352758
O O8 0.494008 0.286059 0.534924
O O9 0.883630 0.266828 0.831400
O O10 0.851701 0.052659 0.796436
O O11 0.416691 0.154367 0.889547
O O12 0.363759 0.984556 0.775907
O O13 0.359853 0.000000 0.000000
O O14 0.785934 0.603932 0.106346
O O15 0.419947 0.371337 0.829856
O O16 0.329587 0.367119 0.680760
O O17 0.500000 0.775612 0.250000
O O18 0.804937 0.000000 0.500000
#
# Coordination Sequence:
#
# PCOD8159138 Si02
#       8
#     8   8   8   8   8   8   8   8
#     4  10  21  36  64  92 124 165 211 250 317 390
#     4  11  23  41  65  95 130 164 220 275 331 392
#     4  11  24  39  63 101 126 163 216 278 330 382
#     4  11  21  43  67  87 122 173 218 258 316 388
#     4  11  22  36  64  92 127 158 212 261 313 383
#     4  10  23  38  64  97 128 165 214 269 329 387
#     4  11  24  44  68  92 128 174 217 268 332 391
#     4  11  20  38  64  92 125 173 214 251 323 394
#
# _framework density 21.539864000000001
#
# number of rings (size 3 to 8) (size 9 to 14) (size 15 to 20)
#    0.000    1.250    3.750    2.250    3.500    3.500 
#    4.500    0.000    0.000    1.500    0.000    0.000 
#    0.000    0.000    0.000    0.000    0.000    0.000 
#
# Total GULP energy -396435.137308 kJ/mol
# GULP energy per Si atom -12388.598041 kJ/mol
# Density = 2.149084 g / cm^3
# Si number density = 21.539864 Si / 1000 Ang^3
#
#
#
# Elastic Constant Matrix: (Units=GPa)
#
#
# Indices 1 2 3 4 5 6 
#
# 1 45.2694 30.8028 11.8256 0.0000 0.0000 0.0000
# 2 30.8028 131.7000 33.0424 0.0000 0.0000 0.0000
# 3 11.8256 33.0424 87.7492 0.0000 0.0000 0.0000
# 4 0.0000 0.0000 0.0000 32.5136 0.0000 0.0000
# 5 0.0000 0.0000 0.0000 0.0000 21.4192 0.0000
# 6 0.0000 0.0000 0.0000 0.0000 0.0000 19.6460
#
#
#
# Elastic Compliance Matrix: (Units=1/GPa)
#
#
# Indices 1 2 3 4 5 6 
#
# 1 0.026417 -0.005837 -0.001362 0.000000 0.000000 0.000000
# 2 -0.005837 0.009675 -0.002856 0.000000 0.000000 0.000000
# 3 -0.001362 -0.002856 0.012655 0.000000 0.000000 0.000000
# 4 0.000000 0.000000 0.000000 0.030756 0.000000 0.000000
# 5 0.000000 0.000000 0.000000 0.000000 0.046687 0.000000
# 6 0.000000 0.000000 0.000000 0.000000 0.000000 0.050901
#
#
# Mechanical properties :
#
#
# Convention : Reuss Voigt Hill
#
# Bulk Modulus (GPa) = 34.92070 46.22892 40.57481
# Shear Modulus (GPa) = 24.18394 27.31895 25.75144
#
# Velocity S-wave (km/s) = 3.35439 3.56518 3.46139
# Velocity P-wave (km/s) = 5.59016 6.20129 5.90363
#
# Compressibility (1/GPa) = 0.02863631
#
# Stress axis : x y z
#
# Youngs Moduli (GPa) = 37.85379 103.36079 79.01811
#
# Poissons Ratio (x) = 0.60331 0.10764
# Poissons Ratio (y) = 0.22095 0.22571
# Poissons Ratio (z) = 0.05157 0.29525
#
# Static dielectric constant tensor:
#      x y z
#    x 3.910010 0.000000 0.000000 
#    y 0.000000 4.184230 0.000000 
#    z 0.000000 0.000000 4.093350 
# 
# 
# High freq. dielectric constant tensor:
#      x y z
#    x 1.841340 0.000000 0.000000 
#    y 0.000000 1.843050 0.000000 
#    z 0.000000 0.000000 1.838270 
# 
# From -- ./inp_files/16787.got.cif
#   From: 2010.03.12/outbox.cif.g09.slc.cpg/sg20_9_cif.got.tgz:16787.got - 2010.04.14 01:38:04.
