data_PCOD8159235
_publ_section_title
;
Structure prediction by ZEFSAII (Michael W. Deem and Ramdas Pophale) SiO2 
 PCOD8159235
Probable space group: C 2 2 21
;
_chemical_formula_sum "Si O2"
_cell_formula_units_Z 32
_cell_length_a 9.232863
_cell_length_b 19.419392
_cell_length_c 8.065400
_cell_angle_alpha 90.000000
_cell_angle_beta 90.000000
_cell_angle_gamma 90.000000
_cell_volume 1446.098684
_symmetry_space_group_name_H-M "C 2 2 21"
_symmetry_group_IT_number 20
_symmetry_cell_setting 'orthorhombic'
loop_
_space_group_symop_operation_xyz
x,y,z
-x,-y,1/2+z
x,-y,-z
-x,y,1/2-z
1/2+x,1/2+y,z
1/2-x,1/2-y,1/2+z
1/2+x,1/2-y,-z
1/2-x,1/2+y,1/2-z
loop_
_atom_site_type_symbol
_atom_site_label
_atom_site_fract_x
_atom_site_fract_y
_atom_site_fract_z
Si Si1 0.629571 0.689409 0.631182
Si Si2 0.691916 0.924822 0.935129
Si Si3 0.632007 0.798475 0.362041
Si Si4 0.650944 0.924686 0.563415
O O1 0.500000 0.663617 0.750000
O O2 0.712116 0.626279 0.544724
O O3 0.572888 0.742460 0.492406
O O4 0.743048 0.732676 0.744073
O O5 0.727962 0.916820 0.741042
O O6 0.520997 0.911356 0.945583
O O7 0.731664 0.000000 0.000000
O O8 0.500000 0.824323 0.250000
O O9 0.711227 0.864814 0.445002
O O10 0.692303 0.000000 0.500000
#
# Coordination Sequence:
#
# PCOD8159235 Si02
#       4
#     8   8   8   8
#     4  12  26  42  63  98 136 176 215 268 333 395
#     4  10  21  41  68  99 131 169 217 273 329 386
#     4  12  24  43  66  95 131 174 226 268 323 386
#     4  10  21  38  72 102 125 162 227 281 318 376
#
# _framework density 22.128504
#
# number of rings (size 3 to 8) (size 9 to 14) (size 15 to 20)
#    0.000    1.000    2.500    4.500    7.000    0.000 
#    0.000    5.000    0.000    0.000    0.000    0.000 
#    0.000    0.000    0.000    0.000    0.000    0.000 
#
# Total GULP energy -198348.683894 kJ/mol
# GULP energy per Si atom -12396.792743 kJ/mol
# Density = 2.207814 g / cm^3
# Si number density = 22.128504 Si / 1000 Ang^3
#
#
#
# Elastic Constant Matrix: (Units=GPa)
#
#
# Indices 1 2 3 4 5 6 
#
# 1 73.2056 23.5304 55.7558 0.0000 0.0000 0.0000
# 2 23.5304 124.4958 63.1943 0.0000 0.0000 0.0000
# 3 55.7558 63.1943 168.6966 0.0000 0.0000 0.0000
# 4 0.0000 0.0000 0.0000 32.2407 0.0000 0.0000
# 5 0.0000 0.0000 0.0000 0.0000 35.0060 0.0000
# 6 0.0000 0.0000 0.0000 0.0000 0.0000 20.2017
#
#
#
# Elastic Compliance Matrix: (Units=1/GPa)
#
#
# Indices 1 2 3 4 5 6 
#
# 1 0.018279 -0.000479 -0.005862 0.000000 0.000000 0.000000
# 2 -0.000479 0.009931 -0.003562 0.000000 0.000000 0.000000
# 3 -0.005862 -0.003562 0.009199 0.000000 0.000000 0.000000
# 4 0.000000 0.000000 0.000000 0.031017 0.000000 0.000000
# 5 0.000000 0.000000 0.000000 0.000000 0.028566 0.000000
# 6 0.000000 0.000000 0.000000 0.000000 0.000000 0.049501
#
#
# Mechanical properties :
#
#
# Convention : Reuss Voigt Hill
#
# Bulk Modulus (GPa) = 56.80710 72.37321 64.59016
# Shear Modulus (GPa) = 29.04168 32.41753 30.72960
#
# Velocity S-wave (km/s) = 3.62665 3.83164 3.73055
# Velocity P-wave (km/s) = 6.57754 7.23548 6.91434
#
# Compressibility (1/GPa) = 0.01760343
#
# Stress axis : x y z
#
# Youngs Moduli (GPa) = 54.70843 100.69537 108.70293
#
# Poissons Ratio (x) = 0.04827 0.63719
# Poissons Ratio (y) = 0.02623 0.38717
# Poissons Ratio (z) = 0.32069 0.35865
#
# Static dielectric constant tensor:
#      x y z
#    x 3.648560 0.000000 0.000000 
#    y 0.000000 3.818260 0.000000 
#    z 0.000000 0.000000 4.493500 
# 
# 
# High freq. dielectric constant tensor:
#      x y z
#    x 1.837520 0.000000 0.000000 
#    y 0.000000 1.869250 0.000000 
#    z 0.000000 0.000000 1.902810 
# 
# From -- ./inp_files/5771.got.cif
#   From: 2010.03.12/outbox.cif.g09.slc.cpg/sg20_3_cif.got.tgz:5771.got - 2010.04.14 01:38:04.
