data_PCOD8159396
_publ_section_title
;
Structure prediction by ZEFSAII (Michael W. Deem and Ramdas Pophale) SiO2 
 PCOD8159396
Probable space group: C 2 2 21
;
_chemical_formula_sum "Si O2"
_cell_formula_units_Z 56
_cell_length_a 10.298639
_cell_length_b 15.901117
_cell_length_c 14.696789
_cell_angle_alpha 90.000000
_cell_angle_beta 90.000000
_cell_angle_gamma 90.000000
_cell_volume 2406.744163
_symmetry_space_group_name_H-M "C 2 2 21"
_symmetry_group_IT_number 20
_symmetry_cell_setting 'orthorhombic'
loop_
_space_group_symop_operation_xyz
x,y,z
-x,-y,1/2+z
x,-y,-z
-x,y,1/2-z
1/2+x,1/2+y,z
1/2-x,1/2-y,1/2+z
1/2+x,1/2-y,-z
1/2-x,1/2+y,1/2-z
loop_
_atom_site_type_symbol
_atom_site_label
_atom_site_fract_x
_atom_site_fract_y
_atom_site_fract_z
Si Si1 0.056986 0.936526 0.919628
Si Si2 0.209111 0.969701 0.227983
Si Si3 0.824678 0.805297 0.934044
Si Si4 0.153512 0.699469 0.737931
Si Si5 0.584055 0.036132 0.403094
Si Si6 0.794152 0.461752 0.592727
Si Si7 0.726549 0.805901 0.601435
O O1 0.177851 0.875634 0.942432
O O2 0.935220 0.874534 0.913547
O O3 0.085781 0.996182 0.830322
O O4 0.032923 0.000000 0.000000
O O5 0.233398 0.870796 0.246514
O O6 0.340942 0.993286 0.178132
O O7 0.197082 0.012613 0.326413
O O8 0.837983 0.728908 0.865791
O O9 0.695261 0.860155 0.916337
O O10 0.813547 0.770594 0.036240
O O11 0.201024 0.771992 0.808032
O O12 0.000000 0.674857 0.750000
O O13 0.437681 0.004100 0.389834
O O14 0.596668 0.137548 0.386756
O O15 0.635207 0.000000 0.500000
O O16 0.735587 0.500000 0.500000
#
# Coordination Sequence:
#
# PCOD8159396 Si02
#       7
#     8   8   8   8   8   8   8
#     4  11  24  46  71 101 141 190 237 287 366 439
#     4  11  23  42  69  94 135 183 238 286 355 434
#     4  12  25  41  71 102 143 184 233 299 357 426
#     4  12  24  43  69 107 142 187 241 302 364 426
#     4  10  21  41  68  98 134 183 241 295 357 434
#     4  11  24  40  65  98 136 184 239 296 351 427
#     4  11  24  42  69 105 140 187 237 301 364 420
#
# _framework density 23.267949000000002
#
# number of rings (size 3 to 8) (size 9 to 14) (size 15 to 20)
#    0.000    0.857    1.429    7.714    2.000    2.286 
#    0.000    0.000    0.000    0.000    0.000    0.000 
#    0.000    0.000    0.000    0.000    0.000    0.000 
#
# Total GULP energy -346868.444792 kJ/mol
# GULP energy per Si atom -12388.158743 kJ/mol
# Density = 2.321499 g / cm^3
# Si number density = 23.267949 Si / 1000 Ang^3
#
#
#
# Elastic Constant Matrix: (Units=GPa)
#
#
# Indices 1 2 3 4 5 6 
#
# 1 60.6553 7.4618 16.1132 0.0000 0.0000 0.0000
# 2 7.4618 94.4486 13.5973 0.0000 0.0000 0.0000
# 3 16.1132 13.5973 124.3174 0.0000 0.0000 0.0000
# 4 0.0000 0.0000 0.0000 46.9562 0.0000 0.0000
# 5 0.0000 0.0000 0.0000 0.0000 10.8890 0.0000
# 6 0.0000 0.0000 0.0000 0.0000 0.0000 22.8009
#
#
#
# Elastic Compliance Matrix: (Units=1/GPa)
#
#
# Indices 1 2 3 4 5 6 
#
# 1 0.017177 -0.001053 -0.002111 0.000000 0.000000 0.000000
# 2 -0.001053 0.010822 -0.001047 0.000000 0.000000 0.000000
# 3 -0.002111 -0.001047 0.008432 0.000000 0.000000 0.000000
# 4 0.000000 0.000000 0.000000 0.021296 0.000000 0.000000
# 5 0.000000 0.000000 0.000000 0.000000 0.091836 0.000000
# 6 0.000000 0.000000 0.000000 0.000000 0.000000 0.043858
#
#
# Mechanical properties :
#
#
# Convention : Reuss Voigt Hill
#
# Bulk Modulus (GPa) = 35.70412 39.30730 37.50571
# Shear Modulus (GPa) = 23.67647 32.27916 27.97782
#
# Velocity S-wave (km/s) = 3.19338 3.72866 3.47135
# Velocity P-wave (km/s) = 5.38284 5.95544 5.67636
#
# Compressibility (1/GPa) = 0.02800797
#
# Stress axis : x y z
#
# Youngs Moduli (GPa) = 58.21741 92.40676 118.59451
#
# Poissons Ratio (x) = 0.09731 0.25037
# Poissons Ratio (y) = 0.06131 0.12418
# Poissons Ratio (z) = 0.12291 0.09676
#
# Static dielectric constant tensor:
#      x y z
#    x 4.316570 0.000000 0.000000 
#    y 0.000000 4.633280 0.000000 
#    z 0.000000 0.000000 4.735310 
# 
# 
# High freq. dielectric constant tensor:
#      x y z
#    x 1.919720 0.000000 0.000000 
#    y 0.000000 1.930340 0.000000 
#    z 0.000000 0.000000 1.926230 
# 
# From -- ./inp_files/20046.got.cif
#   From: 2010.03.12/outbox.cif.g09.slc.cpg/sg20_11_cif.got.tgz:20046.got - 2010.04.14 01:38:04.
