data_PCOD8159466
_publ_section_title
;
Structure prediction by ZEFSAII (Michael W. Deem and Ramdas Pophale) SiO2 
 PCOD8159466
Probable space group: C 2 2 21
;
_chemical_formula_sum "Si O2"
_cell_formula_units_Z 32
_cell_length_a 5.231576
_cell_length_b 14.186259
_cell_length_c 17.024743
_cell_angle_alpha 90.000000
_cell_angle_beta 90.000000
_cell_angle_gamma 90.000000
_cell_volume 1263.516705
_symmetry_space_group_name_H-M "C 2 2 21"
_symmetry_group_IT_number 20
_symmetry_cell_setting 'orthorhombic'
loop_
_space_group_symop_operation_xyz
x,y,z
-x,-y,1/2+z
x,-y,-z
-x,y,1/2-z
1/2+x,1/2+y,z
1/2-x,1/2-y,1/2+z
1/2+x,1/2-y,-z
1/2-x,1/2+y,1/2-z
loop_
_atom_site_type_symbol
_atom_site_label
_atom_site_fract_x
_atom_site_fract_y
_atom_site_fract_z
Si Si1 0.848836 0.517559 0.592049
Si Si2 0.145898 0.085287 0.103895
Si Si3 0.354790 0.702412 0.532124
Si Si4 0.514023 0.790004 0.159193
O O1 0.857094 0.500000 0.500000
O O2 0.603294 0.470420 0.632856
O O3 0.101681 0.470538 0.630367
O O4 0.828207 0.628667 0.612599
O O5 0.142210 0.188828 0.144212
O O6 0.123158 0.098111 0.007422
O O7 0.610080 0.759091 0.517232
O O8 0.276606 0.705276 0.623668
O O9 0.500000 0.814699 0.250000
#
# Coordination Sequence:
#
# PCOD8159466 Si02
#       4
#     8   8   8   8
#     4  12  26  44  77 107 139 191 250 298 357 444
#     4  11  25  46  74 103 144 188 245 297 362 434
#     4  10  21  42  73 102 134 187 244 291 351 445
#     4  11  27  47  74 111 152 193 242 314 376 430
#
# _framework density 25.326138
#
# number of rings (size 3 to 8) (size 9 to 14) (size 15 to 20)
#    0.000    1.000    2.500    3.750    7.000    4.000 
#    0.000   17.500    0.000    0.000    0.000    0.000 
#    0.000    0.000    0.000    0.000    0.000    0.000 
#
# Total GULP energy -198305.595533 kJ/mol
# GULP energy per Si atom -12394.099721 kJ/mol
# Density = 2.526849 g / cm^3
# Si number density = 25.326138 Si / 1000 Ang^3
#
#
#
# Elastic Constant Matrix: (Units=GPa)
#
#
# Indices 1 2 3 4 5 6 
#
# 1 168.4448 81.8551 7.8051 0.0000 0.0000 0.0000
# 2 81.8551 179.0195 29.0211 0.0000 0.0000 0.0000
# 3 7.8051 29.0211 126.7774 0.0000 0.0000 0.0000
# 4 0.0000 0.0000 0.0000 23.4522 0.0000 0.0000
# 5 0.0000 0.0000 0.0000 0.0000 15.8448 0.0000
# 6 0.0000 0.0000 0.0000 0.0000 0.0000 41.0344
#
#
#
# Elastic Compliance Matrix: (Units=1/GPa)
#
#
# Indices 1 2 3 4 5 6 
#
# 1 0.007647 -0.003552 0.000342 0.000000 0.000000 0.000000
# 2 -0.003552 0.007451 -0.001487 0.000000 0.000000 0.000000
# 3 0.000342 -0.001487 0.008207 0.000000 0.000000 0.000000
# 4 0.000000 0.000000 0.000000 0.042640 0.000000 0.000000
# 5 0.000000 0.000000 0.000000 0.000000 0.063112 0.000000
# 6 0.000000 0.000000 0.000000 0.000000 0.000000 0.024370
#
#
# Mechanical properties :
#
#
# Convention : Reuss Voigt Hill
#
# Bulk Modulus (GPa) = 71.88096 79.06714 75.47405
# Shear Modulus (GPa) = 29.85832 39.77031 34.81431
#
# Velocity S-wave (km/s) = 3.43731 3.96703 3.71164
# Velocity P-wave (km/s) = 6.64810 7.22983 6.94506
#
# Compressibility (1/GPa) = 0.01391189
#
# Stress axis : x y z
#
# Youngs Moduli (GPa) = 130.77261 134.20763 121.84487
#
# Poissons Ratio (x) = 0.47670 -0.04171
# Poissons Ratio (y) = 0.46450 0.18118
# Poissons Ratio (z) = -0.04476 0.19957
#
# Static dielectric constant tensor:
#      x y z
#    x 5.231660 0.000000 0.000000 
#    y 0.000000 4.892920 0.000000 
#    z 0.000000 0.000000 4.301730 
# 
# 
# High freq. dielectric constant tensor:
#      x y z
#    x 2.033240 0.000000 0.000000 
#    y 0.000000 2.033360 0.000000 
#    z 0.000000 0.000000 1.957390 
# 
# From -- ./inp_files/25887.got.cif
#   From: 2010.03.12/outbox.cif.g09.slc.cpg/sg20_13_cif.got.tgz:25887.got - 2010.04.14 01:38:04.
