data_PCOD8159076
_publ_section_title
;
Structure prediction by ZEFSAII (Michael W. Deem and Ramdas Pophale) SiO2 
 PCOD8159076
Probable space group: C 2 2 21
;
_chemical_formula_sum "Si O2"
_cell_formula_units_Z 56
_cell_length_a 13.524786
_cell_length_b 11.781803
_cell_length_c 15.293051
_cell_angle_alpha 90.000000
_cell_angle_beta 90.000000
_cell_angle_gamma 90.000000
_cell_volume 2436.892075
_symmetry_space_group_name_H-M "C 2 2 21"
_symmetry_group_IT_number 20
_symmetry_cell_setting 'orthorhombic'
loop_
_space_group_symop_operation_xyz
x,y,z
-x,-y,1/2+z
x,-y,-z
-x,y,1/2-z
1/2+x,1/2+y,z
1/2-x,1/2-y,1/2+z
1/2+x,1/2-y,-z
1/2-x,1/2+y,1/2-z
loop_
_atom_site_type_symbol
_atom_site_label
_atom_site_fract_x
_atom_site_fract_y
_atom_site_fract_z
Si Si1 0.402460 0.827396 0.527486
Si Si2 0.396184 0.342941 0.783691
Si Si3 0.783545 0.461033 0.807245
Si Si4 0.615072 0.786315 0.578614
Si Si5 0.615119 0.529647 0.592409
Si Si6 0.333120 0.967846 0.379962
Si Si7 0.731420 0.814983 0.408237
O O1 0.513911 0.785684 0.524029
O O2 0.360498 0.847222 0.427456
O O3 0.339308 0.741826 0.587756
O O4 0.411675 0.943733 0.582366
O O5 0.500000 0.288298 0.750000
O O6 0.314248 0.385757 0.713373
O O7 0.437520 0.454533 0.834251
O O8 0.344554 0.251518 0.846206
O O9 0.869322 0.377124 0.843520
O O10 0.829801 0.532273 0.725359
O O11 0.755359 0.555387 0.878454
O O12 0.621214 0.660818 0.620319
O O13 0.698543 0.811616 0.508341
O O14 0.563376 0.500000 0.500000
O O15 0.727858 0.484293 0.586644
#
# Coordination Sequence:
#
# PCOD8159076 Si02
#       7
#     8   8   8   8   8   8   8
#     4  11  23  45  74 100 133 196 234 281 350 438
#     4  11  26  47  71 105 138 184 238 288 361 414
#     4  11  28  45  69 107 145 177 234 309 345 399
#     4  12  27  45  72 105 143 181 244 288 358 415
#     4  11  19  47  74  95 131 191 231 283 340 432
#     4  10  20  44  72  92 138 184 239 274 348 426
#     4  12  25  49  68 102 147 184 236 297 352 418
#
# _framework density 22.980091000000002
#
# number of rings (size 3 to 8) (size 9 to 14) (size 15 to 20)
#    0.000    0.857    7.143    0.429   10.000    2.857 
#    0.000    0.000    0.000    0.000    0.000    0.000 
#    0.000    0.000    0.000    0.000    0.000    0.000 
#
# Total GULP energy -346993.632273 kJ/mol
# GULP energy per Si atom -12392.629724 kJ/mol
# Density = 2.292779 g / cm^3
# Si number density = 22.980091 Si / 1000 Ang^3
#
#
#
# Elastic Constant Matrix: (Units=GPa)
#
#
# Indices 1 2 3 4 5 6 
#
# 1 88.3740 9.0055 22.6240 0.0000 0.0000 0.0000
# 2 9.0055 102.2932 29.7288 0.0000 0.0000 0.0000
# 3 22.6240 29.7288 70.1530 0.0000 0.0000 0.0000
# 4 0.0000 0.0000 0.0000 34.4743 0.0000 0.0000
# 5 0.0000 0.0000 0.0000 0.0000 22.9175 0.0000
# 6 0.0000 0.0000 0.0000 0.0000 0.0000 15.0893
#
#
#
# Elastic Compliance Matrix: (Units=1/GPa)
#
#
# Indices 1 2 3 4 5 6 
#
# 1 0.012334 0.000080 -0.004012 0.000000 0.000000 0.000000
# 2 0.000080 0.011149 -0.004751 0.000000 0.000000 0.000000
# 3 -0.004012 -0.004751 0.017561 0.000000 0.000000 0.000000
# 4 0.000000 0.000000 0.000000 0.029007 0.000000 0.000000
# 5 0.000000 0.000000 0.000000 0.000000 0.043635 0.000000
# 6 0.000000 0.000000 0.000000 0.000000 0.000000 0.066272
#
#
# Mechanical properties :
#
#
# Convention : Reuss Voigt Hill
#
# Bulk Modulus (GPa) = 42.22842 42.61519 42.42180
# Shear Modulus (GPa) = 24.36443 27.79370 26.07906
#
# Velocity S-wave (km/s) = 3.25967 3.48151 3.37241
# Velocity P-wave (km/s) = 5.70817 5.89457 5.80212
#
# Compressibility (1/GPa) = 0.02368074
#
# Stress axis : x y z
#
# Youngs Moduli (GPa) = 81.07406 89.69085 56.94283
#
# Poissons Ratio (x) = -0.00718 0.22844
# Poissons Ratio (y) = -0.00649 0.27051
# Poissons Ratio (z) = 0.32525 0.42608
#
# Static dielectric constant tensor:
#      x y z
#    x 3.828890 0.000000 0.000000 
#    y 0.000000 4.055090 0.000000 
#    z 0.000000 0.000000 4.188200 
# 
# 
# High freq. dielectric constant tensor:
#      x y z
#    x 1.888610 0.000000 0.000000 
#    y 0.000000 1.908810 0.000000 
#    z 0.000000 0.000000 1.906070 
# 
# From -- ./inp_files/20753.got.cif
#   From: 2010.03.12/outbox.cif.g09.slc.cpg/sg20_11_cif.got.tgz:20753.got - 2010.04.14 01:38:04.
