data_PCOD8159978
_publ_section_title
;
Structure prediction by ZEFSAII (Michael W. Deem and Ramdas Pophale) SiO2 
 PCOD8159978
Probable space group: C 2 2 21
;
_chemical_formula_sum "Si O2"
_cell_formula_units_Z 60
_cell_length_a 16.248477
_cell_length_b 9.097245
_cell_length_c 17.697319
_cell_angle_alpha 90.000000
_cell_angle_beta 90.000000
_cell_angle_gamma 90.000000
_cell_volume 2615.953562
_symmetry_space_group_name_H-M "C 2 2 21"
_symmetry_group_IT_number 20
_symmetry_cell_setting 'orthorhombic'
loop_
_space_group_symop_operation_xyz
x,y,z
-x,-y,1/2+z
x,-y,-z
-x,y,1/2-z
1/2+x,1/2+y,z
1/2-x,1/2-y,1/2+z
1/2+x,1/2-y,-z
1/2-x,1/2+y,1/2-z
loop_
_atom_site_type_symbol
_atom_site_label
_atom_site_fract_x
_atom_site_fract_y
_atom_site_fract_z
Si Si1 0.924876 0.774599 0.091833
Si Si2 0.827063 0.582570 0.686315
Si Si3 0.020688 0.000000 0.000000
Si Si4 0.460784 0.991441 0.591077
Si Si5 0.137103 0.012134 0.302179
Si Si6 0.404985 0.169449 0.844100
Si Si7 0.205588 0.458595 0.577706
Si Si8 0.366636 0.597877 0.359844
O O1 0.915185 0.881553 0.162993
O O2 0.836055 0.703342 0.073862
O O3 0.987228 0.648482 0.116767
O O4 0.961956 0.863352 0.020892
O O5 0.871748 0.466218 0.630085
O O6 0.733891 0.527911 0.698006
O O7 0.874016 0.595444 0.766305
O O8 0.838852 0.732733 0.639596
O O9 0.074913 0.946976 0.928850
O O10 0.498763 0.138017 0.634792
O O11 0.455712 0.000000 0.500000
O O12 0.118599 0.159762 0.349994
O O13 0.097351 0.042789 0.219774
O O14 0.363146 0.082590 0.912449
O O15 0.250020 0.500000 0.500000
O O16 0.277345 0.479497 0.638143
#
# Coordination Sequence:
#
# PCOD8159978 Si02
#       8
#     8   8   4   8   8   8   8   8
#     4  11  26  46  71 105 144 180 236 295 340 428
#     4  11  23  46  72 102 139 182 236 290 346 421
#     4  12  28  48  70 104 144 186 234 294 354 414
#     4  11  25  48  69 103 143 191 231 285 358 420
#     4  11  25  45  74 105 137 182 239 290 346 415
#     4  10  23  42  73  98 140 183 230 282 352 415
#     4  11  22  44  73 102 140 188 228 286 355 418
#     4  11  24  46  71 102 142 185 234 290 356 418
#
# _framework density 22.936185999999999
#
# number of rings (size 3 to 8) (size 9 to 14) (size 15 to 20)
#    0.000    1.067    3.333    2.800    5.600    1.600 
#   13.200    0.000    0.000    0.000    0.000    0.000 
#    0.000    0.000    0.000    0.000    0.000    0.000 
#
# Total GULP energy -371739.361480 kJ/mol
# GULP energy per Si atom -12391.312049 kJ/mol
# Density = 2.288398 g / cm^3
# Si number density = 22.936186 Si / 1000 Ang^3
#
#
#
# Elastic Constant Matrix: (Units=GPa)
#
#
# Indices 1 2 3 4 5 6 
#
# 1 67.8648 18.0631 43.7700 0.0000 0.0000 0.0000
# 2 18.0631 112.6421 51.0786 0.0000 0.0000 0.0000
# 3 43.7700 51.0786 113.4553 0.0000 0.0000 0.0000
# 4 0.0000 0.0000 0.0000 37.3895 0.0000 0.0000
# 5 0.0000 0.0000 0.0000 0.0000 37.3377 0.0000
# 6 0.0000 0.0000 0.0000 0.0000 0.0000 28.1340
#
#
#
# Elastic Compliance Matrix: (Units=1/GPa)
#
#
# Indices 1 2 3 4 5 6 
#
# 1 0.019628 0.000360 -0.007734 0.000000 0.000000 0.000000
# 2 0.000360 0.011162 -0.005164 0.000000 0.000000 0.000000
# 3 -0.007734 -0.005164 0.014123 0.000000 0.000000 0.000000
# 4 0.000000 0.000000 0.000000 0.026745 0.000000 0.000000
# 5 0.000000 0.000000 0.000000 0.000000 0.026783 0.000000
# 6 0.000000 0.000000 0.000000 0.000000 0.000000 0.035544
#
#
# Mechanical properties :
#
#
# Convention : Reuss Voigt Hill
#
# Bulk Modulus (GPa) = 50.41512 57.75396 54.08454
# Shear Modulus (GPa) = 30.18007 32.64226 31.41117
#
# Velocity S-wave (km/s) = 3.63137 3.77660 3.70469
# Velocity P-wave (km/s) = 6.29371 6.65221 6.47544
#
# Compressibility (1/GPa) = 0.01983532
#
# Stress axis : x y z
#
# Youngs Moduli (GPa) = 50.94858 89.59308 70.80864
#
# Poissons Ratio (x) = -0.03222 0.54764
# Poissons Ratio (y) = -0.01832 0.36564
# Poissons Ratio (z) = 0.39404 0.46264
#
# Static dielectric constant tensor:
#      x y z
#    x 4.288900 0.000000 0.000000 
#    y 0.000000 4.236690 0.000000 
#    z 0.000000 0.000000 4.048040 
# 
# 
# High freq. dielectric constant tensor:
#      x y z
#    x 1.914930 0.000000 0.000000 
#    y 0.000000 1.903510 0.000000 
#    z 0.000000 0.000000 1.913290 
# 
# From -- ./inp_files/25275.got.cif
#   From: 2010.03.12/outbox.cif.g09.slc.cpg/sg20_13_cif.got.tgz:25275.got - 2010.04.14 01:38:04.
