data_PCOD8159507
_publ_section_title
;
Structure prediction by ZEFSAII (Michael W. Deem and Ramdas Pophale) SiO2 
 PCOD8159507
Probable space group: C 2 2 21
;
_chemical_formula_sum "Si O2"
_cell_formula_units_Z 52
_cell_length_a 14.629771
_cell_length_b 8.554838
_cell_length_c 18.522768
_cell_angle_alpha 90.000000
_cell_angle_beta 90.000000
_cell_angle_gamma 90.000000
_cell_volume 2318.222973
_symmetry_space_group_name_H-M "C 2 2 21"
_symmetry_group_IT_number 20
_symmetry_cell_setting 'orthorhombic'
loop_
_space_group_symop_operation_xyz
x,y,z
-x,-y,1/2+z
x,-y,-z
-x,y,1/2-z
1/2+x,1/2+y,z
1/2-x,1/2-y,1/2+z
1/2+x,1/2-y,-z
1/2-x,1/2+y,1/2-z
loop_
_atom_site_type_symbol
_atom_site_label
_atom_site_fract_x
_atom_site_fract_y
_atom_site_fract_z
Si Si1 0.484691 0.765061 0.665965
Si Si2 0.131151 0.562528 0.427325
Si Si3 0.000000 0.210322 0.250000
Si Si4 0.312195 0.917501 0.611480
Si Si5 0.135599 0.752110 0.636801
Si Si6 0.466258 0.566945 0.390768
Si Si7 0.191008 0.256903 0.042868
O O1 0.500000 0.719167 0.750000
O O2 0.565357 0.868994 0.633029
O O3 0.393642 0.868577 0.664103
O O4 0.476420 0.619964 0.610175
O O5 0.078574 0.500000 0.500000
O O6 0.177535 0.404602 0.396542
O O7 0.209370 0.683308 0.448608
O O8 0.919463 0.304455 0.209024
O O9 0.943904 0.106110 0.307434
O O10 0.217868 0.872622 0.651873
O O11 0.319335 0.825096 0.536525
O O12 0.318688 0.103497 0.600705
O O13 0.061644 0.846345 0.586286
O O14 0.386021 0.624999 0.443562
#
# Coordination Sequence:
#
# PCOD8159507 Si02
#       7
#     8   8   4   8   8   8   8
#     4  12  27  45  70 106 143 191 236 293 364 430
#     4  12  26  44  69 106 141 184 240 296 351 423
#     4   8  22  40  70  94 138 176 228 266 356 404
#     4  11  25  44  73 103 142 179 241 290 356 424
#     4  10  21  44  70  98 136 178 229 285 345 412
#     4  10  22  45  71  99 141 181 233 283 349 421
#     4  11  25  44  70 108 135 185 234 295 354 418
#
# _framework density 22.430973999999999
#
# number of rings (size 3 to 8) (size 9 to 14) (size 15 to 20)
#    0.923    0.308    2.308    2.769    5.385    1.231 
#    0.000    0.000    0.000    0.000    0.000    0.000 
#    0.000    0.000    0.000    0.000    0.000    0.000 
#
# Total GULP energy -322139.846035 kJ/mol
# GULP energy per Si atom -12389.994078 kJ/mol
# Density = 2.237992 g / cm^3
# Si number density = 22.430974 Si / 1000 Ang^3
#
#
#
# Elastic Constant Matrix: (Units=GPa)
#
#
# Indices 1 2 3 4 5 6 
#
# 1 125.0861 32.6651 24.6862 0.0000 0.0000 0.0000
# 2 32.6651 124.9551 19.7111 0.0000 0.0000 0.0000
# 3 24.6862 19.7111 65.8953 0.0000 0.0000 0.0000
# 4 0.0000 0.0000 0.0000 32.2390 0.0000 0.0000
# 5 0.0000 0.0000 0.0000 0.0000 36.5531 0.0000
# 6 0.0000 0.0000 0.0000 0.0000 0.0000 27.1275
#
#
#
# Elastic Compliance Matrix: (Units=1/GPa)
#
#
# Indices 1 2 3 4 5 6 
#
# 1 0.009052 -0.001922 -0.002816 0.000000 0.000000 0.000000
# 2 -0.001922 0.008807 -0.001914 0.000000 0.000000 0.000000
# 3 -0.002816 -0.001914 0.016803 0.000000 0.000000 0.000000
# 4 0.000000 0.000000 0.000000 0.031018 0.000000 0.000000
# 5 0.000000 0.000000 0.000000 0.000000 0.027357 0.000000
# 6 0.000000 0.000000 0.000000 0.000000 0.000000 0.036863
#
#
# Mechanical properties :
#
#
# Convention : Reuss Voigt Hill
#
# Bulk Modulus (GPa) = 46.82255 52.22904 49.52579
# Shear Modulus (GPa) = 33.26098 35.10887 34.18493
#
# Velocity S-wave (km/s) = 3.85491 3.96055 3.90809
# Velocity P-wave (km/s) = 6.38225 6.65203 6.51854
#
# Compressibility (1/GPa) = 0.02135723
#
# Stress axis : x y z
#
# Youngs Moduli (GPa) = 110.46984 113.54163 59.51209
#
# Poissons Ratio (x) = 0.21824 0.16760
# Poissons Ratio (y) = 0.21234 0.11393
# Poissons Ratio (z) = 0.31111 0.21737
#
# Static dielectric constant tensor:
#      x y z
#    x 3.859480 0.000000 0.000000 
#    y 0.000000 4.102240 0.000000 
#    z 0.000000 0.000000 3.886960 
# 
# 
# High freq. dielectric constant tensor:
#      x y z
#    x 1.876480 0.000000 0.000000 
#    y 0.000000 1.895140 0.000000 
#    z 0.000000 0.000000 1.872640 
# 
# From -- ./inp_files/27497.got.cif
#   From: 2010.03.12/outbox.cif.g09.slc.cpg/sg20_14_cif.got.tgz:27497.got - 2010.04.14 01:38:04.
