data_PCOD8159442
_publ_section_title
;
Structure prediction by ZEFSAII (Michael W. Deem and Ramdas Pophale) SiO2 
 PCOD8159442
Probable space group: C 2 2 21
;
_chemical_formula_sum "Si O2"
_cell_formula_units_Z 48
_cell_length_a 9.094934
_cell_length_b 28.049615
_cell_length_c 8.123504
_cell_angle_alpha 90.000000
_cell_angle_beta 90.000000
_cell_angle_gamma 90.000000
_cell_volume 2072.382208
_symmetry_space_group_name_H-M "C 2 2 21"
_symmetry_group_IT_number 20
_symmetry_cell_setting 'orthorhombic'
loop_
_space_group_symop_operation_xyz
x,y,z
-x,-y,1/2+z
x,-y,-z
-x,y,1/2-z
1/2+x,1/2+y,z
1/2-x,1/2-y,1/2+z
1/2+x,1/2-y,-z
1/2-x,1/2+y,1/2-z
loop_
_atom_site_type_symbol
_atom_site_label
_atom_site_fract_x
_atom_site_fract_y
_atom_site_fract_z
Si Si1 0.326073 0.084408 0.243747
Si Si2 0.409309 0.356366 0.916477
Si Si3 0.840094 0.994566 0.306602
Si Si4 0.150810 0.694598 0.673900
Si Si5 0.627791 0.260944 0.383452
Si Si6 0.325068 0.605470 0.596323
O O1 0.500000 0.090524 0.250000
O O2 0.246951 0.118220 0.378766
O O3 0.279309 0.029185 0.279724
O O4 0.277739 0.098326 0.061168
O O5 0.500000 0.350394 0.750000
O O6 0.386231 0.304380 0.990588
O O7 0.504229 0.388472 0.044189
O O8 0.810710 0.938453 0.273825
O O9 0.000000 0.012076 0.250000
O O10 0.832348 0.000000 0.500000
O O11 0.216941 0.736895 0.787032
O O12 0.128692 0.711961 0.486753
O O13 0.269963 0.652476 0.689362
O O14 0.000000 0.675962 0.750000
O O15 0.500000 0.258888 0.250000
#
# Coordination Sequence:
#
# PCOD8159442 Si02
#       6
#     8   8   8   8   8   8
#     4  10  22  40  69 101 138 178 225 290 360 416
#     4  10  22  44  72  98 134 189 241 288 348 434
#     4  10  21  42  67  98 133 181 235 281 339 425
#     4  12  28  44  66 106 139 184 235 299 363 416
#     4  12  26  47  73  99 140 187 238 293 361 443
#     4  10  23  43  67  95 138 181 235 288 340 428
#
# _framework density 23.161753000000001
#
# number of rings (size 3 to 8) (size 9 to 14) (size 15 to 20)
#    0.000    1.333    1.667    4.000    9.333    1.333 
#    0.000    7.500    0.000    0.000    0.000    0.000 
#    0.000    0.000    0.000    0.000    0.000    0.000 
#
# Total GULP energy -297637.511839 kJ/mol
# GULP energy per Si atom -12401.562993 kJ/mol
# Density = 2.310904 g / cm^3
# Si number density = 23.161753 Si / 1000 Ang^3
#
#
#
# Elastic Constant Matrix: (Units=GPa)
#
#
# Indices 1 2 3 4 5 6 
#
# 1 169.4796 38.4481 20.1875 0.0000 0.0000 0.0000
# 2 38.4481 106.6258 24.4734 0.0000 0.0000 0.0000
# 3 20.1875 24.4734 40.9074 0.0000 0.0000 0.0000
# 4 0.0000 0.0000 0.0000 40.0026 0.0000 0.0000
# 5 0.0000 0.0000 0.0000 0.0000 32.2748 0.0000
# 6 0.0000 0.0000 0.0000 0.0000 0.0000 23.9061
#
#
#
# Elastic Compliance Matrix: (Units=1/GPa)
#
#
# Indices 1 2 3 4 5 6 
#
# 1 0.006581 -0.001887 -0.002119 0.000000 0.000000 0.000000
# 2 -0.001887 0.011412 -0.005897 0.000000 0.000000 0.000000
# 3 -0.002119 -0.005897 0.029019 0.000000 0.000000 0.000000
# 4 0.000000 0.000000 0.000000 0.024998 0.000000 0.000000
# 5 0.000000 0.000000 0.000000 0.000000 0.030984 0.000000
# 6 0.000000 0.000000 0.000000 0.000000 0.000000 0.041830
#
#
# Mechanical properties :
#
#
# Convention : Reuss Voigt Hill
#
# Bulk Modulus (GPa) = 36.75412 53.69230 45.22321
# Shear Modulus (GPa) = 28.78562 34.83029 31.80796
#
# Velocity S-wave (km/s) = 3.52917 3.88207 3.70982
# Velocity P-wave (km/s) = 5.70172 6.58223 6.15774
#
# Compressibility (1/GPa) = 0.02720784
#
# Stress axis : x y z
#
# Youngs Moduli (GPa) = 151.95713 87.62478 34.46045
#
# Poissons Ratio (x) = 0.16532 0.07302
# Poissons Ratio (y) = 0.28669 0.20320
# Poissons Ratio (z) = 0.32198 0.51668
#
# Static dielectric constant tensor:
#      x y z
#    x 4.085860 0.000000 0.000000 
#    y 0.000000 4.837260 0.000000 
#    z 0.000000 0.000000 4.208480 
# 
# 
# High freq. dielectric constant tensor:
#      x y z
#    x 1.908370 0.000000 0.000000 
#    y 0.000000 1.923210 0.000000 
#    z 0.000000 0.000000 1.917030 
# 
# From -- ./inp_files/6462.got.cif
#   From: 2010.03.12/outbox.cif.g09.slc.cpg/sg20_4_cif.got.tgz:6462.got - 2010.04.14 01:38:04.
