data_PCOD8159846
_publ_section_title
;
Structure prediction by ZEFSAII (Michael W. Deem and Ramdas Pophale) SiO2 
 PCOD8159846
Probable space group: C 2 2 21
;
_chemical_formula_sum "Si O2"
_cell_formula_units_Z 36
_cell_length_a 10.132526
_cell_length_b 16.884005
_cell_length_c 9.140280
_cell_angle_alpha 90.000000
_cell_angle_beta 90.000000
_cell_angle_gamma 90.000000
_cell_volume 1563.697345
_symmetry_space_group_name_H-M "C 2 2 21"
_symmetry_group_IT_number 20
_symmetry_cell_setting 'orthorhombic'
loop_
_space_group_symop_operation_xyz
x,y,z
-x,-y,1/2+z
x,-y,-z
-x,y,1/2-z
1/2+x,1/2+y,z
1/2-x,1/2-y,1/2+z
1/2+x,1/2-y,-z
1/2-x,1/2+y,1/2-z
loop_
_atom_site_type_symbol
_atom_site_label
_atom_site_fract_x
_atom_site_fract_y
_atom_site_fract_z
Si Si1 0.296371 0.644285 0.972869
Si Si2 0.780776 0.185417 0.537664
Si Si3 0.000000 0.831076 0.250000
Si Si4 0.148603 0.565462 0.740147
Si Si5 0.852658 0.927416 0.720616
O O1 0.285159 0.739343 0.960543
O O2 0.308158 0.621460 0.139276
O O3 0.418754 0.616508 0.868643
O O4 0.172139 0.598639 0.903991
O O5 0.891830 0.217121 0.653792
O O6 0.667218 0.136252 0.622533
O O7 0.852657 0.131604 0.416550
O O8 0.250280 0.497611 0.691385
O O9 0.000000 0.532681 0.750000
O O10 0.000000 0.960659 0.750000
#
# Coordination Sequence:
#
# PCOD8159846 Si02
#       5
#     8   8   4   8   8
#     4  11  25  45  74 103 139 185 237 297 354 418
#     4  11  25  45  74 103 139 185 237 297 354 418
#     4  10  22  44  68 106 134 174 238 282 358 402
#     4  11  28  48  67 105 148 187 235 293 356 424
#     4  12  25  45  75 104 143 191 238 287 350 428
#
# _framework density 23.022357
#
# number of rings (size 3 to 8) (size 9 to 14) (size 15 to 20)
#    0.000    0.889    2.222    4.000    9.333    7.111 
#    4.000    0.000    0.000    0.000    0.000    0.000 
#    0.000    0.000    0.000    0.000    0.000    0.000 
#
# Total GULP energy -223111.496047 kJ/mol
# GULP energy per Si atom -12395.083114 kJ/mol
# Density = 2.296996 g / cm^3
# Si number density = 23.022357 Si / 1000 Ang^3
#
#
#
# Elastic Constant Matrix: (Units=GPa)
#
#
# Indices 1 2 3 4 5 6 
#
# 1 147.9461 46.9787 39.1399 0.0000 0.0000 0.0000
# 2 46.9787 110.5350 26.4356 0.0000 0.0000 0.0000
# 3 39.1399 26.4356 131.2011 0.0000 0.0000 0.0000
# 4 0.0000 0.0000 0.0000 -6.7546 0.0000 0.0000
# 5 0.0000 0.0000 0.0000 0.0000 33.2191 0.0000
# 6 0.0000 0.0000 0.0000 0.0000 0.0000 22.0171
#
#
#
# Elastic Compliance Matrix: (Units=1/GPa)
#
#
# Indices 1 2 3 4 5 6 
#
# 1 0.008214 -0.003052 -0.001835 0.000000 0.000000 0.000000
# 2 -0.003052 0.010639 -0.001233 0.000000 0.000000 0.000000
# 3 -0.001835 -0.001233 0.008418 0.000000 0.000000 0.000000
# 4 0.000000 0.000000 0.000000 -0.148047 0.000000 0.000000
# 5 0.000000 0.000000 0.000000 0.000000 0.030103 0.000000
# 6 0.000000 0.000000 0.000000 0.000000 0.000000 0.045419
#
#
# Mechanical properties :
#
#
# Convention : Reuss Voigt Hill
#
# Bulk Modulus (GPa) = 66.53557 68.31007 67.42282
# Shear Modulus (GPa) = -178.55489 28.17152 -75.19169
#
# Velocity S-wave (km/s) = -8.81621 3.50188 -5.72112
# Velocity P-wave (km/s) = 8.64123 6.78870 3.78050
#
# Compressibility (1/GPa) = 0.01502955
#
# Stress axis : x y z
#
# Youngs Moduli (GPa) = 121.74435 93.99388 118.79448
#
# Poissons Ratio (x) = 0.28687 0.21804
# Poissons Ratio (y) = 0.37157 0.14649
# Poissons Ratio (z) = 0.22345 0.11591
#
# Static dielectric constant tensor:
#      x y z
#    x 4.497710 0.000000 0.000000 
#    y 0.000000 3.827100 0.000000 
#    z 0.000000 0.000000 4.425490 
# 
# 
# High freq. dielectric constant tensor:
#      x y z
#    x 1.908230 0.000000 0.000000 
#    y 0.000000 1.885340 0.000000 
#    z 0.000000 0.000000 1.936640 
# 
# From -- ./inp_files/5911.got.cif
#   From: 2010.03.12/outbox.cif.g09.slc.cpg/sg20_3_cif.got.tgz:5911.got - 2010.04.14 01:38:04.
