data_PCOD8159195
_publ_section_title
;
Structure prediction by ZEFSAII (Michael W. Deem and Ramdas Pophale) SiO2 
 PCOD8159195
Probable space group: C 2 2 21
;
_chemical_formula_sum "Si O2"
_cell_formula_units_Z 64
_cell_length_a 8.850716
_cell_length_b 23.848963
_cell_length_c 15.348748
_cell_angle_alpha 90.000000
_cell_angle_beta 90.000000
_cell_angle_gamma 90.000000
_cell_volume 3239.819843
_symmetry_space_group_name_H-M "C 2 2 21"
_symmetry_group_IT_number 20
_symmetry_cell_setting 'orthorhombic'
loop_
_space_group_symop_operation_xyz
x,y,z
-x,-y,1/2+z
x,-y,-z
-x,y,1/2-z
1/2+x,1/2+y,z
1/2-x,1/2-y,1/2+z
1/2+x,1/2-y,-z
1/2-x,1/2+y,1/2-z
loop_
_atom_site_type_symbol
_atom_site_label
_atom_site_fract_x
_atom_site_fract_y
_atom_site_fract_z
Si Si1 0.673046 0.859048 0.347172
Si Si2 0.826914 0.862337 0.651789
Si Si3 0.173046 0.359048 0.152828
Si Si4 0.173086 0.862337 0.651789
Si Si5 0.677468 0.063963 0.006708
Si Si6 0.177958 0.251040 0.594343
Si Si7 0.677958 0.751040 0.905657
Si Si8 0.822532 0.436037 0.993292
O O1 0.692003 0.884477 0.250000
O O2 0.500000 0.841063 0.364522
O O3 0.777006 0.804508 0.353719
O O4 0.724147 0.905473 0.416980
O O5 0.812262 0.885601 0.750000
O O6 0.734547 0.804928 0.646261
O O7 0.762776 0.908961 0.587535
O O8 1.000000 0.849891 0.626951
O O9 0.277006 0.304508 0.146281
O O10 0.224148 0.405474 0.083021
O O11 0.237223 0.908961 0.587535
O O12 0.265453 0.804928 0.646260
O O13 0.500000 0.068663 0.024422
O O14 0.730556 0.000000 0.000000
O O15 0.250000 0.250000 0.500000
O O16 1.000000 0.254554 0.584886
O O17 0.769444 0.500000 0.000000
#
# Coordination Sequence:
#
# PCOD8159195 Si02
#       8
#     8   8   8   8   8   8   8   8
#     4  10  21  38  60  88 123 160 197 244 301 359
#     4  11  24  41  62  90 124 162 201 247 303 359
#     4  10  21  38  60  88 123 160 197 244 301 359
#     4  11  24  41  62  90 124 162 201 247 303 359
#     4  10  22  40  63  90 120 160 208 253 298 352
#     4  12  23  37  61  91 122 157 197 246 304 363
#     4  12  23  37  61  91 122 157 197 246 304 363
#     4  10  22  40  63  90 120 160 208 253 298 352
#
# _framework density 19.754186000000001
#
# number of rings (size 3 to 8) (size 9 to 14) (size 15 to 20)
#    0.000    1.250    2.500    3.750    0.000    7.000 
#    0.000    2.500    0.000    0.000    0.000    0.000 
#    0.000    0.000    0.000    0.000    0.000    0.000 
#
# Total GULP energy -396952.243747 kJ/mol
# GULP energy per Si atom -12404.757617 kJ/mol
# Density = 1.970922 g / cm^3
# Si number density = 19.754186 Si / 1000 Ang^3
#
#
#
# Elastic Constant Matrix: (Units=GPa)
#
#
# Indices 1 2 3 4 5 6 
#
# 1 115.1220 64.4008 55.1705 0.0000 0.0000 0.0000
# 2 64.4008 154.8325 71.9662 0.0000 0.0000 0.0000
# 3 55.1705 71.9662 151.3468 0.0000 0.0000 0.0000
# 4 0.0000 0.0000 0.0000 9.4307 0.0000 0.0000
# 5 0.0000 0.0000 0.0000 0.0000 30.6028 0.0000
# 6 0.0000 0.0000 0.0000 0.0000 0.0000 26.3735
#
#
#
# Elastic Compliance Matrix: (Units=1/GPa)
#
#
# Indices 1 2 3 4 5 6 
#
# 1 0.012058 -0.003816 -0.002581 0.000000 0.000000 0.000000
# 2 -0.003816 0.009498 -0.003126 0.000000 0.000000 0.000000
# 3 -0.002581 -0.003126 0.009035 0.000000 0.000000 0.000000
# 4 0.000000 0.000000 0.000000 0.106036 0.000000 0.000000
# 5 0.000000 0.000000 0.000000 0.000000 0.032677 0.000000
# 6 0.000000 0.000000 0.000000 0.000000 0.000000 0.037917
#
#
# Mechanical properties :
#
#
# Convention : Reuss Voigt Hill
#
# Bulk Modulus (GPa) = 86.60966 89.37515 87.99240
# Shear Modulus (GPa) = 21.72832 28.59898 25.16365
#
# Velocity S-wave (km/s) = 3.32012 3.80905 3.57296
# Velocity P-wave (km/s) = 7.65745 8.04282 7.85250
#
# Compressibility (1/GPa) = 0.01154606
#
# Stress axis : x y z
#
# Youngs Moduli (GPa) = 82.93296 105.28007 110.68673
#
# Poissons Ratio (x) = 0.40171 0.28570
# Poissons Ratio (y) = 0.31644 0.34597
# Poissons Ratio (z) = 0.21406 0.32907
#
# Static dielectric constant tensor:
#      x y z
#    x 3.661470 0.000000 0.000000 
#    y 0.000000 3.617800 0.000000 
#    z 0.000000 0.000000 3.761430 
# 
# 
# High freq. dielectric constant tensor:
#      x y z
#    x 1.771110 0.000000 0.000000 
#    y 0.000000 1.761540 0.000000 
#    z 0.000000 0.000000 1.787260 
# 
# From -- ./inp_files/19384.got.cif
#   From: 2010.03.12/outbox.cif.g09.slc.cpg/sg20_10_cif.got.tgz:19384.got - 2010.04.14 01:38:04.
