data_PCOD8159697
_publ_section_title
;
Structure prediction by ZEFSAII (Michael W. Deem and Ramdas Pophale) SiO2 
 PCOD8159697
Probable space group: C 2 2 21
;
_chemical_formula_sum "Si O2"
_cell_formula_units_Z 40
_cell_length_a 5.126974
_cell_length_b 15.072147
_cell_length_c 25.858775
_cell_angle_alpha 90.000000
_cell_angle_beta 90.000000
_cell_angle_gamma 90.000000
_cell_volume 1998.224059
_symmetry_space_group_name_H-M "C 2 2 21"
_symmetry_group_IT_number 20
_symmetry_cell_setting 'orthorhombic'
loop_
_space_group_symop_operation_xyz
x,y,z
-x,-y,1/2+z
x,-y,-z
-x,y,1/2-z
1/2+x,1/2+y,z
1/2-x,1/2-y,1/2+z
1/2+x,1/2-y,-z
1/2-x,1/2+y,1/2-z
loop_
_atom_site_type_symbol
_atom_site_label
_atom_site_fract_x
_atom_site_fract_y
_atom_site_fract_z
Si Si1 0.875348 0.099763 0.006115
Si Si2 0.664015 0.676110 0.602233
Si Si3 0.387986 0.131794 0.068931
Si Si4 0.544799 0.023255 0.854901
Si Si5 0.959618 0.921695 0.307953
O O1 0.633006 0.154561 0.031229
O O2 0.135593 0.094829 0.040093
O O3 0.957233 0.143616 0.952004
O O4 0.770301 0.000000 0.000000
O O5 0.711235 0.780971 0.599232
O O6 0.468668 0.659377 0.650691
O O7 0.925142 0.616302 0.612532
O O8 0.492576 0.058679 0.108207
O O9 0.813706 0.007342 0.823175
O O10 0.316967 0.030503 0.812765
O O11 0.000000 0.885399 0.250000
#
# Coordination Sequence:
#
# PCOD8159697 Si02
#       5
#     8   8   8   8   8
#     4  12  23  39  61  93 130 174 211 254 322 391
#     4  10  25  38  65  93 128 164 220 261 320 392
#     4  12  24  39  63  93 134 166 210 263 319 388
#     4  10  22  41  63  91 123 166 209 260 322 381
#     4  10  22  43  67  88 123 166 216 268 330 372
#
# _framework density 20.017776999999999
#
# number of rings (size 3 to 8) (size 9 to 14) (size 15 to 20)
#    1.200    0.000    2.000    4.800    5.600    0.000 
#    0.000    2.000    0.000    0.000    0.000    0.000 
#    0.000    0.000    0.000    0.000    0.000    0.000 
#
# Total GULP energy -247839.113953 kJ/mol
# GULP energy per Si atom -12391.955698 kJ/mol
# Density = 1.997222 g / cm^3
# Si number density = 20.017777 Si / 1000 Ang^3
#
#
#
# Elastic Constant Matrix: (Units=GPa)
#
#
# Indices 1 2 3 4 5 6 
#
# 1 106.7490 26.8562 18.9123 0.0000 0.0000 0.0000
# 2 26.8562 115.8267 45.2561 0.0000 0.0000 0.0000
# 3 18.9123 45.2561 106.9221 0.0000 0.0000 0.0000
# 4 0.0000 0.0000 0.0000 11.5024 0.0000 0.0000
# 5 0.0000 0.0000 0.0000 0.0000 27.9662 0.0000
# 6 0.0000 0.0000 0.0000 0.0000 0.0000 19.7031
#
#
#
# Elastic Compliance Matrix: (Units=1/GPa)
#
#
# Indices 1 2 3 4 5 6 
#
# 1 0.010027 -0.001955 -0.000946 0.000000 0.000000 0.000000
# 2 -0.001955 0.010726 -0.004194 0.000000 0.000000 0.000000
# 3 -0.000946 -0.004194 0.011295 0.000000 0.000000 0.000000
# 4 0.000000 0.000000 0.000000 0.086938 0.000000 0.000000
# 5 0.000000 0.000000 0.000000 0.000000 0.035757 0.000000
# 6 0.000000 0.000000 0.000000 0.000000 0.000000 0.050754
#
#
# Mechanical properties :
#
#
# Convention : Reuss Voigt Hill
#
# Bulk Modulus (GPa) = 55.99892 56.83854 56.41873
# Shear Modulus (GPa) = 22.15915 27.73254 24.94585
#
# Velocity S-wave (km/s) = 3.33073 3.72613 3.53396
# Velocity P-wave (km/s) = 6.54424 6.85330 6.70055
#
# Compressibility (1/GPa) = 0.01785749
#
# Stress axis : x y z
#
# Youngs Moduli (GPa) = 99.72770 93.23475 88.53438
#
# Poissons Ratio (x) = 0.18231 0.08375
# Poissons Ratio (y) = 0.19500 0.37130
# Poissons Ratio (z) = 0.09434 0.39102
#
# Static dielectric constant tensor:
#      x y z
#    x 3.672210 0.000000 0.000000 
#    y 0.000000 3.398020 0.000000 
#    z 0.000000 0.000000 3.551900 
# 
# 
# High freq. dielectric constant tensor:
#      x y z
#    x 1.788950 0.000000 0.000000 
#    y 0.000000 1.755540 0.000000 
#    z 0.000000 0.000000 1.776260 
# 
# From -- ./inp_files/28262.got.cif
#   From: 2010.03.12/outbox.cif.g09.slc.cpg/sg20_15_cif.got.tgz:28262.got - 2010.04.14 01:38:04.
