data_PCOD8159358
_publ_section_title
;
Structure prediction by ZEFSAII (Michael W. Deem and Ramdas Pophale) SiO2 
 PCOD8159358
Probable space group: C 2 2 21
;
_chemical_formula_sum "Si O2"
_cell_formula_units_Z 52
_cell_length_a 14.354877
_cell_length_b 19.872401
_cell_length_c 8.954222
_cell_angle_alpha 90.000000
_cell_angle_beta 90.000000
_cell_angle_gamma 90.000000
_cell_volume 2554.333947
_symmetry_space_group_name_H-M "C 2 2 21"
_symmetry_group_IT_number 20
_symmetry_cell_setting 'orthorhombic'
loop_
_space_group_symop_operation_xyz
x,y,z
-x,-y,1/2+z
x,-y,-z
-x,y,1/2-z
1/2+x,1/2+y,z
1/2-x,1/2-y,1/2+z
1/2+x,1/2-y,-z
1/2-x,1/2+y,1/2-z
loop_
_atom_site_type_symbol
_atom_site_label
_atom_site_fract_x
_atom_site_fract_y
_atom_site_fract_z
Si Si1 0.000000 0.471018 0.250000
Si Si2 0.321254 0.046984 0.130022
Si Si3 0.897408 0.198593 0.090258
Si Si4 0.398973 0.724946 0.439757
Si Si5 0.788059 0.672969 0.946760
Si Si6 0.638467 0.128122 0.875766
Si Si7 0.709062 0.564616 0.425139
O O1 0.922519 0.518459 0.175135
O O2 0.952703 0.418766 0.365024
O O3 0.245453 0.046840 0.260678
O O4 0.331369 0.122733 0.068956
O O5 0.278790 0.000000 0.000000
O O6 0.894008 0.212737 0.264542
O O7 0.830066 0.253668 0.014684
O O8 0.865883 0.123001 0.066834
O O9 0.997566 0.204269 0.010252
O O10 0.323726 0.681121 0.532059
O O11 0.386359 0.804596 0.466790
O O12 0.813457 0.645194 0.783211
O O13 0.704051 0.083057 0.974345
O O14 0.660074 0.500000 0.500000
#
# Coordination Sequence:
#
# PCOD8159358 Si02
#       7
#     4   8   8   8   8   8   8
#     4  12  24  40  64  98 138 170 218 272 342 416
#     4  12  26  40  62  98 134 172 216 265 331 401
#     4  10  22  40  67  95 127 172 226 262 327 386
#     4  10  21  40  70  95 125 179 220 267 321 395
#     4  11  21  43  66  93 135 172 219 273 321 397
#     4  11  23  39  66  98 135 169 213 271 340 389
#     4  12  23  42  66  92 132 173 208 274 332 389
#
# _framework density 20.357558000000001
#
# number of rings (size 3 to 8) (size 9 to 14) (size 15 to 20)
#    0.000    0.923    6.154    1.846    2.154    0.000 
#    0.000    1.538    3.385    0.000    0.000    0.000 
#    0.000    0.000    0.000    0.000    0.000    0.000 
#
# Total GULP energy -322341.486729 kJ/mol
# GULP energy per Si atom -12397.749490 kJ/mol
# Density = 2.031122 g / cm^3
# Si number density = 20.357558 Si / 1000 Ang^3
#
#
#
# Elastic Constant Matrix: (Units=GPa)
#
#
# Indices 1 2 3 4 5 6 
#
# 1 112.4728 45.5757 22.7820 0.0000 0.0000 0.0000
# 2 45.5757 147.7515 38.0223 0.0000 0.0000 0.0000
# 3 22.7820 38.0223 66.3865 0.0000 0.0000 0.0000
# 4 0.0000 0.0000 0.0000 -135.0589 0.0000 0.0000
# 5 0.0000 0.0000 0.0000 0.0000 20.4018 0.0000
# 6 0.0000 0.0000 0.0000 0.0000 0.0000 28.6148
#
#
#
# Elastic Compliance Matrix: (Units=1/GPa)
#
#
# Indices 1 2 3 4 5 6 
#
# 1 0.010389 -0.002683 -0.002029 0.000000 0.000000 0.000000
# 2 -0.002683 0.008631 -0.004023 0.000000 0.000000 0.000000
# 3 -0.002029 -0.004023 0.018063 0.000000 0.000000 0.000000
# 4 0.000000 0.000000 0.000000 -0.007404 0.000000 0.000000
# 5 0.000000 0.000000 0.000000 0.000000 0.049015 0.000000
# 6 0.000000 0.000000 0.000000 0.000000 0.000000 0.034947
#
#
# Mechanical properties :
#
#
# Convention : Reuss Voigt Hill
#
# Bulk Modulus (GPa) = 50.98069 59.93010 55.45540
# Shear Modulus (GPa) = 36.32464 -2.52641 16.89911
#
# Velocity S-wave (km/s) = 4.22872 -1.11522 2.88430
# Velocity P-wave (km/s) = 6.99569 5.27678 6.19613
#
# Compressibility (1/GPa) = 0.01961527
#
# Stress axis : x y z
#
# Youngs Moduli (GPa) = 96.25585 115.86471 55.36036
#
# Poissons Ratio (x) = 0.31081 0.11232
# Poissons Ratio (y) = 0.25821 0.22269
# Poissons Ratio (z) = 0.19529 0.46608
#
# Static dielectric constant tensor:
#      x y z
#    x 11.318570 0.000000 0.000000 
#    y 0.000000 4.332770 0.000000 
#    z 0.000000 0.000000 3.786320 
# 
# 
# High freq. dielectric constant tensor:
#      x y z
#    x 1.783830 0.000000 0.000000 
#    y 0.000000 1.817000 0.000000 
#    z 0.000000 0.000000 1.782690 
# 
# From -- ./inp_files/8659.got.cif
#   From: 2010.03.12/outbox.cif.g09.slc.cpg/sg20_5_cif.got.tgz:8659.got - 2010.04.14 01:38:04.
