data_PCOD8159261
_publ_section_title
;
Structure prediction by ZEFSAII (Michael W. Deem and Ramdas Pophale) SiO2 
 PCOD8159261
Probable space group: C 2 2 21
;
_chemical_formula_sum "Si O2"
_cell_formula_units_Z 64
_cell_length_a 5.327886
_cell_length_b 22.833561
_cell_length_c 23.228778
_cell_angle_alpha 90.000000
_cell_angle_beta 90.000000
_cell_angle_gamma 90.000000
_cell_volume 2825.887928
_symmetry_space_group_name_H-M "C 2 2 21"
_symmetry_group_IT_number 20
_symmetry_cell_setting 'orthorhombic'
loop_
_space_group_symop_operation_xyz
x,y,z
-x,-y,1/2+z
x,-y,-z
-x,y,1/2-z
1/2+x,1/2+y,z
1/2-x,1/2-y,1/2+z
1/2+x,1/2-y,-z
1/2-x,1/2+y,1/2-z
loop_
_atom_site_type_symbol
_atom_site_label
_atom_site_fract_x
_atom_site_fract_y
_atom_site_fract_z
Si Si1 0.051068 0.496671 0.146279
Si Si2 0.024348 0.807872 0.684607
Si Si3 0.569798 0.558200 0.812458
Si Si4 0.204512 0.253352 0.083636
Si Si5 0.541855 0.644447 0.907146
Si Si6 0.520700 0.119871 0.315015
Si Si7 0.674495 0.057428 0.967049
Si Si8 0.933698 0.669797 0.001329
O O1 0.331391 0.478863 0.165135
O O2 0.994746 0.465807 0.084559
O O3 0.824772 0.479852 0.189571
O O4 0.035929 0.566863 0.141195
O O5 0.302638 0.832545 0.675029
O O6 0.000000 0.782066 0.750000
O O7 0.000594 0.760055 0.633181
O O8 0.799047 0.854362 0.675074
O O9 0.500000 0.581355 0.750000
O O10 0.641991 0.615482 0.848992
O O11 0.379413 0.300676 0.114509
O O12 0.135028 0.283155 0.022045
O O13 0.330640 0.191646 0.063078
O O14 0.405786 0.593021 0.942141
O O15 0.749673 0.671253 0.947478
O O16 0.500000 0.095510 0.250000
O O17 0.529697 0.102920 0.009220
O O18 0.774918 0.000000 0.000000
#
# Coordination Sequence:
#
# PCOD8159261 Si02
#       8
#     8   8   8   8   8   8   8   8
#     4  11  22  40  64  95 132 174 219 267 325 406
#     4  10  24  43  63  98 136 170 224 280 329 392
#     4  11  22  41  65  94 129 173 217 271 334 394
#     4  11  24  41  69  93 124 179 223 275 336 394
#     4  10  23  44  61  95 132 167 226 276 322 407
#     4  10  21  39  62  93 132 174 218 266 325 400
#     4  10  24  41  63  97 134 168 215 276 338 392
#     4  11  22  43  67  90 127 169 225 277 329 398
#
# _framework density 22.647748
#
# number of rings (size 3 to 8) (size 9 to 14) (size 15 to 20)
#    0.000    1.500    2.500    1.875    3.500    2.500 
#    2.250    0.000    0.000    0.000    0.000    0.000 
#    0.000    0.000    0.000    0.000    0.000    0.000 
#
# Total GULP energy -396531.593077 kJ/mol
# GULP energy per Si atom -12391.612284 kJ/mol
# Density = 2.259620 g / cm^3
# Si number density = 22.647748 Si / 1000 Ang^3
#
#
#
# Elastic Constant Matrix: (Units=GPa)
#
#
# Indices 1 2 3 4 5 6 
#
# 1 70.8768 -0.0281 -14.2010 0.0000 0.0000 0.0000
# 2 -0.0281 97.7605 25.6241 0.0000 0.0000 0.0000
# 3 -14.2010 25.6241 66.7892 0.0000 0.0000 0.0000
# 4 0.0000 0.0000 0.0000 15.1541 0.0000 0.0000
# 5 0.0000 0.0000 0.0000 0.0000 24.5852 0.0000
# 6 0.0000 0.0000 0.0000 0.0000 0.0000 20.6392
#
#
#
# Elastic Compliance Matrix: (Units=1/GPa)
#
#
# Indices 1 2 3 4 5 6 
#
# 1 0.014810 -0.000913 0.003499 0.000000 0.000000 0.000000
# 2 -0.000913 0.011429 -0.004579 0.000000 0.000000 0.000000
# 3 0.003499 -0.004579 0.017473 0.000000 0.000000 0.000000
# 4 0.000000 0.000000 0.000000 0.065989 0.000000 0.000000
# 5 0.000000 0.000000 0.000000 0.000000 0.040675 0.000000
# 6 0.000000 0.000000 0.000000 0.000000 0.000000 0.048452
#
#
# Mechanical properties :
#
#
# Convention : Reuss Voigt Hill
#
# Bulk Modulus (GPa) = 25.17205 28.69071 26.93138
# Shear Modulus (GPa) = 23.14231 27.01114 25.07673
#
# Velocity S-wave (km/s) = 3.20009 3.45724 3.33115
# Velocity P-wave (km/s) = 4.97924 5.35093 5.16843
#
# Compressibility (1/GPa) = 0.03972660
#
# Stress axis : x y z
#
# Youngs Moduli (GPa) = 67.52321 87.49674 57.23052
#
# Poissons Ratio (x) = 0.07988 -0.20026
# Poissons Ratio (y) = 0.06164 0.26205
# Poissons Ratio (z) = -0.23627 0.40064
#
# Static dielectric constant tensor:
#      x y z
#    x 4.163050 0.000000 0.000000 
#    y 0.000000 4.113410 0.000000 
#    z 0.000000 0.000000 4.081730 
# 
# 
# High freq. dielectric constant tensor:
#      x y z
#    x 1.891020 0.000000 0.000000 
#    y 0.000000 1.893170 0.000000 
#    z 0.000000 0.000000 1.889500 
# 
# From -- ./inp_files/28521.got.cif
#   From: 2010.03.12/outbox.cif.g09.slc.cpg/sg20_15_cif.got.tgz:28521.got - 2010.04.14 01:38:04.
