data_PCOD8159262
_publ_section_title
;
Structure prediction by ZEFSAII (Michael W. Deem and Ramdas Pophale) SiO2 
 PCOD8159262
Probable space group: C 2 2 21
;
_chemical_formula_sum "Si O2"
_cell_formula_units_Z 48
_cell_length_a 12.542284
_cell_length_b 14.451652
_cell_length_c 12.208469
_cell_angle_alpha 90.000000
_cell_angle_beta 90.000000
_cell_angle_gamma 90.000000
_cell_volume 2212.867092
_symmetry_space_group_name_H-M "C 2 2 21"
_symmetry_group_IT_number 20
_symmetry_cell_setting 'orthorhombic'
loop_
_space_group_symop_operation_xyz
x,y,z
-x,-y,1/2+z
x,-y,-z
-x,y,1/2-z
1/2+x,1/2+y,z
1/2-x,1/2-y,1/2+z
1/2+x,1/2-y,-z
1/2-x,1/2+y,1/2-z
loop_
_atom_site_type_symbol
_atom_site_label
_atom_site_fract_x
_atom_site_fract_y
_atom_site_fract_z
Si Si1 0.159422 0.633893 0.781923
Si Si2 0.000000 0.792360 0.750000
Si Si3 0.499454 0.394143 0.978764
Si Si4 0.165592 0.193509 0.856158
Si Si5 0.075954 0.463792 0.888193
Si Si6 0.000000 0.309480 0.750000
Si Si7 0.743418 0.352558 0.514793
O O1 0.261743 0.614987 0.702448
O O2 0.086639 0.541378 0.791912
O O3 0.193545 0.660678 0.903112
O O4 0.099339 0.723385 0.732779
O O5 0.982634 0.859683 0.645694
O O6 0.573854 0.339262 0.062514
O O7 0.377155 0.379567 0.010455
O O8 0.530733 0.500000 0.000000
O O9 0.106862 0.248188 0.756218
O O10 0.249370 0.256734 0.920638
O O11 0.000162 0.378241 0.854808
O O12 0.021603 0.500000 0.000000
O O13 0.197720 0.431627 0.913255
#
# Coordination Sequence:
#
# PCOD8159262 Si02
#       7
#     8   4   8   8   8   4   8
#     4  11  21  42  68  94 129 173 223 261 336 391
#     4  12  25  41  72  94 130 182 220 267 333 398
#     4  12  26  45  68 100 133 171 224 278 328 393
#     4  11  23  42  66  96 130 174 219 275 327 390
#     4   9  20  38  65  95 131 174 219 270 327 394
#     4  10  21  39  62  98 130 168 220 267 325 388
#     4  10  21  41  67  93 130 174 216 268 333 395
#
# _framework density 21.691316
#
# number of rings (size 3 to 8) (size 9 to 14) (size 15 to 20)
#    0.000    1.333    3.333    3.000    0.000    3.333 
#    0.000    0.000    0.000    0.000    0.000    0.000 
#    0.000    0.000    0.000    0.000    0.000    0.000 
#
# Total GULP energy -297410.246423 kJ/mol
# GULP energy per Si atom -12392.093601 kJ/mol
# Density = 2.164195 g / cm^3
# Si number density = 21.691316 Si / 1000 Ang^3
#
#
#
# Elastic Constant Matrix: (Units=GPa)
#
#
# Indices 1 2 3 4 5 6 
#
# 1 80.4859 31.6140 50.0461 0.0000 0.0000 0.0000
# 2 31.6140 106.1354 43.6572 0.0000 0.0000 0.0000
# 3 50.0461 43.6572 97.3340 0.0000 0.0000 0.0000
# 4 0.0000 0.0000 0.0000 36.1466 0.0000 0.0000
# 5 0.0000 0.0000 0.0000 0.0000 39.9682 0.0000
# 6 0.0000 0.0000 0.0000 0.0000 0.0000 21.5978
#
#
#
# Elastic Compliance Matrix: (Units=1/GPa)
#
#
# Indices 1 2 3 4 5 6 
#
# 1 0.018593 -0.001969 -0.008677 0.000000 0.000000 0.000000
# 2 -0.001969 0.011762 -0.004263 0.000000 0.000000 0.000000
# 3 -0.008677 -0.004263 0.016647 0.000000 0.000000 0.000000
# 4 0.000000 0.000000 0.000000 0.027665 0.000000 0.000000
# 5 0.000000 0.000000 0.000000 0.000000 0.025020 0.000000
# 6 0.000000 0.000000 0.000000 0.000000 0.000000 0.046301
#
#
# Mechanical properties :
#
#
# Convention : Reuss Voigt Hill
#
# Bulk Modulus (GPa) = 58.19233 59.39889 58.79561
# Shear Modulus (GPa) = 27.54288 30.11840 28.83064
#
# Velocity S-wave (km/s) = 3.56724 3.73030 3.64968
# Velocity P-wave (km/s) = 6.62214 6.78209 6.70259
#
# Compressibility (1/GPa) = 0.01718440
#
# Stress axis : x y z
#
# Youngs Moduli (GPa) = 53.78290 85.01912 60.06946
#
# Poissons Ratio (x) = 0.16742 0.52121
# Poissons Ratio (y) = 0.10591 0.25608
# Poissons Ratio (z) = 0.46667 0.36245
#
# Static dielectric constant tensor:
#      x y z
#    x 3.831410 0.000000 0.000000 
#    y 0.000000 4.078380 0.000000 
#    z 0.000000 0.000000 3.954240 
# 
# 
# High freq. dielectric constant tensor:
#      x y z
#    x 1.846650 0.000000 0.000000 
#    y 0.000000 1.850860 0.000000 
#    z 0.000000 0.000000 1.854560 
# 
# From -- ./inp_files/15075.got.cif
#   From: 2010.03.12/outbox.cif.g09.slc.cpg/sg20_8_cif.got.tgz:15075.got - 2010.04.14 01:38:04.
