data_PCOD8159571
_publ_section_title
;
Structure prediction by ZEFSAII (Michael W. Deem and Ramdas Pophale) SiO2 
 PCOD8159571
Probable space group: C 2 2 21
;
_chemical_formula_sum "Si O2"
_cell_formula_units_Z 40
_cell_length_a 9.176683
_cell_length_b 23.432949
_cell_length_c 9.202358
_cell_angle_alpha 90.000000
_cell_angle_beta 90.000000
_cell_angle_gamma 90.000000
_cell_volume 1978.845108
_symmetry_space_group_name_H-M "C 2 2 21"
_symmetry_group_IT_number 20
_symmetry_cell_setting 'orthorhombic'
loop_
_space_group_symop_operation_xyz
x,y,z
-x,-y,1/2+z
x,-y,-z
-x,y,1/2-z
1/2+x,1/2+y,z
1/2-x,1/2-y,1/2+z
1/2+x,1/2-y,-z
1/2-x,1/2+y,1/2-z
loop_
_atom_site_type_symbol
_atom_site_label
_atom_site_fract_x
_atom_site_fract_y
_atom_site_fract_z
Si Si1 0.867165 0.655704 0.849710
Si Si2 0.977713 0.729803 0.414873
Si Si3 0.710265 0.316752 0.426834
Si Si4 0.351463 0.444179 0.074993
Si Si5 0.320447 0.552624 0.588642
O O1 0.758850 0.690915 0.742298
O O2 0.785655 0.605498 0.934047
O O3 0.000000 0.632239 0.750000
O O4 0.921108 0.693884 0.979625
O O5 0.810842 0.721943 0.466777
O O6 0.000000 0.708392 0.250000
O O7 0.042533 0.794480 0.432619
O O8 0.725490 0.384048 0.467129
O O9 0.518529 0.435655 0.025157
O O10 0.334297 0.459698 0.241993
O O11 0.280472 0.500000 0.000000
O O12 0.250801 0.500000 0.500000
#
# Coordination Sequence:
#
# PCOD8159571 Si02
#       5
#     8   8   8   8   8
#     4   9  20  39  55  81 122 154 193 235 293 351
#     4  11  23  37  59  89 116 155 197 238 287 344
#     4  10  22  38  62  86 117 158 187 241 293 347
#     4   9  19  35  59  85 114 146 191 237 291 345
#     4   9  18  34  59  83 109 154 190 238 288 345
#
# _framework density 20.213811
#
# number of rings (size 3 to 8) (size 9 to 14) (size 15 to 20)
#    0.000    2.400    0.000    1.200    8.400    1.600 
#    0.000   10.000   13.200    0.000    0.000    0.000 
#    0.000    0.000    0.000    0.000    0.000    0.000 
#
# Total GULP energy -247829.494084 kJ/mol
# GULP energy per Si atom -12391.474704 kJ/mol
# Density = 2.016780 g / cm^3
# Si number density = 20.213811 Si / 1000 Ang^3
#
#
#
# Elastic Constant Matrix: (Units=GPa)
#
#
# Indices 1 2 3 4 5 6 
#
# 1 62.4042 39.6412 18.6981 0.0000 0.0000 0.0000
# 2 39.6412 104.6364 46.5604 0.0000 0.0000 0.0000
# 3 18.6981 46.5604 73.0234 0.0000 0.0000 0.0000
# 4 0.0000 0.0000 0.0000 29.6845 0.0000 0.0000
# 5 0.0000 0.0000 0.0000 0.0000 24.7292 0.0000
# 6 0.0000 0.0000 0.0000 0.0000 0.0000 37.2320
#
#
#
# Elastic Compliance Matrix: (Units=1/GPa)
#
#
# Indices 1 2 3 4 5 6 
#
# 1 0.021113 -0.007808 -0.000427 0.000000 0.000000 0.000000
# 2 -0.007808 0.016230 -0.008349 0.000000 0.000000 0.000000
# 3 -0.000427 -0.008349 0.019127 0.000000 0.000000 0.000000
# 4 0.000000 0.000000 0.000000 0.033688 0.000000 0.000000
# 5 0.000000 0.000000 0.000000 0.000000 0.040438 0.000000
# 6 0.000000 0.000000 0.000000 0.000000 0.000000 0.026859
#
#
# Mechanical properties :
#
#
# Convention : Reuss Voigt Hill
#
# Bulk Modulus (GPa) = 42.91779 49.98483 46.45131
# Shear Modulus (GPa) = 25.20276 27.34009 26.27143
#
# Velocity S-wave (km/s) = 3.53485 3.68169 3.60901
# Velocity P-wave (km/s) = 6.15940 6.54636 6.35583
#
# Compressibility (1/GPa) = 0.02330036
#
# Stress axis : x y z
#
# Youngs Moduli (GPa) = 47.36481 61.61348 52.28168
#
# Poissons Ratio (x) = 0.48110 0.02234
# Poissons Ratio (y) = 0.36984 0.43651
# Poissons Ratio (z) = 0.02024 0.51442
#
# Static dielectric constant tensor:
#      x y z
#    x 3.833180 0.000000 0.000000 
#    y 0.000000 3.670220 0.000000 
#    z 0.000000 0.000000 3.699860 
# 
# 
# High freq. dielectric constant tensor:
#      x y z
#    x 1.787680 0.000000 0.000000 
#    y 0.000000 1.782930 0.000000 
#    z 0.000000 0.000000 1.782520 
# 
# From -- ./inp_files/6034.got.cif
#   From: 2010.03.12/outbox.cif.g09.slc.cpg/sg20_4_cif.got.tgz:6034.got - 2010.04.14 01:38:04.
