data_PCOD8159443
_publ_section_title
;
Structure prediction by ZEFSAII (Michael W. Deem and Ramdas Pophale) SiO2 
 PCOD8159443
Probable space group: C 2 2 21
;
_chemical_formula_sum "Si O2"
_cell_formula_units_Z 56
_cell_length_a 22.580726
_cell_length_b 7.736433
_cell_length_c 14.925792
_cell_angle_alpha 90.000000
_cell_angle_beta 90.000000
_cell_angle_gamma 90.000000
_cell_volume 2607.450394
_symmetry_space_group_name_H-M "C 2 2 21"
_symmetry_group_IT_number 20
_symmetry_cell_setting 'orthorhombic'
loop_
_space_group_symop_operation_xyz
x,y,z
-x,-y,1/2+z
x,-y,-z
-x,y,1/2-z
1/2+x,1/2+y,z
1/2-x,1/2-y,1/2+z
1/2+x,1/2-y,-z
1/2-x,1/2+y,1/2-z
loop_
_atom_site_type_symbol
_atom_site_label
_atom_site_fract_x
_atom_site_fract_y
_atom_site_fract_z
Si Si1 0.534027 0.886758 0.656721
Si Si2 0.455207 0.000000 0.500000
Si Si3 0.067166 0.965223 0.268990
Si Si4 0.357320 0.136257 0.619420
Si Si5 0.143777 0.018615 0.900625
Si Si6 0.879171 0.672279 0.814040
Si Si7 0.237465 0.500000 0.000000
Si Si8 0.269556 0.846282 0.065584
O O1 0.500000 0.920618 0.750000
O O2 0.491255 0.881750 0.570377
O O3 0.568642 0.702791 0.665846
O O4 0.576674 0.047760 0.631707
O O5 0.413725 0.865802 0.446553
O O6 0.000000 0.021850 0.250000
O O7 0.097199 0.913769 0.173406
O O8 0.099464 0.127990 0.315215
O O9 0.332272 0.330348 0.626891
O O10 0.378957 0.081860 0.717062
O O11 0.304439 0.013445 0.587489
O O12 0.201233 0.142153 0.902746
O O13 0.114959 0.000000 0.000000
O O14 0.812861 0.659663 0.850490
O O15 0.278199 0.332356 0.988644
O O16 0.287933 0.000000 0.000000
#
# Coordination Sequence:
#
# PCOD8159443 Si02
#       8
#     8   4   8   8   8   8   4   8
#     4  11  24  45  71 101 142 180 233 289 358 430
#     4  11  24  42  72 104 136 188 225 294 360 426
#     4  10  25  43  67 107 136 176 232 291 351 426
#     4  10  22  40  72  99 126 177 235 280 345 415
#     4  10  21  42  68 101 134 176 233 289 344 411
#     4  11  25  45  66  98 141 181 227 288 350 418
#     4  11  22  42  68  96 130 174 231 284 344 402
#     4  11  25  45  67  97 138 181 235 290 346 418
#
# _framework density 21.47692
#
# number of rings (size 3 to 8) (size 9 to 14) (size 15 to 20)
#    0.000    1.429    4.286    0.429    9.000    3.429 
#    0.000    0.000    0.000    0.000    0.000    0.000 
#    0.000    0.000    0.000    0.000    0.000    0.000 
#
# Total GULP energy -347113.824497 kJ/mol
# GULP energy per Si atom -12396.922303 kJ/mol
# Density = 2.142804 g / cm^3
# Si number density = 21.476920 Si / 1000 Ang^3
#
#
#
# Elastic Constant Matrix: (Units=GPa)
#
#
# Indices 1 2 3 4 5 6 
#
# 1 83.5707 33.5922 58.3665 0.0000 0.0000 0.0000
# 2 33.5922 136.6244 40.9260 0.0000 0.0000 0.0000
# 3 58.3665 40.9260 111.5346 0.0000 0.0000 0.0000
# 4 0.0000 0.0000 0.0000 26.8690 0.0000 0.0000
# 5 0.0000 0.0000 0.0000 0.0000 37.8907 0.0000
# 6 0.0000 0.0000 0.0000 0.0000 0.0000 7.0883
#
#
#
# Elastic Compliance Matrix: (Units=1/GPa)
#
#
# Indices 1 2 3 4 5 6 
#
# 1 0.019302 -0.001933 -0.009392 0.000000 0.000000 0.000000
# 2 -0.001933 0.008417 -0.002077 0.000000 0.000000 0.000000
# 3 -0.009392 -0.002077 0.014643 0.000000 0.000000 0.000000
# 4 0.000000 0.000000 0.000000 0.037218 0.000000 0.000000
# 5 0.000000 0.000000 0.000000 0.000000 0.026392 0.000000
# 6 0.000000 0.000000 0.000000 0.000000 0.000000 0.141077
#
#
# Mechanical properties :
#
#
# Convention : Reuss Voigt Hill
#
# Bulk Modulus (GPa) = 64.27252 66.38879 65.33066
# Shear Modulus (GPa) = 17.91884 27.62595 22.77239
#
# Velocity S-wave (km/s) = 2.89161 3.59041 3.25979
# Velocity P-wave (km/s) = 6.41403 6.94023 6.68231
#
# Compressibility (1/GPa) = 0.01555875
#
# Stress axis : x y z
#
# Youngs Moduli (GPa) = 51.80828 118.81159 68.29359
#
# Poissons Ratio (x) = 0.22961 0.64139
# Poissons Ratio (y) = 0.10012 0.14185
# Poissons Ratio (z) = 0.48657 0.24678
#
# Static dielectric constant tensor:
#      x y z
#    x 3.719140 0.000000 0.000000 
#    y 0.000000 3.934540 0.000000 
#    z 0.000000 0.000000 3.926620 
# 
# 
# High freq. dielectric constant tensor:
#      x y z
#    x 1.829480 0.000000 0.000000 
#    y 0.000000 1.854190 0.000000 
#    z 0.000000 0.000000 1.833730 
# 
# From -- ./inp_files/21813.got.cif
#   From: 2010.03.12/outbox.cif.g09.slc.cpg/sg20_11_cif.got.tgz:21813.got - 2010.04.14 01:38:04.
