data_PCOD8159519
_publ_section_title
;
Structure prediction by ZEFSAII (Michael W. Deem and Ramdas Pophale) SiO2 
 PCOD8159519
Probable space group: C 2 2 21
;
_chemical_formula_sum "Si O2"
_cell_formula_units_Z 28
_cell_length_a 26.616814
_cell_length_b 6.020855
_cell_length_c 7.387503
_cell_angle_alpha 90.000000
_cell_angle_beta 90.000000
_cell_angle_gamma 90.000000
_cell_volume 1183.891516
_symmetry_space_group_name_H-M "C 2 2 21"
_symmetry_group_IT_number 20
_symmetry_cell_setting 'orthorhombic'
loop_
_space_group_symop_operation_xyz
x,y,z
-x,-y,1/2+z
x,-y,-z
-x,y,1/2-z
1/2+x,1/2+y,z
1/2-x,1/2-y,1/2+z
1/2+x,1/2-y,-z
1/2-x,1/2+y,1/2-z
loop_
_atom_site_type_symbol
_atom_site_label
_atom_site_fract_x
_atom_site_fract_y
_atom_site_fract_z
Si Si1 0.184762 0.178932 0.643728
Si Si2 0.406103 0.874790 0.686361
Si Si3 0.043479 0.000000 0.000000
Si Si4 0.500000 0.847963 0.250000
Si Si5 0.233059 0.000000 0.000000
O O1 0.142092 0.365115 0.682186
O O2 0.233611 0.290583 0.557363
O O3 0.164090 0.000000 0.500000
O O4 0.197618 0.063783 0.833679
O O5 0.421896 0.617741 0.650723
O O6 0.391735 0.000000 0.500000
O O7 0.451117 0.002710 0.787225
O O8 0.008075 0.194734 0.075451
#
# Coordination Sequence:
#
# PCOD8159519 Si02
#       5
#     8   8   4   4   4
#     4  12  27  49  78 110 148 193 244 311 378 442
#     4  10  24  45  75 108 150 192 248 301 365 449
#     4  10  21  46  70 100 154 196 232 301 362 428
#     4  10  22  46  72 106 148 196 234 304 358 440
#     4  12  27  48  76 112 148 190 244 311 374 450
#
# _framework density 23.650815999999999
#
# number of rings (size 3 to 8) (size 9 to 14) (size 15 to 20)
#    0.000    1.143    2.857    1.714    4.000    4.571 
#   33.429    0.000    0.000    0.000    0.000    0.000 
#    0.000    0.000    0.000    0.000    0.000    0.000 
#
# Total GULP energy -173668.983931 kJ/mol
# GULP energy per Si atom -12404.927424 kJ/mol
# Density = 2.359699 g / cm^3
# Si number density = 23.650816 Si / 1000 Ang^3
#
#
#
# Elastic Constant Matrix: (Units=GPa)
#
#
# Indices 1 2 3 4 5 6 
#
# 1 138.9166 51.2177 56.0918 0.0000 0.0000 0.0000
# 2 51.2177 114.0998 38.1315 0.0000 0.0000 0.0000
# 3 56.0918 38.1315 120.0837 0.0000 0.0000 0.0000
# 4 0.0000 0.0000 0.0000 47.5149 0.0000 0.0000
# 5 0.0000 0.0000 0.0000 0.0000 33.3364 0.0000
# 6 0.0000 0.0000 0.0000 0.0000 0.0000 29.7593
#
#
#
# Elastic Compliance Matrix: (Units=1/GPa)
#
#
# Indices 1 2 3 4 5 6 
#
# 1 0.009826 -0.003218 -0.003568 0.000000 0.000000 0.000000
# 2 -0.003218 0.010859 -0.001945 0.000000 0.000000 0.000000
# 3 -0.003568 -0.001945 0.010612 0.000000 0.000000 0.000000
# 4 0.000000 0.000000 0.000000 0.021046 0.000000 0.000000
# 5 0.000000 0.000000 0.000000 0.000000 0.029997 0.000000
# 6 0.000000 0.000000 0.000000 0.000000 0.000000 0.033603
#
#
# Mechanical properties :
#
#
# Convention : Reuss Voigt Hill
#
# Bulk Modulus (GPa) = 72.28333 73.77580 73.02956
# Shear Modulus (GPa) = 36.22781 37.29940 36.76361
#
# Velocity S-wave (km/s) = 3.91804 3.97556 3.94691
# Velocity P-wave (km/s) = 7.14823 7.23429 7.19139
#
# Compressibility (1/GPa) = 0.01383445
#
# Stress axis : x y z
#
# Youngs Moduli (GPa) = 101.77392 92.09062 94.23663
#
# Poissons Ratio (x) = 0.29638 0.33621
# Poissons Ratio (y) = 0.32754 0.18328
# Poissons Ratio (z) = 0.36310 0.17910
#
# Static dielectric constant tensor:
#      x y z
#    x 4.217100 0.000000 0.000000 
#    y 0.000000 4.368370 0.000000 
#    z 0.000000 0.000000 4.244790 
# 
# 
# High freq. dielectric constant tensor:
#      x y z
#    x 1.933920 0.000000 0.000000 
#    y 0.000000 1.946870 0.000000 
#    z 0.000000 0.000000 1.937900 
# 
# From -- ./inp_files/5087.got.cif
#   From: 2010.03.12/outbox.cif.g09.slc.cpg/sg20_3_cif.got.tgz:5087.got - 2010.04.14 01:38:04.
