data_PCOD8159779
_publ_section_title
;
Structure prediction by ZEFSAII (Michael W. Deem and Ramdas Pophale) SiO2 
 PCOD8159779
Probable space group: C 2 2 21
;
_chemical_formula_sum "Si O2"
_cell_formula_units_Z 44
_cell_length_a 10.418318
_cell_length_b 19.028619
_cell_length_c 10.722834
_cell_angle_alpha 90.000000
_cell_angle_beta 90.000000
_cell_angle_gamma 90.000000
_cell_volume 2125.761135
_symmetry_space_group_name_H-M "C 2 2 21"
_symmetry_group_IT_number 20
_symmetry_cell_setting 'orthorhombic'
loop_
_space_group_symop_operation_xyz
x,y,z
-x,-y,1/2+z
x,-y,-z
-x,y,1/2-z
1/2+x,1/2+y,z
1/2-x,1/2-y,1/2+z
1/2+x,1/2-y,-z
1/2-x,1/2+y,1/2-z
loop_
_atom_site_type_symbol
_atom_site_label
_atom_site_fract_x
_atom_site_fract_y
_atom_site_fract_z
Si Si1 0.099619 0.000000 0.000000
Si Si2 0.282082 0.197558 0.367627
Si Si3 0.500000 0.875402 0.250000
Si Si4 0.000000 0.381112 0.750000
Si Si5 0.465894 0.380285 0.881223
Si Si6 0.653699 0.002859 0.635083
Si Si7 0.142583 0.745750 0.873848
O O1 0.191301 0.004574 0.877647
O O2 0.010192 0.931263 0.992628
O O3 0.426968 0.168753 0.348743
O O4 0.185718 0.132777 0.392579
O O5 0.237564 0.241270 0.244360
O O6 0.280733 0.243986 0.494674
O O7 0.387486 0.925749 0.201390
O O8 0.435284 0.826882 0.355613
O O9 0.113505 0.430234 0.699023
O O10 0.500000 0.417597 0.750000
O O11 0.538087 0.306232 0.885664
O O12 0.585919 0.000000 0.500000
#
# Coordination Sequence:
#
# PCOD8159779 Si02
#       7
#     4   8   4   4   8   8   8
#     4  10  22  42  68  84 130 174 224 266 338 402
#     4  11  25  41  70  96 139 177 223 281 341 407
#     4  11  20  40  64  96 133 176 226 282 329 400
#     4  11  22  42  66  98 131 176 228 278 333 402
#     4  10  22  45  63  92 130 178 215 279 344 392
#     4   9  21  37  66  96 125 176 224 274 333 397
#     4  11  24  42  67  97 137 176 226 279 339 403
#
# _framework density 20.698467000000001
#
# number of rings (size 3 to 8) (size 9 to 14) (size 15 to 20)
#    0.545    1.091    2.727    3.273    5.091    0.000 
#   11.455    0.000    0.000    0.000    0.000    0.000 
#    0.000    0.000    0.000    0.000    0.000    0.000 
#
# Total GULP energy -272643.358244 kJ/mol
# GULP energy per Si atom -12392.879920 kJ/mol
# Density = 2.065136 g / cm^3
# Si number density = 20.698467 Si / 1000 Ang^3
#
#
#
# Elastic Constant Matrix: (Units=GPa)
#
#
# Indices 1 2 3 4 5 6 
#
# 1 112.2063 41.2172 41.0743 0.0000 0.0000 0.0000
# 2 41.2172 98.4763 36.5811 0.0000 0.0000 0.0000
# 3 41.0743 36.5811 112.2256 0.0000 0.0000 0.0000
# 4 0.0000 0.0000 0.0000 25.7903 0.0000 0.0000
# 5 0.0000 0.0000 0.0000 0.0000 34.0374 0.0000
# 6 0.0000 0.0000 0.0000 0.0000 0.0000 -2.8619
#
#
#
# Elastic Compliance Matrix: (Units=1/GPa)
#
#
# Indices 1 2 3 4 5 6 
#
# 1 0.011335 -0.003644 -0.002961 0.000000 0.000000 0.000000
# 2 -0.003644 0.012725 -0.002814 0.000000 0.000000 0.000000
# 3 -0.002961 -0.002814 0.010911 0.000000 0.000000 0.000000
# 4 0.000000 0.000000 0.000000 0.038774 0.000000 0.000000
# 5 0.000000 0.000000 0.000000 0.000000 0.029379 0.000000
# 6 0.000000 0.000000 0.000000 0.000000 0.000000 -0.349415
#
#
# Mechanical properties :
#
#
# Convention : Reuss Voigt Hill
#
# Bulk Modulus (GPa) = 61.98304 62.29482 62.13893
# Shear Modulus (GPa) = -22.51507 24.99552 1.24023
#
# Velocity S-wave (km/s) = -3.30171 3.47883 0.77491
# Velocity P-wave (km/s) = 3.93392 6.80426 5.55759
#
# Compressibility (1/GPa) = 0.01613345
#
# Stress axis : x y z
#
# Youngs Moduli (GPa) = 88.22565 78.58270 91.64664
#
# Poissons Ratio (x) = 0.28638 0.27132
# Poissons Ratio (y) = 0.32152 0.25791
# Poissons Ratio (z) = 0.26119 0.22115
#
# Static dielectric constant tensor:
#      x y z
#    x 3.660150 0.000000 0.000000 
#    y 0.000000 3.555740 0.000000 
#    z 0.000000 0.000000 3.982370 
# 
# 
# High freq. dielectric constant tensor:
#      x y z
#    x 1.808550 0.000000 0.000000 
#    y 0.000000 1.805330 0.000000 
#    z 0.000000 0.000000 1.799910 
# 
# From -- ./inp_files/14089.got.cif
#   From: 2010.03.12/outbox.cif.g09.slc.cpg/sg20_8_cif.got.tgz:14089.got - 2010.04.14 01:38:04.
