data_PCOD8159496
_publ_section_title
;
Structure prediction by ZEFSAII (Michael W. Deem and Ramdas Pophale) SiO2 
 PCOD8159496
Probable space group: C 2 2 21
;
_chemical_formula_sum "Si O2"
_cell_formula_units_Z 44
_cell_length_a 15.155373
_cell_length_b 14.610162
_cell_length_c 9.461349
_cell_angle_alpha 90.000000
_cell_angle_beta 90.000000
_cell_angle_gamma 90.000000
_cell_volume 2094.955120
_symmetry_space_group_name_H-M "C 2 2 21"
_symmetry_group_IT_number 20
_symmetry_cell_setting 'orthorhombic'
loop_
_space_group_symop_operation_xyz
x,y,z
-x,-y,1/2+z
x,-y,-z
-x,y,1/2-z
1/2+x,1/2+y,z
1/2-x,1/2-y,1/2+z
1/2+x,1/2-y,-z
1/2-x,1/2+y,1/2-z
loop_
_atom_site_type_symbol
_atom_site_label
_atom_site_fract_x
_atom_site_fract_y
_atom_site_fract_z
Si Si1 0.904062 0.178065 0.052759
Si Si2 0.322095 0.911733 0.320965
Si Si3 0.831071 0.790740 0.245860
Si Si4 0.228341 0.393579 0.857061
Si Si5 0.457297 0.433255 0.390663
Si Si6 0.500000 0.819841 0.250000
O O1 0.832447 0.131854 0.159376
O O2 0.961396 0.256554 0.126691
O O3 0.854133 0.220584 0.918297
O O4 0.965780 0.098173 0.996223
O O5 0.264223 0.838745 0.232583
O O6 0.293192 0.908518 0.481247
O O7 0.424684 0.887877 0.307092
O O8 0.297492 0.014895 0.268621
O O9 0.831807 0.688691 0.303355
O O10 0.900956 0.847554 0.337650
O O11 0.403495 0.500000 0.500000
O O12 0.500000 0.480999 0.250000
#
# Coordination Sequence:
#
# PCOD8159496 Si02
#       6
#     8   8   8   8   8   4
#     4  10  23  38  69  91 128 172 213 271 334 394
#     4  10  23  40  68  93 127 177 217 266 335 397
#     4  10  21  45  63  94 130 174 214 268 341 397
#     4  10  21  44  66  86 131 175 211 267 336 395
#     4  10  23  39  63  99 132 164 219 275 332 395
#     4  12  22  44  62 102 124 166 234 270 312 404
#
# _framework density 21.002835000000001
#
# number of rings (size 3 to 8) (size 9 to 14) (size 15 to 20)
#    0.000    1.818    1.818    1.091    8.909    0.000 
#   18.000    0.000    0.000    0.000    0.000    0.000 
#    0.000    0.000    0.000    0.000    0.000    0.000 
#
# Total GULP energy -272694.695406 kJ/mol
# GULP energy per Si atom -12395.213428 kJ/mol
# Density = 2.095503 g / cm^3
# Si number density = 21.002835 Si / 1000 Ang^3
#
#
#
# Elastic Constant Matrix: (Units=GPa)
#
#
# Indices 1 2 3 4 5 6 
#
# 1 116.2108 44.9683 29.9631 0.0000 0.0000 0.0000
# 2 44.9683 150.0783 51.3254 0.0000 0.0000 0.0000
# 3 29.9631 51.3254 60.3200 0.0000 0.0000 0.0000
# 4 0.0000 0.0000 0.0000 29.2662 0.0000 0.0000
# 5 0.0000 0.0000 0.0000 0.0000 21.0129 0.0000
# 6 0.0000 0.0000 0.0000 0.0000 0.0000 97.5560
#
#
#
# Elastic Compliance Matrix: (Units=1/GPa)
#
#
# Indices 1 2 3 4 5 6 
#
# 1 0.010229 -0.001872 -0.003488 0.000000 0.000000 0.000000
# 2 -0.001872 0.009741 -0.007358 0.000000 0.000000 0.000000
# 3 -0.003488 -0.007358 0.024572 0.000000 0.000000 0.000000
# 4 0.000000 0.000000 0.000000 0.034169 0.000000 0.000000
# 5 0.000000 0.000000 0.000000 0.000000 0.047590 0.000000
# 6 0.000000 0.000000 0.000000 0.000000 0.000000 0.010251
#
#
# Mechanical properties :
#
#
# Convention : Reuss Voigt Hill
#
# Bulk Modulus (GPa) = 52.34353 64.34698 58.34525
# Shear Modulus (GPa) = 29.69904 42.92382 36.31143
#
# Velocity S-wave (km/s) = 3.76446 4.52565 4.16249
# Velocity P-wave (km/s) = 6.62353 7.61659 7.13735
#
# Compressibility (1/GPa) = 0.01910456
#
# Stress axis : x y z
#
# Youngs Moduli (GPa) = 97.76328 102.66391 40.69683
#
# Poissons Ratio (x) = 0.19218 0.14196
# Poissons Ratio (y) = 0.18301 0.29946
# Poissons Ratio (z) = 0.34102 0.75542
#
# Static dielectric constant tensor:
#      x y z
#    x 3.963480 0.000000 0.000000 
#    y 0.000000 4.036170 0.000000 
#    z 0.000000 0.000000 2.594500 
# 
# 
# High freq. dielectric constant tensor:
#      x y z
#    x 1.822360 0.000000 0.000000 
#    y 0.000000 1.827710 0.000000 
#    z 0.000000 0.000000 1.810820 
# 
# From -- ./inp_files/9295.got.cif
#   From: 2010.03.12/outbox.cif.g09.slc.cpg/sg20_5_cif.got.tgz:9295.got - 2010.04.14 01:38:04.
