data_PCOD8159151
_publ_section_title
;
Structure prediction by ZEFSAII (Michael W. Deem and Ramdas Pophale) SiO2 
 PCOD8159151
Probable space group: C 2 2 21
;
_chemical_formula_sum "Si O2"
_cell_formula_units_Z 44
_cell_length_a 13.936254
_cell_length_b 20.471514
_cell_length_c 7.434333
_cell_angle_alpha 90.000000
_cell_angle_beta 90.000000
_cell_angle_gamma 90.000000
_cell_volume 2120.987095
_symmetry_space_group_name_H-M "C 2 2 21"
_symmetry_group_IT_number 20
_symmetry_cell_setting 'orthorhombic'
loop_
_space_group_symop_operation_xyz
x,y,z
-x,-y,1/2+z
x,-y,-z
-x,y,1/2-z
1/2+x,1/2+y,z
1/2-x,1/2-y,1/2+z
1/2+x,1/2-y,-z
1/2-x,1/2+y,1/2-z
loop_
_atom_site_type_symbol
_atom_site_label
_atom_site_fract_x
_atom_site_fract_y
_atom_site_fract_z
Si Si1 0.376006 0.250382 0.545335
Si Si2 0.095353 0.045948 0.335607
Si Si3 0.244322 0.364132 0.433507
Si Si4 0.782601 0.151755 0.963338
Si Si5 0.306877 0.500000 0.500000
Si Si6 0.592294 0.763214 0.466471
O O1 0.338291 0.321555 0.485354
O O2 0.306772 0.194610 0.459367
O O3 0.381518 0.252379 0.760234
O O4 0.481954 0.232410 0.476621
O O5 0.176561 0.098429 0.395724
O O6 0.000000 0.081267 0.250000
O O7 0.064508 0.000000 0.500000
O O8 0.131623 0.996081 0.182564
O O9 0.245184 0.379608 0.220683
O O10 0.244609 0.434722 0.525134
O O11 0.146900 0.330963 0.507205
O O12 0.865980 0.203887 0.915196
#
# Coordination Sequence:
#
# PCOD8159151 Si02
#       6
#     8   8   8   8   4   8
#     4   9  19  37  62  88 120 159 204 259 304 357
#     4  12  25  41  60  88 123 166 203 241 307 375
#     4  10  21  37  58  89 123 164 201 253 313 357
#     4  10  21  37  59  90 123 156 207 256 302 361
#     4  12  24  40  62  84 130 162 198 250 302 376
#     4   9  19  36  61  86 119 161 207 253 303 363
#
# _framework density 20.745059000000001
#
# number of rings (size 3 to 8) (size 9 to 14) (size 15 to 20)
#    0.000    1.818    2.727    1.091    5.091    2.182 
#    0.000    0.000    2.000    0.000    0.000    0.000 
#    0.000    0.000    0.000    0.000    0.000    0.000 
#
# Total GULP energy -272620.419167 kJ/mol
# GULP energy per Si atom -12391.837235 kJ/mol
# Density = 2.069784 g / cm^3
# Si number density = 20.745059 Si / 1000 Ang^3
#
#
#
# Elastic Constant Matrix: (Units=GPa)
#
#
# Indices 1 2 3 4 5 6 
#
# 1 154.1629 62.9883 13.5249 0.0000 0.0000 0.0000
# 2 62.9883 130.6599 33.2180 0.0000 0.0000 0.0000
# 3 13.5249 33.2180 45.7730 0.0000 0.0000 0.0000
# 4 0.0000 0.0000 0.0000 30.2400 0.0000 0.0000
# 5 0.0000 0.0000 0.0000 0.0000 26.0578 0.0000
# 6 0.0000 0.0000 0.0000 0.0000 0.0000 20.3673
#
#
#
# Elastic Compliance Matrix: (Units=1/GPa)
#
#
# Indices 1 2 3 4 5 6 
#
# 1 0.008089 -0.004036 0.000539 0.000000 0.000000 0.000000
# 2 -0.004036 0.011399 -0.007080 0.000000 0.000000 0.000000
# 3 0.000539 -0.007080 0.026826 0.000000 0.000000 0.000000
# 4 0.000000 0.000000 0.000000 0.033069 0.000000 0.000000
# 5 0.000000 0.000000 0.000000 0.000000 0.038376 0.000000
# 6 0.000000 0.000000 0.000000 0.000000 0.000000 0.049098
#
#
# Mechanical properties :
#
#
# Convention : Reuss Voigt Hill
#
# Bulk Modulus (GPa) = 39.74676 61.11757 50.43216
# Shear Modulus (GPa) = 25.45863 30.05734 27.75798
#
# Velocity S-wave (km/s) = 3.50696 3.81056 3.66191
# Velocity P-wave (km/s) = 5.96654 6.99183 6.49944
#
# Compressibility (1/GPa) = 0.02515928
#
# Stress axis : x y z
#
# Youngs Moduli (GPa) = 123.63169 87.72493 37.27791
#
# Poissons Ratio (x) = 0.35409 -0.02010
# Poissons Ratio (y) = 0.49903 0.26392
# Poissons Ratio (z) = -0.06667 0.62108
#
# Static dielectric constant tensor:
#      x y z
#    x 3.805790 0.000000 0.000000 
#    y 0.000000 3.593370 0.000000 
#    z 0.000000 0.000000 3.759040 
# 
# 
# High freq. dielectric constant tensor:
#      x y z
#    x 1.795930 0.000000 0.000000 
#    y 0.000000 1.796870 0.000000 
#    z 0.000000 0.000000 1.820660 
# 
# From -- ./inp_files/8293.got.cif
#   From: 2010.03.12/outbox.cif.g09.slc.cpg/sg20_5_cif.got.tgz:8293.got - 2010.04.14 01:38:04.
