data_PCOD8159040
_publ_section_title
;
Structure prediction by ZEFSAII (Michael W. Deem and Ramdas Pophale) SiO2 
 PCOD8159040
Probable space group: C 2 2 21
;
_chemical_formula_sum "Si O2"
_cell_formula_units_Z 56
_cell_length_a 20.997295
_cell_length_b 8.898216
_cell_length_c 14.349230
_cell_angle_alpha 90.000000
_cell_angle_beta 90.000000
_cell_angle_gamma 90.000000
_cell_volume 2680.988126
_symmetry_space_group_name_H-M "C 2 2 21"
_symmetry_group_IT_number 20
_symmetry_cell_setting 'orthorhombic'
loop_
_space_group_symop_operation_xyz
x,y,z
-x,-y,1/2+z
x,-y,-z
-x,y,1/2-z
1/2+x,1/2+y,z
1/2-x,1/2-y,1/2+z
1/2+x,1/2-y,-z
1/2-x,1/2+y,1/2-z
loop_
_atom_site_type_symbol
_atom_site_label
_atom_site_fract_x
_atom_site_fract_y
_atom_site_fract_z
Si Si1 0.210575 0.089154 0.188630
Si Si2 0.147540 0.000000 0.000000
Si Si3 0.564246 0.618661 0.574806
Si Si4 0.065226 0.394239 0.797941
Si Si5 0.669228 0.289818 0.292984
Si Si6 0.500000 0.536641 0.250000
Si Si7 0.443433 0.769500 0.513031
Si Si8 0.596735 0.214349 0.807606
O O1 0.281621 0.152911 0.194728
O O2 0.168459 0.235829 0.214223
O O3 0.194184 0.046548 0.083116
O O4 0.200265 0.947277 0.258156
O O5 0.101407 0.871112 0.038968
O O6 0.588474 0.500000 0.500000
O O7 0.630345 0.690922 0.610373
O O8 0.521370 0.560685 0.661410
O O9 0.518516 0.727581 0.514780
O O10 0.117746 0.267251 0.780839
O O11 0.062127 0.401118 0.910157
O O12 0.082336 0.558225 0.754128
O O13 0.000000 0.339029 0.750000
O O14 0.441716 0.641032 0.276566
O O15 0.420457 0.827035 0.413463
#
# Coordination Sequence:
#
# PCOD8159040 Si02
#       8
#     8   4   8   8   8   4   8   8
#     4  11  24  46  66  91 128 179 224 263 330 397
#     4  10  20  42  70  92 124 168 224 268 316 408
#     4  12  22  39  66 105 131 169 220 274 339 391
#     4  12  23  38  64 100 134 165 213 271 332 388
#     4  12  25  44  67  92 132 174 224 275 329 399
#     4  12  20  38  68  98 136 172 206 268 336 398
#     4  11  20  38  66  97 129 165 212 271 330 392
#     4  11  23  40  66  97 133 170 214 264 325 399
#
# _framework density 20.887822
#
# number of rings (size 3 to 8) (size 9 to 14) (size 15 to 20)
#    0.000    0.571    7.143    3.000    0.000    0.000 
#    2.571    2.857    0.000    0.000    0.000    0.000 
#    0.000    0.000    0.000    0.000    0.000    0.000 
#
# Total GULP energy -346978.620477 kJ/mol
# GULP energy per Si atom -12392.093588 kJ/mol
# Density = 2.084028 g / cm^3
# Si number density = 20.887822 Si / 1000 Ang^3
#
#
#
# Elastic Constant Matrix: (Units=GPa)
#
#
# Indices 1 2 3 4 5 6 
#
# 1 126.0435 40.5154 25.8945 0.0000 0.0000 0.0000
# 2 40.5154 92.6720 2.5358 0.0000 0.0000 0.0000
# 3 25.8945 2.5358 43.1829 0.0000 0.0000 0.0000
# 4 0.0000 0.0000 0.0000 17.8750 0.0000 0.0000
# 5 0.0000 0.0000 0.0000 0.0000 26.1793 0.0000
# 6 0.0000 0.0000 0.0000 0.0000 0.0000 -6.6373
#
#
#
# Elastic Compliance Matrix: (Units=1/GPa)
#
#
# Indices 1 2 3 4 5 6 
#
# 1 0.010629 -0.004480 -0.006111 0.000000 0.000000 0.000000
# 2 -0.004480 0.012696 0.001941 0.000000 0.000000 0.000000
# 3 -0.006111 0.001941 0.026708 0.000000 0.000000 0.000000
# 4 0.000000 0.000000 0.000000 0.055944 0.000000 0.000000
# 5 0.000000 0.000000 0.000000 0.000000 0.038198 0.000000
# 6 0.000000 0.000000 0.000000 0.000000 0.000000 -0.150663
#
#
# Mechanical properties :
#
#
# Convention : Reuss Voigt Hill
#
# Bulk Modulus (GPa) = 30.54974 44.42107 37.48540
# Shear Modulus (GPa) = 230.17025 20.34691 125.25858
#
# Velocity S-wave (km/s) = 10.50870 3.12445 7.75226
# Velocity P-wave (km/s) = 12.72403 5.85909 9.90530
#
# Compressibility (1/GPa) = 0.03273350
#
# Stress axis : x y z
#
# Youngs Moduli (GPa) = 94.08116 78.76408 37.44253
#
# Poissons Ratio (x) = 0.35284 0.22880
# Poissons Ratio (y) = 0.42146 -0.07267
# Poissons Ratio (z) = 0.57490 -0.15286
#
# Static dielectric constant tensor:
#      x y z
#    x 3.450540 0.000000 0.000000 
#    y 0.000000 3.840450 0.000000 
#    z 0.000000 0.000000 3.767900 
# 
# 
# High freq. dielectric constant tensor:
#      x y z
#    x 1.810670 0.000000 0.000000 
#    y 0.000000 1.831250 0.000000 
#    z 0.000000 0.000000 1.809600 
# 
# From -- ./inp_files/21795.got.cif
#   From: 2010.03.12/outbox.cif.g09.slc.cpg/sg20_11_cif.got.tgz:21795.got - 2010.04.14 01:38:04.
