data_PCOD8159375
_publ_section_title
;
Structure prediction by ZEFSAII (Michael W. Deem and Ramdas Pophale) SiO2 
 PCOD8159375
Probable space group: C 2 2 21
;
_chemical_formula_sum "Si O2"
_cell_formula_units_Z 56
_cell_length_a 14.440149
_cell_length_b 15.039550
_cell_length_c 12.945348
_cell_angle_alpha 90.000000
_cell_angle_beta 90.000000
_cell_angle_gamma 90.000000
_cell_volume 2811.384500
_symmetry_space_group_name_H-M "C 2 2 21"
_symmetry_group_IT_number 20
_symmetry_cell_setting 'orthorhombic'
loop_
_space_group_symop_operation_xyz
x,y,z
-x,-y,1/2+z
x,-y,-z
-x,y,1/2-z
1/2+x,1/2+y,z
1/2-x,1/2-y,1/2+z
1/2+x,1/2-y,-z
1/2-x,1/2+y,1/2-z
loop_
_atom_site_type_symbol
_atom_site_label
_atom_site_fract_x
_atom_site_fract_y
_atom_site_fract_z
Si Si1 0.177854 0.269846 0.232801
Si Si2 0.652033 0.786344 0.850716
Si Si3 0.339403 0.968029 0.204431
Si Si4 0.000000 0.407488 0.750000
Si Si5 0.260074 0.552122 0.100983
Si Si6 0.942330 0.125005 0.154829
Si Si7 0.230924 0.000000 0.000000
Si Si8 0.883294 0.828841 0.537904
O O1 0.287706 0.255565 0.256498
O O2 0.142255 0.369331 0.253435
O O3 0.114355 0.209314 0.304794
O O4 0.163169 0.243429 0.113755
O O5 0.561465 0.842382 0.819916
O O6 0.720235 0.849423 0.915962
O O7 0.619502 0.705141 0.921180
O O8 0.291771 0.961266 0.093161
O O9 0.432715 0.025991 0.186413
O O10 0.277168 0.015345 0.290720
O O11 0.371601 0.552368 0.109292
O O12 0.227459 0.500000 0.000000
O O13 0.000000 0.082370 0.250000
O O14 0.009416 0.156369 0.063872
O O15 0.169344 0.077988 0.048072
#
# Coordination Sequence:
#
# PCOD8159375 Si02
#       8
#     8   8   8   4   8   8   4   8
#     4  10  21  42  66  89 127 176 211 257 334 399
#     4  10  21  44  60  90 129 168 207 265 334 381
#     4  11  23  42  67  98 132 167 220 270 332 388
#     4  10  24  42  66  96 136 162 224 282 312 392
#     4  10  21  41  63  90 126 170 211 260 322 387
#     4   9  20  37  59  87 122 164 209 258 310 384
#     4  12  24  42  64 100 128 178 214 282 332 396
#     4  11  22  39  66  90 129 169 221 264 324 394
#
# _framework density 19.919011000000001
#
# number of rings (size 3 to 8) (size 9 to 14) (size 15 to 20)
#    0.000    1.714    1.429    4.286    4.000    1.143 
#   12.857    0.000    0.000    0.000    0.000    0.000 
#    0.000    0.000    0.000    0.000    0.000    0.000 
#
# Total GULP energy -347137.611357 kJ/mol
# GULP energy per Si atom -12397.771834 kJ/mol
# Density = 1.987367 g / cm^3
# Si number density = 19.919011 Si / 1000 Ang^3
#
#
#
# Elastic Constant Matrix: (Units=GPa)
#
#
# Indices 1 2 3 4 5 6 
#
# 1 116.0477 19.0483 37.1134 0.0000 0.0000 0.0000
# 2 19.0483 69.1534 13.6769 0.0000 0.0000 0.0000
# 3 37.1134 13.6769 77.9214 0.0000 0.0000 0.0000
# 4 0.0000 0.0000 0.0000 34.8699 0.0000 0.0000
# 5 0.0000 0.0000 0.0000 0.0000 21.9294 0.0000
# 6 0.0000 0.0000 0.0000 0.0000 0.0000 25.8929
#
#
#
# Elastic Compliance Matrix: (Units=1/GPa)
#
#
# Indices 1 2 3 4 5 6 
#
# 1 0.010415 -0.001956 -0.004617 0.000000 0.000000 0.000000
# 2 -0.001956 0.015348 -0.001762 0.000000 0.000000 0.000000
# 3 -0.004617 -0.001762 0.015342 0.000000 0.000000 0.000000
# 4 0.000000 0.000000 0.000000 0.028678 0.000000 0.000000
# 5 0.000000 0.000000 0.000000 0.000000 0.045601 0.000000
# 6 0.000000 0.000000 0.000000 0.000000 0.000000 0.038621
#
#
# Mechanical properties :
#
#
# Convention : Reuss Voigt Hill
#
# Bulk Modulus (GPa) = 40.92650 44.75552 42.84101
# Shear Modulus (GPa) = 27.96119 29.42403 28.69261
#
# Velocity S-wave (km/s) = 3.75072 3.84758 3.79946
# Velocity P-wave (km/s) = 6.27282 6.50047 6.38766
#
# Compressibility (1/GPa) = 0.02443404
#
# Stress axis : x y z
#
# Youngs Moduli (GPa) = 96.01739 65.15571 65.18081
#
# Poissons Ratio (x) = 0.12742 0.30095
# Poissons Ratio (y) = 0.18777 0.11488
# Poissons Ratio (z) = 0.44333 0.11483
#
# Static dielectric constant tensor:
#      x y z
#    x 3.928930 0.000000 0.000000 
#    y 0.000000 3.670820 0.000000 
#    z 0.000000 0.000000 3.474110 
# 
# 
# High freq. dielectric constant tensor:
#      x y z
#    x 1.784520 0.000000 0.000000 
#    y 0.000000 1.778690 0.000000 
#    z 0.000000 0.000000 1.768100 
# 
# From -- ./inp_files/20888.got.cif
#   From: 2010.03.12/outbox.cif.g09.slc.cpg/sg20_11_cif.got.tgz:20888.got - 2010.04.14 01:38:04.
