data_PCOD8159422
_publ_section_title
;
Structure prediction by ZEFSAII (Michael W. Deem and Ramdas Pophale) SiO2 
 PCOD8159422
Probable space group: C 2 2 21
;
_chemical_formula_sum "Si O2"
_cell_formula_units_Z 48
_cell_length_a 17.487840
_cell_length_b 5.153385
_cell_length_c 24.639109
_cell_angle_alpha 90.000000
_cell_angle_beta 90.000000
_cell_angle_gamma 90.000000
_cell_volume 2220.515244
_symmetry_space_group_name_H-M "C 2 2 21"
_symmetry_group_IT_number 20
_symmetry_cell_setting 'orthorhombic'
loop_
_space_group_symop_operation_xyz
x,y,z
-x,-y,1/2+z
x,-y,-z
-x,y,1/2-z
1/2+x,1/2+y,z
1/2-x,1/2-y,1/2+z
1/2+x,1/2-y,-z
1/2-x,1/2+y,1/2-z
loop_
_atom_site_type_symbol
_atom_site_label
_atom_site_fract_x
_atom_site_fract_y
_atom_site_fract_z
Si Si1 0.714807 0.348971 0.167964
Si Si2 0.551943 0.249299 0.463594
Si Si3 0.524302 0.206668 0.670120
Si Si4 0.348543 0.525428 0.219732
Si Si5 0.351290 0.122520 0.129062
Si Si6 0.555088 0.271026 0.133053
O O1 0.672316 0.480463 0.218486
O O2 0.761647 0.553099 0.130941
O O3 0.646943 0.241669 0.130363
O O4 0.773699 0.136873 0.189742
O O5 0.541566 0.500000 0.500000
O O6 0.626681 0.287864 0.424340
O O7 0.476448 0.206635 0.426727
O O8 0.564935 0.000000 0.500000
O O9 0.575215 0.290371 0.723040
O O10 0.472488 0.441164 0.648732
O O11 0.593472 0.133112 0.627592
O O12 0.473660 0.946113 0.676703
O O13 0.372464 0.273587 0.185023
#
# Coordination Sequence:
#
# PCOD8159422 Si02
#       6
#     8   8   8   8   8   8
#     4  11  25  39  69 100 146 177 214 273 342 399
#     4  11  23  44  75  93 123 177 235 285 340 393
#     4  10  21  42  64  91 138 171 227 259 324 397
#     4  11  21  43  64 100 137 188 216 255 328 421
#     4  10  22  44  68  97 135 176 228 269 329 411
#     4  11  24  44  67 101 133 171 219 292 332 386
#
# _framework density 21.616603000000001
#
# number of rings (size 3 to 8) (size 9 to 14) (size 15 to 20)
#    0.000    1.333    5.000    2.000    4.667    0.667 
#    3.000    0.833    0.000    0.000    0.000    0.000 
#    0.000    0.000    0.000    0.000    0.000    0.000 
#
# Total GULP energy -297337.486117 kJ/mol
# GULP energy per Si atom -12389.061922 kJ/mol
# Density = 2.156740 g / cm^3
# Si number density = 21.616603 Si / 1000 Ang^3
#
#
#
# Elastic Constant Matrix: (Units=GPa)
#
#
# Indices 1 2 3 4 5 6 
#
# 1 125.4832 27.6122 24.9805 0.0000 0.0000 0.0000
# 2 27.6122 93.3127 3.4096 0.0000 0.0000 0.0000
# 3 24.9805 3.4096 71.3482 0.0000 0.0000 0.0000
# 4 0.0000 0.0000 0.0000 25.5068 0.0000 0.0000
# 5 0.0000 0.0000 0.0000 0.0000 27.8358 0.0000
# 6 0.0000 0.0000 0.0000 0.0000 0.0000 36.0931
#
#
#
# Elastic Compliance Matrix: (Units=1/GPa)
#
#
# Indices 1 2 3 4 5 6 
#
# 1 0.009154 -0.002596 -0.003081 0.000000 0.000000 0.000000
# 2 -0.002596 0.011472 0.000361 0.000000 0.000000 0.000000
# 3 -0.003081 0.000361 0.015077 0.000000 0.000000 0.000000
# 4 0.000000 0.000000 0.000000 0.039205 0.000000 0.000000
# 5 0.000000 0.000000 0.000000 0.000000 0.035925 0.000000
# 6 0.000000 0.000000 0.000000 0.000000 0.000000 0.027706
#
#
# Mechanical properties :
#
#
# Convention : Reuss Voigt Hill
#
# Bulk Modulus (GPa) = 39.88800 44.68318 42.28559
# Shear Modulus (GPa) = 31.74034 33.49659 32.61847
#
# Velocity S-wave (km/s) = 3.83604 3.94074 3.88874
# Velocity P-wave (km/s) = 6.17356 6.43596 6.30612
#
# Compressibility (1/GPa) = 0.02507020
#
# Stress axis : x y z
#
# Youngs Moduli (GPa) = 109.24435 87.17113 66.32525
#
# Poissons Ratio (x) = 0.22631 0.20434
# Poissons Ratio (y) = 0.28361 -0.02393
# Poissons Ratio (z) = 0.33657 -0.03145
#
# Static dielectric constant tensor:
#      x y z
#    x 4.172240 0.000000 0.000000 
#    y 0.000000 3.976170 0.000000 
#    z 0.000000 0.000000 3.843330 
# 
# 
# High freq. dielectric constant tensor:
#      x y z
#    x 1.857850 0.000000 0.000000 
#    y 0.000000 1.859430 0.000000 
#    z 0.000000 0.000000 1.813060 
# 
# From -- ./inp_files/29414.got.cif
#   From: 2010.03.12/outbox.cif.g09.slc.cpg/sg20_15_cif.got.tgz:29414.got - 2010.04.14 01:38:04.
