data_PCOD8159124
_publ_section_title
;
Structure prediction by ZEFSAII (Michael W. Deem and Ramdas Pophale) SiO2 
 PCOD8159124
Probable space group: C 2 2 21
;
_chemical_formula_sum "Si O2"
_cell_formula_units_Z 60
_cell_length_a 22.961316
_cell_length_b 5.254063
_cell_length_c 25.367361
_cell_angle_alpha 90.000000
_cell_angle_beta 90.000000
_cell_angle_gamma 90.000000
_cell_volume 3060.323525
_symmetry_space_group_name_H-M "C 2 2 21"
_symmetry_group_IT_number 20
_symmetry_cell_setting 'orthorhombic'
loop_
_space_group_symop_operation_xyz
x,y,z
-x,-y,1/2+z
x,-y,-z
-x,y,1/2-z
1/2+x,1/2+y,z
1/2-x,1/2-y,1/2+z
1/2+x,1/2-y,-z
1/2-x,1/2+y,1/2-z
loop_
_atom_site_type_symbol
_atom_site_label
_atom_site_fract_x
_atom_site_fract_y
_atom_site_fract_z
Si Si1 0.218587 0.830129 0.187502
Si Si2 0.592833 0.746848 0.814493
Si Si3 0.588811 0.108446 0.551277
Si Si4 0.104948 0.919493 0.645570
Si Si5 0.503402 0.500000 0.500000
Si Si6 0.997494 0.217959 0.897002
Si Si7 0.212042 0.830919 0.312110
Si Si8 0.432984 0.766858 0.252934
O O1 0.155132 0.827731 0.159933
O O2 0.204152 0.836311 0.249551
O O3 0.252744 0.580149 0.169902
O O4 0.255056 0.076453 0.169248
O O5 0.547563 0.826566 0.859955
O O6 0.570028 0.507703 0.780844
O O7 0.601674 0.005555 0.781334
O O8 0.627821 0.267625 0.593181
O O9 0.542536 0.275935 0.521100
O O10 0.625544 0.000000 0.500000
O O11 0.552794 0.912303 0.586889
O O12 0.099879 0.740196 0.696814
O O13 0.038561 0.005023 0.634858
O O14 0.149609 0.150272 0.658367
O O15 0.468573 0.393515 0.449075
O O16 0.500000 0.852281 0.250000
#
# Coordination Sequence:
#
# PCOD8159124 Si02
#       8
#     8   8   8   8   4   8   8   8
#     4  10  22  39  52  78 112 164 204 245 276 345
#     4  12  24  38  57  84 127 160 200 247 293 364
#     4   9  19  36  58  86 123 149 198 244 312 372
#     4  11  22  34  58  86 119 156 200 248 307 363
#     4   8  18  38  56  86 116 150 198 246 298 374
#     4  10  21  36  59  90 117 157 191 251 311 368
#     4  10  22  36  57  76 113 156 209 240 287 339
#     4  12  24  35  52  89 130 163 193 236 306 373
#
# _framework density 19.605772000000002
#
# number of rings (size 3 to 8) (size 9 to 14) (size 15 to 20)
#    0.000    1.600    2.667    2.000    9.333    0.000 
#    0.000    0.000    0.000    0.000    1.733    0.000 
#    0.000    0.000    0.000    0.000    0.000    0.000 
#
# Total GULP energy -371696.226177 kJ/mol
# GULP energy per Si atom -12389.874206 kJ/mol
# Density = 1.956115 g / cm^3
# Si number density = 19.605772 Si / 1000 Ang^3
#
#
#
# Elastic Constant Matrix: (Units=GPa)
#
#
# Indices 1 2 3 4 5 6 
#
# 1 75.7415 11.3659 20.4130 0.0000 0.0000 0.0000
# 2 11.3659 97.9548 27.3957 0.0000 0.0000 0.0000
# 3 20.4130 27.3957 89.8336 0.0000 0.0000 0.0000
# 4 0.0000 0.0000 0.0000 25.4081 0.0000 0.0000
# 5 0.0000 0.0000 0.0000 0.0000 7.2520 0.0000
# 6 0.0000 0.0000 0.0000 0.0000 0.0000 24.4354
#
#
#
# Elastic Compliance Matrix: (Units=1/GPa)
#
#
# Indices 1 2 3 4 5 6 
#
# 1 0.014123 -0.000810 -0.002962 0.000000 0.000000 0.000000
# 2 -0.000810 0.011207 -0.003234 0.000000 0.000000 0.000000
# 3 -0.002962 -0.003234 0.012791 0.000000 0.000000 0.000000
# 4 0.000000 0.000000 0.000000 0.039358 0.000000 0.000000
# 5 0.000000 0.000000 0.000000 0.000000 0.137892 0.000000
# 6 0.000000 0.000000 0.000000 0.000000 0.000000 0.040924
#
#
# Mechanical properties :
#
#
# Convention : Reuss Voigt Hill
#
# Bulk Modulus (GPa) = 41.47847 42.43104 41.95475
# Shear Modulus (GPa) = 17.96344 25.04278 21.50311
#
# Velocity S-wave (km/s) = 3.03022 3.57783 3.31535
# Velocity P-wave (km/s) = 5.78318 6.22551 6.00841
#
# Compressibility (1/GPa) = 0.02410889
#
# Stress axis : x y z
#
# Youngs Moduli (GPa) = 70.80809 89.22848 78.18071
#
# Poissons Ratio (x) = 0.07230 0.23157
# Poissons Ratio (y) = 0.05737 0.25281
# Poissons Ratio (z) = 0.20973 0.28853
#
# Static dielectric constant tensor:
#      x y z
#    x 3.355210 0.000000 0.000000 
#    y 0.000000 3.718170 0.000000 
#    z 0.000000 0.000000 3.848330 
# 
# 
# High freq. dielectric constant tensor:
#      x y z
#    x 1.726890 0.000000 0.000000 
#    y 0.000000 1.783330 0.000000 
#    z 0.000000 0.000000 1.748090 
# 
# From -- ./inp_files/28455.got.cif
#   From: 2010.03.12/outbox.cif.g09.slc.cpg/sg20_15_cif.got.tgz:28455.got - 2010.04.14 01:38:04.
