data_PCOD8159327
_publ_section_title
;
Structure prediction by ZEFSAII (Michael W. Deem and Ramdas Pophale) SiO2 
 PCOD8159327
Probable space group: C 2 2 21
;
_chemical_formula_sum "Si O2"
_cell_formula_units_Z 32
_cell_length_a 10.740178
_cell_length_b 14.440303
_cell_length_c 8.852545
_cell_angle_alpha 90.000000
_cell_angle_beta 90.000000
_cell_angle_gamma 90.000000
_cell_volume 1372.953815
_symmetry_space_group_name_H-M "C 2 2 21"
_symmetry_group_IT_number 20
_symmetry_cell_setting 'orthorhombic'
loop_
_space_group_symop_operation_xyz
x,y,z
-x,-y,1/2+z
x,-y,-z
-x,y,1/2-z
1/2+x,1/2+y,z
1/2-x,1/2-y,1/2+z
1/2+x,1/2-y,-z
1/2-x,1/2+y,1/2-z
loop_
_atom_site_type_symbol
_atom_site_label
_atom_site_fract_x
_atom_site_fract_y
_atom_site_fract_z
Si Si1 0.880113 0.527281 0.331793
Si Si2 0.676947 0.334638 0.564192
Si Si3 0.943194 0.919281 0.404432
Si Si4 0.720541 0.835456 0.256864
O O1 0.918978 0.500000 0.500000
O O2 0.762024 0.596274 0.334449
O O3 0.846241 0.434910 0.237112
O O4 0.000000 0.573877 0.250000
O O5 0.549950 0.382739 0.515987
O O6 0.640156 0.244841 0.663403
O O7 0.752367 0.305598 0.414480
O O8 0.847130 0.839511 0.356562
O O9 0.000000 0.961200 0.250000
O O10 0.875073 0.000000 0.500000
#
# Coordination Sequence:
#
# PCOD8159327 Si02
#       4
#     8   8   8   8
#     4  10  23  43  64  91 128 165 206 257 312 373
#     4  10  22  41  63  92 127 164 209 259 310 369
#     4  10  21  40  64  90 126 166 209 259 307 366
#     4  10  23  40  62  93 125 165 210 255 312 370
#
# _framework density 23.307410999999998
#
# number of rings (size 3 to 8) (size 9 to 14) (size 15 to 20)
#    0.000    2.000    0.000    3.750    0.000   14.000 
#    0.000    0.000    0.000    3.000    0.000    0.000 
#    0.000    0.000    0.000    0.000    0.000    0.000 
#
# Total GULP energy -198377.221676 kJ/mol
# GULP energy per Si atom -12398.576355 kJ/mol
# Density = 2.325436 g / cm^3
# Si number density = 23.307411 Si / 1000 Ang^3
#
#
#
# Elastic Constant Matrix: (Units=GPa)
#
#
# Indices 1 2 3 4 5 6 
#
# 1 95.0631 29.6073 34.9787 0.0000 0.0000 0.0000
# 2 29.6073 125.1764 70.3699 0.0000 0.0000 0.0000
# 3 34.9787 70.3699 78.5991 0.0000 0.0000 0.0000
# 4 0.0000 0.0000 0.0000 51.5830 0.0000 0.0000
# 5 0.0000 0.0000 0.0000 0.0000 51.8751 0.0000
# 6 0.0000 0.0000 0.0000 0.0000 0.0000 7.0050
#
#
#
# Elastic Compliance Matrix: (Units=1/GPa)
#
#
# Indices 1 2 3 4 5 6 
#
# 1 0.012587 0.000346 -0.005911 0.000000 0.000000 0.000000
# 2 0.000346 0.016093 -0.014562 0.000000 0.000000 0.000000
# 3 -0.005911 -0.014562 0.028391 0.000000 0.000000 0.000000
# 4 0.000000 0.000000 0.000000 0.019386 0.000000 0.000000
# 5 0.000000 0.000000 0.000000 0.000000 0.019277 0.000000
# 6 0.000000 0.000000 0.000000 0.000000 0.000000 0.142756
#
#
# Mechanical properties :
#
#
# Convention : Reuss Voigt Hill
#
# Bulk Modulus (GPa) = 59.46709 63.19449 61.33079
# Shear Modulus (GPa) = 17.58392 33.01811 25.30101
#
# Velocity S-wave (km/s) = 2.74968 3.76791 3.29832
# Velocity P-wave (km/s) = 5.97081 6.78983 6.39345
#
# Compressibility (1/GPa) = 0.01681602
#
# Stress axis : x y z
#
# Youngs Moduli (GPa) = 79.44966 62.13742 35.22227
#
# Poissons Ratio (x) = -0.02150 0.20820
# Poissons Ratio (y) = -0.02749 0.51292
# Poissons Ratio (z) = 0.46964 0.90487
#
# Static dielectric constant tensor:
#      x y z
#    x 4.042890 0.000000 0.000000 
#    y 0.000000 3.907600 0.000000 
#    z 0.000000 0.000000 4.325760 
# 
# 
# High freq. dielectric constant tensor:
#      x y z
#    x 1.908120 0.000000 0.000000 
#    y 0.000000 1.906080 0.000000 
#    z 0.000000 0.000000 1.933970 
# 
# From -- ./inp_files/6756.got.cif
#   From: 2010.03.12/outbox.cif.g09.slc.cpg/sg20_4_cif.got.tgz:6756.got - 2010.04.14 01:38:04.
