data_PCOD8159948
_publ_section_title
;
Structure prediction by ZEFSAII (Michael W. Deem and Ramdas Pophale) SiO2 
 PCOD8159948
Probable space group: C 2 2 21
;
_chemical_formula_sum "Si O2"
_cell_formula_units_Z 64
_cell_length_a 11.461555
_cell_length_b 15.029994
_cell_length_c 17.827981
_cell_angle_alpha 90.000000
_cell_angle_beta 90.000000
_cell_angle_gamma 90.000000
_cell_volume 3071.174637
_symmetry_space_group_name_H-M "C 2 2 21"
_symmetry_group_IT_number 20
_symmetry_cell_setting 'orthorhombic'
loop_
_space_group_symop_operation_xyz
x,y,z
-x,-y,1/2+z
x,-y,-z
-x,y,1/2-z
1/2+x,1/2+y,z
1/2-x,1/2-y,1/2+z
1/2+x,1/2-y,-z
1/2-x,1/2+y,1/2-z
loop_
_atom_site_type_symbol
_atom_site_label
_atom_site_fract_x
_atom_site_fract_y
_atom_site_fract_z
Si Si1 0.148472 0.326221 0.453434
Si Si2 0.800368 0.768970 0.666736
Si Si3 0.443407 0.582283 0.398012
Si Si4 0.907731 0.111324 0.564419
Si Si5 0.129196 0.591869 0.097530
Si Si6 0.403197 0.892110 0.428885
Si Si7 0.939430 0.271826 0.891933
Si Si8 0.654060 0.322152 0.668476
O O1 0.271008 0.376135 0.450793
O O2 0.132898 0.273094 0.530773
O O3 0.136619 0.257921 0.387017
O O4 0.042257 0.395123 0.442621
O O5 0.829173 0.860231 0.622755
O O6 0.862514 0.686106 0.625850
O O7 0.659965 0.756048 0.670831
O O8 0.850364 0.778272 0.749854
O O9 0.474116 0.601163 0.485091
O O10 0.419996 0.477646 0.386018
O O11 0.549084 0.608470 0.343329
O O12 0.965045 0.192902 0.609368
O O13 0.128618 0.486046 0.107736
O O14 0.226135 0.626916 0.154078
O O15 0.006403 0.635534 0.122577
O O16 0.157156 0.619728 0.010975
#
# Coordination Sequence:
#
# PCOD8159948 Si02
#       8
#     8   8   8   8   8   8   8   8
#     4  11  21  42  68  95 130 172 223 275 333 388
#     4  12  25  43  62  94 138 181 215 267 341 407
#     4  11  24  40  66  98 132 173 223 278 328 393
#     4  11  23  40  70 103 127 168 229 284 328 376
#     4  10  23  42  68 100 128 168 227 282 328 384
#     4  10  23  41  72  97 126 173 226 279 331 393
#     4  11  22  41  67  96 133 166 218 285 327 391
#     4  12  24  43  63  90 138 180 212 269 330 404
#
# _framework density 20.838932
#
# number of rings (size 3 to 8) (size 9 to 14) (size 15 to 20)
#    0.000    1.000    5.000    1.875    3.500    2.500 
#    2.250    2.500    0.000    0.000    0.000    0.000 
#    0.000    0.000    0.000    0.000    0.000    0.000 
#
# Total GULP energy -396839.915836 kJ/mol
# GULP energy per Si atom -12401.247370 kJ/mol
# Density = 2.079150 g / cm^3
# Si number density = 20.838932 Si / 1000 Ang^3
#
#
#
# Elastic Constant Matrix: (Units=GPa)
#
#
# Indices 1 2 3 4 5 6 
#
# 1 115.2564 39.1988 26.5337 0.0000 0.0000 0.0000
# 2 39.1988 115.2180 38.4907 0.0000 0.0000 0.0000
# 3 26.5337 38.4907 61.9320 0.0000 0.0000 0.0000
# 4 0.0000 0.0000 0.0000 22.3558 0.0000 0.0000
# 5 0.0000 0.0000 0.0000 0.0000 31.9826 0.0000
# 6 0.0000 0.0000 0.0000 0.0000 0.0000 35.7839
#
#
#
# Elastic Compliance Matrix: (Units=1/GPa)
#
#
# Indices 1 2 3 4 5 6 
#
# 1 0.010179 -0.002532 -0.002788 0.000000 0.000000 0.000000
# 2 -0.002532 0.011583 -0.006114 0.000000 0.000000 0.000000
# 3 -0.002788 -0.006114 0.021141 0.000000 0.000000 0.000000
# 4 0.000000 0.000000 0.000000 0.044731 0.000000 0.000000
# 5 0.000000 0.000000 0.000000 0.000000 0.031267 0.000000
# 6 0.000000 0.000000 0.000000 0.000000 0.000000 0.027946
#
#
# Mechanical properties :
#
#
# Convention : Reuss Voigt Hill
#
# Bulk Modulus (GPa) = 49.90992 55.65032 52.78012
# Shear Modulus (GPa) = 28.34585 30.57001 29.45793
#
# Velocity S-wave (km/s) = 3.69214 3.83425 3.76387
# Velocity P-wave (km/s) = 6.49447 6.80918 6.65369
#
# Compressibility (1/GPa) = 0.02003610
#
# Stress axis : x y z
#
# Youngs Moduli (GPa) = 98.24034 86.33246 47.30152
#
# Poissons Ratio (x) = 0.21858 0.13185
# Poissons Ratio (y) = 0.24873 0.28921
# Poissons Ratio (z) = 0.27385 0.52785
#
# Static dielectric constant tensor:
#      x y z
#    x 4.072830 0.000000 0.000000 
#    y 0.000000 3.749750 0.000000 
#    z 0.000000 0.000000 3.534800 
# 
# 
# High freq. dielectric constant tensor:
#      x y z
#    x 1.827230 0.000000 0.000000 
#    y 0.000000 1.818150 0.000000 
#    z 0.000000 0.000000 1.792320 
# 
# From -- ./inp_files/24443.got.cif
#   From: 2010.03.12/outbox.cif.g09.slc.cpg/sg20_13_cif.got.tgz:24443.got - 2010.04.14 01:38:04.
