data_PCOD8159397
_publ_section_title
;
Structure prediction by ZEFSAII (Michael W. Deem and Ramdas Pophale) SiO2 
 PCOD8159397
Probable space group: C 2 2 21
;
_chemical_formula_sum "Si O2"
_cell_formula_units_Z 48
_cell_length_a 14.635554
_cell_length_b 9.780357
_cell_length_c 17.388026
_cell_angle_alpha 90.000000
_cell_angle_beta 90.000000
_cell_angle_gamma 90.000000
_cell_volume 2488.938439
_symmetry_space_group_name_H-M "C 2 2 21"
_symmetry_group_IT_number 20
_symmetry_cell_setting 'orthorhombic'
loop_
_space_group_symop_operation_xyz
x,y,z
-x,-y,1/2+z
x,-y,-z
-x,y,1/2-z
1/2+x,1/2+y,z
1/2-x,1/2-y,1/2+z
1/2+x,1/2-y,-z
1/2-x,1/2+y,1/2-z
loop_
_atom_site_type_symbol
_atom_site_label
_atom_site_fract_x
_atom_site_fract_y
_atom_site_fract_z
Si Si1 0.231601 0.782416 0.319236
Si Si2 0.024112 0.234081 0.666574
Si Si3 0.475480 0.047232 0.834476
Si Si4 0.262709 0.965246 0.172013
Si Si5 0.371132 0.872743 0.444301
Si Si6 0.883505 0.120139 0.552191
O O1 0.129983 0.783932 0.353396
O O2 0.233521 0.863113 0.239395
O O3 0.259286 0.623240 0.305675
O O4 0.295303 0.864833 0.377855
O O5 0.991058 0.390781 0.661950
O O6 0.000000 0.174579 0.750000
O O7 0.967765 0.147475 0.606909
O O8 0.500000 0.108061 0.750000
O O9 0.368171 0.058918 0.849242
O O10 0.529949 0.125697 0.902007
O O11 0.207429 0.924285 0.096631
O O12 0.358517 0.744241 0.497959
O O13 0.355424 0.000000 0.500000
O O14 0.920453 0.000000 0.500000
#
# Coordination Sequence:
#
# PCOD8159397 Si02
#       6
#     8   8   8   8   8   8
#     4  11  24  43  68  99 128 178 223 269 329 400
#     4  10  21  41  69  92 126 176 219 263 327 394
#     4  10  21  41  69  95 124 173 227 260 314 405
#     4  11  24  43  70  95 134 175 223 268 330 397
#     4  12  25  42  67  99 135 168 220 277 331 390
#     4  12  25  44  63  99 139 167 210 284 337 378
#
# _framework density 19.285329999999998
#
# number of rings (size 3 to 8) (size 9 to 14) (size 15 to 20)
#    0.000    1.000    6.667    0.000    2.333    2.667 
#    3.000    2.500    0.000    0.000    0.000    0.000 
#    0.000    0.000    0.000    0.000    0.000    0.000 
#
# Total GULP energy -297660.292449 kJ/mol
# GULP energy per Si atom -12402.512185 kJ/mol
# Density = 1.924144 g / cm^3
# Si number density = 19.285330 Si / 1000 Ang^3
#
#
#
# Elastic Constant Matrix: (Units=GPa)
#
#
# Indices 1 2 3 4 5 6 
#
# 1 97.2049 25.3889 35.1406 0.0000 0.0000 0.0000
# 2 25.3889 96.9257 45.3638 0.0000 0.0000 0.0000
# 3 35.1406 45.3638 106.4958 0.0000 0.0000 0.0000
# 4 0.0000 0.0000 0.0000 43.6608 0.0000 0.0000
# 5 0.0000 0.0000 0.0000 0.0000 48.6084 0.0000
# 6 0.0000 0.0000 0.0000 0.0000 0.0000 24.8305
#
#
#
# Elastic Compliance Matrix: (Units=1/GPa)
#
#
# Indices 1 2 3 4 5 6 
#
# 1 0.011875 -0.001595 -0.003239 0.000000 0.000000 0.000000
# 2 -0.001595 0.013100 -0.005054 0.000000 0.000000 0.000000
# 3 -0.003239 -0.005054 0.012612 0.000000 0.000000 0.000000
# 4 0.000000 0.000000 0.000000 0.022904 0.000000 0.000000
# 5 0.000000 0.000000 0.000000 0.000000 0.020573 0.000000
# 6 0.000000 0.000000 0.000000 0.000000 0.000000 0.040273
#
#
# Mechanical properties :
#
#
# Convention : Reuss Voigt Hill
#
# Bulk Modulus (GPa) = 56.14399 56.93479 56.53939
# Shear Modulus (GPa) = 34.00213 36.40215 35.20214
#
# Velocity S-wave (km/s) = 4.20349 4.34932 4.27703
# Velocity P-wave (km/s) = 7.26186 7.40327 7.33291
#
# Compressibility (1/GPa) = 0.01781135
#
# Stress axis : x y z
#
# Youngs Moduli (GPa) = 84.21038 76.33387 79.29079
#
# Poissons Ratio (x) = 0.12172 0.25684
# Poissons Ratio (y) = 0.13428 0.40075
# Poissons Ratio (z) = 0.27277 0.38581
#
# Static dielectric constant tensor:
#      x y z
#    x 3.562890 0.000000 0.000000 
#    y 0.000000 3.552940 0.000000 
#    z 0.000000 0.000000 3.920350 
# 
# 
# High freq. dielectric constant tensor:
#      x y z
#    x 1.756950 0.000000 0.000000 
#    y 0.000000 1.748650 0.000000 
#    z 0.000000 0.000000 1.762990 
# 
# From -- ./inp_files/23427.got.cif
#   From: 2010.03.12/outbox.cif.g09.slc.cpg/sg20_12_cif.got.tgz:23427.got - 2010.04.14 01:38:04.
