data_PCOD8159711
_publ_section_title
;
Structure prediction by ZEFSAII (Michael W. Deem and Ramdas Pophale) SiO2 
 PCOD8159711
Probable space group: C 2 2 21
;
_chemical_formula_sum "Si O2"
_cell_formula_units_Z 64
_cell_length_a 15.223194
_cell_length_b 11.296826
_cell_length_c 17.923848
_cell_angle_alpha 90.000000
_cell_angle_beta 90.000000
_cell_angle_gamma 90.000000
_cell_volume 3082.431781
_symmetry_space_group_name_H-M "C 2 2 21"
_symmetry_group_IT_number 20
_symmetry_cell_setting 'orthorhombic'
loop_
_space_group_symop_operation_xyz
x,y,z
-x,-y,1/2+z
x,-y,-z
-x,y,1/2-z
1/2+x,1/2+y,z
1/2-x,1/2-y,1/2+z
1/2+x,1/2-y,-z
1/2-x,1/2+y,1/2-z
loop_
_atom_site_type_symbol
_atom_site_label
_atom_site_fract_x
_atom_site_fract_y
_atom_site_fract_z
Si Si1 0.603337 0.501488 0.673296
Si Si2 0.063104 0.622368 0.681908
Si Si3 0.866163 0.124703 0.672821
Si Si4 0.108698 0.424712 0.571654
Si Si5 0.789786 0.889939 0.623360
Si Si6 0.969208 0.174825 0.930345
Si Si7 0.719971 0.705356 0.283787
Si Si8 0.982030 0.827167 0.595854
O O1 0.594037 0.573682 0.750094
O O2 0.609992 0.597568 0.606288
O O3 0.688306 0.414518 0.673504
O O4 0.515979 0.420499 0.658654
O O5 0.096391 0.500239 0.646769
O O6 0.145517 0.695238 0.712024
O O7 0.000000 0.590373 0.750000
O O8 0.010565 0.695811 0.619050
O O9 0.811191 0.246166 0.682981
O O10 0.943086 0.147739 0.615057
O O11 0.801077 0.028984 0.637819
O O12 0.082988 0.500000 0.500000
O O13 0.209308 0.378297 0.565501
O O14 0.045022 0.313729 0.576069
O O15 0.763283 0.820909 0.697759
O O16 0.877141 0.832440 0.588922
O O17 0.976986 0.137139 0.016472
#
# Coordination Sequence:
#
# PCOD8159711 Si02
#       8
#     8   8   8   8   8   8   8   8
#     4  10  23  39  68  98 133 170 226 282 338 392
#     4  11  22  43  72  92 135 184 224 273 346 408
#     4  11  23  41  68 102 135 175 225 285 329 413
#     4  12  27  45  64 101 143 181 217 283 350 414
#     4  11  23  39  70  98 130 173 231 277 335 400
#     4  12  25  43  69  97 140 175 229 280 347 408
#     4  10  22  41  66 103 134 166 228 289 333 398
#     4  11  23  42  68 102 127 178 230 284 335 410
#
# _framework density 20.762827999999999
#
# number of rings (size 3 to 8) (size 9 to 14) (size 15 to 20)
#    0.000    1.000    5.000    1.500    3.500    2.000 
#    0.000    0.000    0.000    0.000    0.000    0.000 
#    0.000    0.000    0.000    0.000    0.000    0.000 
#
# Total GULP energy -396839.431846 kJ/mol
# GULP energy per Si atom -12401.232245 kJ/mol
# Density = 2.071557 g / cm^3
# Si number density = 20.762828 Si / 1000 Ang^3
#
#
#
# Elastic Constant Matrix: (Units=GPa)
#
#
# Indices 1 2 3 4 5 6 
#
# 1 64.4354 25.4512 31.8501 0.0000 0.0000 0.0000
# 2 25.4512 77.9771 22.3771 0.0000 0.0000 0.0000
# 3 31.8501 22.3771 88.3145 0.0000 0.0000 0.0000
# 4 0.0000 0.0000 0.0000 31.3545 0.0000 0.0000
# 5 0.0000 0.0000 0.0000 0.0000 23.9099 0.0000
# 6 0.0000 0.0000 0.0000 0.0000 0.0000 29.8427
#
#
#
# Elastic Compliance Matrix: (Units=1/GPa)
#
#
# Indices 1 2 3 4 5 6 
#
# 1 0.020504 -0.004929 -0.006146 0.000000 0.000000 0.000000
# 2 -0.004929 0.015015 -0.002027 0.000000 0.000000 0.000000
# 3 -0.006146 -0.002027 0.014053 0.000000 0.000000 0.000000
# 4 0.000000 0.000000 0.000000 0.031893 0.000000 0.000000
# 5 0.000000 0.000000 0.000000 0.000000 0.041824 0.000000
# 6 0.000000 0.000000 0.000000 0.000000 0.000000 0.033509
#
#
# Mechanical properties :
#
#
# Convention : Reuss Voigt Hill
#
# Bulk Modulus (GPa) = 42.79170 43.34264 43.06717
# Shear Modulus (GPa) = 26.20676 27.09133 26.64904
#
# Velocity S-wave (km/s) = 3.55659 3.61612 3.58648
# Velocity P-wave (km/s) = 6.12538 6.19318 6.15938
#
# Compressibility (1/GPa) = 0.02336902
#
# Stress axis : x y z
#
# Youngs Moduli (GPa) = 48.77077 66.60165 71.15817
#
# Poissons Ratio (x) = 0.32826 0.43733
# Poissons Ratio (y) = 0.24038 0.14423
# Poissons Ratio (z) = 0.29974 0.13499
#
# Static dielectric constant tensor:
#      x y z
#    x 3.679350 0.000000 0.000000 
#    y 0.000000 3.979720 0.000000 
#    z 0.000000 0.000000 3.735370 
# 
# 
# High freq. dielectric constant tensor:
#      x y z
#    x 1.804030 0.000000 0.000000 
#    y 0.000000 1.819120 0.000000 
#    z 0.000000 0.000000 1.809780 
# 
# From -- ./inp_files/25002.got.cif
#   From: 2010.03.12/outbox.cif.g09.slc.cpg/sg20_13_cif.got.tgz:25002.got - 2010.04.14 01:38:04.
