data_PCOD8159132
_publ_section_title
;
Structure prediction by ZEFSAII (Michael W. Deem and Ramdas Pophale) SiO2 
 PCOD8159132
Probable space group: C 2 2 21
;
_chemical_formula_sum "Si O2"
_cell_formula_units_Z 56
_cell_length_a 9.871239
_cell_length_b 14.961492
_cell_length_c 20.116729
_cell_angle_alpha 90.000000
_cell_angle_beta 90.000000
_cell_angle_gamma 90.000000
_cell_volume 2971.008793
_symmetry_space_group_name_H-M "C 2 2 21"
_symmetry_group_IT_number 20
_symmetry_cell_setting 'orthorhombic'
loop_
_space_group_symop_operation_xyz
x,y,z
-x,-y,1/2+z
x,-y,-z
-x,y,1/2-z
1/2+x,1/2+y,z
1/2-x,1/2-y,1/2+z
1/2+x,1/2-y,-z
1/2-x,1/2+y,1/2-z
loop_
_atom_site_type_symbol
_atom_site_label
_atom_site_fract_x
_atom_site_fract_y
_atom_site_fract_z
Si Si1 0.472448 0.078546 0.051992
Si Si2 0.779772 0.900308 0.975927
Si Si3 0.214344 0.816006 0.795615
Si Si4 0.494193 0.305384 0.893476
Si Si5 0.774820 0.733836 0.065224
Si Si6 0.883453 0.517506 0.196470
Si Si7 0.376415 0.821764 0.199605
O O1 0.627755 0.110879 0.050649
O O2 0.373684 0.160598 0.031900
O O3 0.442061 0.042890 0.125033
O O4 0.446174 0.000000 0.000000
O O5 0.886304 0.878326 0.917625
O O6 0.806916 0.831029 0.035888
O O7 0.809632 0.000000 0.000000
O O8 0.298809 0.766479 0.854961
O O9 0.275048 0.911606 0.777246
O O10 0.225039 0.751359 0.731701
O O11 0.061390 0.835996 0.822781
O O12 0.614988 0.290638 0.947559
O O13 0.420205 0.211736 0.874264
O O14 0.811312 0.420081 0.191194
O O15 0.000000 0.515587 0.250000
O O16 0.500000 0.832824 0.250000
#
# Coordination Sequence:
#
# PCOD8159132 Si02
#       7
#     8   8   8   8   8   8   8
#     4  10  23  38  58  88 117 152 198 247 289 350
#     4  11  23  34  56  88 114 153 194 237 290 338
#     4   8  19  39  58  84 115 148 194 239 290 353
#     4   9  20  37  57  80 117 151 190 229 292 350
#     4   9  20  39  57  78 118 152 190 238 285 352
#     4  10  21  36  62  90 114 150 203 246 292 347
#     4   9  18  34  61  83 107 152 190 236 288 351
#
# _framework density 18.848815999999999
#
# number of rings (size 3 to 8) (size 9 to 14) (size 15 to 20)
#    0.857    1.714    0.000    0.857    8.000    0.571 
#    0.000    1.429    0.000    0.000    0.000    0.000 
#    0.000    0.000    0.000    0.000    0.000    0.000 
#
# Total GULP energy -346904.618890 kJ/mol
# GULP energy per Si atom -12389.450675 kJ/mol
# Density = 1.880591 g / cm^3
# Si number density = 18.848816 Si / 1000 Ang^3
#
#
#
# Elastic Constant Matrix: (Units=GPa)
#
#
# Indices 1 2 3 4 5 6 
#
# 1 76.1646 77.3033 32.8401 0.0000 0.0000 0.0000
# 2 77.3033 186.3127 53.3269 0.0000 0.0000 0.0000
# 3 32.8401 53.3269 61.9564 0.0000 0.0000 0.0000
# 4 0.0000 0.0000 0.0000 28.9048 0.0000 0.0000
# 5 0.0000 0.0000 0.0000 0.0000 23.6791 0.0000
# 6 0.0000 0.0000 0.0000 0.0000 0.0000 32.1711
#
#
#
# Elastic Compliance Matrix: (Units=1/GPa)
#
#
# Indices 1 2 3 4 5 6 
#
# 1 0.024020 -0.008389 -0.005512 0.000000 0.000000 0.000000
# 2 -0.008389 0.010051 -0.004205 0.000000 0.000000 0.000000
# 3 -0.005512 -0.004205 0.022681 0.000000 0.000000 0.000000
# 4 0.000000 0.000000 0.000000 0.034596 0.000000 0.000000
# 5 0.000000 0.000000 0.000000 0.000000 0.042231 0.000000
# 6 0.000000 0.000000 0.000000 0.000000 0.000000 0.031084
#
#
# Mechanical properties :
#
#
# Convention : Reuss Voigt Hill
#
# Bulk Modulus (GPa) = 48.68064 72.37493 60.52779
# Shear Modulus (GPa) = 24.07065 27.68190 25.87628
#
# Velocity S-wave (km/s) = 3.57744 3.83643 3.70920
# Velocity P-wave (km/s) = 6.55340 7.62267 7.10817
#
# Compressibility (1/GPa) = 0.02054205
#
# Stress axis : x y z
#
# Youngs Moduli (GPa) = 41.63210 99.48834 44.08943
#
# Poissons Ratio (x) = 0.83457 0.24300
# Poissons Ratio (y) = 0.34924 0.18540
# Poissons Ratio (z) = 0.22946 0.41835
#
# Static dielectric constant tensor:
#      x y z
#    x 3.343280 0.000000 0.000000 
#    y 0.000000 3.643580 0.000000 
#    z 0.000000 0.000000 3.343760 
# 
# 
# High freq. dielectric constant tensor:
#      x y z
#    x 1.709740 0.000000 0.000000 
#    y 0.000000 1.734690 0.000000 
#    z 0.000000 0.000000 1.727380 
# 
# From -- ./inp_files/27213.got.cif
#   From: 2010.03.12/outbox.cif.g09.slc.cpg/sg20_14_cif.got.tgz:27213.got - 2010.04.14 01:38:04.
