data_PCOD8159417
_publ_section_title
;
Structure prediction by ZEFSAII (Michael W. Deem and Ramdas Pophale) SiO2 
 PCOD8159417
Probable space group: C 2 2 21
;
_chemical_formula_sum "Si O2"
_cell_formula_units_Z 56
_cell_length_a 20.683920
_cell_length_b 10.196484
_cell_length_c 13.908502
_cell_angle_alpha 90.000000
_cell_angle_beta 90.000000
_cell_angle_gamma 90.000000
_cell_volume 2933.348404
_symmetry_space_group_name_H-M "C 2 2 21"
_symmetry_group_IT_number 20
_symmetry_cell_setting 'orthorhombic'
loop_
_space_group_symop_operation_xyz
x,y,z
-x,-y,1/2+z
x,-y,-z
-x,y,1/2-z
1/2+x,1/2+y,z
1/2-x,1/2-y,1/2+z
1/2+x,1/2-y,-z
1/2-x,1/2+y,1/2-z
loop_
_atom_site_type_symbol
_atom_site_label
_atom_site_fract_x
_atom_site_fract_y
_atom_site_fract_z
Si Si1 0.733136 0.761171 0.843447
Si Si2 0.141945 0.149123 0.000382
Si Si3 0.624517 0.952324 0.784515
Si Si4 0.311907 0.641409 0.990062
Si Si5 0.201211 0.680879 0.848963
Si Si6 0.043857 0.367405 0.948438
Si Si7 0.104890 0.615043 0.431387
O O1 0.691878 0.883589 0.808551
O O2 0.758171 0.690807 0.748398
O O3 0.690049 0.665392 0.909734
O O4 0.795235 0.808430 0.903405
O O5 0.178161 0.182588 0.101385
O O6 0.079438 0.241853 0.992859
O O7 0.117911 0.000000 0.000000
O O8 0.564116 0.883514 0.837145
O O9 0.608441 0.948311 0.673022
O O10 0.636330 0.099420 0.823586
O O11 0.246810 0.612461 0.928928
O O12 0.354648 0.751024 0.936739
O O13 0.348139 0.500000 0.000000
O O14 0.967764 0.346609 0.959913
O O15 0.067615 0.500000 0.000000
O O16 0.132282 0.500000 0.500000
#
# Coordination Sequence:
#
# PCOD8159417 Si02
#       7
#     8   8   8   8   8   8   8
#     4  10  22  34  58  86 125 153 194 243 307 368
#     4  10  23  37  60  91 121 159 206 252 306 365
#     4  11  20  38  63  89 116 161 204 247 294 365
#     4  11  22  37  57  90 124 158 193 243 316 365
#     4  11  21  36  61  88 123 157 197 251 310 365
#     4  10  21  42  64  86 117 164 210 246 296 360
#     4  11  24  40  62  90 121 159 209 257 295 357
#
# _framework density 19.090810999999999
#
# number of rings (size 3 to 8) (size 9 to 14) (size 15 to 20)
#    0.000    1.429    4.286    1.286    2.000    2.857 
#    0.000    0.000    0.000    0.000    3.714    0.000 
#    0.000    0.000    0.000    0.000    0.000    0.000 
#
# Total GULP energy -347141.774910 kJ/mol
# GULP energy per Si atom -12397.920532 kJ/mol
# Density = 1.904736 g / cm^3
# Si number density = 19.090811 Si / 1000 Ang^3
#
#
#
# Elastic Constant Matrix: (Units=GPa)
#
#
# Indices 1 2 3 4 5 6 
#
# 1 57.2151 34.1595 14.8245 0.0000 0.0000 0.0000
# 2 34.1595 131.5469 31.0971 0.0000 0.0000 0.0000
# 3 14.8245 31.0971 107.7624 0.0000 0.0000 0.0000
# 4 0.0000 0.0000 0.0000 24.7320 0.0000 0.0000
# 5 0.0000 0.0000 0.0000 0.0000 21.3154 0.0000
# 6 0.0000 0.0000 0.0000 0.0000 0.0000 23.7692
#
#
#
# Elastic Compliance Matrix: (Units=1/GPa)
#
#
# Indices 1 2 3 4 5 6 
#
# 1 0.020881 -0.005090 -0.001404 0.000000 0.000000 0.000000
# 2 -0.005090 0.009399 -0.002012 0.000000 0.000000 0.000000
# 3 -0.001404 -0.002012 0.010053 0.000000 0.000000 0.000000
# 4 0.000000 0.000000 0.000000 0.040434 0.000000 0.000000
# 5 0.000000 0.000000 0.000000 0.000000 0.046914 0.000000
# 6 0.000000 0.000000 0.000000 0.000000 0.000000 0.042071
#
#
# Mechanical properties :
#
#
# Convention : Reuss Voigt Hill
#
# Bulk Modulus (GPa) = 42.87916 50.74295 46.81105
# Shear Modulus (GPa) = 25.70183 28.39286 27.04735
#
# Velocity S-wave (km/s) = 3.67317 3.86068 3.76809
# Velocity P-wave (km/s) = 6.36388 6.81987 6.59581
#
# Compressibility (1/GPa) = 0.02332135
#
# Stress axis : x y z
#
# Youngs Moduli (GPa) = 47.89104 106.39024 99.46895
#
# Poissons Ratio (x) = 0.54157 0.13961
# Poissons Ratio (y) = 0.24379 0.20014
# Poissons Ratio (z) = 0.06722 0.21407
#
# Static dielectric constant tensor:
#      x y z
#    x 3.281210 0.000000 0.000000 
#    y 0.000000 3.418650 0.000000 
#    z 0.000000 0.000000 3.605790 
# 
# 
# High freq. dielectric constant tensor:
#      x y z
#    x 1.722830 0.000000 0.000000 
#    y 0.000000 1.735530 0.000000 
#    z 0.000000 0.000000 1.756300 
# 
# From -- ./inp_files/21758.got.cif
#   From: 2010.03.12/outbox.cif.g09.slc.cpg/sg20_11_cif.got.tgz:21758.got - 2010.04.14 01:38:04.
