data_PCOD8159917
_publ_section_title
;
Structure prediction by ZEFSAII (Michael W. Deem and Ramdas Pophale) SiO2 
 PCOD8159917
Probable space group: C 2 2 21
;
_chemical_formula_sum "Si O2"
_cell_formula_units_Z 64
_cell_length_a 15.114145
_cell_length_b 11.623565
_cell_length_c 17.190739
_cell_angle_alpha 90.000000
_cell_angle_beta 90.000000
_cell_angle_gamma 90.000000
_cell_volume 3020.073271
_symmetry_space_group_name_H-M "C 2 2 21"
_symmetry_group_IT_number 20
_symmetry_cell_setting 'orthorhombic'
loop_
_space_group_symop_operation_xyz
x,y,z
-x,-y,1/2+z
x,-y,-z
-x,y,1/2-z
1/2+x,1/2+y,z
1/2-x,1/2-y,1/2+z
1/2+x,1/2-y,-z
1/2-x,1/2+y,1/2-z
loop_
_atom_site_type_symbol
_atom_site_label
_atom_site_fract_x
_atom_site_fract_y
_atom_site_fract_z
Si Si1 0.259539 0.165087 0.678940
Si Si2 0.407004 0.308005 0.851666
Si Si3 0.182834 0.586976 0.658461
Si Si4 0.648605 0.556303 0.918737
Si Si5 0.081484 0.291052 0.861613
Si Si6 0.242714 0.440904 0.916840
Si Si7 0.598959 0.656876 0.170525
Si Si8 0.891164 0.665721 0.181473
O O1 0.263159 0.151632 0.772280
O O2 0.345859 0.230512 0.645531
O O3 0.176789 0.240056 0.648237
O O4 0.256531 0.037453 0.647916
O O5 0.400177 0.169476 0.859630
O O6 0.331156 0.365431 0.904448
O O7 0.403543 0.349220 0.763056
O O8 0.506466 0.339306 0.877144
O O9 0.247653 0.591380 0.583412
O O10 0.148619 0.461690 0.680483
O O11 0.585521 0.662560 0.896857
O O12 0.645775 0.461034 0.851653
O O13 0.620412 0.500000 0.000000
O O14 0.152528 0.367854 0.908160
O O15 0.096995 0.295664 0.770007
O O16 0.979768 0.333341 0.871439
O O17 0.245618 0.500000 0.000000
#
# Coordination Sequence:
#
# PCOD8159917 Si02
#       8
#     8   8   8   8   8   8   8   8
#     4  11  22  40  66  99 128 171 222 275 339 408
#     4  10  23  42  68  98 128 173 228 281 343 410
#     4  11  21  43  70  95 131 171 228 281 337 412
#     4  12  25  42  64  90 135 179 217 275 341 407
#     4  11  25  43  65 103 132 176 226 285 342 419
#     4  12  26  43  65  95 143 183 219 282 353 416
#     4  10  23  40  68  96 129 170 223 282 342 403
#     4  11  23  41  73 100 129 171 231 289 345 402
#
# _framework density 21.191538999999999
#
# number of rings (size 3 to 8) (size 9 to 14) (size 15 to 20)
#    0.000    1.000    5.000    1.500    5.250    2.500 
#    0.000    0.625    0.000    0.000    0.000    0.000 
#    0.000    0.000    0.000    0.000    0.000    0.000 
#
# Total GULP energy -396660.929704 kJ/mol
# GULP energy per Si atom -12395.654053 kJ/mol
# Density = 2.114331 g / cm^3
# Si number density = 21.191539 Si / 1000 Ang^3
#
#
#
# Elastic Constant Matrix: (Units=GPa)
#
#
# Indices 1 2 3 4 5 6 
#
# 1 139.6119 38.1329 32.3765 0.0000 0.0000 0.0000
# 2 38.1329 129.9113 25.2861 0.0000 0.0000 0.0000
# 3 32.3765 25.2861 53.2181 0.0000 0.0000 0.0000
# 4 0.0000 0.0000 0.0000 24.6579 0.0000 0.0000
# 5 0.0000 0.0000 0.0000 0.0000 16.5089 0.0000
# 6 0.0000 0.0000 0.0000 0.0000 0.0000 27.7540
#
#
#
# Elastic Compliance Matrix: (Units=1/GPa)
#
#
# Indices 1 2 3 4 5 6 
#
# 1 0.008656 -0.001670 -0.004473 0.000000 0.000000 0.000000
# 2 -0.001670 0.008804 -0.003167 0.000000 0.000000 0.000000
# 3 -0.004473 -0.003167 0.023016 0.000000 0.000000 0.000000
# 4 0.000000 0.000000 0.000000 0.040555 0.000000 0.000000
# 5 0.000000 0.000000 0.000000 0.000000 0.060574 0.000000
# 6 0.000000 0.000000 0.000000 0.000000 0.000000 0.036031
#
#
# Mechanical properties :
#
#
# Convention : Reuss Voigt Hill
#
# Bulk Modulus (GPa) = 45.75208 57.14804 51.45006
# Shear Modulus (GPa) = 24.56498 28.91386 26.73942
#
# Velocity S-wave (km/s) = 3.40838 3.69779 3.55603
# Velocity P-wave (km/s) = 6.09311 6.72737 6.41808
#
# Compressibility (1/GPa) = 0.02185693
#
# Stress axis : x y z
#
# Youngs Moduli (GPa) = 115.52511 113.58096 43.44725
#
# Poissons Ratio (x) = 0.18971 0.19432
# Poissons Ratio (y) = 0.19296 0.13760
# Poissons Ratio (z) = 0.51669 0.35972
#
# Static dielectric constant tensor:
#      x y z
#    x 4.233090 0.000000 0.000000 
#    y 0.000000 3.951810 0.000000 
#    z 0.000000 0.000000 3.491560 
# 
# 
# High freq. dielectric constant tensor:
#      x y z
#    x 1.840390 0.000000 0.000000 
#    y 0.000000 1.849040 0.000000 
#    z 0.000000 0.000000 1.797280 
# 
# From -- ./inp_files/24994.got.cif
#   From: 2010.03.12/outbox.cif.g09.slc.cpg/sg20_13_cif.got.tgz:24994.got - 2010.04.14 01:38:04.
