data_PCOD8159771
_publ_section_title
;
Structure prediction by ZEFSAII (Michael W. Deem and Ramdas Pophale) SiO2 
 PCOD8159771
Probable space group: C 2 2 21
;
_chemical_formula_sum "Si O2"
_cell_formula_units_Z 40
_cell_length_a 19.565913
_cell_length_b 10.940038
_cell_length_c 8.221034
_cell_angle_alpha 90.000000
_cell_angle_beta 90.000000
_cell_angle_gamma 90.000000
_cell_volume 1759.727386
_symmetry_space_group_name_H-M "C 2 2 21"
_symmetry_group_IT_number 20
_symmetry_cell_setting 'orthorhombic'
loop_
_space_group_symop_operation_xyz
x,y,z
-x,-y,1/2+z
x,-y,-z
-x,y,1/2-z
1/2+x,1/2+y,z
1/2-x,1/2-y,1/2+z
1/2+x,1/2-y,-z
1/2-x,1/2+y,1/2-z
loop_
_atom_site_type_symbol
_atom_site_label
_atom_site_fract_x
_atom_site_fract_y
_atom_site_fract_z
Si Si1 0.788923 0.109896 0.110644
Si Si2 0.000000 0.606795 0.250000
Si Si3 0.904535 0.500000 0.000000
Si Si4 0.575624 0.586284 0.213875
Si Si5 0.193720 0.692545 0.373376
Si Si6 0.092887 0.187286 0.874516
O O1 0.870916 0.106832 0.139235
O O2 0.747344 0.105198 0.280389
O O3 0.766629 0.226261 0.004273
O O4 0.763940 0.000000 0.000000
O O5 0.951509 0.510287 0.159097
O O6 0.960046 0.699068 0.370535
O O7 0.857686 0.619459 0.009310
O O8 0.500000 0.640967 0.250000
O O9 0.564000 0.441467 0.190081
O O10 0.609413 0.660312 0.063172
O O11 0.157269 0.776747 0.237088
#
# Coordination Sequence:
#
# PCOD8159771 Si02
#       6
#     8   4   4   8   8   8
#     4  12  27  46  73 104 142 186 243 297 357 422
#     4  10  22  46  64 106 140 184 230 286 346 436
#     4  10  26  44  74  94 144 188 236 280 358 428
#     4  11  24  39  74 107 141 182 232 292 369 417
#     4  11  26  48  70 100 142 191 238 297 349 428
#     4  10  22  42  67 100 144 179 230 292 347 426
#
# _framework density 22.730792999999998
#
# number of rings (size 3 to 8) (size 9 to 14) (size 15 to 20)
#    0.000    1.200    3.000    1.200   11.200    3.200 
#    7.200    0.000    0.000    0.000    0.000    0.000 
#    0.000    0.000    0.000    0.000    0.000    0.000 
#
# Total GULP energy -247823.950538 kJ/mol
# GULP energy per Si atom -12391.197527 kJ/mol
# Density = 2.267906 g / cm^3
# Si number density = 22.730793 Si / 1000 Ang^3
#
#
#
# Elastic Constant Matrix: (Units=GPa)
#
#
# Indices 1 2 3 4 5 6 
#
# 1 89.8498 38.0586 35.7874 0.0000 0.0000 0.0000
# 2 38.0586 108.3715 69.2851 0.0000 0.0000 0.0000
# 3 35.7874 69.2851 104.7597 0.0000 0.0000 0.0000
# 4 0.0000 0.0000 0.0000 50.6695 0.0000 0.0000
# 5 0.0000 0.0000 0.0000 0.0000 37.2174 0.0000
# 6 0.0000 0.0000 0.0000 0.0000 0.0000 8.7288
#
#
#
# Elastic Compliance Matrix: (Units=1/GPa)
#
#
# Indices 1 2 3 4 5 6 
#
# 1 0.013456 -0.003096 -0.002549 0.000000 0.000000 0.000000
# 2 -0.003096 0.016700 -0.009987 0.000000 0.000000 0.000000
# 3 -0.002549 -0.009987 0.017022 0.000000 0.000000 0.000000
# 4 0.000000 0.000000 0.000000 0.019736 0.000000 0.000000
# 5 0.000000 0.000000 0.000000 0.000000 0.026869 0.000000
# 6 0.000000 0.000000 0.000000 0.000000 0.000000 0.114563
#
#
# Mechanical properties :
#
#
# Convention : Reuss Voigt Hill
#
# Bulk Modulus (GPa) = 62.84087 65.47147 64.15617
# Shear Modulus (GPa) = 20.41518 29.97981 25.19749
#
# Velocity S-wave (km/s) = 3.00013 3.63562 3.33305
# Velocity P-wave (km/s) = 6.30133 6.81829 6.56490
#
# Compressibility (1/GPa) = 0.01591321
#
# Stress axis : x y z
#
# Youngs Moduli (GPa) = 74.31377 59.88076 58.74796
#
# Poissons Ratio (x) = 0.18538 0.14977
# Poissons Ratio (y) = 0.23006 0.58673
# Poissons Ratio (z) = 0.18946 0.59804
#
# Static dielectric constant tensor:
#      x y z
#    x 3.975330 0.000000 0.000000 
#    y 0.000000 4.090210 0.000000 
#    z 0.000000 0.000000 4.091680 
# 
# 
# High freq. dielectric constant tensor:
#      x y z
#    x 1.893490 0.000000 0.000000 
#    y 0.000000 1.891670 0.000000 
#    z 0.000000 0.000000 1.896730 
# 
# From -- ./inp_files/9161.got.cif
#   From: 2010.03.12/outbox.cif.g09.slc.cpg/sg20_5_cif.got.tgz:9161.got - 2010.04.14 01:38:04.
