data_PCOD8159902
_publ_section_title
;
Structure prediction by ZEFSAII (Michael W. Deem and Ramdas Pophale) SiO2 
 PCOD8159902
Probable space group: C 2 2 21
;
_chemical_formula_sum "Si O2"
_cell_formula_units_Z 64
_cell_length_a 13.457411
_cell_length_b 12.326011
_cell_length_c 19.462907
_cell_angle_alpha 90.000000
_cell_angle_beta 90.000000
_cell_angle_gamma 90.000000
_cell_volume 3228.432977
_symmetry_space_group_name_H-M "C 2 2 21"
_symmetry_group_IT_number 20
_symmetry_cell_setting 'orthorhombic'
loop_
_space_group_symop_operation_xyz
x,y,z
-x,-y,1/2+z
x,-y,-z
-x,y,1/2-z
1/2+x,1/2+y,z
1/2-x,1/2-y,1/2+z
1/2+x,1/2-y,-z
1/2-x,1/2+y,1/2-z
loop_
_atom_site_type_symbol
_atom_site_label
_atom_site_fract_x
_atom_site_fract_y
_atom_site_fract_z
Si Si1 0.943414 0.625856 0.177862
Si Si2 0.892542 0.598018 0.781052
Si Si3 0.317896 0.262288 0.497220
Si Si4 0.929260 0.567614 0.441660
Si Si5 0.523322 0.626979 0.489608
Si Si6 0.825657 0.786234 0.879944
Si Si7 0.772406 0.508832 0.654970
Si Si8 0.837715 0.794926 0.103385
O O1 0.901435 0.504762 0.167969
O O2 0.862472 0.720534 0.170078
O O3 0.000000 0.638786 0.250000
O O4 0.010829 0.643057 0.110541
O O5 0.856845 0.704243 0.820253
O O6 0.811731 0.556279 0.726492
O O7 0.000000 0.625838 0.750000
O O8 0.358744 0.141916 0.487751
O O9 0.405202 0.350121 0.508147
O O10 0.246405 0.282001 0.431119
O O11 0.254846 0.263445 0.567036
O O12 0.991612 0.500000 0.500000
O O13 0.863740 0.483628 0.397690
O O14 0.542368 0.500000 0.500000
O O15 0.576964 0.667347 0.419455
O O16 0.570680 0.695034 0.551403
O O17 0.767670 0.885042 0.841961
O O18 0.683965 0.584798 0.629695
#
# Coordination Sequence:
#
# PCOD8159902 Si02
#       8
#     8   8   8   8   8   8   8   8
#     4  11  24  42  65  96 136 175 222 277 340 398
#     4  11  25  43  65  94 134 172 222 279 326 392
#     4  10  23  37  66  98 127 164 212 278 327 386
#     4  11  20  37  68  95 123 162 223 269 330 377
#     4  11  22  43  65  94 135 168 218 276 332 394
#     4  10  25  42  66  98 128 170 224 266 335 399
#     4  11  22  42  65  92 126 171 219 271 321 404
#     4  11  23  40  66  99 122 176 222 268 333 400
#
# _framework density 19.823858999999999
#
# number of rings (size 3 to 8) (size 9 to 14) (size 15 to 20)
#    0.000    1.250    6.250    0.000    5.250    1.000 
#    0.000    1.875    0.000    0.000    0.000    0.000 
#    0.000    0.000    0.000    0.000    0.000    0.000 
#
# Total GULP energy -396542.685702 kJ/mol
# GULP energy per Si atom -12391.958928 kJ/mol
# Density = 1.977874 g / cm^3
# Si number density = 19.823859 Si / 1000 Ang^3
#
#
#
# Elastic Constant Matrix: (Units=GPa)
#
#
# Indices 1 2 3 4 5 6 
#
# 1 86.5305 44.6501 43.5730 0.0000 0.0000 0.0000
# 2 44.6501 104.8403 61.6340 0.0000 0.0000 0.0000
# 3 43.5730 61.6340 109.2498 0.0000 0.0000 0.0000
# 4 0.0000 0.0000 0.0000 39.4411 0.0000 0.0000
# 5 0.0000 0.0000 0.0000 0.0000 21.4530 0.0000
# 6 0.0000 0.0000 0.0000 0.0000 0.0000 34.5523
#
#
#
# Elastic Compliance Matrix: (Units=1/GPa)
#
#
# Indices 1 2 3 4 5 6 
#
# 1 0.015772 -0.004517 -0.003742 0.000000 0.000000 0.000000
# 2 -0.004517 0.015565 -0.006980 0.000000 0.000000 0.000000
# 3 -0.003742 -0.006980 0.014583 0.000000 0.000000 0.000000
# 4 0.000000 0.000000 0.000000 0.025354 0.000000 0.000000
# 5 0.000000 0.000000 0.000000 0.000000 0.046614 0.000000
# 6 0.000000 0.000000 0.000000 0.000000 0.000000 0.028942
#
#
# Mechanical properties :
#
#
# Convention : Reuss Voigt Hill
#
# Bulk Modulus (GPa) = 64.75467 66.70384 65.72925
# Shear Modulus (GPa) = 27.40395 29.14017 28.27206
#
# Velocity S-wave (km/s) = 3.72206 3.83816 3.78055
# Velocity P-wave (km/s) = 7.15595 7.30502 7.23087
#
# Compressibility (1/GPa) = 0.01544290
#
# Stress axis : x y z
#
# Youngs Moduli (GPa) = 63.40427 64.24525 68.57090
#
# Poissons Ratio (x) = 0.29020 0.25660
# Poissons Ratio (y) = 0.28640 0.47860
# Poissons Ratio (z) = 0.23726 0.44841
#
# Static dielectric constant tensor:
#      x y z
#    x 3.644210 0.000000 0.000000 
#    y 0.000000 3.490540 0.000000 
#    z 0.000000 0.000000 3.620760 
# 
# 
# High freq. dielectric constant tensor:
#      x y z
#    x 1.766940 0.000000 0.000000 
#    y 0.000000 1.772920 0.000000 
#    z 0.000000 0.000000 1.772590 
# 
# From -- ./inp_files/24998.got.cif
#   From: 2010.03.12/outbox.cif.g09.slc.cpg/sg20_13_cif.got.tgz:24998.got - 2010.04.14 01:38:04.
