data_PCOD8159567
_publ_section_title
;
Structure prediction by ZEFSAII (Michael W. Deem and Ramdas Pophale) SiO2 
 PCOD8159567
Probable space group: C 2 2 21
;
_chemical_formula_sum "Si O2"
_cell_formula_units_Z 60
_cell_length_a 25.701249
_cell_length_b 13.008690
_cell_length_c 8.899821
_cell_angle_alpha 90.000000
_cell_angle_beta 90.000000
_cell_angle_gamma 90.000000
_cell_volume 2975.562423
_symmetry_space_group_name_H-M "C 2 2 21"
_symmetry_group_IT_number 20
_symmetry_cell_setting 'orthorhombic'
loop_
_space_group_symop_operation_xyz
x,y,z
-x,-y,1/2+z
x,-y,-z
-x,y,1/2-z
1/2+x,1/2+y,z
1/2-x,1/2-y,1/2+z
1/2+x,1/2-y,-z
1/2-x,1/2+y,1/2-z
loop_
_atom_site_type_symbol
_atom_site_label
_atom_site_fract_x
_atom_site_fract_y
_atom_site_fract_z
Si Si1 0.280055 0.053735 0.316493
Si Si2 0.553786 0.930399 0.319923
Si Si3 0.861442 0.814049 0.170171
Si Si4 0.548031 0.845451 0.633300
Si Si5 0.207703 0.654819 0.479211
Si Si6 0.655661 0.860833 0.213284
Si Si7 0.685330 0.738712 0.951621
Si Si8 0.182366 0.000000 0.500000
O O1 0.282091 0.058815 0.133350
O O2 0.312502 0.147469 0.382767
O O3 0.220265 0.052288 0.375197
O O4 0.308738 0.948452 0.364651
O O5 0.500000 0.962348 0.250000
O O6 0.534852 0.856114 0.456357
O O7 0.593540 0.877094 0.203529
O O8 0.578569 0.045097 0.346842
O O9 0.914800 0.753418 0.144369
O O10 0.810209 0.751333 0.120027
O O11 0.855440 0.827574 0.351746
O O12 0.857627 0.921114 0.080329
O O13 0.500000 0.828719 0.750000
O O14 0.164644 0.639340 0.607367
O O15 0.260711 0.680242 0.563647
O O16 0.667707 0.753612 0.126208
#
# Coordination Sequence:
#
# PCOD8159567 Si02
#       8
#     8   8   8   8   8   8   8   4
#     4  11  21  35  54  86 126 166 206 253 304 383
#     4  10  22  38  60  93 126 163 202 260 329 392
#     4  11  23  39  61  87 121 170 209 263 319 376
#     4  10  22  41  62  90 125 158 208 261 324 395
#     4  11  21  35  56  84 125 164 206 249 308 379
#     4  12  21  35  58  87 126 165 204 253 317 390
#     4  11  22  35  55  87 126 164 204 253 313 377
#     4  12  22  42  62  90 126 168 232 266 318 372
#
# _framework density 20.164254
#
# number of rings (size 3 to 8) (size 9 to 14) (size 15 to 20)
#    0.000    1.067    4.000    4.400    3.733    0.000 
#    2.400    0.000    0.000    0.800    0.000    0.000 
#    0.000    0.000    0.000    0.000    0.000    0.000 
#
# Total GULP energy -371645.036927 kJ/mol
# GULP energy per Si atom -12388.167898 kJ/mol
# Density = 2.011836 g / cm^3
# Si number density = 20.164254 Si / 1000 Ang^3
#
#
#
# Elastic Constant Matrix: (Units=GPa)
#
#
# Indices 1 2 3 4 5 6 
#
# 1 83.7286 37.4532 27.0218 0.0000 0.0000 0.0000
# 2 37.4532 66.9862 37.2115 0.0000 0.0000 0.0000
# 3 27.0218 37.2115 94.4760 0.0000 0.0000 0.0000
# 4 0.0000 0.0000 0.0000 31.9407 0.0000 0.0000
# 5 0.0000 0.0000 0.0000 0.0000 29.5606 0.0000
# 6 0.0000 0.0000 0.0000 0.0000 0.0000 28.3130
#
#
#
# Elastic Compliance Matrix: (Units=1/GPa)
#
#
# Indices 1 2 3 4 5 6 
#
# 1 0.016061 -0.008228 -0.001353 0.000000 0.000000 0.000000
# 2 -0.008228 0.023325 -0.006834 0.000000 0.000000 0.000000
# 3 -0.001353 -0.006834 0.013663 0.000000 0.000000 0.000000
# 4 0.000000 0.000000 0.000000 0.031308 0.000000 0.000000
# 5 0.000000 0.000000 0.000000 0.000000 0.033829 0.000000
# 6 0.000000 0.000000 0.000000 0.000000 0.000000 0.035320
#
#
# Mechanical properties :
#
#
# Convention : Reuss Voigt Hill
#
# Bulk Modulus (GPa) = 49.45713 49.84045 49.64879
# Shear Modulus (GPa) = 25.89671 27.52982 26.71326
#
# Velocity S-wave (km/s) = 3.58758 3.69898 3.64371
# Velocity P-wave (km/s) = 6.46076 6.55851 6.50982
#
# Compressibility (1/GPa) = 0.02021953
#
# Stress axis : x y z
#
# Youngs Moduli (GPa) = 62.26425 42.87194 73.18923
#
# Poissons Ratio (x) = 0.35276 0.09900
# Poissons Ratio (y) = 0.51233 0.50016
# Poissons Ratio (z) = 0.08422 0.29298
#
# Static dielectric constant tensor:
#      x y z
#    x 3.244640 0.000000 0.000000 
#    y 0.000000 3.437850 0.000000 
#    z 0.000000 0.000000 4.091110 
# 
# 
# High freq. dielectric constant tensor:
#      x y z
#    x 1.755410 0.000000 0.000000 
#    y 0.000000 1.758500 0.000000 
#    z 0.000000 0.000000 1.811710 
# 
# From -- ./inp_files/10766.got.cif
#   From: 2010.03.12/outbox.cif.g09.slc.cpg/sg20_6_cif.got.tgz:10766.got - 2010.04.14 01:38:04.
