data_PCOD8159059
_publ_section_title
;
Structure prediction by ZEFSAII (Michael W. Deem and Ramdas Pophale) SiO2 
 PCOD8159059
Probable space group: C 2 2 21
;
_chemical_formula_sum "Si O2"
_cell_formula_units_Z 48
_cell_length_a 6.348555
_cell_length_b 25.442379
_cell_length_c 13.409935
_cell_angle_alpha 90.000000
_cell_angle_beta 90.000000
_cell_angle_gamma 90.000000
_cell_volume 2166.004113
_symmetry_space_group_name_H-M "C 2 2 21"
_symmetry_group_IT_number 20
_symmetry_cell_setting 'orthorhombic'
loop_
_space_group_symop_operation_xyz
x,y,z
-x,-y,1/2+z
x,-y,-z
-x,y,1/2-z
1/2+x,1/2+y,z
1/2-x,1/2-y,1/2+z
1/2+x,1/2-y,-z
1/2-x,1/2+y,1/2-z
loop_
_atom_site_type_symbol
_atom_site_label
_atom_site_fract_x
_atom_site_fract_y
_atom_site_fract_z
Si Si1 0.621530 0.175725 0.344694
Si Si2 0.882129 0.065834 0.151119
Si Si3 0.500000 0.737062 0.250000
Si Si4 0.116598 0.221381 0.850787
Si Si5 0.191724 0.022781 0.899629
Si Si6 0.000000 0.524333 0.250000
Si Si7 0.384006 0.627848 0.503524
O O1 0.500000 0.148955 0.250000
O O2 0.843545 0.200638 0.312488
O O3 0.471961 0.222065 0.386162
O O4 0.678207 0.133602 0.430933
O O5 0.000000 0.086915 0.250000
O O6 0.917376 0.108730 0.063690
O O7 0.633931 0.060500 0.173632
O O8 0.974601 0.009072 0.118496
O O9 0.634123 0.773663 0.326462
O O10 0.000000 0.202504 0.750000
O O11 0.068248 0.182111 0.941220
O O12 0.343890 0.014125 0.807370
O O13 0.156673 0.084855 0.910749
O O14 0.298049 0.000000 0.000000
#
# Coordination Sequence:
#
# PCOD8159059 Si02
#       7
#     8   8   4   8   8   4   8
#     4   9  21  42  61  90 128 171 220 273 321 381
#     4   9  21  43  62  92 128 165 213 278 326 390
#     4   8  18  41  62  80 132 172 214 271 316 364
#     4   9  21  41  61  94 132 175 220 265 327 390
#     4   9  21  41  60  95 129 162 217 266 322 395
#     4  10  20  43  72  84 136 172 206 271 336 382
#     4  11  22  39  70  96 134 170 221 268 332 396
#
# _framework density 22.160623999999999
#
# number of rings (size 3 to 8) (size 9 to 14) (size 15 to 20)
#    0.000    3.000    0.000    0.000    3.500    4.667 
#   13.500   15.000    0.000    0.000    0.000    0.000 
#    0.000    0.000    0.000    0.000    0.000    0.000 
#
# Total GULP energy -297485.172519 kJ/mol
# GULP energy per Si atom -12395.215522 kJ/mol
# Density = 2.211019 g / cm^3
# Si number density = 22.160624 Si / 1000 Ang^3
#
#
#
# Elastic Constant Matrix: (Units=GPa)
#
#
# Indices 1 2 3 4 5 6 
#
# 1 128.5361 41.4520 45.1570 0.0000 0.0000 0.0000
# 2 41.4520 92.0911 40.7025 0.0000 0.0000 0.0000
# 3 45.1570 40.7025 97.7551 0.0000 0.0000 0.0000
# 4 0.0000 0.0000 0.0000 47.4409 0.0000 0.0000
# 5 0.0000 0.0000 0.0000 0.0000 35.5760 0.0000
# 6 0.0000 0.0000 0.0000 0.0000 0.0000 6.3013
#
#
#
# Elastic Compliance Matrix: (Units=1/GPa)
#
#
# Indices 1 2 3 4 5 6 
#
# 1 0.009916 -0.002989 -0.003336 0.000000 0.000000 0.000000
# 2 -0.002989 0.014209 -0.004535 0.000000 0.000000 0.000000
# 3 -0.003336 -0.004535 0.013659 0.000000 0.000000 0.000000
# 4 0.000000 0.000000 0.000000 0.021079 0.000000 0.000000
# 5 0.000000 0.000000 0.000000 0.000000 0.028109 0.000000
# 6 0.000000 0.000000 0.000000 0.000000 0.000000 0.158696
#
#
# Mechanical properties :
#
#
# Convention : Reuss Voigt Hill
#
# Bulk Modulus (GPa) = 62.25484 63.66725 62.96104
# Shear Modulus (GPa) = 18.33229 30.60170 24.46699
#
# Velocity S-wave (km/s) = 2.87931 3.72008 3.32637
# Velocity P-wave (km/s) = 6.26158 6.87345 6.57464
#
# Compressibility (1/GPa) = 0.01606301
#
# Stress axis : x y z
#
# Youngs Moduli (GPa) = 100.84911 70.37922 73.21107
#
# Poissons Ratio (x) = 0.21035 0.24424
# Poissons Ratio (y) = 0.30142 0.33205
# Poissons Ratio (z) = 0.33644 0.31920
#
# Static dielectric constant tensor:
#      x y z
#    x 4.032270 0.000000 0.000000 
#    y 0.000000 3.864560 0.000000 
#    z 0.000000 0.000000 4.140990 
# 
# 
# High freq. dielectric constant tensor:
#      x y z
#    x 1.861530 0.000000 0.000000 
#    y 0.000000 1.863290 0.000000 
#    z 0.000000 0.000000 1.870800 
# 
# From -- ./inp_files/17826.got.cif
#   From: 2010.03.12/outbox.cif.g09.slc.cpg/sg20_9_cif.got.tgz:17826.got - 2010.04.14 01:38:04.
