data_PCOD8159352
_publ_section_title
;
Structure prediction by ZEFSAII (Michael W. Deem and Ramdas Pophale) SiO2 
 PCOD8159352
Probable space group: C 2 2 21
;
_chemical_formula_sum "Si O2"
_cell_formula_units_Z 56
_cell_length_a 31.906476
_cell_length_b 15.202781
_cell_length_c 5.376404
_cell_angle_alpha 90.000000
_cell_angle_beta 90.000000
_cell_angle_gamma 90.000000
_cell_volume 2607.917058
_symmetry_space_group_name_H-M "C 2 2 21"
_symmetry_group_IT_number 20
_symmetry_cell_setting 'orthorhombic'
loop_
_space_group_symop_operation_xyz
x,y,z
-x,-y,1/2+z
x,-y,-z
-x,y,1/2-z
1/2+x,1/2+y,z
1/2-x,1/2-y,1/2+z
1/2+x,1/2-y,-z
1/2-x,1/2+y,1/2-z
loop_
_atom_site_type_symbol
_atom_site_label
_atom_site_fract_x
_atom_site_fract_y
_atom_site_fract_z
Si Si1 0.724543 0.248259 0.097760
Si Si2 0.394802 0.000000 0.000000
Si Si3 0.500000 0.144546 0.250000
Si Si4 0.039811 0.222454 0.376732
Si Si5 0.572020 0.878808 0.100739
Si Si6 0.159121 0.590431 0.124447
Si Si7 0.112028 0.898856 0.497771
Si Si8 0.338396 0.397455 0.500708
O O1 0.744800 0.271472 0.365508
O O2 0.695100 0.163475 0.139915
O O3 0.702169 0.337126 0.008485
O O4 0.362227 0.071322 0.110051
O O5 0.427585 0.953072 0.185623
O O6 0.526610 0.204148 0.431330
O O7 0.463853 0.090105 0.401188
O O8 0.063775 0.277738 0.167376
O O9 0.068114 0.150675 0.507758
O O10 0.000000 0.173976 0.250000
O O11 0.620240 0.872609 0.026747
O O12 0.176812 0.500000 0.000000
O O13 0.135143 0.873145 0.243980
O O14 0.100368 0.000000 0.500000
O O15 0.137871 0.873615 0.744071
O O16 0.325112 0.500000 0.500000
#
# Coordination Sequence:
#
# PCOD8159352 Si02
#       8
#     8   4   4   8   8   8   8   8
#     4  12  28  44  70 110 138 177 226 279 350 421
#     4  10  22  40  72  96 130 182 238 272 346 400
#     4  10  22  38  62  98 130 180 224 280 352 386
#     4  10  22  37  61  89 131 174 218 276 342 388
#     4  10  21  40  68  95 131 178 232 279 337 411
#     4  10  24  43  71  96 134 185 229 282 342 415
#     4  10  22  41  66  98 127 176 226 275 329 402
#     4  10  23  44  70  97 133 172 223 277 340 402
#
# _framework density 21.473077
#
# number of rings (size 3 to 8) (size 9 to 14) (size 15 to 20)
#    0.000    1.714    0.000    2.571   12.000    1.143 
#    1.286    0.000  113.143    0.000    0.000    0.000 
#    0.000    0.000    0.000    0.000    0.000    0.000 
#
# Total GULP energy -346925.262394 kJ/mol
# GULP energy per Si atom -12390.187943 kJ/mol
# Density = 2.142420 g / cm^3
# Si number density = 21.473077 Si / 1000 Ang^3
#
#
#
# Elastic Constant Matrix: (Units=GPa)
#
#
# Indices 1 2 3 4 5 6 
#
# 1 74.6915 50.1795 19.7279 0.0000 0.0000 0.0000
# 2 50.1795 78.2027 21.1630 0.0000 0.0000 0.0000
# 3 19.7279 21.1630 116.3403 0.0000 0.0000 0.0000
# 4 0.0000 0.0000 0.0000 -0.8330 0.0000 0.0000
# 5 0.0000 0.0000 0.0000 0.0000 23.0738 0.0000
# 6 0.0000 0.0000 0.0000 0.0000 0.0000 -500.8625
#
#
#
# Elastic Compliance Matrix: (Units=1/GPa)
#
#
# Indices 1 2 3 4 5 6 
#
# 1 0.023724 -0.014866 -0.001319 0.000000 0.000000 0.000000
# 2 -0.014866 0.022764 -0.001620 0.000000 0.000000 0.000000
# 3 -0.001319 -0.001620 0.009114 0.000000 0.000000 0.000000
# 4 0.000000 0.000000 0.000000 -1.200501 0.000000 0.000000
# 5 0.000000 0.000000 0.000000 0.000000 0.043339 0.000000
# 6 0.000000 0.000000 0.000000 0.000000 0.000000 -0.001997
#
#
# Mechanical properties :
#
#
# Convention : Reuss Voigt Hill
#
# Bulk Modulus (GPa) = 50.01794 50.15282 50.08538
# Shear Modulus (GPa) = -4.71128 -83.84674 -44.27901
#
# Velocity S-wave (km/s) = -1.48284 -6.25557 -4.54593
# Velocity P-wave (km/s) = 4.51798 5.36371 2.04416
#
# Compressibility (1/GPa) = 0.01999283
#
# Stress axis : x y z
#
# Youngs Moduli (GPa) = 42.15160 43.92807 109.72361
#
# Poissons Ratio (x) = 0.65303 0.14469
# Poissons Ratio (y) = 0.62662 0.17777
# Poissons Ratio (z) = 0.05559 0.07117
#
# Static dielectric constant tensor:
#      x y z
#    x 3.856380 0.000000 0.000000 
#    y 0.000000 4.328500 0.000000 
#    z 0.000000 0.000000 13.785930 
# 
# 
# High freq. dielectric constant tensor:
#      x y z
#    x 1.837520 0.000000 0.000000 
#    y 0.000000 1.839680 0.000000 
#    z 0.000000 0.000000 1.864400 
# 
# From -- ./inp_files/4718.got.cif
#   From: 2010.03.12/outbox.cif.g09.slc.cpg/sg20_3_cif.got.tgz:4718.got - 2010.04.14 01:38:04.
