data_PCOD8159899
_publ_section_title
;
Structure prediction by ZEFSAII (Michael W. Deem and Ramdas Pophale) SiO2 
 PCOD8159899
Probable space group: C 2 2 21
;
_chemical_formula_sum "Si O2"
_cell_formula_units_Z 32
_cell_length_a 12.585538
_cell_length_b 8.312059
_cell_length_c 12.588691
_cell_angle_alpha 90.000000
_cell_angle_beta 90.000000
_cell_angle_gamma 90.000000
_cell_volume 1316.924799
_symmetry_space_group_name_H-M "C 2 2 21"
_symmetry_group_IT_number 20
_symmetry_cell_setting 'orthorhombic'
loop_
_space_group_symop_operation_xyz
x,y,z
-x,-y,1/2+z
x,-y,-z
-x,y,1/2-z
1/2+x,1/2+y,z
1/2-x,1/2-y,1/2+z
1/2+x,1/2-y,-z
1/2-x,1/2+y,1/2-z
loop_
_atom_site_type_symbol
_atom_site_label
_atom_site_fract_x
_atom_site_fract_y
_atom_site_fract_z
Si Si1 0.865809 0.000000 0.000000
Si Si2 0.490616 0.832428 0.976748
Si Si3 0.000000 0.243336 0.750000
Si Si4 0.391696 0.203374 0.685672
Si Si5 0.698664 0.487914 0.273382
O O1 0.795979 0.038175 0.102803
O O2 0.933944 0.837875 0.012800
O O3 0.524929 0.853000 0.853257
O O4 0.589112 0.832203 0.060813
O O5 0.425720 0.000000 0.000000
O O6 0.893937 0.141609 0.763668
O O7 0.500000 0.224114 0.750000
O O8 0.325744 0.370020 0.691491
O O9 0.317581 0.076085 0.748382
#
# Coordination Sequence:
#
# PCOD8159899 Si02
#       5
#     4   8   4   8   8
#     4  10  22  50  72 110 156 208 256 332 394 458
#     4  11  25  44  82 110 158 205 265 327 394 481
#     4  10  24  50  76 112 152 210 260 330 400 464
#     4  12  26  48  75 118 155 208 261 327 399 485
#     4  11  25  46  80 106 159 205 258 328 398 475
#
# _framework density 24.299032
#
# number of rings (size 3 to 8) (size 9 to 14) (size 15 to 20)
#    0.000    1.000    3.750    1.500    7.000    2.000 
#    0.000    0.000    2.750    0.000    0.000    0.000 
#    0.000    0.000    0.000    0.000    0.000    0.000 
#
# Total GULP energy -198218.114871 kJ/mol
# GULP energy per Si atom -12388.632179 kJ/mol
# Density = 2.424373 g / cm^3
# Si number density = 24.299032 Si / 1000 Ang^3
#
#
#
# Elastic Constant Matrix: (Units=GPa)
#
#
# Indices 1 2 3 4 5 6 
#
# 1 103.1369 38.4753 11.6513 0.0000 0.0000 0.0000
# 2 38.4753 158.2960 48.3268 0.0000 0.0000 0.0000
# 3 11.6513 48.3268 143.9975 0.0000 0.0000 0.0000
# 4 0.0000 0.0000 0.0000 33.2315 0.0000 0.0000
# 5 0.0000 0.0000 0.0000 0.0000 19.0064 0.0000
# 6 0.0000 0.0000 0.0000 0.0000 0.0000 110.8696
#
#
#
# Elastic Compliance Matrix: (Units=1/GPa)
#
#
# Indices 1 2 3 4 5 6 
#
# 1 0.010663 -0.002594 0.000008 0.000000 0.000000 0.000000
# 2 -0.002594 0.007670 -0.002364 0.000000 0.000000 0.000000
# 3 0.000008 -0.002364 0.007737 0.000000 0.000000 0.000000
# 4 0.000000 0.000000 0.000000 0.030092 0.000000 0.000000
# 5 0.000000 0.000000 0.000000 0.000000 0.052614 0.000000
# 6 0.000000 0.000000 0.000000 0.000000 0.000000 0.009020
#
#
# Mechanical properties :
#
#
# Convention : Reuss Voigt Hill
#
# Bulk Modulus (GPa) = 61.84688 66.92636 64.38662
# Shear Modulus (GPa) = 37.56991 53.08664 45.32827
#
# Velocity S-wave (km/s) = 3.93638 4.67917 4.32375
# Velocity P-wave (km/s) = 6.79468 7.53628 7.17507
#
# Compressibility (1/GPa) = 0.01616896
#
# Stress axis : x y z
#
# Youngs Moduli (GPa) = 93.78512 130.38628 129.24351
#
# Poissons Ratio (x) = 0.33823 -0.00101
# Poissons Ratio (y) = 0.24328 0.30554
# Poissons Ratio (z) = -0.00073 0.30824
#
# Static dielectric constant tensor:
#      x y z
#    x 4.096250 0.000000 0.000000 
#    y 0.000000 4.650040 0.000000 
#    z 0.000000 0.000000 4.872930 
# 
# 
# High freq. dielectric constant tensor:
#      x y z
#    x 1.940790 0.000000 0.000000 
#    y 0.000000 1.987410 0.000000 
#    z 0.000000 0.000000 1.979500 
# 
# From -- ./inp_files/14724.got.cif
#   From: 2010.03.12/outbox.cif.g09.slc.cpg/sg20_8_cif.got.tgz:14724.got - 2010.04.14 01:38:04.
