data_PCOD8159421
_publ_section_title
;
Structure prediction by ZEFSAII (Michael W. Deem and Ramdas Pophale) SiO2 
 PCOD8159421
Probable space group: C 2 2 21
;
_chemical_formula_sum "Si O2"
_cell_formula_units_Z 64
_cell_length_a 8.505344
_cell_length_b 18.441690
_cell_length_c 19.446494
_cell_angle_alpha 90.000000
_cell_angle_beta 90.000000
_cell_angle_gamma 90.000000
_cell_volume 3050.239317
_symmetry_space_group_name_H-M "C 2 2 21"
_symmetry_group_IT_number 20
_symmetry_cell_setting 'orthorhombic'
loop_
_space_group_symop_operation_xyz
x,y,z
-x,-y,1/2+z
x,-y,-z
-x,y,1/2-z
1/2+x,1/2+y,z
1/2-x,1/2-y,1/2+z
1/2+x,1/2-y,-z
1/2-x,1/2+y,1/2-z
loop_
_atom_site_type_symbol
_atom_site_label
_atom_site_fract_x
_atom_site_fract_y
_atom_site_fract_z
Si Si1 0.180900 0.923956 0.974620
Si Si2 0.962993 0.658348 0.959482
Si Si3 0.532562 0.684017 0.416359
Si Si4 0.869313 0.560015 0.160698
Si Si5 0.126530 0.340598 0.898108
Si Si6 0.343158 0.672990 0.284316
Si Si7 0.145761 0.784948 0.201983
Si Si8 0.088815 0.605828 0.682249
O O1 0.242440 0.939894 0.899007
O O2 0.036562 0.867941 0.975174
O O3 0.317939 0.892592 0.021528
O O4 0.113985 0.000000 0.000000
O O5 0.908758 0.741082 0.949625
O O6 0.017201 0.625855 0.885361
O O7 0.093578 0.658484 0.019576
O O8 0.688185 0.646518 0.384721
O O9 0.393381 0.697885 0.361267
O O10 0.793642 0.612154 0.218669
O O11 0.891987 0.480225 0.190102
O O12 0.035393 0.592895 0.136680
O O13 0.079100 0.264037 0.861513
O O14 0.500000 0.640993 0.250000
O O15 0.277943 0.741822 0.244172
O O16 0.238909 0.856085 0.174973
O O17 0.000000 0.808416 0.250000
O O18 0.000000 0.634706 0.750000
#
# Coordination Sequence:
#
# PCOD8159421 Si02
#       8
#     8   8   8   8   8   8   8   8
#     4  10  21  42  64  91 131 175 214 277 332 382
#     4  11  22  42  66  95 133 174 223 271 332 400
#     4  11  22  38  67  99 129 173 229 266 329 394
#     4  10  24  41  68  95 127 182 219 263 336 401
#     4  11  23  41  68  99 129 179 226 273 327 398
#     4  11  21  39  69  95 133 171 224 271 325 391
#     4  12  24  44  67  99 133 172 223 277 327 396
#     4  12  26  44  66  96 138 172 219 280 344 389
#
# _framework density 20.981959
#
# number of rings (size 3 to 8) (size 9 to 14) (size 15 to 20)
#    0.000    1.000    5.000    1.875    1.750    0.500 
#    4.500    1.250    0.000    0.000    0.000    0.000 
#    0.000    0.000    0.000    0.000    0.000    0.000 
#
# Total GULP energy -396701.717941 kJ/mol
# GULP energy per Si atom -12396.928686 kJ/mol
# Density = 2.093420 g / cm^3
# Si number density = 20.981959 Si / 1000 Ang^3
#
#
#
# Elastic Constant Matrix: (Units=GPa)
#
#
# Indices 1 2 3 4 5 6 
#
# 1 72.7956 23.4120 23.1368 0.0000 0.0000 0.0000
# 2 23.4120 118.9302 24.3804 0.0000 0.0000 0.0000
# 3 23.1368 24.3804 94.4566 0.0000 0.0000 0.0000
# 4 0.0000 0.0000 0.0000 28.7245 0.0000 0.0000
# 5 0.0000 0.0000 0.0000 0.0000 27.6018 0.0000
# 6 0.0000 0.0000 0.0000 0.0000 0.0000 28.4672
#
#
#
# Elastic Compliance Matrix: (Units=1/GPa)
#
#
# Indices 1 2 3 4 5 6 
#
# 1 0.015521 -0.002403 -0.003182 0.000000 0.000000 0.000000
# 2 -0.002403 0.009250 -0.001799 0.000000 0.000000 0.000000
# 3 -0.003182 -0.001799 0.011831 0.000000 0.000000 0.000000
# 4 0.000000 0.000000 0.000000 0.034814 0.000000 0.000000
# 5 0.000000 0.000000 0.000000 0.000000 0.036229 0.000000
# 6 0.000000 0.000000 0.000000 0.000000 0.000000 0.035128
#
#
# Mechanical properties :
#
#
# Convention : Reuss Voigt Hill
#
# Bulk Modulus (GPa) = 45.79913 47.56008 46.67960
# Shear Modulus (GPa) = 30.33638 31.30891 30.82265
#
# Velocity S-wave (km/s) = 3.80653 3.86707 3.83692
# Velocity P-wave (km/s) = 6.41832 6.53110 6.47496
#
# Compressibility (1/GPa) = 0.02183448
#
# Stress axis : x y z
#
# Youngs Moduli (GPa) = 64.42797 108.10641 84.52724
#
# Poissons Ratio (x) = 0.25980 0.26893
# Poissons Ratio (y) = 0.15483 0.15206
# Poissons Ratio (z) = 0.20498 0.19447
#
# Static dielectric constant tensor:
#      x y z
#    x 3.729980 0.000000 0.000000 
#    y 0.000000 3.820060 0.000000 
#    z 0.000000 0.000000 4.054060 
# 
# 
# High freq. dielectric constant tensor:
#      x y z
#    x 1.807150 0.000000 0.000000 
#    y 0.000000 1.815010 0.000000 
#    z 0.000000 0.000000 1.834810 
# 
# From -- ./inp_files/26905.got.cif
#   From: 2010.03.12/outbox.cif.g09.slc.cpg/sg20_14_cif.got.tgz:26905.got - 2010.04.14 01:38:04.
