data_PCOD8159626
_publ_section_title
;
Structure prediction by ZEFSAII (Michael W. Deem and Ramdas Pophale) SiO2 
 PCOD8159626
Probable space group: C 2 2 21
;
_chemical_formula_sum "Si O2"
_cell_formula_units_Z 40
_cell_length_a 9.448680
_cell_length_b 7.858388
_cell_length_c 22.791903
_cell_angle_alpha 90.000000
_cell_angle_beta 90.000000
_cell_angle_gamma 90.000000
_cell_volume 1692.330559
_symmetry_space_group_name_H-M "C 2 2 21"
_symmetry_group_IT_number 20
_symmetry_cell_setting 'orthorhombic'
loop_
_space_group_symop_operation_xyz
x,y,z
-x,-y,1/2+z
x,-y,-z
-x,y,1/2-z
1/2+x,1/2+y,z
1/2-x,1/2-y,1/2+z
1/2+x,1/2-y,-z
1/2-x,1/2+y,1/2-z
loop_
_atom_site_type_symbol
_atom_site_label
_atom_site_fract_x
_atom_site_fract_y
_atom_site_fract_z
Si Si1 0.918939 0.183731 0.468243
Si Si2 0.729315 0.301675 0.561759
Si Si3 0.841409 0.622882 0.765178
Si Si4 0.844674 0.984549 0.828757
Si Si5 0.842384 0.997130 0.360733
O O1 0.828029 0.324533 0.504123
O O2 0.852275 0.162925 0.402687
O O3 0.076252 0.258455 0.461588
O O4 0.923236 0.000000 0.500000
O O5 0.710898 0.467102 0.603580
O O6 0.805217 0.160838 0.599492
O O7 0.833061 0.806400 0.794496
O O8 0.750933 0.623095 0.704786
O O9 0.775978 0.482881 0.810173
O O10 0.000000 0.567444 0.750000
O O11 0.007868 0.041024 0.829033
#
# Coordination Sequence:
#
# PCOD8159626 Si02
#       5
#     8   8   8   8   8
#     4   9  18  36  57  81 114 150 192 242 294 354
#     4   9  19  36  60  85 115 155 194 239 297 350
#     4  11  22  36  58  87 115 152 201 248 296 352
#     4  10  22  40  59  85 121 157 196 246 297 350
#     4   9  19  38  58  80 118 158 191 241 302 352
#
# _framework density 23.636044999999999
#
# number of rings (size 3 to 8) (size 9 to 14) (size 15 to 20)
#    0.000    2.400    0.000    1.800    0.000    4.800 
#    0.000   25.000    0.000    0.000    0.000    0.000 
#    0.000    0.000    0.000    0.000    0.000    0.000 
#
# Total GULP energy -247860.751950 kJ/mol
# GULP energy per Si atom -12393.037598 kJ/mol
# Density = 2.358225 g / cm^3
# Si number density = 23.636045 Si / 1000 Ang^3
#
#
#
# Elastic Constant Matrix: (Units=GPa)
#
#
# Indices 1 2 3 4 5 6 
#
# 1 128.9001 23.0943 47.8851 0.0000 0.0000 0.0000
# 2 23.0943 31.4691 7.4122 0.0000 0.0000 0.0000
# 3 47.8851 7.4122 95.6014 0.0000 0.0000 0.0000
# 4 0.0000 0.0000 0.0000 26.2552 0.0000 0.0000
# 5 0.0000 0.0000 0.0000 0.0000 65.2163 0.0000
# 6 0.0000 0.0000 0.0000 0.0000 0.0000 26.9962
#
#
#
# Elastic Compliance Matrix: (Units=1/GPa)
#
#
# Indices 1 2 3 4 5 6 
#
# 1 0.010781 -0.006763 -0.004876 0.000000 0.000000 0.000000
# 2 -0.006763 0.036611 0.000549 0.000000 0.000000 0.000000
# 3 -0.004876 0.000549 0.012860 0.000000 0.000000 0.000000
# 4 0.000000 0.000000 0.000000 0.038088 0.000000 0.000000
# 5 0.000000 0.000000 0.000000 0.000000 0.015334 0.000000
# 6 0.000000 0.000000 0.000000 0.000000 0.000000 0.037042
#
#
# Mechanical properties :
#
#
# Convention : Reuss Voigt Hill
#
# Bulk Modulus (GPa) = 26.26595 45.86153 36.06374
# Shear Modulus (GPa) = 26.94169 35.53214 31.23691
#
# Velocity S-wave (km/s) = 3.37984 3.88145 3.63930
# Velocity P-wave (km/s) = 5.13496 6.28752 5.74024
#
# Compressibility (1/GPa) = 0.03807211
#
# Stress axis : x y z
#
# Youngs Moduli (GPa) = 92.75617 27.31392 77.76272
#
# Poissons Ratio (x) = 0.18474 0.37914
# Poissons Ratio (y) = 0.62735 -0.04270
# Poissons Ratio (z) = 0.45224 -0.01500
#
# Static dielectric constant tensor:
#      x y z
#    x 4.375180 0.000000 0.000000 
#    y 0.000000 3.676370 0.000000 
#    z 0.000000 0.000000 5.386330 
# 
# 
# High freq. dielectric constant tensor:
#      x y z
#    x 1.939010 0.000000 0.000000 
#    y 0.000000 1.892070 0.000000 
#    z 0.000000 0.000000 1.969950 
# 
# From -- ./inp_files/28586.got.cif
#   From: 2010.03.12/outbox.cif.g09.slc.cpg/sg20_15_cif.got.tgz:28586.got - 2010.04.14 01:38:04.
