data_PCOD8159701
_publ_section_title
;
Structure prediction by ZEFSAII (Michael W. Deem and Ramdas Pophale) SiO2 
 PCOD8159701
Probable space group: C 2 2 21
;
_chemical_formula_sum "Si O2"
_cell_formula_units_Z 60
_cell_length_a 21.423521
_cell_length_b 11.793415
_cell_length_c 11.802334
_cell_angle_alpha 90.000000
_cell_angle_beta 90.000000
_cell_angle_gamma 90.000000
_cell_volume 2981.936092
_symmetry_space_group_name_H-M "C 2 2 21"
_symmetry_group_IT_number 20
_symmetry_cell_setting 'orthorhombic'
loop_
_space_group_symop_operation_xyz
x,y,z
-x,-y,1/2+z
x,-y,-z
-x,y,1/2-z
1/2+x,1/2+y,z
1/2-x,1/2-y,1/2+z
1/2+x,1/2-y,-z
1/2-x,1/2+y,1/2-z
loop_
_atom_site_type_symbol
_atom_site_label
_atom_site_fract_x
_atom_site_fract_y
_atom_site_fract_z
Si Si1 0.555456 0.926726 0.826755
Si Si2 0.655022 0.743905 0.200026
Si Si3 0.957270 0.327935 0.431570
Si Si4 0.650742 0.147348 0.354154
Si Si5 0.221947 0.970106 0.879227
Si Si6 0.906909 0.761995 0.936947
Si Si7 0.650701 0.500000 0.500000
Si Si8 0.721705 0.631127 0.685925
O O1 0.500000 0.878430 0.750000
O O2 0.617302 0.918987 0.749077
O O3 0.541282 0.055358 0.861714
O O4 0.558862 0.848047 0.937030
O O5 0.596919 0.749625 0.116403
O O6 0.680165 0.616511 0.192319
O O7 0.635249 0.770919 0.328942
O O8 0.708284 0.829473 0.153949
O O9 0.020425 0.257133 0.410551
O O10 0.708163 0.074178 0.398121
O O11 0.607286 0.172638 0.462599
O O12 0.673598 0.266607 0.306657
O O13 0.224016 0.086592 0.812520
O O14 0.191664 0.000000 0.000000
O O15 0.893492 0.893447 0.968339
O O16 0.697889 0.535137 0.599878
#
# Coordination Sequence:
#
# PCOD8159701 Si02
#       8
#     8   8   8   8   8   8   4   8
#     4  11  22  42  62  95 126 165 213 263 319 386
#     4  11  23  40  64  96 127 169 211 272 332 380
#     4  11  25  40  66  95 133 166 211 268 324 390
#     4  10  23  39  68  89 124 172 213 266 327 388
#     4  11  23  39  60  93 129 164 214 269 326 381
#     4  11  21  45  65  92 130 173 223 263 323 406
#     4  10  22  42  70  92 124 178 228 260 326 398
#     4  10  22  41  64  93 127 165 215 273 318 392
#
# _framework density 20.121157
#
# number of rings (size 3 to 8) (size 9 to 14) (size 15 to 20)
#    0.000    1.333    2.667    2.800    1.867    3.200 
#    1.200    0.000    2.933    0.000    0.000    0.000 
#    0.000    0.000    0.000    0.000    0.000    0.000 
#
# Total GULP energy -372030.555786 kJ/mol
# GULP energy per Si atom -12401.018526 kJ/mol
# Density = 2.007536 g / cm^3
# Si number density = 20.121157 Si / 1000 Ang^3
#
#
#
# Elastic Constant Matrix: (Units=GPa)
#
#
# Indices 1 2 3 4 5 6 
#
# 1 123.0769 34.3373 47.5653 0.0000 0.0000 0.0000
# 2 34.3373 64.0001 39.3864 0.0000 0.0000 0.0000
# 3 47.5653 39.3864 124.1454 0.0000 0.0000 0.0000
# 4 0.0000 0.0000 0.0000 35.2518 0.0000 0.0000
# 5 0.0000 0.0000 0.0000 0.0000 38.4024 0.0000
# 6 0.0000 0.0000 0.0000 0.0000 0.0000 14.6827
#
#
#
# Elastic Compliance Matrix: (Units=1/GPa)
#
#
# Indices 1 2 3 4 5 6 
#
# 1 0.010240 -0.003826 -0.002709 0.000000 0.000000 0.000000
# 2 -0.003826 0.020846 -0.005147 0.000000 0.000000 0.000000
# 3 -0.002709 -0.005147 0.010726 0.000000 0.000000 0.000000
# 4 0.000000 0.000000 0.000000 0.028367 0.000000 0.000000
# 5 0.000000 0.000000 0.000000 0.000000 0.026040 0.000000
# 6 0.000000 0.000000 0.000000 0.000000 0.000000 0.068107
#
#
# Mechanical properties :
#
#
# Convention : Reuss Voigt Hill
#
# Bulk Modulus (GPa) = 54.21454 61.53336 57.87395
# Shear Modulus (GPa) = 25.79438 30.32962 28.06200
#
# Velocity S-wave (km/s) = 3.58432 3.88667 3.73855
# Velocity P-wave (km/s) = 6.64322 7.12667 6.88919
#
# Compressibility (1/GPa) = 0.01844524
#
# Stress axis : x y z
#
# Youngs Moduli (GPa) = 97.66029 47.97144 93.22990
#
# Poissons Ratio (x) = 0.18356 0.25258
# Poissons Ratio (y) = 0.37369 0.47990
# Poissons Ratio (z) = 0.26458 0.24693
#
# Static dielectric constant tensor:
#      x y z
#    x 3.640650 0.000000 0.000000 
#    y 0.000000 3.581310 0.000000 
#    z 0.000000 0.000000 3.811580 
# 
# 
# High freq. dielectric constant tensor:
#      x y z
#    x 1.785610 0.000000 0.000000 
#    y 0.000000 1.782680 0.000000 
#    z 0.000000 0.000000 1.799670 
# 
# From -- ./inp_files/16386.got.cif
#   From: 2010.03.12/outbox.cif.g09.slc.cpg/sg20_9_cif.got.tgz:16386.got - 2010.04.14 01:38:04.
