data_PCOD8159946
_publ_section_title
;
Structure prediction by ZEFSAII (Michael W. Deem and Ramdas Pophale) SiO2 
 PCOD8159946
Probable space group: C 2 2 21
;
_chemical_formula_sum "Si O2"
_cell_formula_units_Z 24
_cell_length_a 7.079052
_cell_length_b 7.700442
_cell_length_c 17.783455
_cell_angle_alpha 90.000000
_cell_angle_beta 90.000000
_cell_angle_gamma 90.000000
_cell_volume 969.408664
_symmetry_space_group_name_H-M "C 2 2 21"
_symmetry_group_IT_number 20
_symmetry_cell_setting 'orthorhombic'
loop_
_space_group_symop_operation_xyz
x,y,z
-x,-y,1/2+z
x,-y,-z
-x,y,1/2-z
1/2+x,1/2+y,z
1/2-x,1/2-y,1/2+z
1/2+x,1/2-y,-z
1/2-x,1/2+y,1/2-z
loop_
_atom_site_type_symbol
_atom_site_label
_atom_site_fract_x
_atom_site_fract_y
_atom_site_fract_z
Si Si1 0.643310 0.845931 0.411450
Si Si2 0.006766 0.004205 0.838296
Si Si3 0.233845 0.850982 0.450643
O O1 0.774307 0.983225 0.366103
O O2 0.600902 0.671839 0.362471
O O3 0.437805 0.925459 0.426188
O O4 0.740155 0.815882 0.494268
O O5 0.000000 0.026130 0.750000
O O6 0.896626 0.168845 0.876125
O O7 0.132410 0.000000 0.500000
#
# Coordination Sequence:
#
# PCOD8159946 Si02
#       3
#     8   8   8
#     4  11  24  45  71 101 141 187 247 291 363 429
#     4  11  27  44  67 106 146 188 238 303 367 427
#     4  10  23  41  70 103 135 192 241 298 351 435
#
# _framework density 24.757359999999998
#
# number of rings (size 3 to 8) (size 9 to 14) (size 15 to 20)
#    0.000    1.333    3.333    0.000    9.333    0.000 
#    0.000    0.000    0.000    0.000    0.000    0.000 
#    0.000    0.000    0.000    0.000    0.000    0.000 
#
# Total GULP energy -148663.891284 kJ/mol
# GULP energy per Si atom -12388.657607 kJ/mol
# Density = 2.470101 g / cm^3
# Si number density = 24.757360 Si / 1000 Ang^3
#
#
#
# Elastic Constant Matrix: (Units=GPa)
#
#
# Indices 1 2 3 4 5 6 
#
# 1 139.7491 -1.1900 53.7421 0.0000 0.0000 0.0000
# 2 -1.1900 25.0312 10.1274 0.0000 0.0000 0.0000
# 3 53.7421 10.1274 195.7170 0.0000 0.0000 0.0000
# 4 0.0000 0.0000 0.0000 19.8670 0.0000 0.0000
# 5 0.0000 0.0000 0.0000 0.0000 42.8901 0.0000
# 6 0.0000 0.0000 0.0000 0.0000 0.0000 32.4885
#
#
#
# Elastic Compliance Matrix: (Units=1/GPa)
#
#
# Indices 1 2 3 4 5 6 
#
# 1 0.008042 0.001303 -0.002276 0.000000 0.000000 0.000000
# 2 0.001303 0.041015 -0.002480 0.000000 0.000000 0.000000
# 3 -0.002276 -0.002480 0.005863 0.000000 0.000000 0.000000
# 4 0.000000 0.000000 0.000000 0.050335 0.000000 0.000000
# 5 0.000000 0.000000 0.000000 0.000000 0.023315 0.000000
# 6 0.000000 0.000000 0.000000 0.000000 0.000000 0.030780
#
#
# Mechanical properties :
#
#
# Convention : Reuss Voigt Hill
#
# Bulk Modulus (GPa) = 20.82708 53.98404 37.40556
# Shear Modulus (GPa) = 27.43326 38.90367 33.16846
#
# Velocity S-wave (km/s) = 3.33240 3.96839 3.66422
# Velocity P-wave (km/s) = 4.82051 6.54599 5.74836
#
# Compressibility (1/GPa) = 0.04801442
#
# Stress axis : x y z
#
# Youngs Moduli (GPa) = 124.34869 24.38105 170.57201
#
# Poissons Ratio (x) = -0.03177 0.38816
# Poissons Ratio (y) = -0.16203 0.42304
# Poissons Ratio (z) = 0.28297 0.06047
#
# Static dielectric constant tensor:
#      x y z
#    x 4.501910 0.000000 0.000000 
#    y 0.000000 4.203680 0.000000 
#    z 0.000000 0.000000 4.436240 
# 
# 
# High freq. dielectric constant tensor:
#      x y z
#    x 1.998260 0.000000 0.000000 
#    y 0.000000 1.967560 0.000000 
#    z 0.000000 0.000000 1.979880 
# 
# From -- ./inp_files/18063.got.cif
#   From: 2010.03.12/outbox.cif.g09.slc.cpg/sg20_10_cif.got.tgz:18063.got - 2010.04.14 01:38:04.
