data_PCOD8159257
_publ_section_title
;
Structure prediction by ZEFSAII (Michael W. Deem and Ramdas Pophale) SiO2 
 PCOD8159257
Probable space group: C 2 2 21
;
_chemical_formula_sum "Si O2"
_cell_formula_units_Z 64
_cell_length_a 29.947253
_cell_length_b 12.408169
_cell_length_c 8.300360
_cell_angle_alpha 90.000000
_cell_angle_beta 90.000000
_cell_angle_gamma 90.000000
_cell_volume 3084.335556
_symmetry_space_group_name_H-M "C 2 2 21"
_symmetry_group_IT_number 20
_symmetry_cell_setting 'orthorhombic'
loop_
_space_group_symop_operation_xyz
x,y,z
-x,-y,1/2+z
x,-y,-z
-x,y,1/2-z
1/2+x,1/2+y,z
1/2-x,1/2-y,1/2+z
1/2+x,1/2-y,-z
1/2-x,1/2+y,1/2-z
loop_
_atom_site_type_symbol
_atom_site_label
_atom_site_fract_x
_atom_site_fract_y
_atom_site_fract_z
Si Si1 0.598063 0.342981 0.127283
Si Si2 0.450943 0.169418 0.213042
Si Si3 0.381134 0.570381 0.278381
Si Si4 0.403792 0.775724 0.095440
Si Si5 0.288712 0.530451 0.826713
Si Si6 0.892739 0.475189 0.315940
Si Si7 0.830505 0.743841 0.157575
Si Si8 0.198844 0.478960 0.679881
O O1 0.554605 0.267763 0.155345
O O2 0.592873 0.456000 0.224145
O O3 0.634964 0.263307 0.199052
O O4 0.613492 0.369557 0.948168
O O5 0.500000 0.122830 0.250000
O O6 0.415498 0.071642 0.216999
O O7 0.444945 0.214097 0.030464
O O8 0.403706 0.650691 0.151807
O O9 0.329083 0.544674 0.239286
O O10 0.409580 0.859642 0.244822
O O11 0.356451 0.791635 0.005278
O O12 0.302059 0.651080 0.862521
O O13 0.247481 0.530124 0.704398
O O14 0.270020 0.500000 0.000000
O O15 0.906573 0.500000 0.500000
O O16 0.839170 0.475022 0.298490
O O17 0.797056 0.649113 0.208865
O O18 0.182616 0.500000 0.500000
#
# Coordination Sequence:
#
# PCOD8159257 Si02
#       8
#     8   8   8   8   8   8   8   8
#     4   9  20  40  66  95 129 172 216 268 340 394
#     4  11  24  44  69  99 133 168 222 280 339 406
#     4  10  21  40  66  95 130 176 220 269 331 405
#     4  11  21  41  71  94 131 178 219 271 339 403
#     4  11  24  39  58  96 128 172 232 271 326 387
#     4  12  24  42  67  97 134 178 222 272 344 402
#     4  10  21  39  62  86 125 173 221 272 329 390
#     4  12  24  41  60  91 135 174 222 281 331 391
#
# _framework density 20.750011000000001
#
# number of rings (size 3 to 8) (size 9 to 14) (size 15 to 20)
#    0.000    1.250    5.000    1.500    3.500    3.000 
#    0.000    4.375    0.000    0.000    0.000    0.000 
#    0.000    0.000    0.000    0.000    0.000    0.000 
#
# Total GULP energy -396532.141462 kJ/mol
# GULP energy per Si atom -12391.629421 kJ/mol
# Density = 2.070278 g / cm^3
# Si number density = 20.750011 Si / 1000 Ang^3
#
#
#
# Elastic Constant Matrix: (Units=GPa)
#
#
# Indices 1 2 3 4 5 6 
#
# 1 72.0554 33.1443 19.0471 0.0000 0.0000 0.0000
# 2 33.1443 105.8312 26.6709 0.0000 0.0000 0.0000
# 3 19.0471 26.6709 86.4513 0.0000 0.0000 0.0000
# 4 0.0000 0.0000 0.0000 41.0237 0.0000 0.0000
# 5 0.0000 0.0000 0.0000 0.0000 15.1829 0.0000
# 6 0.0000 0.0000 0.0000 0.0000 0.0000 21.0686
#
#
#
# Elastic Compliance Matrix: (Units=1/GPa)
#
#
# Indices 1 2 3 4 5 6 
#
# 1 0.016600 -0.004638 -0.002227 0.000000 0.000000 0.000000
# 2 -0.004638 0.011541 -0.002539 0.000000 0.000000 0.000000
# 3 -0.002227 -0.002539 0.012841 0.000000 0.000000 0.000000
# 4 0.000000 0.000000 0.000000 0.024376 0.000000 0.000000
# 5 0.000000 0.000000 0.000000 0.000000 0.065863 0.000000
# 6 0.000000 0.000000 0.000000 0.000000 0.000000 0.047464
#
#
# Mechanical properties :
#
#
# Convention : Reuss Voigt Hill
#
# Bulk Modulus (GPa) = 45.09340 46.89583 45.99461
# Shear Modulus (GPa) = 24.40404 27.82008 26.11206
#
# Velocity S-wave (km/s) = 3.43315 3.66556 3.55126
# Velocity P-wave (km/s) = 6.12326 6.36903 6.24735
#
# Compressibility (1/GPa) = 0.02217620
#
# Stress axis : x y z
#
# Youngs Moduli (GPa) = 60.24076 86.64575 77.87549
#
# Poissons Ratio (x) = 0.40184 0.17340
# Poissons Ratio (y) = 0.27938 0.19771
# Poissons Ratio (z) = 0.13413 0.21997
#
# Static dielectric constant tensor:
#      x y z
#    x 3.512150 0.000000 0.000000 
#    y 0.000000 4.394340 0.000000 
#    z 0.000000 0.000000 3.869230 
# 
# 
# High freq. dielectric constant tensor:
#      x y z
#    x 1.776160 0.000000 0.000000 
#    y 0.000000 1.832400 0.000000 
#    z 0.000000 0.000000 1.814040 
# 
# From -- ./inp_files/11607.got.cif
#   From: 2010.03.12/outbox.cif.g09.slc.cpg/sg20_6_cif.got.tgz:11607.got - 2010.04.14 01:38:04.
