data_PCOD8159218
_publ_section_title
;
Structure prediction by ZEFSAII (Michael W. Deem and Ramdas Pophale) SiO2 
 PCOD8159218
Probable space group: C 2 2 21
;
_chemical_formula_sum "Si O2"
_cell_formula_units_Z 64
_cell_length_a 15.650742
_cell_length_b 11.855630
_cell_length_c 17.292434
_cell_angle_alpha 90.000000
_cell_angle_beta 90.000000
_cell_angle_gamma 90.000000
_cell_volume 3208.600864
_symmetry_space_group_name_H-M "C 2 2 21"
_symmetry_group_IT_number 20
_symmetry_cell_setting 'orthorhombic'
loop_
_space_group_symop_operation_xyz
x,y,z
-x,-y,1/2+z
x,-y,-z
-x,y,1/2-z
1/2+x,1/2+y,z
1/2-x,1/2-y,1/2+z
1/2+x,1/2-y,-z
1/2-x,1/2+y,1/2-z
loop_
_atom_site_type_symbol
_atom_site_label
_atom_site_fract_x
_atom_site_fract_y
_atom_site_fract_z
Si Si1 0.117392 0.390128 0.638277
Si Si2 0.444121 0.539126 0.915910
Si Si3 0.468807 0.276009 0.334693
Si Si4 0.687594 0.131158 0.191492
Si Si5 0.636176 0.682407 0.366140
Si Si6 0.303172 0.289511 0.040317
Si Si7 0.025554 0.607127 0.663342
Si Si8 0.856940 0.433174 0.422569
O O1 0.029171 0.321906 0.632731
O O2 0.161395 0.391457 0.721276
O O3 0.182634 0.336180 0.575620
O O4 0.089541 0.518491 0.621637
O O5 0.524815 0.607567 0.882376
O O6 0.418478 0.432121 0.864653
O O7 0.362722 0.621390 0.915616
O O8 0.472346 0.500000 0.000000
O O9 0.500000 0.307874 0.250000
O O10 0.372575 0.230675 0.341680
O O11 0.784515 0.174102 0.192157
O O12 0.682607 0.017891 0.140634
O O13 0.673853 0.711520 0.450286
O O14 0.573605 0.775271 0.331958
O O15 0.207050 0.331286 0.055704
O O16 0.942044 0.623464 0.610907
O O17 0.000000 0.565620 0.750000
O O18 0.879706 0.500000 0.500000
#
# Coordination Sequence:
#
# PCOD8159218 Si02
#       8
#     8   8   8   8   8   8   8   8
#     4  10  21  38  63  91 126 161 212 261 323 375
#     4   9  18  36  60  83 117 155 201 252 302 362
#     4   9  18  35  61  89 114 155 210 250 297 378
#     4  11  20  39  64  89 123 166 209 262 312 382
#     4  11  24  40  61  91 129 164 211 267 322 378
#     4  10  21  40  64  91 117 163 219 256 308 387
#     4  12  26  42  62  97 136 166 214 270 329 383
#     4  12  22  39  67  92 123 166 220 260 315 399
#
# _framework density 19.946389
#
# number of rings (size 3 to 8) (size 9 to 14) (size 15 to 20)
#    0.000    1.500    5.000    0.750    3.500    1.500 
#    2.250    1.250    0.000    0.000    0.000    0.000 
#    0.000    0.000    0.000    0.000    0.000    0.000 
#
# Total GULP energy -396805.218247 kJ/mol
# GULP energy per Si atom -12400.163070 kJ/mol
# Density = 1.990099 g / cm^3
# Si number density = 19.946389 Si / 1000 Ang^3
#
#
#
# Elastic Constant Matrix: (Units=GPa)
#
#
# Indices 1 2 3 4 5 6 
#
# 1 78.3902 31.8533 4.9383 0.0000 0.0000 0.0000
# 2 31.8533 90.6467 6.2107 0.0000 0.0000 0.0000
# 3 4.9383 6.2107 30.3349 0.0000 0.0000 0.0000
# 4 0.0000 0.0000 0.0000 32.4911 0.0000 0.0000
# 5 0.0000 0.0000 0.0000 0.0000 21.4104 0.0000
# 6 0.0000 0.0000 0.0000 0.0000 0.0000 30.9246
#
#
#
# Elastic Compliance Matrix: (Units=1/GPa)
#
#
# Indices 1 2 3 4 5 6 
#
# 1 0.014938 -0.005155 -0.001376 0.000000 0.000000 0.000000
# 2 -0.005155 0.012968 -0.001816 0.000000 0.000000 0.000000
# 3 -0.001376 -0.001816 0.033561 0.000000 0.000000 0.000000
# 4 0.000000 0.000000 0.000000 0.030778 0.000000 0.000000
# 5 0.000000 0.000000 0.000000 0.000000 0.046706 0.000000
# 6 0.000000 0.000000 0.000000 0.000000 0.000000 0.032337
#
#
# Mechanical properties :
#
#
# Convention : Reuss Voigt Hill
#
# Bulk Modulus (GPa) = 22.33503 31.70848 27.02176
# Shear Modulus (GPa) = 24.64192 27.38984 26.01588
#
# Velocity S-wave (km/s) = 3.51865 3.70965 3.61541
# Velocity P-wave (km/s) = 5.26590 5.85492 5.56820
#
# Compressibility (1/GPa) = 0.04477272
#
# Stress axis : x y z
#
# Youngs Moduli (GPa) = 66.94294 77.11462 29.79631
#
# Poissons Ratio (x) = 0.39752 0.04101
# Poissons Ratio (y) = 0.34509 0.05410
# Poissons Ratio (z) = 0.09214 0.14002
#
# Static dielectric constant tensor:
#      x y z
#    x 3.610750 0.000000 0.000000 
#    y 0.000000 3.663490 0.000000 
#    z 0.000000 0.000000 3.598460 
# 
# 
# High freq. dielectric constant tensor:
#      x y z
#    x 1.767660 0.000000 0.000000 
#    y 0.000000 1.773570 0.000000 
#    z 0.000000 0.000000 1.774080 
# 
# From -- ./inp_files/25025.got.cif
#   From: 2010.03.12/outbox.cif.g09.slc.cpg/sg20_13_cif.got.tgz:25025.got - 2010.04.14 01:38:04.
