data_PCOD8159746
_publ_section_title
;
Structure prediction by ZEFSAII (Michael W. Deem and Ramdas Pophale) SiO2 
 PCOD8159746
Probable space group: C 2 2 21
;
_chemical_formula_sum "Si O2"
_cell_formula_units_Z 48
_cell_length_a 9.811880
_cell_length_b 9.949778
_cell_length_c 24.568275
_cell_angle_alpha 90.000000
_cell_angle_beta 90.000000
_cell_angle_gamma 90.000000
_cell_volume 2398.503097
_symmetry_space_group_name_H-M "C 2 2 21"
_symmetry_group_IT_number 20
_symmetry_cell_setting 'orthorhombic'
loop_
_space_group_symop_operation_xyz
x,y,z
-x,-y,1/2+z
x,-y,-z
-x,y,1/2-z
1/2+x,1/2+y,z
1/2-x,1/2-y,1/2+z
1/2+x,1/2-y,-z
1/2-x,1/2+y,1/2-z
loop_
_atom_site_type_symbol
_atom_site_label
_atom_site_fract_x
_atom_site_fract_y
_atom_site_fract_z
Si Si1 0.466149 0.631600 0.843782
Si Si2 0.278835 0.848304 0.143988
Si Si3 0.866197 0.883988 0.779371
Si Si4 0.889794 0.587972 0.205174
Si Si5 0.923378 0.133311 0.967910
Si Si6 0.764220 0.150118 0.519224
O O1 0.627336 0.608610 0.838408
O O2 0.390469 0.534195 0.801655
O O3 0.433788 0.783931 0.829249
O O4 0.415900 0.598995 0.904274
O O5 0.323446 0.708675 0.170475
O O6 0.291889 0.828895 0.079733
O O7 0.380275 0.965462 0.163000
O O8 0.752305 0.884244 0.733736
O O9 0.000000 0.825711 0.750000
O O10 0.000000 0.548407 0.250000
O O11 0.074798 0.181727 0.984653
O O12 0.814941 0.249535 0.979652
O O13 0.880145 0.000000 0.000000
O O14 0.733487 0.000000 0.500000
#
# Coordination Sequence:
#
# PCOD8159746 Si02
#       6
#     8   8   8   8   8   8
#     4  11  23  42  62  90 128 160 197 257 309 352
#     4  11  23  41  63  91 123 162 204 249 305 365
#     4  12  23  41  65  89 124 163 204 249 298 362
#     4  12  23  41  63  89 126 162 202 249 303 360
#     4  10  22  42  65  90 122 159 203 254 305 362
#     4  10  22  42  64  90 123 158 202 255 306 360
#
# _framework density 20.012481999999999
#
# number of rings (size 3 to 8) (size 9 to 14) (size 15 to 20)
#    0.000    1.000    3.333    4.000    0.000    0.667 
#    6.000    0.000    0.000    0.000    0.000    0.000 
#    0.000    0.000    0.000    0.000    0.000    0.000 
#
# Total GULP energy -297771.046261 kJ/mol
# GULP energy per Si atom -12407.126928 kJ/mol
# Density = 1.996693 g / cm^3
# Si number density = 20.012482 Si / 1000 Ang^3
#
#
#
# Elastic Constant Matrix: (Units=GPa)
#
#
# Indices 1 2 3 4 5 6 
#
# 1 53.6412 -7.5967 22.0828 0.0000 0.0000 0.0000
# 2 -7.5967 71.2212 10.1839 0.0000 0.0000 0.0000
# 3 22.0828 10.1839 66.4961 0.0000 0.0000 0.0000
# 4 0.0000 0.0000 0.0000 23.0205 0.0000 0.0000
# 5 0.0000 0.0000 0.0000 0.0000 29.8164 0.0000
# 6 0.0000 0.0000 0.0000 0.0000 0.0000 20.3394
#
#
#
# Elastic Compliance Matrix: (Units=1/GPa)
#
#
# Indices 1 2 3 4 5 6 
#
# 1 0.022433 0.003535 -0.007991 0.000000 0.000000 0.000000
# 2 0.003535 0.014912 -0.003458 0.000000 0.000000 0.000000
# 3 -0.007991 -0.003458 0.018222 0.000000 0.000000 0.000000
# 4 0.000000 0.000000 0.000000 0.043440 0.000000 0.000000
# 5 0.000000 0.000000 0.000000 0.000000 0.033539 0.000000
# 6 0.000000 0.000000 0.000000 0.000000 0.000000 0.049166
#
#
# Mechanical properties :
#
#
# Convention : Reuss Voigt Hill
#
# Bulk Modulus (GPa) = 25.16379 26.74428 25.95404
# Shear Modulus (GPa) = 23.72087 25.74782 24.73435
#
# Velocity S-wave (km/s) = 3.44656 3.59080 3.51942
# Velocity P-wave (km/s) = 5.33289 5.53033 5.43251
#
# Compressibility (1/GPa) = 0.03973964
#
# Stress axis : x y z
#
# Youngs Moduli (GPa) = 44.57746 67.05865 54.87908
#
# Poissons Ratio (x) = -0.23708 0.43855
# Poissons Ratio (y) = -0.15760 0.18977
# Poissons Ratio (z) = 0.35623 0.23188
#
# Static dielectric constant tensor:
#      x y z
#    x 3.714710 0.000000 0.000000 
#    y 0.000000 3.623240 0.000000 
#    z 0.000000 0.000000 3.717230 
# 
# 
# High freq. dielectric constant tensor:
#      x y z
#    x 1.783940 0.000000 0.000000 
#    y 0.000000 1.786410 0.000000 
#    z 0.000000 0.000000 1.795360 
# 
# From -- ./inp_files/28702.got.cif
#   From: 2010.03.12/outbox.cif.g09.slc.cpg/sg20_15_cif.got.tgz:28702.got - 2010.04.14 01:38:04.
