data_PCOD8159516
_publ_section_title
;
Structure prediction by ZEFSAII (Michael W. Deem and Ramdas Pophale) SiO2 
 PCOD8159516
Probable space group: C 2 2 21
;
_chemical_formula_sum "Si O2"
_cell_formula_units_Z 28
_cell_length_a 7.131116
_cell_length_b 11.574602
_cell_length_c 14.517470
_cell_angle_alpha 90.000000
_cell_angle_beta 90.000000
_cell_angle_gamma 90.000000
_cell_volume 1198.269499
_symmetry_space_group_name_H-M "C 2 2 21"
_symmetry_group_IT_number 20
_symmetry_cell_setting 'orthorhombic'
loop_
_space_group_symop_operation_xyz
x,y,z
-x,-y,1/2+z
x,-y,-z
-x,y,1/2-z
1/2+x,1/2+y,z
1/2-x,1/2-y,1/2+z
1/2+x,1/2-y,-z
1/2-x,1/2+y,1/2-z
loop_
_atom_site_type_symbol
_atom_site_label
_atom_site_fract_x
_atom_site_fract_y
_atom_site_fract_z
Si Si1 0.500000 0.675887 0.250000
Si Si2 0.744836 0.735686 0.406181
Si Si3 0.688618 0.975489 0.796825
Si Si4 0.922679 0.109769 0.934404
O O1 0.564439 0.753155 0.337542
O O2 0.672585 0.588486 0.223283
O O3 0.860879 0.621359 0.374542
O O4 0.670284 0.715817 0.509609
O O5 0.873273 0.848968 0.399297
O O6 0.500000 0.021800 0.750000
O O7 0.794275 0.082565 0.845796
O O8 0.951049 0.000000 0.000000
#
# Coordination Sequence:
#
# PCOD8159516 Si02
#       4
#     4   8   8   8
#     4   8  20  42  72 102 142 184 234 296 354 418
#     4   9  21  43  70 103 144 182 240 295 355 420
#     4   9  20  44  73 102 138 183 241 288 353 423
#     4  10  21  45  72 103 141 193 235 294 360 420
#
# _framework density 23.367031000000001
#
# number of rings (size 3 to 8) (size 9 to 14) (size 15 to 20)
#    1.714    1.143    0.000    0.000    0.000    2.286 
#    7.714    4.286    6.286    0.000    0.000    0.000 
#    0.000    0.000    0.000    0.000    0.000    0.000 
#
# Total GULP energy -173442.493519 kJ/mol
# GULP energy per Si atom -12388.749537 kJ/mol
# Density = 2.331385 g / cm^3
# Si number density = 23.367031 Si / 1000 Ang^3
#
#
#
# Elastic Constant Matrix: (Units=GPa)
#
#
# Indices 1 2 3 4 5 6 
#
# 1 180.7578 58.0565 82.5723 0.0000 0.0000 0.0000
# 2 58.0565 66.1298 29.5125 0.0000 0.0000 0.0000
# 3 82.5723 29.5125 99.5718 0.0000 0.0000 0.0000
# 4 0.0000 0.0000 0.0000 7.3801 0.0000 0.0000
# 5 0.0000 0.0000 0.0000 0.0000 45.0072 0.0000
# 6 0.0000 0.0000 0.0000 0.0000 0.0000 51.3560
#
#
#
# Elastic Compliance Matrix: (Units=1/GPa)
#
#
# Indices 1 2 3 4 5 6 
#
# 1 0.010796 -0.006318 -0.007080 0.000000 0.000000 0.000000
# 2 -0.006318 0.021125 -0.001022 0.000000 0.000000 0.000000
# 3 -0.007080 -0.001022 0.016217 0.000000 0.000000 0.000000
# 4 0.000000 0.000000 0.000000 0.135499 0.000000 0.000000
# 5 0.000000 0.000000 0.000000 0.000000 0.022219 0.000000
# 6 0.000000 0.000000 0.000000 0.000000 0.000000 0.019472
#
#
# Mechanical properties :
#
#
# Convention : Reuss Voigt Hill
#
# Bulk Modulus (GPa) = 51.81966 76.30466 64.06216
# Shear Modulus (GPa) = 19.18653 32.50320 25.84486
#
# Velocity S-wave (km/s) = 2.86858 3.73364 3.32933
# Velocity P-wave (km/s) = 5.76162 7.16327 6.50033
#
# Compressibility (1/GPa) = 0.01929769
#
# Stress axis : x y z
#
# Youngs Moduli (GPa) = 92.62899 47.33830 61.66333
#
# Poissons Ratio (x) = 0.29909 0.43658
# Poissons Ratio (y) = 0.58524 0.06300
# Poissons Ratio (z) = 0.65581 0.04837
#
# Static dielectric constant tensor:
#      x y z
#    x 3.903510 0.000000 0.000000 
#    y 0.000000 3.837450 0.000000 
#    z 0.000000 0.000000 4.116150 
# 
# 
# High freq. dielectric constant tensor:
#      x y z
#    x 1.911850 0.000000 0.000000 
#    y 0.000000 1.909400 0.000000 
#    z 0.000000 0.000000 1.907250 
# 
# From -- ./inp_files/18113.got.cif
#   From: 2010.03.12/outbox.cif.g09.slc.cpg/sg20_10_cif.got.tgz:18113.got - 2010.04.14 01:38:04.
