data_PCOD8159819
_publ_section_title
;
Structure prediction by ZEFSAII (Michael W. Deem and Ramdas Pophale) SiO2 
 PCOD8159819
Probable space group: C 2 2 21
;
_chemical_formula_sum "Si O2"
_cell_formula_units_Z 24
_cell_length_a 4.645754
_cell_length_b 14.887643
_cell_length_c 14.315897
_cell_angle_alpha 90.000000
_cell_angle_beta 90.000000
_cell_angle_gamma 90.000000
_cell_volume 990.149382
_symmetry_space_group_name_H-M "C 2 2 21"
_symmetry_group_IT_number 20
_symmetry_cell_setting 'orthorhombic'
loop_
_space_group_symop_operation_xyz
x,y,z
-x,-y,1/2+z
x,-y,-z
-x,y,1/2-z
1/2+x,1/2+y,z
1/2-x,1/2-y,1/2+z
1/2+x,1/2-y,-z
1/2-x,1/2+y,1/2-z
loop_
_atom_site_type_symbol
_atom_site_label
_atom_site_fract_x
_atom_site_fract_y
_atom_site_fract_z
Si Si1 0.459190 0.922779 0.645968
Si Si2 0.552476 0.451910 0.145843
Si Si3 0.687098 0.308547 0.998792
O O1 0.500000 0.882311 0.750000
O O2 0.596427 0.852882 0.575060
O O3 0.618510 0.018303 0.638293
O O4 0.132636 0.956186 0.623742
O O5 0.500000 0.414607 0.250000
O O6 0.520563 0.373169 0.071094
O O7 0.415252 0.258681 0.948818
#
# Coordination Sequence:
#
# PCOD8159819 Si02
#       3
#     8   8   8
#     4  10  22  43  69  93 124 173 225 266 311 382
#     4  10  22  43  69  93 124 173 225 266 311 382
#     4  12  25  40  65 100 136 170 206 268 339 386
#
# _framework density 24.238764
#
# number of rings (size 3 to 8) (size 9 to 14) (size 15 to 20)
#    0.000    1.333    0.000    5.000    0.000    4.000 
#    0.000    3.333    0.000    0.000    0.000    0.000 
#    0.000    0.000    0.000    0.000    0.000    0.000 
#
# Total GULP energy -148685.770454 kJ/mol
# GULP energy per Si atom -12390.480871 kJ/mol
# Density = 2.418360 g / cm^3
# Si number density = 24.238764 Si / 1000 Ang^3
#
#
#
# Elastic Constant Matrix: (Units=GPa)
#
#
# Indices 1 2 3 4 5 6 
#
# 1 99.9394 12.8693 23.5103 0.0000 0.0000 0.0000
# 2 12.8693 50.3367 30.2295 0.0000 0.0000 0.0000
# 3 23.5103 30.2295 97.7186 0.0000 0.0000 0.0000
# 4 0.0000 0.0000 0.0000 1.6783 0.0000 0.0000
# 5 0.0000 0.0000 0.0000 0.0000 34.1269 0.0000
# 6 0.0000 0.0000 0.0000 0.0000 0.0000 30.1373
#
#
#
# Elastic Compliance Matrix: (Units=1/GPa)
#
#
# Indices 1 2 3 4 5 6 
#
# 1 0.010693 -0.001460 -0.002121 0.000000 0.000000 0.000000
# 2 -0.001460 0.024598 -0.007258 0.000000 0.000000 0.000000
# 3 -0.002121 -0.007258 0.012989 0.000000 0.000000 0.000000
# 4 0.000000 0.000000 0.000000 0.595845 0.000000 0.000000
# 5 0.000000 0.000000 0.000000 0.000000 0.029302 0.000000
# 6 0.000000 0.000000 0.000000 0.000000 0.000000 0.033181
#
#
# Mechanical properties :
#
#
# Convention : Reuss Voigt Hill
#
# Bulk Modulus (GPa) = 37.59132 42.35700 39.97416
# Shear Modulus (GPa) = 6.78283 25.28087 16.03185
#
# Velocity S-wave (km/s) = 1.67464 3.23304 2.57459
# Velocity P-wave (km/s) = 4.39109 5.60800 5.03643
#
# Compressibility (1/GPa) = 0.02660189
#
# Stress axis : x y z
#
# Youngs Moduli (GPa) = 93.51888 40.65290 76.98741
#
# Poissons Ratio (x) = 0.05936 0.16329
# Poissons Ratio (y) = 0.13655 0.55880
# Poissons Ratio (z) = 0.19835 0.29507
#
# Static dielectric constant tensor:
#      x y z
#    x 4.759120 0.000000 0.000000 
#    y 0.000000 4.168120 0.000000 
#    z 0.000000 0.000000 4.265360 
# 
# 
# High freq. dielectric constant tensor:
#      x y z
#    x 1.999070 0.000000 0.000000 
#    y 0.000000 1.946890 0.000000 
#    z 0.000000 0.000000 1.946560 
# 
# From -- ./inp_files/11754.got.cif
#   From: 2010.03.12/outbox.cif.g09.slc.cpg/sg20_6_cif.got.tgz:11754.got - 2010.04.14 01:38:04.
