data_PCOD8159627
_publ_section_title
;
Structure prediction by ZEFSAII (Michael W. Deem and Ramdas Pophale) SiO2 
 PCOD8159627
Probable space group: C 2 2 21
;
_chemical_formula_sum "Si O2"
_cell_formula_units_Z 56
_cell_length_a 11.114380
_cell_length_b 10.720802
_cell_length_c 22.924845
_cell_angle_alpha 90.000000
_cell_angle_beta 90.000000
_cell_angle_gamma 90.000000
_cell_volume 2731.611450
_symmetry_space_group_name_H-M "C 2 2 21"
_symmetry_group_IT_number 20
_symmetry_cell_setting 'orthorhombic'
loop_
_space_group_symop_operation_xyz
x,y,z
-x,-y,1/2+z
x,-y,-z
-x,y,1/2-z
1/2+x,1/2+y,z
1/2-x,1/2-y,1/2+z
1/2+x,1/2-y,-z
1/2-x,1/2+y,1/2-z
loop_
_atom_site_type_symbol
_atom_site_label
_atom_site_fract_x
_atom_site_fract_y
_atom_site_fract_z
Si Si1 0.558538 0.512323 0.121144
Si Si2 0.796908 0.104717 0.159505
Si Si3 0.212612 0.179989 0.052332
Si Si4 0.121257 0.613830 0.866605
Si Si5 0.041974 0.445800 0.563165
Si Si6 0.654404 0.262627 0.075073
Si Si7 0.121768 0.836135 0.779212
O O1 0.423636 0.547666 0.139097
O O2 0.597489 0.591617 0.064406
O O3 0.575174 0.366997 0.108112
O O4 0.650549 0.557586 0.172514
O O5 0.761454 0.216755 0.116620
O O6 0.785654 0.162202 0.225215
O O7 0.701401 0.995814 0.157916
O O8 0.190776 0.315455 0.081074
O O9 0.333226 0.120806 0.080976
O O10 0.222469 0.189060 0.982555
O O11 0.100440 0.704349 0.811576
O O12 0.995672 0.554977 0.890899
O O13 0.063328 0.500000 0.500000
O O14 0.934515 0.347690 0.558499
O O15 0.000000 0.879549 0.750000
#
# Coordination Sequence:
#
# PCOD8159627 Si02
#       7
#     8   8   8   8   8   8   8
#     4  10  22  40  59  92 123 158 215 252 313 382
#     4  10  23  40  65  92 122 171 204 263 320 371
#     4  11  23  38  63  95 125 170 203 261 318 381
#     4  10  22  43  62  92 129 159 214 262 315 378
#     4  11  22  39  61  90 132 161 207 262 313 380
#     4  11  23  38  63  92 126 167 208 256 322 378
#     4   9  21  40  63  85 121 165 205 261 315 366
#
# _framework density 20.500717999999999
#
# number of rings (size 3 to 8) (size 9 to 14) (size 15 to 20)
#    0.000    1.714    1.429    2.143    4.000    4.571 
#    5.143    0.000    0.000    0.000    0.000    0.000 
#    0.000    0.000    0.000    0.000    0.000    0.000 
#
# Total GULP energy -347036.376836 kJ/mol
# GULP energy per Si atom -12394.156316 kJ/mol
# Density = 2.045406 g / cm^3
# Si number density = 20.500718 Si / 1000 Ang^3
#
#
#
# Elastic Constant Matrix: (Units=GPa)
#
#
# Indices 1 2 3 4 5 6 
#
# 1 66.8160 18.0834 19.3095 0.0000 0.0000 0.0000
# 2 18.0834 92.5987 39.2981 0.0000 0.0000 0.0000
# 3 19.3095 39.2981 108.8683 0.0000 0.0000 0.0000
# 4 0.0000 0.0000 0.0000 35.9674 0.0000 0.0000
# 5 0.0000 0.0000 0.0000 0.0000 27.8820 0.0000
# 6 0.0000 0.0000 0.0000 0.0000 0.0000 31.8724
#
#
#
# Elastic Compliance Matrix: (Units=1/GPa)
#
#
# Indices 1 2 3 4 5 6 
#
# 1 0.016177 -0.002293 -0.002042 0.000000 0.000000 0.000000
# 2 -0.002293 0.013078 -0.004314 0.000000 0.000000 0.000000
# 3 -0.002042 -0.004314 0.011105 0.000000 0.000000 0.000000
# 4 0.000000 0.000000 0.000000 0.027803 0.000000 0.000000
# 5 0.000000 0.000000 0.000000 0.000000 0.035865 0.000000
# 6 0.000000 0.000000 0.000000 0.000000 0.000000 0.031375
#
#
# Mechanical properties :
#
#
# Convention : Reuss Voigt Hill
#
# Bulk Modulus (GPa) = 43.35983 46.85165 45.10574
# Shear Modulus (GPa) = 31.17448 31.91716 31.54582
#
# Velocity S-wave (km/s) = 3.90379 3.95001 3.92697
# Velocity P-wave (km/s) = 6.44327 6.61111 6.52773
#
# Compressibility (1/GPa) = 0.02306282
#
# Stress axis : x y z
#
# Youngs Moduli (GPa) = 61.81611 76.46497 90.05142
#
# Poissons Ratio (x) = 0.17531 0.18385
# Poissons Ratio (y) = 0.14173 0.38849
# Poissons Ratio (z) = 0.12621 0.32987
#
# Static dielectric constant tensor:
#      x y z
#    x 3.605320 0.000000 0.000000 
#    y 0.000000 3.853600 0.000000 
#    z 0.000000 0.000000 4.241470 
# 
# 
# High freq. dielectric constant tensor:
#      x y z
#    x 1.790200 0.000000 0.000000 
#    y 0.000000 1.810540 0.000000 
#    z 0.000000 0.000000 1.809700 
# 
# From -- ./inp_files/27167.got.cif
#   From: 2010.03.12/outbox.cif.g09.slc.cpg/sg20_14_cif.got.tgz:27167.got - 2010.04.14 01:38:04.
