data_PCOD8159219
_publ_section_title
;
Structure prediction by ZEFSAII (Michael W. Deem and Ramdas Pophale) SiO2 
 PCOD8159219
Probable space group: C 2 2 21
;
_chemical_formula_sum "Si O2"
_cell_formula_units_Z 48
_cell_length_a 27.032644
_cell_length_b 8.864735
_cell_length_c 9.122331
_cell_angle_alpha 90.000000
_cell_angle_beta 90.000000
_cell_angle_gamma 90.000000
_cell_volume 2186.050090
_symmetry_space_group_name_H-M "C 2 2 21"
_symmetry_group_IT_number 20
_symmetry_cell_setting 'orthorhombic'
loop_
_space_group_symop_operation_xyz
x,y,z
-x,-y,1/2+z
x,-y,-z
-x,y,1/2-z
1/2+x,1/2+y,z
1/2-x,1/2-y,1/2+z
1/2+x,1/2-y,-z
1/2-x,1/2+y,1/2-z
loop_
_atom_site_type_symbol
_atom_site_label
_atom_site_fract_x
_atom_site_fract_y
_atom_site_fract_z
Si Si1 0.894455 0.819523 0.517069
Si Si2 0.492308 0.847428 0.423118
Si Si3 0.855857 0.868682 0.228422
Si Si4 0.537090 0.376713 0.387982
Si Si5 0.807557 0.822440 0.699230
Si Si6 0.724456 0.320325 0.488796
O O1 0.949529 0.772350 0.548216
O O2 0.871238 0.758404 0.362974
O O3 0.860547 0.754775 0.648838
O O4 0.892433 0.000000 0.500000
O O5 0.500000 0.868399 0.250000
O O6 0.538612 0.779710 0.516206
O O7 0.475661 0.000000 0.500000
O O8 0.907941 0.926822 0.160897
O O9 0.824755 0.782510 0.104928
O O10 0.818178 0.999480 0.282586
O O11 0.516006 0.500000 0.500000
O O12 0.500000 0.363282 0.250000
O O13 0.768914 0.780740 0.571912
O O14 0.787467 0.753724 0.850383
O O15 0.736781 0.500000 0.500000
#
# Coordination Sequence:
#
# PCOD8159219 Si02
#       6
#     8   8   8   8   8   8
#     4  10  22  42  68 101 132 177 233 292 346 407
#     4  12  28  45  68  97 146 189 230 290 362 433
#     4  10  22  40  69  99 138 172 235 294 345 417
#     4  12  24  41  72 107 139 185 243 294 351 420
#     4  10  21  38  63  99 132 178 226 287 341 417
#     4  10  21  39  65  96 135 181 221 289 358 416
#
# _framework density 21.957409999999999
#
# number of rings (size 3 to 8) (size 9 to 14) (size 15 to 20)
#    0.000    1.333    1.667    4.000    9.333    2.000 
#    0.000    0.000    0.000    1.000    0.000    0.000 
#    0.000    0.000    0.000    0.000    0.000    0.000 
#
# Total GULP energy -297328.038828 kJ/mol
# GULP energy per Si atom -12388.668284 kJ/mol
# Density = 2.190743 g / cm^3
# Si number density = 21.957410 Si / 1000 Ang^3
#
#
#
# Elastic Constant Matrix: (Units=GPa)
#
#
# Indices 1 2 3 4 5 6 
#
# 1 119.5247 41.9845 49.8257 0.0000 0.0000 0.0000
# 2 41.9845 44.5420 45.3556 0.0000 0.0000 0.0000
# 3 49.8257 45.3556 171.1021 0.0000 0.0000 0.0000
# 4 0.0000 0.0000 0.0000 35.6721 0.0000 0.0000
# 5 0.0000 0.0000 0.0000 0.0000 29.3679 0.0000
# 6 0.0000 0.0000 0.0000 0.0000 0.0000 14.6706
#
#
#
# Elastic Compliance Matrix: (Units=1/GPa)
#
#
# Indices 1 2 3 4 5 6 
#
# 1 0.012571 -0.011124 -0.000712 0.000000 0.000000 0.000000
# 2 -0.011124 0.040595 -0.007522 0.000000 0.000000 0.000000
# 3 -0.000712 -0.007522 0.008046 0.000000 0.000000 0.000000
# 4 0.000000 0.000000 0.000000 0.028033 0.000000 0.000000
# 5 0.000000 0.000000 0.000000 0.000000 0.034051 0.000000
# 6 0.000000 0.000000 0.000000 0.000000 0.000000 0.068164
#
#
# Mechanical properties :
#
#
# Convention : Reuss Voigt Hill
#
# Bulk Modulus (GPa) = 44.45171 67.72227 56.08699
# Shear Modulus (GPa) = 21.03738 29.14230 25.08984
#
# Velocity S-wave (km/s) = 3.09868 3.64705 3.38399
# Velocity P-wave (km/s) = 5.75247 6.97454 6.39277
#
# Compressibility (1/GPa) = 0.02249632
#
# Stress axis : x y z
#
# Youngs Moduli (GPa) = 79.55018 24.63366 124.29206
#
# Poissons Ratio (x) = 0.27402 0.08848
# Poissons Ratio (y) = 0.88492 0.93486
# Poissons Ratio (z) = 0.05663 0.18528
#
# Static dielectric constant tensor:
#      x y z
#    x 4.021740 0.000000 0.000000 
#    y 0.000000 3.511930 0.000000 
#    z 0.000000 0.000000 4.856230 
# 
# 
# High freq. dielectric constant tensor:
#      x y z
#    x 1.869840 0.000000 0.000000 
#    y 0.000000 1.809690 0.000000 
#    z 0.000000 0.000000 1.899010 
# 
# From -- ./inp_files/11469.got.cif
#   From: 2010.03.12/outbox.cif.g09.slc.cpg/sg20_6_cif.got.tgz:11469.got - 2010.04.14 01:38:04.
