data_PCOD8159781
_publ_section_title
;
Structure prediction by ZEFSAII (Michael W. Deem and Ramdas Pophale) SiO2 
 PCOD8159781
Probable space group: C 2 2 21
;
_chemical_formula_sum "Si O2"
_cell_formula_units_Z 36
_cell_length_a 26.477235
_cell_length_b 4.984852
_cell_length_c 12.251779
_cell_angle_alpha 90.000000
_cell_angle_beta 90.000000
_cell_angle_gamma 90.000000
_cell_volume 1617.052250
_symmetry_space_group_name_H-M "C 2 2 21"
_symmetry_group_IT_number 20
_symmetry_cell_setting 'orthorhombic'
loop_
_space_group_symop_operation_xyz
x,y,z
-x,-y,1/2+z
x,-y,-z
-x,y,1/2-z
1/2+x,1/2+y,z
1/2-x,1/2-y,1/2+z
1/2+x,1/2-y,-z
1/2-x,1/2+y,1/2-z
loop_
_atom_site_type_symbol
_atom_site_label
_atom_site_fract_x
_atom_site_fract_y
_atom_site_fract_z
Si Si1 0.115374 0.856959 0.718311
Si Si2 0.777128 0.745701 0.708232
Si Si3 0.933804 0.000000 0.000000
Si Si4 0.494139 0.000000 0.500000
Si Si5 0.591874 0.849190 0.842345
Si Si6 0.821968 0.500000 0.500000
O O1 0.174812 0.886976 0.736707
O O2 0.100765 0.547486 0.739434
O O3 0.103882 0.976104 0.600678
O O4 0.084372 0.045137 0.802922
O O5 0.766031 0.470359 0.774767
O O6 0.786835 0.684860 0.578704
O O7 0.970082 0.750349 0.990472
O O8 0.458959 0.041880 0.395631
O O9 0.640570 0.832508 0.921832
#
# Coordination Sequence:
#
# PCOD8159781 Si02
#       6
#     8   8   4   4   8   4
#     4  11  24  43  63  91 131 170 205 265 323 372
#     4  11  24  42  67  97 125 165 218 264 319 385
#     4  12  26  41  60  93 138 167 198 253 332 388
#     4  11  24  40  66  99 122 167 216 256 310 385
#     4  10  22  42  68  91 121 165 222 263 301 365
#     4   9  22  43  66  92 126 162 208 271 316 363
#
# _framework density 22.262733999999998
#
# number of rings (size 3 to 8) (size 9 to 14) (size 15 to 20)
#    0.000    1.333    0.000    5.333    0.000   17.778 
#    0.000    4.444    0.000    0.000    0.000    0.000 
#    0.000    0.000    0.000    0.000    0.000    0.000 
#
# Total GULP energy -223113.757809 kJ/mol
# GULP energy per Si atom -12395.208767 kJ/mol
# Density = 2.221206 g / cm^3
# Si number density = 22.262734 Si / 1000 Ang^3
#
#
#
# Elastic Constant Matrix: (Units=GPa)
#
#
# Indices 1 2 3 4 5 6 
#
# 1 90.0638 44.0506 62.5847 0.0000 0.0000 0.0000
# 2 44.0506 137.7546 45.1808 0.0000 0.0000 0.0000
# 3 62.5847 45.1808 142.4227 0.0000 0.0000 0.0000
# 4 0.0000 0.0000 0.0000 32.7089 0.0000 0.0000
# 5 0.0000 0.0000 0.0000 0.0000 26.1204 0.0000
# 6 0.0000 0.0000 0.0000 0.0000 0.0000 35.4665
#
#
#
# Elastic Compliance Matrix: (Units=1/GPa)
#
#
# Indices 1 2 3 4 5 6 
#
# 1 0.017296 -0.003391 -0.006525 0.000000 0.000000 0.000000
# 2 -0.003391 0.008767 -0.001291 0.000000 0.000000 0.000000
# 3 -0.006525 -0.001291 0.010298 0.000000 0.000000 0.000000
# 4 0.000000 0.000000 0.000000 0.030573 0.000000 0.000000
# 5 0.000000 0.000000 0.000000 0.000000 0.038284 0.000000
# 6 0.000000 0.000000 0.000000 0.000000 0.000000 0.028196
#
#
# Mechanical properties :
#
#
# Convention : Reuss Voigt Hill
#
# Bulk Modulus (GPa) = 71.69649 74.87482 73.28565
# Shear Modulus (GPa) = 31.15745 33.42083 32.28914
#
# Velocity S-wave (km/s) = 3.74509 3.87874 3.81250
# Velocity P-wave (km/s) = 7.13972 7.33245 7.23673
#
# Compressibility (1/GPa) = 0.01394768
#
# Stress axis : x y z
#
# Youngs Moduli (GPa) = 57.81843 114.06348 97.10612
#
# Poissons Ratio (x) = 0.38676 0.63357
# Poissons Ratio (y) = 0.19605 0.12538
# Poissons Ratio (z) = 0.37724 0.14727
#
# Static dielectric constant tensor:
#      x y z
#    x 3.203630 0.000000 0.000000 
#    y 0.000000 3.995860 0.000000 
#    z 0.000000 0.000000 4.120270 
# 
# 
# High freq. dielectric constant tensor:
#      x y z
#    x 1.877930 0.000000 0.000000 
#    y 0.000000 1.888600 0.000000 
#    z 0.000000 0.000000 1.869520 
# 
# From -- ./inp_files/16560.got.cif
#   From: 2010.03.12/outbox.cif.g09.slc.cpg/sg20_9_cif.got.tgz:16560.got - 2010.04.14 01:38:04.
