data_PCOD8159612
_publ_section_title
;
Structure prediction by ZEFSAII (Michael W. Deem and Ramdas Pophale) SiO2 
 PCOD8159612
Probable space group: C 2 2 21
;
_chemical_formula_sum "Si O2"
_cell_formula_units_Z 60
_cell_length_a 22.381949
_cell_length_b 14.393263
_cell_length_c 9.337806
_cell_angle_alpha 90.000000
_cell_angle_beta 90.000000
_cell_angle_gamma 90.000000
_cell_volume 3008.167465
_symmetry_space_group_name_H-M "C 2 2 21"
_symmetry_group_IT_number 20
_symmetry_cell_setting 'orthorhombic'
loop_
_space_group_symop_operation_xyz
x,y,z
-x,-y,1/2+z
x,-y,-z
-x,y,1/2-z
1/2+x,1/2+y,z
1/2-x,1/2-y,1/2+z
1/2+x,1/2-y,-z
1/2-x,1/2+y,1/2-z
loop_
_atom_site_type_symbol
_atom_site_label
_atom_site_fract_x
_atom_site_fract_y
_atom_site_fract_z
Si Si1 0.499300 0.195084 0.418718
Si Si2 0.878017 0.725846 0.565164
Si Si3 0.198646 0.759391 0.198948
Si Si4 0.681424 0.648099 0.280935
Si Si5 0.627805 0.248241 0.481680
Si Si6 0.266395 0.529939 0.662452
Si Si7 0.137610 0.584303 0.691623
Si Si8 0.457757 0.000000 0.000000
O O1 0.500000 0.208686 0.250000
O O2 0.440972 0.241625 0.486742
O O3 0.556094 0.248057 0.485745
O O4 0.500635 0.086581 0.461119
O O5 0.825566 0.715832 0.448308
O O6 0.866651 0.815701 0.664533
O O7 0.879954 0.631910 0.658719
O O8 0.260205 0.711479 0.241494
O O9 0.150268 0.739271 0.320867
O O10 0.206700 0.869011 0.184933
O O11 0.653542 0.659940 0.440011
O O12 0.695971 0.540303 0.261230
O O13 0.652834 0.160421 0.570342
O O14 0.274038 0.500000 0.500000
O O15 0.197239 0.523211 0.710868
O O16 0.083496 0.519088 0.639586
#
# Coordination Sequence:
#
# PCOD8159612 Si02
#       8
#     8   8   8   8   8   8   8   4
#     4  11  24  42  65  90 127 181 214 270 329 382
#     4  11  23  42  65  93 127 175 224 261 321 403
#     4  12  22  42  65  95 140 164 222 277 329 393
#     4  11  24  39  65  97 128 174 214 266 335 394
#     4  10  22  42  63  91 133 172 212 270 326 390
#     4  12  22  38  68  97 133 176 214 267 342 396
#     4  10  22  39  64  95 135 179 209 261 329 403
#     4  10  24  38  60  94 140 164 220 264 322 392
#
# _framework density 19.945698
#
# number of rings (size 3 to 8) (size 9 to 14) (size 15 to 20)
#    0.000    1.067    6.000    1.600    3.733    4.800 
#    0.000    0.000    0.000    4.800    0.000    0.000 
#    0.000    0.000    0.000    0.000    0.000    0.000 
#
# Total GULP energy -372137.761453 kJ/mol
# GULP energy per Si atom -12404.592048 kJ/mol
# Density = 1.990030 g / cm^3
# Si number density = 19.945698 Si / 1000 Ang^3
#
#
#
# Elastic Constant Matrix: (Units=GPa)
#
#
# Indices 1 2 3 4 5 6 
#
# 1 89.4181 35.9930 21.9701 0.0000 0.0000 0.0000
# 2 35.9930 82.5695 22.6261 0.0000 0.0000 0.0000
# 3 21.9701 22.6261 98.9180 0.0000 0.0000 0.0000
# 4 0.0000 0.0000 0.0000 30.7765 0.0000 0.0000
# 5 0.0000 0.0000 0.0000 0.0000 36.1188 0.0000
# 6 0.0000 0.0000 0.0000 0.0000 0.0000 27.0514
#
#
#
# Elastic Compliance Matrix: (Units=1/GPa)
#
#
# Indices 1 2 3 4 5 6 
#
# 1 0.013861 -0.005546 -0.001810 0.000000 0.000000 0.000000
# 2 -0.005546 0.015140 -0.002231 0.000000 0.000000 0.000000
# 3 -0.001810 -0.002231 0.011022 0.000000 0.000000 0.000000
# 4 0.000000 0.000000 0.000000 0.032492 0.000000 0.000000
# 5 0.000000 0.000000 0.000000 0.000000 0.027686 0.000000
# 6 0.000000 0.000000 0.000000 0.000000 0.000000 0.036967
#
#
# Mechanical properties :
#
#
# Convention : Reuss Voigt Hill
#
# Bulk Modulus (GPa) = 47.96647 48.00934 47.98790
# Shear Modulus (GPa) = 30.62014 31.47712 31.04863
#
# Velocity S-wave (km/s) = 3.92238 3.97689 3.94973
# Velocity P-wave (km/s) = 6.67938 6.72383 6.70164
#
# Compressibility (1/GPa) = 0.02084790
#
# Stress axis : x y z
#
# Youngs Moduli (GPa) = 72.14742 66.05023 90.72974
#
# Poissons Ratio (x) = 0.36631 0.16421
# Poissons Ratio (y) = 0.40013 0.20244
# Poissons Ratio (z) = 0.13058 0.14738
#
# Static dielectric constant tensor:
#      x y z
#    x 3.653260 0.000000 0.000000 
#    y 0.000000 3.611020 0.000000 
#    z 0.000000 0.000000 3.856030 
# 
# 
# High freq. dielectric constant tensor:
#      x y z
#    x 1.778270 0.000000 0.000000 
#    y 0.000000 1.755400 0.000000 
#    z 0.000000 0.000000 1.791220 
# 
# From -- ./inp_files/10760.got.cif
#   From: 2010.03.12/outbox.cif.g09.slc.cpg/sg20_6_cif.got.tgz:10760.got - 2010.04.14 01:38:04.
