data_PCOD8159716
_publ_section_title
;
Structure prediction by ZEFSAII (Michael W. Deem and Ramdas Pophale) SiO2 
 PCOD8159716
Probable space group: C 2 2 21
;
_chemical_formula_sum "Si O2"
_cell_formula_units_Z 60
_cell_length_a 8.104057
_cell_length_b 17.053670
_cell_length_c 18.895339
_cell_angle_alpha 90.000000
_cell_angle_beta 90.000000
_cell_angle_gamma 90.000000
_cell_volume 2611.409801
_symmetry_space_group_name_H-M "C 2 2 21"
_symmetry_group_IT_number 20
_symmetry_cell_setting 'orthorhombic'
loop_
_space_group_symop_operation_xyz
x,y,z
-x,-y,1/2+z
x,-y,-z
-x,y,1/2-z
1/2+x,1/2+y,z
1/2-x,1/2-y,1/2+z
1/2+x,1/2-y,-z
1/2-x,1/2+y,1/2-z
loop_
_atom_site_type_symbol
_atom_site_label
_atom_site_fract_x
_atom_site_fract_y
_atom_site_fract_z
Si Si1 0.238967 0.549580 0.736837
Si Si2 0.000000 0.281037 0.750000
Si Si3 0.921163 0.176963 0.978646
Si Si4 0.977457 0.051955 0.863495
Si Si5 0.729173 0.311123 0.924393
Si Si6 0.661070 0.215194 0.785415
Si Si7 0.442276 0.920053 0.844783
Si Si8 0.252037 0.053908 0.438890
O O1 0.373374 0.528547 0.794644
O O2 0.332240 0.562549 0.660839
O O3 0.138280 0.621916 0.772221
O O4 0.116719 0.476833 0.719036
O O5 0.165598 0.229608 0.755076
O O6 0.007211 0.334047 0.681116
O O7 0.780139 0.140523 0.030319
O O8 0.094046 0.170371 0.017367
O O9 0.925636 0.132366 0.902665
O O10 0.878433 0.267226 0.964501
O O11 0.928772 0.979640 0.915003
O O12 0.661974 0.250198 0.864531
O O13 0.791233 0.396781 0.897324
O O14 0.500000 0.256153 0.750000
O O15 0.607329 0.954097 0.879381
O O16 0.326357 0.000000 0.500000
#
# Coordination Sequence:
#
# PCOD8159716 Si02
#       8
#     8   4   8   8   8   8   8   8
#     4  11  23  42  69 101 137 180 238 314 357 447
#     4  10  24  46  66  98 146 184 224 314 358 436
#     4  11  23  43  68  97 143 190 237 299 356 459
#     4  10  22  41  67  96 135 186 240 295 384 419
#     4  11  25  44  67 104 142 191 247 293 378 449
#     4  11  26  43  71 104 143 187 248 297 376 449
#     4  11  24  41  68 101 139 179 241 299 374 424
#     4  10  23  40  65  95 136 182 232 293 359 437
#
# _framework density 22.976095999999998
#
# number of rings (size 3 to 8) (size 9 to 14) (size 15 to 20)
#    0.000    1.333    1.333    3.200    6.533    2.133 
#    9.600    0.000    0.000    0.000    0.000    0.000 
#    0.000    0.000    0.000    0.000    0.000    0.000 
#
# Total GULP energy -371653.842682 kJ/mol
# GULP energy per Si atom -12388.461423 kJ/mol
# Density = 2.292380 g / cm^3
# Si number density = 22.976096 Si / 1000 Ang^3
#
#
#
# Elastic Constant Matrix: (Units=GPa)
#
#
# Indices 1 2 3 4 5 6 
#
# 1 93.0615 9.4515 22.3043 0.0000 0.0000 0.0000
# 2 9.4515 84.2802 14.1767 0.0000 0.0000 0.0000
# 3 22.3043 14.1767 72.4987 0.0000 0.0000 0.0000
# 4 0.0000 0.0000 0.0000 32.8221 0.0000 0.0000
# 5 0.0000 0.0000 0.0000 0.0000 50.2435 0.0000
# 6 0.0000 0.0000 0.0000 0.0000 0.0000 15.0497
#
#
#
# Elastic Compliance Matrix: (Units=1/GPa)
#
#
# Indices 1 2 3 4 5 6 
#
# 1 0.011644 -0.000727 -0.003440 0.000000 0.000000 0.000000
# 2 -0.000727 0.012314 -0.002184 0.000000 0.000000 0.000000
# 3 -0.003440 -0.002184 0.015279 0.000000 0.000000 0.000000
# 4 0.000000 0.000000 0.000000 0.030467 0.000000 0.000000
# 5 0.000000 0.000000 0.000000 0.000000 0.019903 0.000000
# 6 0.000000 0.000000 0.000000 0.000000 0.000000 0.066447
#
#
# Mechanical properties :
#
#
# Convention : Reuss Voigt Hill
#
# Bulk Modulus (GPa) = 37.68760 37.96727 37.82744
# Shear Modulus (GPa) = 28.15294 33.21691 30.68493
#
# Velocity S-wave (km/s) = 3.50425 3.80638 3.65843
# Velocity P-wave (km/s) = 5.72814 5.98988 5.86047
#
# Compressibility (1/GPa) = 0.02653393
#
# Stress axis : x y z
#
# Youngs Moduli (GPa) = 85.88169 81.20743 65.45011
#
# Poissons Ratio (x) = 0.05905 0.22515
# Poissons Ratio (y) = 0.06245 0.14296
# Poissons Ratio (z) = 0.29544 0.17738
#
# Static dielectric constant tensor:
#      x y z
#    x 4.274170 0.000000 0.000000 
#    y 0.000000 4.081900 0.000000 
#    z 0.000000 0.000000 4.333340 
# 
# 
# High freq. dielectric constant tensor:
#      x y z
#    x 1.911300 0.000000 0.000000 
#    y 0.000000 1.899330 0.000000 
#    z 0.000000 0.000000 1.912330 
# 
# From -- ./inp_files/23779.got.cif
#   From: 2010.03.12/outbox.cif.g09.slc.cpg/sg20_12_cif.got.tgz:23779.got - 2010.04.14 01:38:04.
