data_PCOD8159029
_publ_section_title
;
Structure prediction by ZEFSAII (Michael W. Deem and Ramdas Pophale) SiO2 
 PCOD8159029
Probable space group: C 2 2 21
;
_chemical_formula_sum "Si O2"
_cell_formula_units_Z 60
_cell_length_a 29.069987
_cell_length_b 10.810208
_cell_length_c 9.081335
_cell_angle_alpha 90.000000
_cell_angle_beta 90.000000
_cell_angle_gamma 90.000000
_cell_volume 2853.833190
_symmetry_space_group_name_H-M "C 2 2 21"
_symmetry_group_IT_number 20
_symmetry_cell_setting 'orthorhombic'
loop_
_space_group_symop_operation_xyz
x,y,z
-x,-y,1/2+z
x,-y,-z
-x,y,1/2-z
1/2+x,1/2+y,z
1/2-x,1/2-y,1/2+z
1/2+x,1/2-y,-z
1/2-x,1/2+y,1/2-z
loop_
_atom_site_type_symbol
_atom_site_label
_atom_site_fract_x
_atom_site_fract_y
_atom_site_fract_z
Si Si1 0.050489 0.137391 0.996878
Si Si2 0.786375 0.629084 0.962564
Si Si3 0.384876 0.761303 0.709840
Si Si4 0.552619 0.364177 0.449421
Si Si5 0.784748 0.281341 0.707111
Si Si6 0.451510 0.791581 0.229359
Si Si7 0.195320 0.500000 0.000000
Si Si8 0.134808 0.451791 0.254514
O O1 0.084409 0.244149 0.935800
O O2 0.001833 0.134319 0.907555
O O3 0.043324 0.172251 0.166171
O O4 0.072520 0.000000 0.000000
O O5 0.757710 0.694935 0.834123
O O6 0.837480 0.598810 0.897552
O O7 0.761561 0.500000 0.000000
O O8 0.786522 0.702899 0.115920
O O9 0.412506 0.673589 0.821412
O O10 0.333292 0.713631 0.671483
O O11 0.376375 0.901584 0.766138
O O12 0.568316 0.500000 0.500000
O O13 0.559846 0.258202 0.569108
O O14 0.776971 0.407635 0.610134
O O15 0.500000 0.864266 0.250000
O O16 0.413207 0.888225 0.270625
O O17 0.163618 0.418583 0.108146
#
# Coordination Sequence:
#
# PCOD8159029 Si02
#       8
#     8   8   8   8   8   8   4   8
#     4  10  21  38  61  90 131 173 215 268 323 384
#     4  12  24  46  69  94 128 176 216 274 343 404
#     4  11  22  40  64  95 122 169 217 266 327 397
#     4  10  21  38  61  89 128 174 218 264 324 389
#     4  11  25  41  70  96 128 167 228 273 339 405
#     4  10  21  35  58  92 126 167 214 265 318 384
#     4  10  20  42  68  94 122 172 214 268 338 402
#     4  11  23  41  66  91 134 171 214 270 341 400
#
# _framework density 21.024353999999999
#
# number of rings (size 3 to 8) (size 9 to 14) (size 15 to 20)
#    0.000    1.333    2.667    4.400    0.000    3.733 
#    0.000    6.667    1.467    0.000    0.000    0.000 
#    0.000    0.000    0.000    0.000    0.000    0.000 
#
# Total GULP energy -371651.844680 kJ/mol
# GULP energy per Si atom -12388.394823 kJ/mol
# Density = 2.097650 g / cm^3
# Si number density = 21.024354 Si / 1000 Ang^3
#
#
#
# Elastic Constant Matrix: (Units=GPa)
#
#
# Indices 1 2 3 4 5 6 
#
# 1 113.9263 60.2755 30.1860 0.0000 0.0000 0.0000
# 2 60.2755 80.4110 18.7804 0.0000 0.0000 0.0000
# 3 30.1860 18.7804 91.8195 0.0000 0.0000 0.0000
# 4 0.0000 0.0000 0.0000 34.3712 0.0000 0.0000
# 5 0.0000 0.0000 0.0000 0.0000 36.1525 0.0000
# 6 0.0000 0.0000 0.0000 0.0000 0.0000 36.4141
#
#
#
# Elastic Compliance Matrix: (Units=1/GPa)
#
#
# Indices 1 2 3 4 5 6 
#
# 1 0.015203 -0.010742 -0.002801 0.000000 0.000000 0.000000
# 2 -0.010742 0.020650 -0.000692 0.000000 0.000000 0.000000
# 3 -0.002801 -0.000692 0.011953 0.000000 0.000000 0.000000
# 4 0.000000 0.000000 0.000000 0.029094 0.000000 0.000000
# 5 0.000000 0.000000 0.000000 0.000000 0.027661 0.000000
# 6 0.000000 0.000000 0.000000 0.000000 0.000000 0.027462
#
#
# Mechanical properties :
#
#
# Convention : Reuss Voigt Hill
#
# Bulk Modulus (GPa) = 51.71669 56.07116 53.89393
# Shear Modulus (GPa) = 29.95120 33.18189 31.56654
#
# Velocity S-wave (km/s) = 3.77848 3.97704 3.87903
# Velocity P-wave (km/s) = 6.60967 6.91496 6.76404
#
# Compressibility (1/GPa) = 0.01933612
#
# Stress axis : x y z
#
# Youngs Moduli (GPa) = 65.77643 48.42655 83.65862
#
# Poissons Ratio (x) = 0.52019 0.23432
# Poissons Ratio (y) = 0.70656 0.05791
# Poissons Ratio (z) = 0.18424 0.03352
#
# Static dielectric constant tensor:
#      x y z
#    x 3.950370 0.000000 0.000000 
#    y 0.000000 3.605660 0.000000 
#    z 0.000000 0.000000 4.051350 
# 
# 
# High freq. dielectric constant tensor:
#      x y z
#    x 1.816910 0.000000 0.000000 
#    y 0.000000 1.807810 0.000000 
#    z 0.000000 0.000000 1.842890 
# 
# From -- ./inp_files/11148.got.cif
#   From: 2010.03.12/outbox.cif.g09.slc.cpg/sg20_6_cif.got.tgz:11148.got - 2010.04.14 01:38:04.
