data_PCOD8159628
_publ_section_title
;
Structure prediction by ZEFSAII (Michael W. Deem and Ramdas Pophale) SiO2 
 PCOD8159628
Probable space group: C 2 2 21
;
_chemical_formula_sum "Si O2"
_cell_formula_units_Z 64
_cell_length_a 15.265867
_cell_length_b 9.510859
_cell_length_c 22.838692
_cell_angle_alpha 90.000000
_cell_angle_beta 90.000000
_cell_angle_gamma 90.000000
_cell_volume 3315.984145
_symmetry_space_group_name_H-M "C 2 2 21"
_symmetry_group_IT_number 20
_symmetry_cell_setting 'orthorhombic'
loop_
_space_group_symop_operation_xyz
x,y,z
-x,-y,1/2+z
x,-y,-z
-x,y,1/2-z
1/2+x,1/2+y,z
1/2-x,1/2-y,1/2+z
1/2+x,1/2-y,-z
1/2-x,1/2+y,1/2-z
loop_
_atom_site_type_symbol
_atom_site_label
_atom_site_fract_x
_atom_site_fract_y
_atom_site_fract_z
Si Si1 0.702690 0.663939 0.507084
Si Si2 0.176276 0.221116 0.378832
Si Si3 0.484650 0.251678 0.596842
Si Si4 0.016073 0.442817 0.858059
Si Si5 0.697800 0.024283 0.190370
Si Si6 0.039805 0.653241 0.478052
Si Si7 0.797870 0.244484 0.382321
Si Si8 0.327756 0.972429 0.824073
O O1 0.681343 0.500000 0.500000
O O2 0.723943 0.723756 0.442229
O O3 0.621265 0.746287 0.535101
O O4 0.781133 0.688506 0.553150
O O5 0.223434 0.116047 0.335096
O O6 0.176258 0.376568 0.353830
O O7 0.074882 0.167618 0.386787
O O8 0.479702 0.223460 0.527433
O O9 0.394532 0.329606 0.615337
O O10 0.481879 0.107719 0.632051
O O11 0.104193 0.401615 0.823296
O O12 0.016929 0.358807 0.919230
O O13 0.927103 0.411638 0.821838
O O14 0.712080 0.018829 0.259655
O O15 0.705006 0.867820 0.165499
O O16 0.073797 0.500000 0.500000
O O17 0.728745 0.127505 0.365315
#
# Coordination Sequence:
#
# PCOD8159628 Si02
#       8
#     8   8   8   8   8   8   8   8
#     4  11  21  35  59  89 122 151 190 249 306 357
#     4  10  22  40  60  87 120 156 193 249 303 350
#     4   8  19  34  58  85 118 151 194 236 293 356
#     4   9  18  34  59  87 111 151 197 240 284 348
#     4  11  22  38  60  87 118 157 201 247 292 351
#     4   9  17  34  59  87 118 151 187 239 297 356
#     4  11  22  37  62  90 114 157 202 242 296 354
#     4  11  22  40  59  85 120 156 202 245 294 353
#
# _framework density 19.300453999999998
#
# number of rings (size 3 to 8) (size 9 to 14) (size 15 to 20)
#    0.000    2.000    2.500    1.875    1.750    0.500 
#    0.000    5.625    0.000    0.000    0.000    0.000 
#    0.000    0.000    0.000    0.000    0.000    0.000 
#
# Total GULP energy -396642.385470 kJ/mol
# GULP energy per Si atom -12395.074546 kJ/mol
# Density = 1.925653 g / cm^3
# Si number density = 19.300454 Si / 1000 Ang^3
#
#
#
# Elastic Constant Matrix: (Units=GPa)
#
#
# Indices 1 2 3 4 5 6 
#
# 1 81.7017 15.2516 24.9651 0.0000 0.0000 0.0000
# 2 15.2516 35.3890 27.2112 0.0000 0.0000 0.0000
# 3 24.9651 27.2112 112.1738 0.0000 0.0000 0.0000
# 4 0.0000 0.0000 0.0000 28.6273 0.0000 0.0000
# 5 0.0000 0.0000 0.0000 0.0000 20.5409 0.0000
# 6 0.0000 0.0000 0.0000 0.0000 0.0000 -11.6414
#
#
#
# Elastic Compliance Matrix: (Units=1/GPa)
#
#
# Indices 1 2 3 4 5 6 
#
# 1 0.013660 -0.004363 -0.001982 0.000000 0.000000 0.000000
# 2 -0.004363 0.036130 -0.007793 0.000000 0.000000 0.000000
# 3 -0.001982 -0.007793 0.011246 0.000000 0.000000 0.000000
# 4 0.000000 0.000000 0.000000 0.034932 0.000000 0.000000
# 5 0.000000 0.000000 0.000000 0.000000 0.048683 0.000000
# 6 0.000000 0.000000 0.000000 0.000000 0.000000 -0.085900
#
#
# Mechanical properties :
#
#
# Convention : Reuss Voigt Hill
#
# Bulk Modulus (GPa) = 30.52528 40.45781 35.49155
# Shear Modulus (GPa) = 51.04754 18.29445 34.67100
#
# Velocity S-wave (km/s) = 5.14843 3.08210 4.24297
# Velocity P-wave (km/s) = 7.15485 5.80288 6.51404
#
# Compressibility (1/GPa) = 0.03275973
#
# Stress axis : x y z
#
# Youngs Moduli (GPa) = 73.20826 27.67757 88.91808
#
# Poissons Ratio (x) = 0.12076 0.17620
# Poissons Ratio (y) = 0.31942 0.69298
# Poissons Ratio (z) = 0.14507 0.21570
#
# Static dielectric constant tensor:
#      x y z
#    x 3.898900 0.000000 0.000000 
#    y 0.000000 3.269400 0.000000 
#    z 0.000000 0.000000 3.708170 
# 
# 
# High freq. dielectric constant tensor:
#      x y z
#    x 1.754660 0.000000 0.000000 
#    y 0.000000 1.720830 0.000000 
#    z 0.000000 0.000000 1.758480 
# 
# From -- ./inp_files/29332.got.cif
#   From: 2010.03.12/outbox.cif.g09.slc.cpg/sg20_15_cif.got.tgz:29332.got - 2010.04.14 01:38:04.
