data_PCOD8159827
_publ_section_title
;
Structure prediction by ZEFSAII (Michael W. Deem and Ramdas Pophale) SiO2 
 PCOD8159827
Probable space group: C 2 2 21
;
_chemical_formula_sum "Si O2"
_cell_formula_units_Z 64
_cell_length_a 21.473796
_cell_length_b 15.764259
_cell_length_c 8.933799
_cell_angle_alpha 90.000000
_cell_angle_beta 90.000000
_cell_angle_gamma 90.000000
_cell_volume 3024.256075
_symmetry_space_group_name_H-M "C 2 2 21"
_symmetry_group_IT_number 20
_symmetry_cell_setting 'orthorhombic'
loop_
_space_group_symop_operation_xyz
x,y,z
-x,-y,1/2+z
x,-y,-z
-x,y,1/2-z
1/2+x,1/2+y,z
1/2-x,1/2-y,1/2+z
1/2+x,1/2-y,-z
1/2-x,1/2+y,1/2-z
loop_
_atom_site_type_symbol
_atom_site_label
_atom_site_fract_x
_atom_site_fract_y
_atom_site_fract_z
Si Si1 0.296963 0.477068 0.331427
Si Si2 0.105446 0.252973 0.468328
Si Si3 0.308960 0.338976 0.784891
Si Si4 0.617673 0.088185 0.926267
Si Si5 0.714256 0.227143 0.994537
Si Si6 0.023190 0.708003 0.086851
Si Si7 0.873214 0.818175 0.289747
Si Si8 0.158626 0.574372 0.615430
O O1 0.309688 0.500000 0.500000
O O2 0.302557 0.560152 0.227225
O O3 0.354741 0.416653 0.290450
O O4 0.228783 0.433914 0.317562
O O5 0.120583 0.195328 0.319139
O O6 0.118399 0.203337 0.619050
O O7 0.149111 0.336803 0.469009
O O8 0.032016 0.273449 0.469960
O O9 0.279467 0.298119 0.635065
O O10 0.279046 0.308376 0.942894
O O11 0.607568 0.070820 0.749323
O O12 0.677203 0.148343 0.930074
O O13 0.560042 0.130859 0.010352
O O14 0.635245 0.000000 0.000000
O O15 0.683389 0.265664 0.142046
O O16 0.065273 0.792889 0.112796
O O17 0.000000 0.675812 0.250000
O O18 0.143610 0.500000 0.500000
#
# Coordination Sequence:
#
# PCOD8159827 Si02
#       8
#     8   8   8   8   8   8   8   8
#     4  11  24  42  67 102 144 172 224 279 346 406
#     4  11  24  44  69  96 133 179 234 276 338 403
#     4  12  24  40  69  98 138 181 222 279 341 411
#     4  11  24  43  66  97 136 176 226 279 338 412
#     4  11  23  40  64  99 132 180 220 265 346 408
#     4   9  23  46  73  93 131 184 236 280 338 403
#     4  10  22  43  71  91 133 179 223 281 337 397
#     4  11  26  41  63 105 142 179 216 282 348 414
#
# _framework density 21.162227999999999
#
# number of rings (size 3 to 8) (size 9 to 14) (size 15 to 20)
#    0.000    1.250    2.500    2.250   12.250    1.500 
#    0.000    0.000    8.250    0.000    0.000    0.000 
#    0.000    0.000    0.000    0.000    0.000    0.000 
#
# Total GULP energy -396633.598724 kJ/mol
# GULP energy per Si atom -12394.799960 kJ/mol
# Density = 2.111406 g / cm^3
# Si number density = 21.162228 Si / 1000 Ang^3
#
#
#
# Elastic Constant Matrix: (Units=GPa)
#
#
# Indices 1 2 3 4 5 6 
#
# 1 77.6873 53.2955 21.7642 0.0000 0.0000 0.0000
# 2 53.2955 147.2870 29.5558 0.0000 0.0000 0.0000
# 3 21.7642 29.5558 68.3118 0.0000 0.0000 0.0000
# 4 0.0000 0.0000 0.0000 32.1861 0.0000 0.0000
# 5 0.0000 0.0000 0.0000 0.0000 39.1168 0.0000
# 6 0.0000 0.0000 0.0000 0.0000 0.0000 51.7218
#
#
#
# Elastic Compliance Matrix: (Units=1/GPa)
#
#
# Indices 1 2 3 4 5 6 
#
# 1 0.017719 -0.005780 -0.003144 0.000000 0.000000 0.000000
# 2 -0.005780 0.009321 -0.002191 0.000000 0.000000 0.000000
# 3 -0.003144 -0.002191 0.016588 0.000000 0.000000 0.000000
# 4 0.000000 0.000000 0.000000 0.031069 0.000000 0.000000
# 5 0.000000 0.000000 0.000000 0.000000 0.025564 0.000000
# 6 0.000000 0.000000 0.000000 0.000000 0.000000 0.019334
#
#
# Mechanical properties :
#
#
# Convention : Reuss Voigt Hill
#
# Bulk Modulus (GPa) = 46.73686 55.83524 51.28605
# Shear Modulus (GPa) = 33.56622 37.18298 35.37460
#
# Velocity S-wave (km/s) = 3.98696 4.19626 4.09295
# Velocity P-wave (km/s) = 6.58236 7.06539 6.82815
#
# Compressibility (1/GPa) = 0.02139639
#
# Stress axis : x y z
#
# Youngs Moduli (GPa) = 56.43813 107.28690 60.28285
#
# Poissons Ratio (x) = 0.62017 0.18954
# Poissons Ratio (y) = 0.32624 0.13208
# Poissons Ratio (z) = 0.17745 0.23507
#
# Static dielectric constant tensor:
#      x y z
#    x 3.967590 0.000000 0.000000 
#    y 0.000000 3.978170 0.000000 
#    z 0.000000 0.000000 3.883330 
# 
# 
# High freq. dielectric constant tensor:
#      x y z
#    x 1.814930 0.000000 0.000000 
#    y 0.000000 1.827300 0.000000 
#    z 0.000000 0.000000 1.843690 
# 
# From -- ./inp_files/10795.got.cif
#   From: 2010.03.12/outbox.cif.g09.slc.cpg/sg20_6_cif.got.tgz:10795.got - 2010.04.14 01:38:04.
