data_PCOD8159759
_publ_section_title
;
Structure prediction by ZEFSAII (Michael W. Deem and Ramdas Pophale) SiO2 
 PCOD8159759
Probable space group: C 2 2 21
;
_chemical_formula_sum "Si O2"
_cell_formula_units_Z 60
_cell_length_a 8.331219
_cell_length_b 26.205948
_cell_length_c 11.961687
_cell_angle_alpha 90.000000
_cell_angle_beta 90.000000
_cell_angle_gamma 90.000000
_cell_volume 2611.565121
_symmetry_space_group_name_H-M "C 2 2 21"
_symmetry_group_IT_number 20
_symmetry_cell_setting 'orthorhombic'
loop_
_space_group_symop_operation_xyz
x,y,z
-x,-y,1/2+z
x,-y,-z
-x,y,1/2-z
1/2+x,1/2+y,z
1/2-x,1/2-y,1/2+z
1/2+x,1/2-y,-z
1/2-x,1/2+y,1/2-z
loop_
_atom_site_type_symbol
_atom_site_label
_atom_site_fract_x
_atom_site_fract_y
_atom_site_fract_z
Si Si1 0.146162 0.058658 0.499869
Si Si2 0.544690 0.735766 0.593274
Si Si3 0.379795 0.629873 0.604274
Si Si4 0.000000 0.319506 0.750000
Si Si5 0.588256 0.737493 0.142033
Si Si6 0.325345 0.536856 0.243301
Si Si7 0.222329 0.132832 0.124410
Si Si8 0.679530 0.932635 0.222559
O O1 0.206878 0.068426 0.372710
O O2 0.289468 0.069081 0.589154
O O3 0.999563 0.093694 0.535453
O O4 0.089808 0.000000 0.500000
O O5 0.471101 0.682123 0.634408
O O6 0.440891 0.780432 0.653148
O O7 0.526587 0.747727 0.462806
O O8 0.732914 0.739323 0.626854
O O9 0.241864 0.638570 0.509456
O O10 0.307010 0.604759 0.715780
O O11 0.124427 0.358528 0.699910
O O12 0.500000 0.762000 0.250000
O O13 0.593889 0.676259 0.157070
O O14 0.500000 0.509833 0.250000
O O15 0.332974 0.575896 0.346273
O O16 0.198944 0.491275 0.263325
O O17 0.500000 0.914209 0.250000
#
# Coordination Sequence:
#
# PCOD8159759 Si02
#       8
#     8   8   8   4   8   8   8   8
#     4  10  22  42  66 101 137 184 232 291 344 419
#     4  10  25  43  72 101 142 189 235 304 366 420
#     4  11  23  45  74 100 136 188 245 290 359 432
#     4  10  24  44  64 102 146 176 230 300 354 420
#     4  10  23  45  71 104 141 187 240 297 360 431
#     4  11  21  42  70 103 134 183 236 284 357 413
#     4  10  23  40  72 102 134 180 235 290 353 423
#     4  11  26  44  65 101 149 182 232 296 354 435
#
# _framework density 22.974729
#
# number of rings (size 3 to 8) (size 9 to 14) (size 15 to 20)
#    0.000    1.600    1.333    2.400    8.400    1.067 
#    4.800    3.333    8.800    0.000    0.000    0.000 
#    0.000    0.000    0.000    0.000    0.000    0.000 
#
# Total GULP energy -371751.046746 kJ/mol
# GULP energy per Si atom -12391.701558 kJ/mol
# Density = 2.292244 g / cm^3
# Si number density = 22.974729 Si / 1000 Ang^3
#
#
#
# Elastic Constant Matrix: (Units=GPa)
#
#
# Indices 1 2 3 4 5 6 
#
# 1 81.5846 24.5780 35.3950 0.0000 0.0000 0.0000
# 2 24.5780 83.8734 16.2714 0.0000 0.0000 0.0000
# 3 35.3950 16.2714 129.6864 0.0000 0.0000 0.0000
# 4 0.0000 0.0000 0.0000 39.0394 0.0000 0.0000
# 5 0.0000 0.0000 0.0000 0.0000 41.2291 0.0000
# 6 0.0000 0.0000 0.0000 0.0000 0.0000 18.7234
#
#
#
# Elastic Compliance Matrix: (Units=1/GPa)
#
#
# Indices 1 2 3 4 5 6 
#
# 1 0.014932 -0.003675 -0.003614 0.000000 0.000000 0.000000
# 2 -0.003675 0.013124 -0.000644 0.000000 0.000000 0.000000
# 3 -0.003614 -0.000644 0.008778 0.000000 0.000000 0.000000
# 4 0.000000 0.000000 0.000000 0.025615 0.000000 0.000000
# 5 0.000000 0.000000 0.000000 0.000000 0.024255 0.000000
# 6 0.000000 0.000000 0.000000 0.000000 0.000000 0.053409
#
#
# Mechanical properties :
#
#
# Convention : Reuss Voigt Hill
#
# Bulk Modulus (GPa) = 47.68855 49.73702 48.71278
# Shear Modulus (GPa) = 30.68067 34.39172 32.53620
#
# Velocity S-wave (km/s) = 3.65829 3.87322 3.76729
# Velocity P-wave (km/s) = 6.21660 6.45740 6.33815
#
# Compressibility (1/GPa) = 0.02096939
#
# Stress axis : x y z
#
# Youngs Moduli (GPa) = 66.96908 76.19394 113.91920
#
# Poissons Ratio (x) = 0.27998 0.41175
# Poissons Ratio (y) = 0.24608 0.07334
# Poissons Ratio (z) = 0.24205 0.04905
#
# Static dielectric constant tensor:
#      x y z
#    x 3.798680 0.000000 0.000000 
#    y 0.000000 4.090150 0.000000 
#    z 0.000000 0.000000 4.691220 
# 
# 
# High freq. dielectric constant tensor:
#      x y z
#    x 1.877520 0.000000 0.000000 
#    y 0.000000 1.908370 0.000000 
#    z 0.000000 0.000000 1.930660 
# 
# From -- ./inp_files/13313.got.cif
#   From: 2010.03.12/outbox.cif.g09.slc.cpg/sg20_7_cif.got.tgz:13313.got - 2010.04.14 01:38:04.
