data_PCOD8159934
_publ_section_title
;
Structure prediction by ZEFSAII (Michael W. Deem and Ramdas Pophale) SiO2 
 PCOD8159934
Probable space group: C 2 2 21
;
_chemical_formula_sum "Si O2"
_cell_formula_units_Z 40
_cell_length_a 9.713063
_cell_length_b 22.504912
_cell_length_c 7.439088
_cell_angle_alpha 90.000000
_cell_angle_beta 90.000000
_cell_angle_gamma 90.000000
_cell_volume 1626.122357
_symmetry_space_group_name_H-M "C 2 2 21"
_symmetry_group_IT_number 20
_symmetry_cell_setting 'orthorhombic'
loop_
_space_group_symop_operation_xyz
x,y,z
-x,-y,1/2+z
x,-y,-z
-x,y,1/2-z
1/2+x,1/2+y,z
1/2-x,1/2-y,1/2+z
1/2+x,1/2-y,-z
1/2-x,1/2+y,1/2-z
loop_
_atom_site_type_symbol
_atom_site_label
_atom_site_fract_x
_atom_site_fract_y
_atom_site_fract_z
Si Si1 0.645327 0.526668 0.688602
Si Si2 0.344075 0.598411 0.303786
Si Si3 0.187599 0.188544 0.894559
Si Si4 0.981233 0.725502 0.946800
Si Si5 0.207146 0.635044 0.946720
O O1 0.599000 0.500000 0.500000
O O2 0.500000 0.557336 0.750000
O O3 0.697070 0.471622 0.813471
O O4 0.772757 0.571633 0.653761
O O5 0.500000 0.604701 0.250000
O O6 0.325422 0.625361 0.502497
O O7 0.258347 0.634198 0.151993
O O8 0.319727 0.220183 0.987096
O O9 0.205336 0.179849 0.680681
O O10 0.055978 0.230913 0.914037
O O11 0.050161 0.658963 0.949840
O O12 0.000000 0.754426 0.750000
#
# Coordination Sequence:
#
# PCOD8159934 Si02
#       5
#     8   8   8   8   8
#     4   9  20  37  63  98 131 165 215 272 320 386
#     4  10  23  41  65 103 134 162 225 275 317 391
#     4  11  25  44  69  92 135 173 220 269 330 388
#     4  10  25  47  63  99 132 171 221 271 321 401
#     4  10  24  41  66  93 133 169 211 268 333 379
#
# _framework density 24.598395
#
# number of rings (size 3 to 8) (size 9 to 14) (size 15 to 20)
#    0.000    2.000    0.000    0.600   16.800    0.800 
#    3.600    0.000   39.600    0.000    0.000    0.000 
#    0.000    0.000    0.000    0.000    0.000    0.000 
#
# Total GULP energy -247838.619346 kJ/mol
# GULP energy per Si atom -12391.930967 kJ/mol
# Density = 2.454241 g / cm^3
# Si number density = 24.598395 Si / 1000 Ang^3
#
#
#
# Elastic Constant Matrix: (Units=GPa)
#
#
# Indices 1 2 3 4 5 6 
#
# 1 50.5880 4.7660 -7.4710 0.0000 0.0000 0.0000
# 2 4.7660 81.9598 -2.7413 0.0000 0.0000 0.0000
# 3 -7.4710 -2.7413 51.9375 0.0000 0.0000 0.0000
# 4 0.0000 0.0000 0.0000 27.7572 0.0000 0.0000
# 5 0.0000 0.0000 0.0000 0.0000 27.6695 0.0000
# 6 0.0000 0.0000 0.0000 0.0000 0.0000 33.9006
#
#
#
# Elastic Compliance Matrix: (Units=1/GPa)
#
#
# Indices 1 2 3 4 5 6 
#
# 1 0.020292 -0.001084 0.002862 0.000000 0.000000 0.000000
# 2 -0.001084 0.012281 0.000492 0.000000 0.000000 0.000000
# 3 0.002862 0.000492 0.019692 0.000000 0.000000 0.000000
# 4 0.000000 0.000000 0.000000 0.036027 0.000000 0.000000
# 5 0.000000 0.000000 0.000000 0.000000 0.036141 0.000000
# 6 0.000000 0.000000 0.000000 0.000000 0.000000 0.029498
#
#
# Mechanical properties :
#
#
# Convention : Reuss Voigt Hill
#
# Bulk Modulus (GPa) = 17.60446 19.28808 18.44627
# Shear Modulus (GPa) = 29.70439 30.52757 30.11598
#
# Velocity S-wave (km/s) = 3.47879 3.52666 3.50281
# Velocity P-wave (km/s) = 4.82786 4.94382 4.88618
#
# Compressibility (1/GPa) = 0.05680378
#
# Stress axis : x y z
#
# Youngs Moduli (GPa) = 49.27975 81.42912 50.78321
#
# Poissons Ratio (x) = 0.08829 -0.14533
# Poissons Ratio (y) = 0.05343 -0.02500
# Poissons Ratio (z) = -0.14103 -0.04008
#
# Static dielectric constant tensor:
#      x y z
#    x 4.197930 0.000000 0.000000 
#    y 0.000000 5.063320 0.000000 
#    z 0.000000 0.000000 4.911710 
# 
# 
# High freq. dielectric constant tensor:
#      x y z
#    x 1.946680 0.000000 0.000000 
#    y 0.000000 1.980260 0.000000 
#    z 0.000000 0.000000 1.992710 
# 
# From -- ./inp_files/6071.got.cif
#   From: 2010.03.12/outbox.cif.g09.slc.cpg/sg20_4_cif.got.tgz:6071.got - 2010.04.14 01:38:04.
