data_PCOD8159035
_publ_section_title
;
Structure prediction by ZEFSAII (Michael W. Deem and Ramdas Pophale) SiO2 
 PCOD8159035
Probable space group: C 2 2 21
;
_chemical_formula_sum "Si O2"
_cell_formula_units_Z 40
_cell_length_a 16.806674
_cell_length_b 15.164983
_cell_length_c 7.397561
_cell_angle_alpha 90.000000
_cell_angle_beta 90.000000
_cell_angle_gamma 90.000000
_cell_volume 1885.438014
_symmetry_space_group_name_H-M "C 2 2 21"
_symmetry_group_IT_number 20
_symmetry_cell_setting 'orthorhombic'
loop_
_space_group_symop_operation_xyz
x,y,z
-x,-y,1/2+z
x,-y,-z
-x,y,1/2-z
1/2+x,1/2+y,z
1/2-x,1/2-y,1/2+z
1/2+x,1/2-y,-z
1/2-x,1/2+y,1/2-z
loop_
_atom_site_type_symbol
_atom_site_label
_atom_site_fract_x
_atom_site_fract_y
_atom_site_fract_z
Si Si1 0.500000 0.197148 0.750000
Si Si2 0.933680 0.659182 0.107882
Si Si3 0.780156 0.365638 0.709081
Si Si4 0.186100 0.000000 0.500000
Si Si5 0.912707 0.858380 0.215898
Si Si6 0.650462 0.272635 0.943442
O O1 0.539013 0.135101 0.595434
O O2 0.567104 0.257595 0.842393
O O3 0.850359 0.611424 0.149488
O O4 0.921089 0.764603 0.116705
O O5 0.000000 0.627864 0.250000
O O6 0.741328 0.457726 0.653590
O O7 0.715241 0.302677 0.799692
O O8 0.818257 0.317251 0.535149
O O9 0.133038 0.924105 0.414105
O O10 0.864611 0.846782 0.403603
O O11 0.000000 0.898776 0.250000
#
# Coordination Sequence:
#
# PCOD8159035 Si02
#       6
#     4   8   8   4   8   8
#     4  12  18  36  76 102 118 168 216 290 324 356
#     4  10  20  42  68  98 125 165 230 277 309 381
#     4  11  23  41  62 100 134 172 217 275 322 393
#     4  12  26  38  64  92 146 182 202 264 350 386
#     4  10  21  42  60  97 136 170 216 264 325 402
#     4  11  22  39  72  94 131 168 231 271 317 385
#
# _framework density 21.215228
#
# number of rings (size 3 to 8) (size 9 to 14) (size 15 to 20)
#    0.000    1.200    6.000    4.800    0.000    2.400 
#    1.800    0.000    2.200    0.000    0.000    0.000 
#    0.000    0.000    0.000    0.000    0.000    0.000 
#
# Total GULP energy -248042.613574 kJ/mol
# GULP energy per Si atom -12402.130679 kJ/mol
# Density = 2.116694 g / cm^3
# Si number density = 21.215228 Si / 1000 Ang^3
#
#
#
# Elastic Constant Matrix: (Units=GPa)
#
#
# Indices 1 2 3 4 5 6 
#
# 1 142.1962 19.9628 44.3516 0.0000 0.0000 0.0000
# 2 19.9628 24.9603 9.6663 0.0000 0.0000 0.0000
# 3 44.3516 9.6663 119.9035 0.0000 0.0000 0.0000
# 4 0.0000 0.0000 0.0000 16.8359 0.0000 0.0000
# 5 0.0000 0.0000 0.0000 0.0000 56.9986 0.0000
# 6 0.0000 0.0000 0.0000 0.0000 0.0000 17.3305
#
#
#
# Elastic Compliance Matrix: (Units=1/GPa)
#
#
# Indices 1 2 3 4 5 6 
#
# 1 0.008720 -0.005909 -0.002749 0.000000 0.000000 0.000000
# 2 -0.005909 0.045359 -0.001471 0.000000 0.000000 0.000000
# 3 -0.002749 -0.001471 0.009475 0.000000 0.000000 0.000000
# 4 0.000000 0.000000 0.000000 0.059397 0.000000 0.000000
# 5 0.000000 0.000000 0.000000 0.000000 0.017544 0.000000
# 6 0.000000 0.000000 0.000000 0.000000 0.000000 0.057702
#
#
# Mechanical properties :
#
#
# Convention : Reuss Voigt Hill
#
# Bulk Modulus (GPa) = 23.09676 48.33571 35.71623
# Shear Modulus (GPa) = 21.46962 32.43829 26.95395
#
# Velocity S-wave (km/s) = 3.18463 3.91450 3.56827
# Velocity P-wave (km/s) = 4.94298 6.57754 5.81795
#
# Compressibility (1/GPa) = 0.04329612
#
# Stress axis : x y z
#
# Youngs Moduli (GPa) = 114.68539 22.04622 105.53601
#
# Poissons Ratio (x) = 0.13027 0.29011
# Poissons Ratio (y) = 0.67769 0.15524
# Poissons Ratio (z) = 0.31526 0.03243
#
# Static dielectric constant tensor:
#      x y z
#    x 4.279320 0.000000 0.000000 
#    y 0.000000 3.273860 0.000000 
#    z 0.000000 0.000000 4.088780 
# 
# 
# High freq. dielectric constant tensor:
#      x y z
#    x 1.861610 0.000000 0.000000 
#    y 0.000000 1.776910 0.000000 
#    z 0.000000 0.000000 1.844460 
# 
# From -- ./inp_files/8152.got.cif
#   From: 2010.03.12/outbox.cif.g09.slc.cpg/sg20_5_cif.got.tgz:8152.got - 2010.04.14 01:38:04.
