data_PCOD8159729
_publ_section_title
;
Structure prediction by ZEFSAII (Michael W. Deem and Ramdas Pophale) SiO2 
 PCOD8159729
Probable space group: C 2 2 21
;
_chemical_formula_sum "Si O2"
_cell_formula_units_Z 60
_cell_length_a 19.117358
_cell_length_b 5.649176
_cell_length_c 26.222156
_cell_angle_alpha 90.000000
_cell_angle_beta 90.000000
_cell_angle_gamma 90.000000
_cell_volume 2831.922573
_symmetry_space_group_name_H-M "C 2 2 21"
_symmetry_group_IT_number 20
_symmetry_cell_setting 'orthorhombic'
loop_
_space_group_symop_operation_xyz
x,y,z
-x,-y,1/2+z
x,-y,-z
-x,y,1/2-z
1/2+x,1/2+y,z
1/2-x,1/2-y,1/2+z
1/2+x,1/2-y,-z
1/2-x,1/2+y,1/2-z
loop_
_atom_site_type_symbol
_atom_site_label
_atom_site_fract_x
_atom_site_fract_y
_atom_site_fract_z
Si Si1 0.325495 0.661791 0.366344
Si Si2 0.979286 0.889482 0.641979
Si Si3 0.790984 0.644942 0.826837
Si Si4 0.344485 0.000000 0.000000
Si Si5 0.238518 0.879133 0.447940
Si Si6 0.614450 0.697243 0.411606
Si Si7 0.684345 0.982191 0.782690
Si Si8 0.533861 0.124618 0.196358
O O1 0.402209 0.568484 0.381921
O O2 0.267128 0.459154 0.365321
O O3 0.302866 0.856995 0.408604
O O4 0.327945 0.762796 0.308568
O O5 0.981661 0.621131 0.665368
O O6 0.037577 0.907509 0.597800
O O7 0.996554 0.123519 0.676126
O O8 0.861952 0.670867 0.859476
O O9 0.757708 0.884766 0.804285
O O10 0.811775 0.484702 0.778537
O O11 0.394011 0.843723 0.036042
O O12 0.292283 0.126101 0.038687
O O13 0.265394 0.000000 0.500000
O O14 0.174699 0.007580 0.420360
O O15 0.617138 0.825178 0.798210
O O16 0.500000 0.069552 0.250000
#
# Coordination Sequence:
#
# PCOD8159729 Si02
#       8
#     8   8   8   4   8   8   8   8
#     4  11  22  42  63  94 137 172 215 285 329 406
#     4  11  26  42  68  97 137 178 223 274 348 393
#     4  12  21  37  64  94 129 177 225 270 329 394
#     4  10  22  42  68  96 128 160 232 282 348 392
#     4  10  22  41  70  94 123 169 225 279 339 413
#     4  11  24  41  69  97 128 178 224 284 338 415
#     4  11  23  36  61  97 132 175 227 271 322 396
#     4  11  24  43  63  94 140 184 224 274 329 406
#
# _framework density 21.187018999999999
#
# number of rings (size 3 to 8) (size 9 to 14) (size 15 to 20)
#    0.000    1.067    5.333    1.200    1.867    3.200 
#    1.200    0.000    4.400    0.000    0.000    0.000 
#    0.000    0.000    0.000    0.000    0.000    0.000 
#
# Total GULP energy -371704.184545 kJ/mol
# GULP energy per Si atom -12390.139485 kJ/mol
# Density = 2.113880 g / cm^3
# Si number density = 21.187019 Si / 1000 Ang^3
#
#
#
# Elastic Constant Matrix: (Units=GPa)
#
#
# Indices 1 2 3 4 5 6 
#
# 1 73.3528 2.7966 26.6511 0.0000 0.0000 0.0000
# 2 2.7966 80.8134 14.2823 0.0000 0.0000 0.0000
# 3 26.6511 14.2823 95.4297 0.0000 0.0000 0.0000
# 4 0.0000 0.0000 0.0000 26.3219 0.0000 0.0000
# 5 0.0000 0.0000 0.0000 0.0000 45.8986 0.0000
# 6 0.0000 0.0000 0.0000 0.0000 0.0000 36.1100
#
#
#
# Elastic Compliance Matrix: (Units=1/GPa)
#
#
# Indices 1 2 3 4 5 6 
#
# 1 0.015176 0.000230 -0.004273 0.000000 0.000000 0.000000
# 2 0.000230 0.012714 -0.001967 0.000000 0.000000 0.000000
# 3 -0.004273 -0.001967 0.011967 0.000000 0.000000 0.000000
# 4 0.000000 0.000000 0.000000 0.037991 0.000000 0.000000
# 5 0.000000 0.000000 0.000000 0.000000 0.021787 0.000000
# 6 0.000000 0.000000 0.000000 0.000000 0.000000 0.027693
#
#
# Mechanical properties :
#
#
# Convention : Reuss Voigt Hill
#
# Bulk Modulus (GPa) = 35.92324 37.45065 36.68695
# Shear Modulus (GPa) = 33.64125 35.39050 34.51588
#
# Velocity S-wave (km/s) = 3.98907 4.09147 4.04060
# Velocity P-wave (km/s) = 6.18135 6.32730 6.25475
#
# Compressibility (1/GPa) = 0.02783713
#
# Stress axis : x y z
#
# Youngs Moduli (GPa) = 65.89180 78.65431 83.56602
#
# Poissons Ratio (x) = -0.01809 0.35706
# Poissons Ratio (y) = -0.01515 0.16438
# Poissons Ratio (z) = 0.28154 0.15471
#
# Static dielectric constant tensor:
#      x y z
#    x 3.874180 0.000000 0.000000 
#    y 0.000000 3.804970 0.000000 
#    z 0.000000 0.000000 2.479090 
# 
# 
# High freq. dielectric constant tensor:
#      x y z
#    x 1.825620 0.000000 0.000000 
#    y 0.000000 1.828950 0.000000 
#    z 0.000000 0.000000 1.826740 
# 
# From -- ./inp_files/29559.got.cif
#   From: 2010.03.12/outbox.cif.g09.slc.cpg/sg20_15_cif.got.tgz:29559.got - 2010.04.14 01:38:04.
