data_PCOD8159092
_publ_section_title
;
Structure prediction by ZEFSAII (Michael W. Deem and Ramdas Pophale) SiO2 
 PCOD8159092
Probable space group: C 2 2 21
;
_chemical_formula_sum "Si O2"
_cell_formula_units_Z 60
_cell_length_a 11.146419
_cell_length_b 21.071584
_cell_length_c 13.448985
_cell_angle_alpha 90.000000
_cell_angle_beta 90.000000
_cell_angle_gamma 90.000000
_cell_volume 3158.799476
_symmetry_space_group_name_H-M "C 2 2 21"
_symmetry_group_IT_number 20
_symmetry_cell_setting 'orthorhombic'
loop_
_space_group_symop_operation_xyz
x,y,z
-x,-y,1/2+z
x,-y,-z
-x,y,1/2-z
1/2+x,1/2+y,z
1/2-x,1/2-y,1/2+z
1/2+x,1/2-y,-z
1/2-x,1/2+y,1/2-z
loop_
_atom_site_type_symbol
_atom_site_label
_atom_site_fract_x
_atom_site_fract_y
_atom_site_fract_z
Si Si1 0.500000 0.671313 0.250000
Si Si2 0.291281 0.611999 0.371681
Si Si3 0.908786 0.031098 0.895252
Si Si4 0.635064 0.208471 0.264597
Si Si5 0.171819 0.980984 0.186118
Si Si6 0.684822 0.352629 0.091664
Si Si7 0.324988 0.731510 0.105805
Si Si8 0.914911 0.821381 0.101307
O O1 0.405889 0.624868 0.301879
O O2 0.441822 0.719616 0.171748
O O3 0.185717 0.660763 0.347748
O O4 0.248320 0.538828 0.356813
O O5 0.334359 0.618212 0.483654
O O6 0.831809 0.004017 0.803874
O O7 0.881357 0.105589 0.892812
O O8 0.045877 0.016135 0.871949
O O9 0.869417 0.000000 0.000000
O O10 0.500000 0.186009 0.250000
O O11 0.709398 0.201030 0.162021
O O12 0.642325 0.280725 0.307845
O O13 0.219742 0.909796 0.166734
O O14 0.798459 0.306031 0.094805
O O15 0.559935 0.314554 0.113141
O O16 0.352949 0.702845 0.998927
#
# Coordination Sequence:
#
# PCOD8159092 Si02
#       8
#     4   8   8   8   8   8   8   8
#     4  10  22  34  54  88 118 148 188 242 304 342
#     4  11  21  35  59  87 118 151 194 244 292 355
#     4  10  21  33  54  83 121 152 180 244 307 356
#     4  11  23  37  58  86 117 163 205 242 293 351
#     4  10  21  34  55  84 116 153 190 236 296 354
#     4  11  20  37  59  87 117 155 192 244 298 354
#     4  11  22  36  59  84 123 152 192 252 293 352
#     4  11  21  37  56  88 121 154 198 243 299 362
#
# _framework density 18.994557
#
# number of rings (size 3 to 8) (size 9 to 14) (size 15 to 20)
#    0.000    1.333    4.000    3.600    5.600    0.000 
#    0.000    0.000    1.467    0.000    3.467    0.000 
#    0.000    0.000    0.000    0.000    0.000    0.000 
#
# Total GULP energy -371838.864343 kJ/mol
# GULP energy per Si atom -12394.628811 kJ/mol
# Density = 1.895132 g / cm^3
# Si number density = 18.994557 Si / 1000 Ang^3
#
#
#
# Elastic Constant Matrix: (Units=GPa)
#
#
# Indices 1 2 3 4 5 6 
#
# 1 56.6295 25.7306 16.9185 0.0000 0.0000 0.0000
# 2 25.7306 115.8342 20.2868 0.0000 0.0000 0.0000
# 3 16.9185 20.2868 97.7710 0.0000 0.0000 0.0000
# 4 0.0000 0.0000 0.0000 31.8118 0.0000 0.0000
# 5 0.0000 0.0000 0.0000 0.0000 22.7553 0.0000
# 6 0.0000 0.0000 0.0000 0.0000 0.0000 22.9514
#
#
#
# Elastic Compliance Matrix: (Units=1/GPa)
#
#
# Indices 1 2 3 4 5 6 
#
# 1 0.020293 -0.004039 -0.002673 0.000000 0.000000 0.000000
# 2 -0.004039 0.009763 -0.001327 0.000000 0.000000 0.000000
# 3 -0.002673 -0.001327 0.010966 0.000000 0.000000 0.000000
# 4 0.000000 0.000000 0.000000 0.031435 0.000000 0.000000
# 5 0.000000 0.000000 0.000000 0.000000 0.043946 0.000000
# 6 0.000000 0.000000 0.000000 0.000000 0.000000 0.043570
#
#
# Mechanical properties :
#
#
# Convention : Reuss Voigt Hill
#
# Bulk Modulus (GPa) = 40.09262 44.01185 42.05223
# Shear Modulus (GPa) = 27.12005 29.32361 28.22183
#
# Velocity S-wave (km/s) = 3.78270 3.93337 3.85877
# Velocity P-wave (km/s) = 6.34284 6.62190 6.48387
#
# Compressibility (1/GPa) = 0.02494225
#
# Stress axis : x y z
#
# Youngs Moduli (GPa) = 49.27874 102.43081 91.19206
#
# Poissons Ratio (x) = 0.41377 0.24379
# Poissons Ratio (y) = 0.19906 0.12098
# Poissons Ratio (z) = 0.13174 0.13589
#
# Static dielectric constant tensor:
#      x y z
#    x 3.169320 0.000000 0.000000 
#    y 0.000000 3.653630 0.000000 
#    z 0.000000 0.000000 3.844870 
# 
# 
# High freq. dielectric constant tensor:
#      x y z
#    x 1.686010 0.000000 0.000000 
#    y 0.000000 1.747380 0.000000 
#    z 0.000000 0.000000 1.762760 
# 
# From -- ./inp_files/14394.got.cif
#   From: 2010.03.12/outbox.cif.g09.slc.cpg/sg20_8_cif.got.tgz:14394.got - 2010.04.14 01:38:04.
