data_PCOD8159444
_publ_section_title
;
Structure prediction by ZEFSAII (Michael W. Deem and Ramdas Pophale) SiO2 
 PCOD8159444
Probable space group: C 2 2 21
;
_chemical_formula_sum "Si O2"
_cell_formula_units_Z 64
_cell_length_a 22.373962
_cell_length_b 14.298847
_cell_length_c 9.328660
_cell_angle_alpha 90.000000
_cell_angle_beta 90.000000
_cell_angle_gamma 90.000000
_cell_volume 2984.442253
_symmetry_space_group_name_H-M "C 2 2 21"
_symmetry_group_IT_number 20
_symmetry_cell_setting 'orthorhombic'
loop_
_space_group_symop_operation_xyz
x,y,z
-x,-y,1/2+z
x,-y,-z
-x,y,1/2-z
1/2+x,1/2+y,z
1/2-x,1/2-y,1/2+z
1/2+x,1/2-y,-z
1/2-x,1/2+y,1/2-z
loop_
_atom_site_type_symbol
_atom_site_label
_atom_site_fract_x
_atom_site_fract_y
_atom_site_fract_z
Si Si1 0.027834 0.584904 0.103057
Si Si2 0.361432 0.820777 0.718165
Si Si3 0.746838 0.417616 0.085465
Si Si4 0.792171 0.494990 0.665803
Si Si5 0.347182 0.170463 0.773517
Si Si6 0.509162 0.401965 0.919196
Si Si7 0.640035 0.318012 0.972234
Si Si8 0.435295 0.770503 0.995879
O O1 0.095427 0.614497 0.123312
O O2 0.000000 0.550758 0.250000
O O3 0.995323 0.674979 0.039157
O O4 0.021354 0.500000 0.000000
O O5 0.304226 0.889709 0.726956
O O6 0.349839 0.728706 0.627226
O O7 0.387100 0.785459 0.869585
O O8 0.735421 0.462714 0.245354
O O9 0.791371 0.328311 0.111558
O O10 0.782629 0.500000 0.000000
O O11 0.688201 0.400559 0.989303
O O12 0.775258 0.500000 0.500000
O O13 0.848235 0.432968 0.300771
O O14 0.339110 0.250301 0.654894
O O15 0.408659 0.189486 0.856582
O O16 0.500000 0.416887 0.750000
O O17 0.573876 0.356847 0.948751
O O18 0.504158 0.500000 0.000000
O O19 0.456010 0.336758 0.982344
#
# Coordination Sequence:
#
# PCOD8159444 Si02
#       8
#     8   8   8   8   8   8   8   8
#     4  10  23  33  57  98 141 182 224 275 339 423
#     4  11  22  38  68  97 140 179 224 288 345 420
#     4  10  24  44  68  99 137 185 227 290 355 418
#     4  10  21  42  68 102 139 183 225 282 356 415
#     4  10  24  42  70 100 137 183 228 281 355 426
#     4  12  28  48  76  99 140 190 237 302 351 409
#     4  12  24  46  71 101 137 184 238 294 347 416
#     4  11  24  43  65 105 138 183 235 276 357 430
#
# _framework density 21.444544
#
# number of rings (size 3 to 8) (size 9 to 14) (size 15 to 20)
#    0.750    0.500    3.750    1.500    5.250    2.500 
#    0.000    0.000    0.000    0.000    0.000    0.000 
#    0.000    0.000    0.000    0.000    0.000    0.000 
#
# Total GULP energy -396432.989725 kJ/mol
# GULP energy per Si atom -12388.530929 kJ/mol
# Density = 2.139573 g / cm^3
# Si number density = 21.444544 Si / 1000 Ang^3
#
#
#
# Elastic Constant Matrix: (Units=GPa)
#
#
# Indices 1 2 3 4 5 6 
#
# 1 50.6868 18.3093 29.0365 0.0000 0.0000 0.0000
# 2 18.3093 112.1726 66.9780 0.0000 0.0000 0.0000
# 3 29.0365 66.9780 126.3496 0.0000 0.0000 0.0000
# 4 0.0000 0.0000 0.0000 47.8031 0.0000 0.0000
# 5 0.0000 0.0000 0.0000 0.0000 40.5531 0.0000
# 6 0.0000 0.0000 0.0000 0.0000 0.0000 32.1978
#
#
#
# Elastic Compliance Matrix: (Units=1/GPa)
#
#
# Indices 1 2 3 4 5 6 
#
# 1 0.022778 -0.000867 -0.004775 0.000000 0.000000 0.000000
# 2 -0.000867 0.013076 -0.006733 0.000000 0.000000 0.000000
# 3 -0.004775 -0.006733 0.012581 0.000000 0.000000 0.000000
# 4 0.000000 0.000000 0.000000 0.020919 0.000000 0.000000
# 5 0.000000 0.000000 0.000000 0.000000 0.024659 0.000000
# 6 0.000000 0.000000 0.000000 0.000000 0.000000 0.031058
#
#
# Mechanical properties :
#
#
# Convention : Reuss Voigt Hill
#
# Bulk Modulus (GPa) = 42.21901 57.53962 49.87932
# Shear Modulus (GPa) = 31.70277 35.76980 33.73628
#
# Velocity S-wave (km/s) = 3.84912 4.08856 3.97065
# Velocity P-wave (km/s) = 6.28367 7.01274 6.65819
#
# Compressibility (1/GPa) = 0.02368601
#
# Stress axis : x y z
#
# Youngs Moduli (GPa) = 43.90294 76.47417 79.48578
#
# Poissons Ratio (x) = 0.06628 0.37955
# Poissons Ratio (y) = 0.03805 0.53515
# Poissons Ratio (z) = 0.20964 0.51487
#
# Static dielectric constant tensor:
#      x y z
#    x 3.783640 0.000000 0.000000 
#    y 0.000000 3.898140 0.000000 
#    z 0.000000 0.000000 3.995020 
# 
# 
# High freq. dielectric constant tensor:
#      x y z
#    x 1.814710 0.000000 0.000000 
#    y 0.000000 1.844580 0.000000 
#    z 0.000000 0.000000 1.860370 
# 
# From -- ./inp_files/10823.got.cif
#   From: 2010.03.12/outbox.cif.g09.slc.cpg/sg20_6_cif.got.tgz:10823.got - 2010.04.14 01:38:04.
