data_PCOD8159429
_publ_section_title
;
Structure prediction by ZEFSAII (Michael W. Deem and Ramdas Pophale) SiO2 
 PCOD8159429
Probable space group: C 2 2 21
;
_chemical_formula_sum "Si O2"
_cell_formula_units_Z 64
_cell_length_a 8.241966
_cell_length_b 11.422719
_cell_length_c 30.404517
_cell_angle_alpha 90.000000
_cell_angle_beta 90.000000
_cell_angle_gamma 90.000000
_cell_volume 2862.453369
_symmetry_space_group_name_H-M "C 2 2 21"
_symmetry_group_IT_number 20
_symmetry_cell_setting 'orthorhombic'
loop_
_space_group_symop_operation_xyz
x,y,z
-x,-y,1/2+z
x,-y,-z
-x,y,1/2-z
1/2+x,1/2+y,z
1/2-x,1/2-y,1/2+z
1/2+x,1/2-y,-z
1/2-x,1/2+y,1/2-z
loop_
_atom_site_type_symbol
_atom_site_label
_atom_site_fract_x
_atom_site_fract_y
_atom_site_fract_z
Si Si1 0.579574 0.720207 0.702950
Si Si2 0.668897 0.494707 0.912351
Si Si3 0.097414 0.973640 0.662090
Si Si4 0.149003 0.320805 0.872035
Si Si5 0.837259 0.261079 0.451822
Si Si6 0.028076 0.783414 0.044706
Si Si7 0.063274 0.638536 0.620856
Si Si8 0.056923 0.251490 0.202866
O O1 0.500000 0.738785 0.750000
O O2 0.609021 0.583387 0.694187
O O3 0.466832 0.776758 0.666387
O O4 0.753844 0.783298 0.702370
O O5 0.530379 0.498675 0.875962
O O6 0.672168 0.373802 0.937729
O O7 0.633590 0.599817 0.946537
O O8 0.844762 0.515513 0.888658
O O9 0.275972 0.948133 0.640263
O O10 0.044732 0.863972 0.691547
O O11 0.053921 0.317308 0.918254
O O12 0.303032 0.238859 0.879094
O O13 0.925628 0.272492 0.498322
O O14 0.660390 0.317706 0.455826
O O15 0.932334 0.337837 0.416687
O O16 0.976107 0.643077 0.668315
O O17 0.000000 0.299426 0.250000
#
# Coordination Sequence:
#
# PCOD8159429 Si02
#       8
#     8   8   8   8   8   8   8   8
#     4  12  24  42  68  95 131 172 219 270 325 390
#     4  11  23  42  69  92 130 171 215 263 333 385
#     4  11  23  42  69  91 130 172 211 264 335 383
#     4  10  21  42  65  96 128 169 214 269 320 395
#     4  12  24  44  66  95 134 173 212 281 317 392
#     4  11  24  42  67  96 131 169 223 260 333 385
#     4  10  21  42  67  94 129 170 217 263 330 389
#     4  11  24  44  65  96 134 169 219 273 323 391
#
# _framework density 22.358442
#
# number of rings (size 3 to 8) (size 9 to 14) (size 15 to 20)
#    0.000    1.000    5.000    4.500    0.000    1.000 
#    0.000    0.625    0.000    0.000    0.000    0.000 
#    0.000    0.000    0.000    0.000    0.000    0.000 
#
# Total GULP energy -396865.008483 kJ/mol
# GULP energy per Si atom -12402.031515 kJ/mol
# Density = 2.230755 g / cm^3
# Si number density = 22.358442 Si / 1000 Ang^3
#
#
#
# Elastic Constant Matrix: (Units=GPa)
#
#
# Indices 1 2 3 4 5 6 
#
# 1 124.6437 8.1067 47.7277 0.0000 0.0000 0.0000
# 2 8.1067 62.6422 22.4253 0.0000 0.0000 0.0000
# 3 47.7277 22.4253 170.0832 0.0000 0.0000 0.0000
# 4 0.0000 0.0000 0.0000 38.3891 0.0000 0.0000
# 5 0.0000 0.0000 0.0000 0.0000 41.5333 0.0000
# 6 0.0000 0.0000 0.0000 0.0000 0.0000 28.8435
#
#
#
# Elastic Compliance Matrix: (Units=1/GPa)
#
#
# Indices 1 2 3 4 5 6 
#
# 1 0.008993 -0.000273 -0.002488 0.000000 0.000000 0.000000
# 2 -0.000273 0.016763 -0.002133 0.000000 0.000000 0.000000
# 3 -0.002488 -0.002133 0.006859 0.000000 0.000000 0.000000
# 4 0.000000 0.000000 0.000000 0.026049 0.000000 0.000000
# 5 0.000000 0.000000 0.000000 0.000000 0.024077 0.000000
# 6 0.000000 0.000000 0.000000 0.000000 0.000000 0.034670
#
#
# Mechanical properties :
#
#
# Convention : Reuss Voigt Hill
#
# Bulk Modulus (GPa) = 43.80947 57.09871 50.45409
# Shear Modulus (GPa) = 37.08972 40.36045 38.72509
#
# Velocity S-wave (km/s) = 4.07734 4.25332 4.16626
# Velocity P-wave (km/s) = 6.46552 7.05084 6.76451
#
# Compressibility (1/GPa) = 0.02282611
#
# Stress axis : x y z
#
# Youngs Moduli (GPa) = 111.19550 59.65584 145.79766
#
# Poissons Ratio (x) = 0.01630 0.36268
# Poissons Ratio (y) = 0.03039 0.31105
# Poissons Ratio (z) = 0.27661 0.12727
#
# Static dielectric constant tensor:
#      x y z
#    x 4.513460 0.000000 0.000000 
#    y 0.000000 4.003450 0.000000 
#    z 0.000000 0.000000 4.238360 
# 
# 
# High freq. dielectric constant tensor:
#      x y z
#    x 1.903910 0.000000 0.000000 
#    y 0.000000 1.861840 0.000000 
#    z 0.000000 0.000000 1.889410 
# 
# From -- ./inp_files/31076.got.cif
#   From: 2010.03.12/outbox.cif.g09.slc.cpg/sg20_16_cif.got.tgz:31076.got - 2010.04.14 01:38:04.
