data_PCOD8159242
_publ_section_title
;
Structure prediction by ZEFSAII (Michael W. Deem and Ramdas Pophale) SiO2 
 PCOD8159242
Probable space group: C 2 2 21
;
_chemical_formula_sum "Si O2"
_cell_formula_units_Z 32
_cell_length_a 9.018822
_cell_length_b 10.410915
_cell_length_c 15.714470
_cell_angle_alpha 90.000000
_cell_angle_beta 90.000000
_cell_angle_gamma 90.000000
_cell_volume 1475.497420
_symmetry_space_group_name_H-M "C 2 2 21"
_symmetry_group_IT_number 20
_symmetry_cell_setting 'orthorhombic'
loop_
_space_group_symop_operation_xyz
x,y,z
-x,-y,1/2+z
x,-y,-z
-x,y,1/2-z
1/2+x,1/2+y,z
1/2-x,1/2-y,1/2+z
1/2+x,1/2-y,-z
1/2-x,1/2+y,1/2-z
loop_
_atom_site_type_symbol
_atom_site_label
_atom_site_fract_x
_atom_site_fract_y
_atom_site_fract_z
Si Si1 0.379544 0.864731 0.516767
Si Si2 0.204266 0.625934 0.547789
Si Si3 0.826169 0.851593 0.263711
Si Si4 0.643921 0.924424 0.794669
O O1 0.272958 0.746206 0.496398
O O2 0.526203 0.859072 0.457743
O O3 0.414822 0.864497 0.616981
O O4 0.295565 0.000000 0.500000
O O5 0.259665 0.500000 0.500000
O O6 0.262614 0.612183 0.643527
O O7 0.786623 0.700847 0.245123
O O8 0.000000 0.871576 0.250000
O O9 0.754220 0.954024 0.197687
O O10 0.500000 0.981430 0.750000
#
# Coordination Sequence:
#
# PCOD8159242 Si02
#       4
#     8   8   8   8
#     4  10  22  37  58  87 118 157 198 243 298 353
#     4  10  22  40  60  88 122 155 199 248 296 355
#     4  10  23  40  60  89 121 157 200 247 296 354
#     4  10  21  39  60  86 120 155 197 246 296 354
#
# _framework density 21.6876
#
# number of rings (size 3 to 8) (size 9 to 14) (size 15 to 20)
#    0.000    2.000    0.000    3.000    0.000   14.000 
#    0.000    0.000    0.000    0.000    0.000    0.000 
#    0.000    0.000    0.000    0.000    0.000    0.000 
#
# Total GULP energy -198235.721417 kJ/mol
# GULP energy per Si atom -12389.732589 kJ/mol
# Density = 2.163824 g / cm^3
# Si number density = 21.687600 Si / 1000 Ang^3
#
#
#
# Elastic Constant Matrix: (Units=GPa)
#
#
# Indices 1 2 3 4 5 6 
#
# 1 59.0542 46.5690 6.5691 0.0000 0.0000 0.0000
# 2 46.5690 167.2105 2.1962 0.0000 0.0000 0.0000
# 3 6.5691 2.1962 38.2964 0.0000 0.0000 0.0000
# 4 0.0000 0.0000 0.0000 34.1274 0.0000 0.0000
# 5 0.0000 0.0000 0.0000 0.0000 35.2204 0.0000
# 6 0.0000 0.0000 0.0000 0.0000 0.0000 37.6293
#
#
#
# Elastic Compliance Matrix: (Units=1/GPa)
#
#
# Indices 1 2 3 4 5 6 
#
# 1 0.022145 -0.006122 -0.003447 0.000000 0.000000 0.000000
# 2 -0.006122 0.007678 0.000610 0.000000 0.000000 0.000000
# 3 -0.003447 0.000610 0.026668 0.000000 0.000000 0.000000
# 4 0.000000 0.000000 0.000000 0.029302 0.000000 0.000000
# 5 0.000000 0.000000 0.000000 0.000000 0.028393 0.000000
# 6 0.000000 0.000000 0.000000 0.000000 0.000000 0.026575
#
#
# Mechanical properties :
#
#
# Convention : Reuss Voigt Hill
#
# Bulk Modulus (GPa) = 25.92600 41.69219 33.80910
# Shear Modulus (GPa) = 29.14819 35.34389 32.24604
#
# Velocity S-wave (km/s) = 3.67004 4.04131 3.86014
# Velocity P-wave (km/s) = 5.47167 6.40640 5.95740
#
# Compressibility (1/GPa) = 0.03857132
#
# Stress axis : x y z
#
# Youngs Moduli (GPa) = 45.15709 130.25017 37.49744
#
# Poissons Ratio (x) = 0.79742 0.12927
# Poissons Ratio (y) = 0.27646 -0.02287
# Poissons Ratio (z) = 0.15568 -0.07944
#
# Static dielectric constant tensor:
#      x y z
#    x 3.664810 0.000000 0.000000 
#    y 0.000000 4.605510 0.000000 
#    z 0.000000 0.000000 3.875350 
# 
# 
# High freq. dielectric constant tensor:
#      x y z
#    x 1.827770 0.000000 0.000000 
#    y 0.000000 1.881040 0.000000 
#    z 0.000000 0.000000 1.844300 
# 
# From -- ./inp_files/18175.got.cif
#   From: 2010.03.12/outbox.cif.g09.slc.cpg/sg20_10_cif.got.tgz:18175.got - 2010.04.14 01:38:04.
