data_PCOD8159951
_publ_section_title
;
Structure prediction by ZEFSAII (Michael W. Deem and Ramdas Pophale) SiO2 
 PCOD8159951
Probable space group: C 2 2 21
;
_chemical_formula_sum "Si O2"
_cell_formula_units_Z 48
_cell_length_a 27.522051
_cell_length_b 10.014341
_cell_length_c 8.784116
_cell_angle_alpha 90.000000
_cell_angle_beta 90.000000
_cell_angle_gamma 90.000000
_cell_volume 2421.035921
_symmetry_space_group_name_H-M "C 2 2 21"
_symmetry_group_IT_number 20
_symmetry_cell_setting 'orthorhombic'
loop_
_space_group_symop_operation_xyz
x,y,z
-x,-y,1/2+z
x,-y,-z
-x,y,1/2-z
1/2+x,1/2+y,z
1/2-x,1/2-y,1/2+z
1/2+x,1/2-y,-z
1/2-x,1/2+y,1/2-z
loop_
_atom_site_type_symbol
_atom_site_label
_atom_site_fract_x
_atom_site_fract_y
_atom_site_fract_z
Si Si1 0.956227 0.100939 0.862782
Si Si2 0.455289 0.905775 0.858611
Si Si3 0.138541 0.509425 0.174176
Si Si4 0.209052 0.250707 0.839916
Si Si5 0.350880 0.525282 0.821302
Si Si6 0.688675 0.735121 0.191965
O O1 0.956559 0.253836 0.918810
O O2 0.904743 0.076529 0.780961
O O3 0.000000 0.071575 0.750000
O O4 0.963130 0.000000 0.000000
O O5 0.500000 0.935263 0.750000
O O6 0.405464 0.938596 0.774396
O O7 0.461689 0.000000 0.000000
O O8 0.182972 0.610466 0.196818
O O9 0.157103 0.365826 0.228980
O O10 0.121048 0.500000 0.000000
O O11 0.187965 0.132204 0.737169
O O12 0.265323 0.267341 0.802526
O O13 0.204728 0.220049 0.017924
O O14 0.345584 0.388378 0.730592
O O15 0.343071 0.500000 0.000000
#
# Coordination Sequence:
#
# PCOD8159951 Si02
#       6
#     8   8   8   8   8   8
#     4  10  24  44  65  95 128 165 208 261 313 377
#     4  11  24  43  68  96 128 163 209 259 315 379
#     4  10  23  42  62  92 127 166 209 262 316 373
#     4  11  22  42  62  94 128 167 215 265 319 377
#     4  11  23  41  62  93 128 167 214 262 312 377
#     4  11  24  38  66  92 127 170 213 263 321 377
#
# _framework density 19.826222999999999
#
# number of rings (size 3 to 8) (size 9 to 14) (size 15 to 20)
#    0.000    1.333    1.667    3.000    4.667    4.667 
#    3.000    0.000    0.000    0.000    0.000    0.000 
#    0.000    0.000    0.000    0.000    0.000    0.000 
#
# Total GULP energy -297723.308191 kJ/mol
# GULP energy per Si atom -12405.137841 kJ/mol
# Density = 1.978110 g / cm^3
# Si number density = 19.826223 Si / 1000 Ang^3
#
#
#
# Elastic Constant Matrix: (Units=GPa)
#
#
# Indices 1 2 3 4 5 6 
#
# 1 90.0130 21.7002 35.0285 0.0000 0.0000 0.0000
# 2 21.7002 106.8193 45.5174 0.0000 0.0000 0.0000
# 3 35.0285 45.5174 86.0076 0.0000 0.0000 0.0000
# 4 0.0000 0.0000 0.0000 39.2019 0.0000 0.0000
# 5 0.0000 0.0000 0.0000 0.0000 19.5169 0.0000
# 6 0.0000 0.0000 0.0000 0.0000 0.0000 40.1826
#
#
#
# Elastic Compliance Matrix: (Units=1/GPa)
#
#
# Indices 1 2 3 4 5 6 
#
# 1 0.013223 -0.000505 -0.005118 0.000000 0.000000 0.000000
# 2 -0.000505 0.012107 -0.006201 0.000000 0.000000 0.000000
# 3 -0.005118 -0.006201 0.016993 0.000000 0.000000 0.000000
# 4 0.000000 0.000000 0.000000 0.025509 0.000000 0.000000
# 5 0.000000 0.000000 0.000000 0.000000 0.051238 0.000000
# 6 0.000000 0.000000 0.000000 0.000000 0.000000 0.024886
#
#
# Mechanical properties :
#
#
# Convention : Reuss Voigt Hill
#
# Bulk Modulus (GPa) = 53.55154 54.14801 53.84978
# Shear Modulus (GPa) = 28.76376 31.81986 30.29181
#
# Velocity S-wave (km/s) = 3.81306 4.01051 3.91303
# Velocity P-wave (km/s) = 6.81579 6.98686 6.90186
#
# Compressibility (1/GPa) = 0.01867360
#
# Stress axis : x y z
#
# Youngs Moduli (GPa) = 75.62597 82.59830 58.84715
#
# Poissons Ratio (x) = 0.04175 0.30117
# Poissons Ratio (y) = 0.03822 0.36493
# Poissons Ratio (z) = 0.38704 0.51222
#
# Static dielectric constant tensor:
#      x y z
#    x 3.744790 0.000000 0.000000 
#    y 0.000000 3.862790 0.000000 
#    z 0.000000 0.000000 3.630180 
# 
# 
# High freq. dielectric constant tensor:
#      x y z
#    x 1.785800 0.000000 0.000000 
#    y 0.000000 1.795040 0.000000 
#    z 0.000000 0.000000 1.773420 
# 
# From -- ./inp_files/6476.got.cif
#   From: 2010.03.12/outbox.cif.g09.slc.cpg/sg20_4_cif.got.tgz:6476.got - 2010.04.14 01:38:04.
