data_PCOD8159232
_publ_section_title
;
Structure prediction by ZEFSAII (Michael W. Deem and Ramdas Pophale) SiO2 
 PCOD8159232
Probable space group: C 2 2 21
;
_chemical_formula_sum "Si O2"
_cell_formula_units_Z 56
_cell_length_a 15.483399
_cell_length_b 11.307855
_cell_length_c 13.965094
_cell_angle_alpha 90.000000
_cell_angle_beta 90.000000
_cell_angle_gamma 90.000000
_cell_volume 2445.064948
_symmetry_space_group_name_H-M "C 2 2 21"
_symmetry_group_IT_number 20
_symmetry_cell_setting 'orthorhombic'
loop_
_space_group_symop_operation_xyz
x,y,z
-x,-y,1/2+z
x,-y,-z
-x,y,1/2-z
1/2+x,1/2+y,z
1/2-x,1/2-y,1/2+z
1/2+x,1/2-y,-z
1/2-x,1/2+y,1/2-z
loop_
_atom_site_type_symbol
_atom_site_label
_atom_site_fract_x
_atom_site_fract_y
_atom_site_fract_z
Si Si1 0.352352 0.379618 0.952206
Si Si2 0.673871 0.191650 0.095145
Si Si3 0.326129 0.191650 0.095144
Si Si4 0.597359 0.969804 0.750000
Si Si5 0.852352 0.120382 0.452207
Si Si6 0.758314 0.862830 0.250000
Si Si7 0.096035 0.940023 0.750000
O O1 0.247723 0.390270 0.951734
O O2 0.391016 0.361592 0.845589
O O3 0.388966 0.500000 0.000000
O O4 0.380283 0.265606 0.015935
O O5 0.608974 0.112625 0.156679
O O6 0.730301 0.284217 0.156598
O O7 0.619716 0.265606 0.015936
O O8 0.391026 0.112623 0.156677
O O9 0.252276 0.109730 0.048266
O O10 0.269700 0.284217 0.156598
O O11 0.500000 0.020027 0.750000
O O12 0.664169 0.077543 0.750000
O O13 0.891017 0.138409 0.345590
O O14 0.888966 0.000000 0.500000
O O15 0.833159 0.959165 0.250002
O O16 0.000000 0.995175 0.750000
#
# Coordination Sequence:
#
# PCOD8159232 Si02
#       7
#     8   8   8   8   8   8   8
#     4  11  21  41  64  92 122 166 212 264 317 372
#     4  10  21  38  69  91 125 171 213 252 322 383
#     4  10  21  38  69  91 125 171 213 252 322 383
#     4  11  22  39  67  99 129 166 213 264 314 374
#     4  11  21  41  64  92 122 166 212 264 317 372
#     4  11  20  43  62  95 133 166 209 261 318 379
#     4  12  24  38  59  88 126 164 204 259 322 371
#
# _framework density 22.903276999999999
#
# number of rings (size 3 to 8) (size 9 to 14) (size 15 to 20)
#    0.000    1.143    5.714    0.857    0.000    4.000 
#    0.000    2.857    0.000   16.286    0.000    0.000 
#    0.000    0.000    0.000    0.000    0.000    0.000 
#
# Total GULP energy -347144.273788 kJ/mol
# GULP energy per Si atom -12398.009778 kJ/mol
# Density = 2.285115 g / cm^3
# Si number density = 22.903277 Si / 1000 Ang^3
#
#
#
# Elastic Constant Matrix: (Units=GPa)
#
#
# Indices 1 2 3 4 5 6 
#
# 1 122.0612 31.1434 8.0805 0.0000 0.0000 0.0000
# 2 31.1434 68.7089 32.3779 0.0000 0.0000 0.0000
# 3 8.0805 32.3779 141.4457 0.0000 0.0000 0.0000
# 4 0.0000 0.0000 0.0000 17.7199 0.0000 0.0000
# 5 0.0000 0.0000 0.0000 0.0000 13.6567 0.0000
# 6 0.0000 0.0000 0.0000 0.0000 0.0000 -2.6193
#
#
#
# Elastic Compliance Matrix: (Units=1/GPa)
#
#
# Indices 1 2 3 4 5 6 
#
# 1 0.009294 -0.004441 0.000486 0.000000 0.000000 0.000000
# 2 -0.004441 0.018436 -0.003967 0.000000 0.000000 0.000000
# 3 0.000486 -0.003967 0.007950 0.000000 0.000000 0.000000
# 4 0.000000 0.000000 0.000000 0.056434 0.000000 0.000000
# 5 0.000000 0.000000 0.000000 0.000000 0.073224 0.000000
# 6 0.000000 0.000000 0.000000 0.000000 0.000000 -0.381778
#
#
# Mechanical properties :
#
#
# Convention : Reuss Voigt Hill
#
# Bulk Modulus (GPa) = 50.41380 52.82438 51.61909
# Shear Modulus (GPa) = -25.77533 23.12572 -1.32481
#
# Velocity S-wave (km/s) = -3.35834 3.18104 -0.76137
# Velocity P-wave (km/s) = 2.64981 6.05031 4.67053
#
# Compressibility (1/GPa) = 0.01983584
#
# Stress axis : x y z
#
# Youngs Moduli (GPa) = 107.60019 54.24039 125.78519
#
# Poissons Ratio (x) = 0.24090 -0.06110
# Poissons Ratio (y) = 0.47790 0.49893
# Poissons Ratio (z) = -0.05227 0.21514
#
# Static dielectric constant tensor:
#      x y z
#    x 3.665610 0.000000 0.000000 
#    y 0.000000 4.053880 0.000000 
#    z 0.000000 0.000000 4.742310 
# 
# 
# High freq. dielectric constant tensor:
#      x y z
#    x 1.867820 0.000000 0.000000 
#    y 0.000000 1.893250 0.000000 
#    z 0.000000 0.000000 1.926470 
# 
# From -- ./inp_files/20727.got.cif
#   From: 2010.03.12/outbox.cif.g09.slc.cpg/sg20_11_cif.got.tgz:20727.got - 2010.04.14 01:38:04.
