data_PCOD8159602
_publ_section_title
;
Structure prediction by ZEFSAII (Michael W. Deem and Ramdas Pophale) SiO2 
 PCOD8159602
Probable space group: C 2 2 21
;
_chemical_formula_sum "Si O2"
_cell_formula_units_Z 36
_cell_length_a 11.634563
_cell_length_b 11.066926
_cell_length_c 14.069114
_cell_angle_alpha 90.000000
_cell_angle_beta 90.000000
_cell_angle_gamma 90.000000
_cell_volume 1811.522908
_symmetry_space_group_name_H-M "C 2 2 21"
_symmetry_group_IT_number 20
_symmetry_cell_setting 'orthorhombic'
loop_
_space_group_symop_operation_xyz
x,y,z
-x,-y,1/2+z
x,-y,-z
-x,y,1/2-z
1/2+x,1/2+y,z
1/2-x,1/2-y,1/2+z
1/2+x,1/2-y,-z
1/2-x,1/2+y,1/2-z
loop_
_atom_site_type_symbol
_atom_site_label
_atom_site_fract_x
_atom_site_fract_y
_atom_site_fract_z
Si Si1 0.268640 0.165575 0.637228
Si Si2 0.936134 0.331258 0.844785
Si Si3 0.396906 0.105151 0.812855
Si Si4 0.118853 0.000000 0.500000
Si Si5 0.502130 0.259664 0.542262
O O1 0.192286 0.282539 0.653841
O O2 0.288016 0.106622 0.742016
O O3 0.382403 0.218082 0.587849
O O4 0.202371 0.064605 0.575860
O O5 0.928675 0.474374 0.851867
O O6 0.000000 0.287659 0.750000
O O7 0.007792 0.280572 0.933201
O O8 0.500000 0.158349 0.750000
O O9 0.390217 0.192194 0.905100
O O10 0.033061 0.902198 0.548832
#
# Coordination Sequence:
#
# PCOD8159602 Si02
#       5
#     8   8   8   4   8
#     4  10  23  40  65  92 128 174 201 276 336 367
#     4  10  22  39  61  95 120 166 220 260 323 400
#     4   9  20  37  64  89 118 164 213 262 316 391
#     4  10  24  42  64  96 132 170 214 274 318 390
#     4  10  22  43  61  91 130 164 219 267 322 394
#
# _framework density 19.872781
#
# number of rings (size 3 to 8) (size 9 to 14) (size 15 to 20)
#    0.000    2.222    0.000    0.667   12.444    1.778 
#   16.000    1.111    0.000    0.000    0.000    0.000 
#    0.000    0.000    0.000    0.000    0.000    0.000 
#
# Total GULP energy -223059.163052 kJ/mol
# GULP energy per Si atom -12392.175725 kJ/mol
# Density = 1.982755 g / cm^3
# Si number density = 19.872781 Si / 1000 Ang^3
#
#
#
# Elastic Constant Matrix: (Units=GPa)
#
#
# Indices 1 2 3 4 5 6 
#
# 1 85.5511 46.7948 47.4844 0.0000 0.0000 0.0000
# 2 46.7948 117.3914 63.3571 0.0000 0.0000 0.0000
# 3 47.4844 63.3571 124.9201 0.0000 0.0000 0.0000
# 4 0.0000 0.0000 0.0000 10.8923 0.0000 0.0000
# 5 0.0000 0.0000 0.0000 0.0000 25.2097 0.0000
# 6 0.0000 0.0000 0.0000 0.0000 0.0000 32.0942
#
#
#
# Elastic Compliance Matrix: (Units=1/GPa)
#
#
# Indices 1 2 3 4 5 6 
#
# 1 0.016273 -0.004335 -0.003987 0.000000 0.000000 0.000000
# 2 -0.004335 0.012884 -0.004887 0.000000 0.000000 0.000000
# 3 -0.003987 -0.004887 0.011999 0.000000 0.000000 0.000000
# 4 0.000000 0.000000 0.000000 0.091808 0.000000 0.000000
# 5 0.000000 0.000000 0.000000 0.000000 0.039667 0.000000
# 6 0.000000 0.000000 0.000000 0.000000 0.000000 0.031158
#
#
# Mechanical properties :
#
#
# Convention : Reuss Voigt Hill
#
# Bulk Modulus (GPa) = 67.84881 71.45948 69.65415
# Shear Modulus (GPa) = 21.26574 24.98766 23.12670
#
# Velocity S-wave (km/s) = 3.27478 3.54980 3.41506
# Velocity P-wave (km/s) = 6.96524 7.26898 7.11873
#
# Compressibility (1/GPa) = 0.01473865
#
# Stress axis : x y z
#
# Youngs Moduli (GPa) = 61.45132 77.61623 83.33949
#
# Poissons Ratio (x) = 0.33646 0.33228
# Poissons Ratio (y) = 0.26639 0.40725
# Poissons Ratio (z) = 0.24501 0.37929
#
# Static dielectric constant tensor:
#      x y z
#    x 3.583780 0.000000 0.000000 
#    y 0.000000 3.605440 0.000000 
#    z 0.000000 0.000000 4.100510 
# 
# 
# High freq. dielectric constant tensor:
#      x y z
#    x 1.762180 0.000000 0.000000 
#    y 0.000000 1.778510 0.000000 
#    z 0.000000 0.000000 1.791110 
# 
# From -- ./inp_files/13665.got.cif
#   From: 2010.03.12/outbox.cif.g09.slc.cpg/sg20_7_cif.got.tgz:13665.got - 2010.04.14 01:38:04.
