data_PCOD8159393
_publ_section_title
;
Structure prediction by ZEFSAII (Michael W. Deem and Ramdas Pophale) SiO2 
 PCOD8159393
Probable space group: C 2 2 21
;
_chemical_formula_sum "Si O2"
_cell_formula_units_Z 56
_cell_length_a 5.868562
_cell_length_b 13.638708
_cell_length_c 29.686462
_cell_angle_alpha 90.000000
_cell_angle_beta 90.000000
_cell_angle_gamma 90.000000
_cell_volume 2376.092648
_symmetry_space_group_name_H-M "C 2 2 21"
_symmetry_group_IT_number 20
_symmetry_cell_setting 'orthorhombic'
loop_
_space_group_symop_operation_xyz
x,y,z
-x,-y,1/2+z
x,-y,-z
-x,y,1/2-z
1/2+x,1/2+y,z
1/2-x,1/2-y,1/2+z
1/2+x,1/2-y,-z
1/2-x,1/2+y,1/2-z
loop_
_atom_site_type_symbol
_atom_site_label
_atom_site_fract_x
_atom_site_fract_y
_atom_site_fract_z
Si Si1 0.901447 0.500000 0.500000
Si Si2 0.406311 0.207323 0.015676
Si Si3 0.771478 0.488613 0.596639
Si Si4 0.376536 0.122634 0.859777
Si Si5 0.510533 0.533113 0.682651
Si Si6 0.447183 0.780191 0.610894
Si Si7 0.500000 0.635712 0.250000
Si Si8 0.757750 0.226312 0.808471
O O1 0.069785 0.407087 0.503893
O O2 0.731403 0.506819 0.543330
O O3 0.376390 0.223397 0.069304
O O4 0.162289 0.246218 0.996441
O O5 0.578955 0.530619 0.629651
O O6 0.786387 0.373899 0.606418
O O7 0.002661 0.545832 0.607889
O O8 0.201929 0.181908 0.890961
O O9 0.527783 0.204479 0.835501
O O10 0.256307 0.058790 0.819836
O O11 0.572339 0.433142 0.708251
O O12 0.639656 0.622252 0.707816
O O13 0.576996 0.785945 0.658447
O O14 0.290701 0.705257 0.265057
#
# Coordination Sequence:
#
# PCOD8159393 Si02
#       8
#     4   8   8   8   8   8   4   8
#     4  10  24  44  68 108 144 190 244 298 358 448
#     4  11  26  44  71 108 148 199 248 306 360 432
#     4  10  21  43  63  97 134 180 228 284 352 418
#     4  10  21  41  68  91 134 179 224 286 347 425
#     4  10  24  42  66  99 135 179 229 287 356 428
#     4  10  22  41  65  97 134 183 234 282 354 424
#     4  12  24  44  70 100 134 178 226 296 358 430
#     4  10  24  42  67  96 132 177 226 287 355 430
#
# _framework density 23.568106
#
# number of rings (size 3 to 8) (size 9 to 14) (size 15 to 20)
#    0.000    1.714    0.000    2.571   10.000    0.571 
#    7.714    5.714    0.000    0.000    0.000    0.000 
#    0.000    0.000    0.000    0.000    0.000    0.000 
#
# Total GULP energy -346948.833084 kJ/mol
# GULP energy per Si atom -12391.029753 kJ/mol
# Density = 2.351446 g / cm^3
# Si number density = 23.568106 Si / 1000 Ang^3
#
#
#
# Elastic Constant Matrix: (Units=GPa)
#
#
# Indices 1 2 3 4 5 6 
#
# 1 72.6480 21.1398 15.4959 0.0000 0.0000 0.0000
# 2 21.1398 120.6851 28.6185 0.0000 0.0000 0.0000
# 3 15.4959 28.6185 84.9162 0.0000 0.0000 0.0000
# 4 0.0000 0.0000 0.0000 39.8103 0.0000 0.0000
# 5 0.0000 0.0000 0.0000 0.0000 26.1706 0.0000
# 6 0.0000 0.0000 0.0000 0.0000 0.0000 6.9327
#
#
#
# Elastic Compliance Matrix: (Units=1/GPa)
#
#
# Indices 1 2 3 4 5 6 
#
# 1 0.014806 -0.002122 -0.001987 0.000000 0.000000 0.000000
# 2 -0.002122 0.009310 -0.002750 0.000000 0.000000 0.000000
# 3 -0.001987 -0.002750 0.013066 0.000000 0.000000 0.000000
# 4 0.000000 0.000000 0.000000 0.025119 0.000000 0.000000
# 5 0.000000 0.000000 0.000000 0.000000 0.038211 0.000000
# 6 0.000000 0.000000 0.000000 0.000000 0.000000 0.144244
#
#
# Mechanical properties :
#
#
# Convention : Reuss Voigt Hill
#
# Bulk Modulus (GPa) = 42.61978 45.41752 44.01865
# Shear Modulus (GPa) = 18.77607 28.78238 23.77922
#
# Velocity S-wave (km/s) = 2.82560 3.49842 3.17986
# Velocity P-wave (km/s) = 5.36361 5.96919 5.67448
#
# Compressibility (1/GPa) = 0.02346328
#
# Stress axis : x y z
#
# Youngs Moduli (GPa) = 67.53847 107.41126 76.53590
#
# Poissons Ratio (x) = 0.22798 0.15205
# Poissons Ratio (y) = 0.14335 0.21050
# Poissons Ratio (z) = 0.13417 0.29542
#
# Static dielectric constant tensor:
#      x y z
#    x 4.162270 0.000000 0.000000 
#    y 0.000000 4.399280 0.000000 
#    z 0.000000 0.000000 4.273040 
# 
# 
# High freq. dielectric constant tensor:
#      x y z
#    x 1.912850 0.000000 0.000000 
#    y 0.000000 1.953200 0.000000 
#    z 0.000000 0.000000 1.934750 
# 
# From -- ./inp_files/30757.got.cif
#   From: 2010.03.12/outbox.cif.g09.slc.cpg/sg20_16_cif.got.tgz:30757.got - 2010.04.14 01:38:04.
