data_PCOD8159912
_publ_section_title
;
Structure prediction by ZEFSAII (Michael W. Deem and Ramdas Pophale) SiO2 
 PCOD8159912
Probable space group: C 2 2 21
;
_chemical_formula_sum "Si O2"
_cell_formula_units_Z 48
_cell_length_a 28.807645
_cell_length_b 8.998553
_cell_length_c 9.196861
_cell_angle_alpha 90.000000
_cell_angle_beta 90.000000
_cell_angle_gamma 90.000000
_cell_volume 2384.075793
_symmetry_space_group_name_H-M "C 2 2 21"
_symmetry_group_IT_number 20
_symmetry_cell_setting 'orthorhombic'
loop_
_space_group_symop_operation_xyz
x,y,z
-x,-y,1/2+z
x,-y,-z
-x,y,1/2-z
1/2+x,1/2+y,z
1/2-x,1/2-y,1/2+z
1/2+x,1/2-y,-z
1/2-x,1/2+y,1/2-z
loop_
_atom_site_type_symbol
_atom_site_label
_atom_site_fract_x
_atom_site_fract_y
_atom_site_fract_z
Si Si1 0.128889 0.909144 0.148577
Si Si2 0.724310 0.386978 0.287793
Si Si3 0.393615 0.308865 0.805086
Si Si4 0.208571 0.788733 0.601632
Si Si5 0.519706 0.860172 0.405978
Si Si6 0.421390 0.825465 0.488025
O O1 0.178489 0.848459 0.197326
O O2 0.105462 0.013916 0.272236
O O3 0.097702 0.762400 0.127685
O O4 0.133903 0.000000 0.000000
O O5 0.768509 0.347521 0.188365
O O6 0.724820 0.289417 0.434801
O O7 0.725732 0.561226 0.320965
O O8 0.347115 0.271193 0.894230
O O9 0.438864 0.259563 0.896084
O O10 0.392563 0.220754 0.653883
O O11 0.500000 0.916899 0.250000
O O12 0.475748 0.781158 0.481736
O O13 0.537558 0.000000 0.500000
O O14 0.414681 0.000000 0.500000
#
# Coordination Sequence:
#
# PCOD8159912 Si02
#       6
#     8   8   8   8   8   8
#     4   9  19  37  64  84 119 160 200 247 301 362
#     4  10  23  40  61  85 123 153 199 247 300 363
#     4   9  19  38  61  80 123 160 197 244 306 358
#     4  10  23  41  59  88 117 160 196 249 305 353
#     4   9  18  37  61  87 122 155 195 253 300 357
#     4   9  18  34  63  90 118 156 204 247 302 352
#
# _framework density 20.133588
#
# number of rings (size 3 to 8) (size 9 to 14) (size 15 to 20)
#    0.000    2.667    0.000    0.000    7.000    1.333 
#   12.000    0.000   55.000    0.000    0.000    0.000 
#    0.000    0.000    0.000    0.000    0.000    0.000 
#
# Total GULP energy -297555.081053 kJ/mol
# GULP energy per Si atom -12398.128377 kJ/mol
# Density = 2.008776 g / cm^3
# Si number density = 20.133588 Si / 1000 Ang^3
#
#
#
# Elastic Constant Matrix: (Units=GPa)
#
#
# Indices 1 2 3 4 5 6 
#
# 1 108.9474 60.9936 41.5318 0.0000 0.0000 0.0000
# 2 60.9936 82.8914 26.6325 0.0000 0.0000 0.0000
# 3 41.5318 26.6325 48.4878 0.0000 0.0000 0.0000
# 4 0.0000 0.0000 0.0000 28.1737 0.0000 0.0000
# 5 0.0000 0.0000 0.0000 0.0000 38.0968 0.0000
# 6 0.0000 0.0000 0.0000 0.0000 0.0000 30.9130
#
#
#
# Elastic Compliance Matrix: (Units=1/GPa)
#
#
# Indices 1 2 3 4 5 6 
#
# 1 0.019224 -0.010753 -0.010560 0.000000 0.000000 0.000000
# 2 -0.010753 0.020664 -0.002139 0.000000 0.000000 0.000000
# 3 -0.010560 -0.002139 0.030844 0.000000 0.000000 0.000000
# 4 0.000000 0.000000 0.000000 0.035494 0.000000 0.000000
# 5 0.000000 0.000000 0.000000 0.000000 0.026249 0.000000
# 6 0.000000 0.000000 0.000000 0.000000 0.000000 0.032349
#
#
# Mechanical properties :
#
#
# Convention : Reuss Voigt Hill
#
# Bulk Modulus (GPa) = 41.96939 55.40472 48.68706
# Shear Modulus (GPa) = 22.76126 26.84796 24.80461
#
# Velocity S-wave (km/s) = 3.36596 3.65566 3.51380
# Velocity P-wave (km/s) = 5.99974 6.73771 6.37941
#
# Compressibility (1/GPa) = 0.02382689
#
# Stress axis : x y z
#
# Youngs Moduli (GPa) = 52.01737 48.39439 32.42095
#
# Poissons Ratio (x) = 0.52037 0.34238
# Poissons Ratio (y) = 0.55933 0.06936
# Poissons Ratio (z) = 0.54932 0.10354
#
# Static dielectric constant tensor:
#      x y z
#    x 3.712400 0.000000 0.000000 
#    y 0.000000 3.595050 0.000000 
#    z 0.000000 0.000000 3.749750 
# 
# 
# High freq. dielectric constant tensor:
#      x y z
#    x 1.786290 0.000000 0.000000 
#    y 0.000000 1.772860 0.000000 
#    z 0.000000 0.000000 1.785170 
# 
# From -- ./inp_files/11436.got.cif
#   From: 2010.03.12/outbox.cif.g09.slc.cpg/sg20_6_cif.got.tgz:11436.got - 2010.04.14 01:38:04.
