data_PCOD8159534
_publ_section_title
;
Structure prediction by ZEFSAII (Michael W. Deem and Ramdas Pophale) SiO2 
 PCOD8159534
Probable space group: C 2 2 21
;
_chemical_formula_sum "Si O2"
_cell_formula_units_Z 48
_cell_length_a 15.555955
_cell_length_b 17.175374
_cell_length_c 9.691738
_cell_angle_alpha 90.000000
_cell_angle_beta 90.000000
_cell_angle_gamma 90.000000
_cell_volume 2589.432211
_symmetry_space_group_name_H-M "C 2 2 21"
_symmetry_group_IT_number 20
_symmetry_cell_setting 'orthorhombic'
loop_
_space_group_symop_operation_xyz
x,y,z
-x,-y,1/2+z
x,-y,-z
-x,y,1/2-z
1/2+x,1/2+y,z
1/2-x,1/2-y,1/2+z
1/2+x,1/2-y,-z
1/2-x,1/2+y,1/2-z
loop_
_atom_site_type_symbol
_atom_site_label
_atom_site_fract_x
_atom_site_fract_y
_atom_site_fract_z
Si Si1 0.340188 0.803981 0.175841
Si Si2 0.855467 0.813139 0.303525
Si Si3 0.476661 0.072286 0.906506
Si Si4 0.500000 0.565651 0.750000
Si Si5 0.873208 0.678473 0.512433
Si Si6 0.913685 0.000000 0.000000
Si Si7 0.179958 0.838534 0.500246
O O1 0.242077 0.833167 0.148404
O O2 0.398900 0.866909 0.099693
O O3 0.368815 0.788738 0.332548
O O4 0.355934 0.718461 0.116023
O O5 0.922042 0.884119 0.314907
O O6 0.895124 0.743992 0.397258
O O7 0.845390 0.793815 0.141392
O O8 0.500000 0.046065 0.750000
O O9 0.556238 0.110488 0.989541
O O10 0.446553 0.000000 0.000000
O O11 0.471768 0.506511 0.866626
O O12 0.780334 0.643997 0.478127
O O13 0.858194 0.923167 0.984904
#
# Coordination Sequence:
#
# PCOD8159534 Si02
#       7
#     8   8   8   4   8   4   8
#     4   9  19  38  57  81 109 147 183 222 275 328
#     4   9  19  36  58  80 109 142 184 231 267 321
#     4  10  22  37  55  84 114 144 181 226 275 330
#     4  10  22  38  54  82 114 140 190 228 276 322
#     4   9  19  35  60  82 108 143 185 226 272 331
#     4  10  22  36  54  82 114 146 182 232 274 326
#     4   9  19  36  58  80 111 145 184 225 277 326
#
# _framework density 18.536881999999999
#
# number of rings (size 3 to 8) (size 9 to 14) (size 15 to 20)
#    0.000    2.667    0.000    0.000    5.833    2.667 
#    3.000    0.000    0.000    0.000    0.000    0.000 
#    0.000    0.000    0.000    0.000    0.000    0.000 
#
# Total GULP energy -297423.377520 kJ/mol
# GULP energy per Si atom -12392.640730 kJ/mol
# Density = 1.849469 g / cm^3
# Si number density = 18.536882 Si / 1000 Ang^3
#
#
#
# Elastic Constant Matrix: (Units=GPa)
#
#
# Indices 1 2 3 4 5 6 
#
# 1 74.5371 50.0090 42.2200 0.0000 0.0000 0.0000
# 2 50.0090 119.1306 72.7927 0.0000 0.0000 0.0000
# 3 42.2200 72.7927 87.9296 0.0000 0.0000 0.0000
# 4 0.0000 0.0000 0.0000 39.1573 0.0000 0.0000
# 5 0.0000 0.0000 0.0000 0.0000 24.5371 0.0000
# 6 0.0000 0.0000 0.0000 0.0000 0.0000 -17.8113
#
#
#
# Elastic Compliance Matrix: (Units=1/GPa)
#
#
# Indices 1 2 3 4 5 6 
#
# 1 0.019836 -0.005073 -0.005324 0.000000 0.000000 0.000000
# 2 -0.005073 0.018285 -0.012701 0.000000 0.000000 0.000000
# 3 -0.005324 -0.012701 0.024444 0.000000 0.000000 0.000000
# 4 0.000000 0.000000 0.000000 0.025538 0.000000 0.000000
# 5 0.000000 0.000000 0.000000 0.000000 0.040755 0.000000
# 6 0.000000 0.000000 0.000000 0.000000 0.000000 -0.056144
#
#
# Mechanical properties :
#
#
# Convention : Reuss Voigt Hill
#
# Bulk Modulus (GPa) = 61.09883 67.96008 64.52945
# Shear Modulus (GPa) = 40.20413 16.94832 28.57622
#
# Velocity S-wave (km/s) = 4.66217 3.02702 3.93056
# Velocity P-wave (km/s) = 7.87485 6.99706 7.44890
#
# Compressibility (1/GPa) = 0.01636693
#
# Stress axis : x y z
#
# Youngs Moduli (GPa) = 50.41370 54.69109 40.91049
#
# Poissons Ratio (x) = 0.27747 0.21782
# Poissons Ratio (y) = 0.25577 0.51960
# Poissons Ratio (z) = 0.26842 0.69462
#
# Static dielectric constant tensor:
#      x y z
#    x 3.628850 0.000000 0.000000 
#    y 0.000000 3.186980 0.000000 
#    z 0.000000 0.000000 3.637460 
# 
# 
# High freq. dielectric constant tensor:
#      x y z
#    x 1.732450 0.000000 0.000000 
#    y 0.000000 1.700660 0.000000 
#    z 0.000000 0.000000 1.725260 
# 
# From -- ./inp_files/8458.got.cif
#   From: 2010.03.12/outbox.cif.g09.slc.cpg/sg20_5_cif.got.tgz:8458.got - 2010.04.14 01:38:04.
