data_PCOD8159260
_publ_section_title
;
Structure prediction by ZEFSAII (Michael W. Deem and Ramdas Pophale) SiO2 
 PCOD8159260
Probable space group: C 2 2 21
;
_chemical_formula_sum "Si O2"
_cell_formula_units_Z 32
_cell_length_a 14.027292
_cell_length_b 21.632592
_cell_length_c 4.914105
_cell_angle_alpha 90.000000
_cell_angle_beta 90.000000
_cell_angle_gamma 90.000000
_cell_volume 1491.168871
_symmetry_space_group_name_H-M "C 2 2 21"
_symmetry_group_IT_number 20
_symmetry_cell_setting 'orthorhombic'
loop_
_space_group_symop_operation_xyz
x,y,z
-x,-y,1/2+z
x,-y,-z
-x,y,1/2-z
1/2+x,1/2+y,z
1/2-x,1/2-y,1/2+z
1/2+x,1/2-y,-z
1/2-x,1/2+y,1/2-z
loop_
_atom_site_type_symbol
_atom_site_label
_atom_site_fract_x
_atom_site_fract_y
_atom_site_fract_z
Si Si1 0.500000 0.539107 0.250000
Si Si2 0.169548 0.123154 0.440448
Si Si3 0.699361 0.886464 0.440234
Si Si4 0.188751 0.254333 0.326503
Si Si5 0.564625 0.000000 0.500000
O O1 0.456530 0.500000 0.500000
O O2 0.583683 0.578150 0.382279
O O3 0.209351 0.109464 0.740607
O O4 0.128089 0.193679 0.412986
O O5 0.259471 0.112077 0.243653
O O6 0.641675 0.821551 0.387124
O O7 0.628344 0.943105 0.395762
O O8 0.285943 0.250817 0.508016
O O9 0.500000 0.977305 0.750000
#
# Coordination Sequence:
#
# PCOD8159260 Si02
#       5
#     4   8   8   8   4
#     4  12  26  38  56  94 134 154 204 252 282 354
#     4  10  21  39  62  90 118 164 199 242 299 356
#     4  10  21  39  67  85 118 163 197 243 309 366
#     4   8  16  34  60  87 111 148 205 241 284 359
#     4  12  26  42  60  94 122 150 204 258 302 360
#
# _framework density 21.459676999999999
#
# number of rings (size 3 to 8) (size 9 to 14) (size 15 to 20)
#    0.000    2.000    0.000    3.000    5.250    0.000 
#    2.250    0.000    2.750    0.000    0.000    0.000 
#    0.000    0.000    0.000    0.000    0.000    0.000 
#
# Total GULP energy -198304.365995 kJ/mol
# GULP energy per Si atom -12394.022875 kJ/mol
# Density = 2.141083 g / cm^3
# Si number density = 21.459677 Si / 1000 Ang^3
#
#
#
# Elastic Constant Matrix: (Units=GPa)
#
#
# Indices 1 2 3 4 5 6 
#
# 1 53.1843 53.5483 10.8231 0.0000 0.0000 0.0000
# 2 53.5483 179.3602 26.2469 0.0000 0.0000 0.0000
# 3 10.8231 26.2469 92.2787 0.0000 0.0000 0.0000
# 4 0.0000 0.0000 0.0000 33.1586 0.0000 0.0000
# 5 0.0000 0.0000 0.0000 0.0000 27.9834 0.0000
# 6 0.0000 0.0000 0.0000 0.0000 0.0000 -82.4567
#
#
#
# Elastic Compliance Matrix: (Units=1/GPa)
#
#
# Indices 1 2 3 4 5 6 
#
# 1 0.026957 -0.007915 -0.000910 0.000000 0.000000 0.000000
# 2 -0.007915 0.008141 -0.001387 0.000000 0.000000 0.000000
# 3 -0.000910 -0.001387 0.011338 0.000000 0.000000 0.000000
# 4 0.000000 0.000000 0.000000 0.030158 0.000000 0.000000
# 5 0.000000 0.000000 0.000000 0.000000 0.035735 0.000000
# 6 0.000000 0.000000 0.000000 0.000000 0.000000 -0.012128
#
#
# Mechanical properties :
#
#
# Convention : Reuss Voigt Hill
#
# Bulk Modulus (GPa) = 38.44516 56.22885 47.33700
# Shear Modulus (GPa) = 38.67044 11.35072 25.01058
#
# Velocity S-wave (km/s) = 4.24961 2.30235 3.41760
# Velocity P-wave (km/s) = 6.48327 5.77293 6.13839
#
# Compressibility (1/GPa) = 0.02601108
#
# Stress axis : x y z
#
# Youngs Moduli (GPa) = 37.09644 122.82963 88.19795
#
# Poissons Ratio (x) = 0.97217 0.08030
# Poissons Ratio (y) = 0.29361 0.12236
# Poissons Ratio (z) = 0.03378 0.17041
#
# Static dielectric constant tensor:
#      x y z
#    x 3.161990 0.000000 0.000000 
#    y 0.000000 4.415700 0.000000 
#    z 0.000000 0.000000 4.137240 
# 
# 
# High freq. dielectric constant tensor:
#      x y z
#    x 1.772950 0.000000 0.000000 
#    y 0.000000 1.871690 0.000000 
#    z 0.000000 0.000000 1.867560 
# 
# From -- ./inp_files/1033.got.cif
#   From: 2010.03.12/outbox.cif.g09.slc.cpg/sg20_1_cif.got.tgz:1033.got - 2010.04.14 01:38:04.
