data_PCOD8159098
_publ_section_title
;
Structure prediction by ZEFSAII (Michael W. Deem and Ramdas Pophale) SiO2 
 PCOD8159098
Probable space group: C 2 2 21
;
_chemical_formula_sum "Si O2"
_cell_formula_units_Z 56
_cell_length_a 14.229127
_cell_length_b 24.583228
_cell_length_c 8.989588
_cell_angle_alpha 90.000000
_cell_angle_beta 90.000000
_cell_angle_gamma 90.000000
_cell_volume 3144.538764
_symmetry_space_group_name_H-M "C 2 2 21"
_symmetry_group_IT_number 20
_symmetry_cell_setting 'orthorhombic'
loop_
_space_group_symop_operation_xyz
x,y,z
-x,-y,1/2+z
x,-y,-z
-x,y,1/2-z
1/2+x,1/2+y,z
1/2-x,1/2-y,1/2+z
1/2+x,1/2-y,-z
1/2-x,1/2+y,1/2-z
loop_
_atom_site_type_symbol
_atom_site_label
_atom_site_fract_x
_atom_site_fract_y
_atom_site_fract_z
Si Si1 0.593354 0.185057 0.830721
Si Si2 0.616054 0.555408 0.414107
Si Si3 0.187608 0.255036 0.424493
Si Si4 0.600625 0.558419 0.070652
Si Si5 0.997584 0.253870 0.585738
Si Si6 0.353325 0.663697 0.605258
Si Si7 0.277791 0.352767 0.076814
O O1 0.500000 0.161479 0.750000
O O2 0.640676 0.235377 0.737980
O O3 0.672715 0.138677 0.853691
O O4 0.566440 0.206359 0.991023
O O5 0.634034 0.500000 0.500000
O O6 0.638059 0.553451 0.238811
O O7 0.508982 0.573852 0.437012
O O8 0.689875 0.595329 0.487966
O O9 0.267050 0.299984 0.455465
O O10 0.229384 0.195245 0.453090
O O11 0.105339 0.257861 0.543154
O O12 0.621557 0.500000 0.000000
O O13 0.653082 0.605760 0.978530
O O14 0.953067 0.193128 0.573197
O O15 0.000000 0.277195 0.750000
O O16 0.347733 0.657585 0.784288
#
# Coordination Sequence:
#
# PCOD8159098 Si02
#       7
#     8   8   8   8   8   8   8
#     4   9  21  36  51  75 114 151 186 225 284 335
#     4  10  22  37  56  81 108 147 190 227 275 333
#     4  10  21  34  51  78 112 147 184 223 276 331
#     4  10  22  38  55  77 112 149 184 228 278 333
#     4  11  20  33  51  77 109 148 181 226 271 326
#     4  11  22  34  52  79 112 147 185 226 274 325
#     4  11  20  35  55  79 112 147 189 230 276 332
#
# _framework density 17.808653
#
# number of rings (size 3 to 8) (size 9 to 14) (size 15 to 20)
#    0.000    1.714    2.857    1.714    2.000    2.286 
#    0.000    0.000    0.000    0.000    0.000   16.000 
#    0.000    0.000    0.000    0.000    0.000    0.000 
#
# Total GULP energy -346992.436025 kJ/mol
# GULP energy per Si atom -12392.587001 kJ/mol
# Density = 1.776812 g / cm^3
# Si number density = 17.808653 Si / 1000 Ang^3
#
#
#
# Elastic Constant Matrix: (Units=GPa)
#
#
# Indices 1 2 3 4 5 6 
#
# 1 95.8819 49.6157 50.3976 0.0000 0.0000 0.0000
# 2 49.6157 96.6541 58.7367 0.0000 0.0000 0.0000
# 3 50.3976 58.7367 127.7415 0.0000 0.0000 0.0000
# 4 0.0000 0.0000 0.0000 29.4707 0.0000 0.0000
# 5 0.0000 0.0000 0.0000 0.0000 23.9757 0.0000
# 6 0.0000 0.0000 0.0000 0.0000 0.0000 38.2473
#
#
#
# Elastic Compliance Matrix: (Units=1/GPa)
#
#
# Indices 1 2 3 4 5 6 
#
# 1 0.015161 -0.005756 -0.003335 0.000000 0.000000 0.000000
# 2 -0.005756 0.016544 -0.005336 0.000000 0.000000 0.000000
# 3 -0.003335 -0.005336 0.011597 0.000000 0.000000 0.000000
# 4 0.000000 0.000000 0.000000 0.033932 0.000000 0.000000
# 5 0.000000 0.000000 0.000000 0.000000 0.041709 0.000000
# 6 0.000000 0.000000 0.000000 0.000000 0.000000 0.026146
#
#
# Mechanical properties :
#
#
# Convention : Reuss Voigt Hill
#
# Bulk Modulus (GPa) = 69.21147 70.86417 70.03782
# Shear Modulus (GPa) = 27.97075 29.10723 28.53899
#
# Velocity S-wave (km/s) = 3.96741 4.04721 4.00751
# Velocity P-wave (km/s) = 7.74180 7.85610 7.79916
#
# Compressibility (1/GPa) = 0.01444847
#
# Stress axis : x y z
#
# Youngs Moduli (GPa) = 65.95935 60.44630 86.22578
#
# Poissons Ratio (x) = 0.34793 0.28754
# Poissons Ratio (y) = 0.37967 0.46010
# Poissons Ratio (z) = 0.21995 0.32254
#
# Static dielectric constant tensor:
#      x y z
#    x 3.474150 0.000000 0.000000 
#    y 0.000000 3.042040 0.000000 
#    z 0.000000 0.000000 3.233430 
# 
# 
# High freq. dielectric constant tensor:
#      x y z
#    x 1.691000 0.000000 0.000000 
#    y 0.000000 1.652550 0.000000 
#    z 0.000000 0.000000 1.707820 
# 
# From -- ./inp_files/8735.got.cif
#   From: 2010.03.12/outbox.cif.g09.slc.cpg/sg20_5_cif.got.tgz:8735.got - 2010.04.14 01:38:04.
