data_PCOD8159586
_publ_section_title
;
Structure prediction by ZEFSAII (Michael W. Deem and Ramdas Pophale) SiO2 
 PCOD8159586
Probable space group: C 2 2 21
;
_chemical_formula_sum "Si O2"
_cell_formula_units_Z 36
_cell_length_a 12.331554
_cell_length_b 21.732974
_cell_length_c 6.001508
_cell_angle_alpha 90.000000
_cell_angle_beta 90.000000
_cell_angle_gamma 90.000000
_cell_volume 1608.412201
_symmetry_space_group_name_H-M "C 2 2 21"
_symmetry_group_IT_number 20
_symmetry_cell_setting 'orthorhombic'
loop_
_space_group_symop_operation_xyz
x,y,z
-x,-y,1/2+z
x,-y,-z
-x,y,1/2-z
1/2+x,1/2+y,z
1/2-x,1/2-y,1/2+z
1/2+x,1/2-y,-z
1/2-x,1/2+y,1/2-z
loop_
_atom_site_type_symbol
_atom_site_label
_atom_site_fract_x
_atom_site_fract_y
_atom_site_fract_z
Si Si1 0.770985 0.000000 0.500000
Si Si2 0.813930 0.311707 0.945784
Si Si3 0.732748 0.399291 0.320455
Si Si4 0.882029 0.422778 0.701517
Si Si5 0.615353 0.309711 0.640024
O O1 0.830562 0.953711 0.322273
O O2 0.701161 0.951613 0.630142
O O3 0.884864 0.350935 0.770942
O O4 0.698858 0.295289 0.837074
O O5 0.787995 0.346286 0.175679
O O6 0.885563 0.250741 0.985901
O O7 0.836032 0.430779 0.450206
O O8 0.648118 0.370142 0.495836
O O9 0.000000 0.451998 0.750000
O O10 0.500000 0.323802 0.750000
#
# Coordination Sequence:
#
# PCOD8159586 Si02
#       5
#     4   8   8   8   8
#     4  10  22  38  66  92 132 178 218 292 332 396
#     4  10  22  39  59  95 136 173 214 274 330 408
#     4  10  22  42  59  96 133 174 230 274 346 401
#     4  10  23  36  62  96 134 172 215 268 340 414
#     4  11  23  39  66  97 139 183 223 276 342 412
#
# _framework density 22.382324000000001
#
# number of rings (size 3 to 8) (size 9 to 14) (size 15 to 20)
#    0.000    1.778    2.222    0.667    6.222    2.667 
#    0.000    0.000    0.000    0.000  208.000    0.000 
#    0.000    0.000    0.000    0.000    0.000    0.000 
#
# Total GULP energy -223021.805648 kJ/mol
# GULP energy per Si atom -12390.100314 kJ/mol
# Density = 2.233138 g / cm^3
# Si number density = 22.382324 Si / 1000 Ang^3
#
#
#
# Elastic Constant Matrix: (Units=GPa)
#
#
# Indices 1 2 3 4 5 6 
#
# 1 60.5336 19.9257 22.2851 0.0000 0.0000 0.0000
# 2 19.9257 103.4012 41.0800 0.0000 0.0000 0.0000
# 3 22.2851 41.0800 107.6601 0.0000 0.0000 0.0000
# 4 0.0000 0.0000 0.0000 49.8894 0.0000 0.0000
# 5 0.0000 0.0000 0.0000 0.0000 9.9175 0.0000
# 6 0.0000 0.0000 0.0000 0.0000 0.0000 25.1559
#
#
#
# Elastic Compliance Matrix: (Units=1/GPa)
#
#
# Indices 1 2 3 4 5 6 
#
# 1 0.018371 -0.002392 -0.002890 0.000000 0.000000 0.000000
# 2 -0.002392 0.011711 -0.003973 0.000000 0.000000 0.000000
# 3 -0.002890 -0.003973 0.011403 0.000000 0.000000 0.000000
# 4 0.000000 0.000000 0.000000 0.020044 0.000000 0.000000
# 5 0.000000 0.000000 0.000000 0.000000 0.100832 0.000000
# 6 0.000000 0.000000 0.000000 0.000000 0.000000 0.039752
#
#
# Mechanical properties :
#
#
# Convention : Reuss Voigt Hill
#
# Bulk Modulus (GPa) = 43.52774 48.68628 46.10701
# Shear Modulus (GPa) = 21.90279 29.54616 25.72447
#
# Velocity S-wave (km/s) = 3.13161 3.63721 3.39384
# Velocity P-wave (km/s) = 5.70663 6.28000 6.00017
#
# Compressibility (1/GPa) = 0.02297386
#
# Stress axis : x y z
#
# Youngs Moduli (GPa) = 54.43339 85.39314 87.69783
#
# Poissons Ratio (x) = 0.20426 0.25345
# Poissons Ratio (y) = 0.13020 0.34845
# Poissons Ratio (z) = 0.15731 0.33929
#
# Static dielectric constant tensor:
#      x y z
#    x 3.527990 0.000000 0.000000 
#    y 0.000000 4.587140 0.000000 
#    z 0.000000 0.000000 4.197640 
# 
# 
# High freq. dielectric constant tensor:
#      x y z
#    x 1.827270 0.000000 0.000000 
#    y 0.000000 1.899830 0.000000 
#    z 0.000000 0.000000 1.902550 
# 
# From -- ./inp_files/1219.got.cif
#   From: 2010.03.12/outbox.cif.g09.slc.cpg/sg20_1_cif.got.tgz:1219.got - 2010.04.14 01:38:04.
