data_PCOD8159528
_publ_section_title
;
Structure prediction by ZEFSAII (Michael W. Deem and Ramdas Pophale) SiO2 
 PCOD8159528
Probable space group: C 2 2 21
;
_chemical_formula_sum "Si O2"
_cell_formula_units_Z 40
_cell_length_a 24.540568
_cell_length_b 10.264942
_cell_length_c 7.618459
_cell_angle_alpha 90.000000
_cell_angle_beta 90.000000
_cell_angle_gamma 90.000000
_cell_volume 1919.147015
_symmetry_space_group_name_H-M "C 2 2 21"
_symmetry_group_IT_number 20
_symmetry_cell_setting 'orthorhombic'
loop_
_space_group_symop_operation_xyz
x,y,z
-x,-y,1/2+z
x,-y,-z
-x,y,1/2-z
1/2+x,1/2+y,z
1/2-x,1/2-y,1/2+z
1/2+x,1/2-y,-z
1/2-x,1/2+y,1/2-z
loop_
_atom_site_type_symbol
_atom_site_label
_atom_site_fract_x
_atom_site_fract_y
_atom_site_fract_z
Si Si1 0.310019 0.767718 0.169244
Si Si2 0.634773 0.489218 0.687182
Si Si3 0.959090 0.874619 0.599022
Si Si4 0.384947 0.145864 0.519219
Si Si5 0.811249 0.745284 0.225852
O O1 0.315036 0.610778 0.164539
O O2 0.356523 0.833106 0.290298
O O3 0.250064 0.792845 0.240914
O O4 0.316625 0.818888 0.968094
O O5 0.604219 0.500000 0.500000
O O6 0.595435 0.435941 0.830781
O O7 0.653631 0.626814 0.754295
O O8 0.936584 0.746729 0.492450
O O9 0.000000 0.824504 0.750000
O O10 0.986868 0.000000 0.500000
O O11 0.337163 0.151259 0.371878
O O12 0.409242 0.000000 0.500000
#
# Coordination Sequence:
#
# PCOD8159528 Si02
#       5
#     8   8   8   8   8
#     4  10  22  34  61  94 131 179 217 256 303 382
#     4   9  20  37  59  91 126 156 220 267 307 373
#     4  11  22  43  72  95 116 161 214 279 330 380
#     4  11  25  43  62  95 137 173 214 263 323 392
#     4  11  20  37  60  94 132 177 214 258 312 371
#
# _framework density 20.842593999999998
#
# number of rings (size 3 to 8) (size 9 to 14) (size 15 to 20)
#    0.000    1.600    4.000    0.600    2.800    0.800 
#    0.000    1.000    0.000    0.000    0.000    0.000 
#    0.000    0.000    0.000    0.000    0.000    0.000 
#
# Total GULP energy -247790.460564 kJ/mol
# GULP energy per Si atom -12389.523028 kJ/mol
# Density = 2.079516 g / cm^3
# Si number density = 20.842594 Si / 1000 Ang^3
#
#
#
# Elastic Constant Matrix: (Units=GPa)
#
#
# Indices 1 2 3 4 5 6 
#
# 1 60.0882 16.9651 18.8525 0.0000 0.0000 0.0000
# 2 16.9651 108.6400 27.1546 0.0000 0.0000 0.0000
# 3 18.8525 27.1546 119.1813 0.0000 0.0000 0.0000
# 4 0.0000 0.0000 0.0000 23.6507 0.0000 0.0000
# 5 0.0000 0.0000 0.0000 0.0000 20.8616 0.0000
# 6 0.0000 0.0000 0.0000 0.0000 0.0000 0.5079
#
#
#
# Elastic Compliance Matrix: (Units=1/GPa)
#
#
# Indices 1 2 3 4 5 6 
#
# 1 0.018005 -0.002227 -0.002341 0.000000 0.000000 0.000000
# 2 -0.002227 0.010036 -0.001934 0.000000 0.000000 0.000000
# 3 -0.002341 -0.001934 0.009202 0.000000 0.000000 0.000000
# 4 0.000000 0.000000 0.000000 0.042282 0.000000 0.000000
# 5 0.000000 0.000000 0.000000 0.000000 0.047935 0.000000
# 6 0.000000 0.000000 0.000000 0.000000 0.000000 1.969034
#
#
# Mechanical properties :
#
#
# Convention : Reuss Voigt Hill
#
# Bulk Modulus (GPa) = 41.25556 45.98377 43.61966
# Shear Modulus (GPa) = 2.36119 23.99986 13.18053
#
# Velocity S-wave (km/s) = 1.06552 3.39703 2.51745
# Velocity P-wave (km/s) = 4.62067 6.12346 5.42436
#
# Compressibility (1/GPa) = 0.02423916
#
# Stress axis : x y z
#
# Youngs Moduli (GPa) = 55.53927 99.64210 108.67677
#
# Poissons Ratio (x) = 0.22186 0.25439
# Poissons Ratio (y) = 0.12366 0.21022
# Poissons Ratio (z) = 0.13001 0.19275
#
# Static dielectric constant tensor:
#      x y z
#    x 3.510770 0.000000 0.000000 
#    y 0.000000 4.208400 0.000000 
#    z 0.000000 0.000000 4.051150 
# 
# 
# High freq. dielectric constant tensor:
#      x y z
#    x 1.794340 0.000000 0.000000 
#    y 0.000000 1.808080 0.000000 
#    z 0.000000 0.000000 1.826190 
# 
# From -- ./inp_files/11348.got.cif
#   From: 2010.03.12/outbox.cif.g09.slc.cpg/sg20_6_cif.got.tgz:11348.got - 2010.04.14 01:38:04.
