data_PCOD8159369
_publ_section_title
;
Structure prediction by ZEFSAII (Michael W. Deem and Ramdas Pophale) SiO2 
 PCOD8159369
Probable space group: C 2 2 21
;
_chemical_formula_sum "Si O2"
_cell_formula_units_Z 40
_cell_length_a 21.844327
_cell_length_b 14.272944
_cell_length_c 6.352334
_cell_angle_alpha 90.000000
_cell_angle_beta 90.000000
_cell_angle_gamma 90.000000
_cell_volume 1980.548837
_symmetry_space_group_name_H-M "C 2 2 21"
_symmetry_group_IT_number 20
_symmetry_cell_setting 'orthorhombic'
loop_
_space_group_symop_operation_xyz
x,y,z
-x,-y,1/2+z
x,-y,-z
-x,y,1/2-z
1/2+x,1/2+y,z
1/2-x,1/2-y,1/2+z
1/2+x,1/2-y,-z
1/2-x,1/2+y,1/2-z
loop_
_atom_site_type_symbol
_atom_site_label
_atom_site_fract_x
_atom_site_fract_y
_atom_site_fract_z
Si Si1 0.620631 0.659131 0.282692
Si Si2 0.553048 0.895972 0.918869
Si Si3 0.174887 0.699367 0.040841
Si Si4 0.708326 0.364350 0.337414
Si Si5 0.838723 0.000000 0.500000
Si Si6 0.000000 0.745284 0.750000
O O1 0.653761 0.627134 0.494981
O O2 0.617448 0.573632 0.117114
O O3 0.552021 0.688130 0.349531
O O4 0.654091 0.745182 0.167544
O O5 0.500000 0.898965 0.750000
O O6 0.619897 0.858919 0.846527
O O7 0.531263 0.821300 0.084793
O O8 0.562704 0.000000 0.000000
O O9 0.203411 0.765308 0.219100
O O10 0.227488 0.628408 0.961190
O O11 0.704795 0.448977 0.170556
#
# Coordination Sequence:
#
# PCOD8159369 Si02
#       6
#     8   8   8   8   4   4
#     4  10  21  41  62  89 124 163 211 258 320 382
#     4  11  22  40  61  93 131 162 212 264 312 383
#     4  10  22  37  65  92 122 172 210 254 323 385
#     4  11  20  42  63  91 129 164 214 265 320 387
#     4  10  24  38  60  94 128 160 210 274 320 380
#     4  10  22  42  66  90 120 174 206 252 332 380
#
# _framework density 20.196422999999999
#
# number of rings (size 3 to 8) (size 9 to 14) (size 15 to 20)
#    0.000    1.600    3.000    1.800    0.000    1.600 
#    3.600    0.000    2.200    0.000    0.000    0.000 
#    0.000    0.000    0.000    0.000    0.000    0.000 
#
# Total GULP energy -247959.748145 kJ/mol
# GULP energy per Si atom -12397.987407 kJ/mol
# Density = 2.015046 g / cm^3
# Si number density = 20.196423 Si / 1000 Ang^3
#
#
#
# Elastic Constant Matrix: (Units=GPa)
#
#
# Indices 1 2 3 4 5 6 
#
# 1 128.8682 49.8794 20.0588 0.0000 0.0000 0.0000
# 2 49.8794 102.5134 23.3691 0.0000 0.0000 0.0000
# 3 20.0588 23.3691 62.5306 0.0000 0.0000 0.0000
# 4 0.0000 0.0000 0.0000 33.9697 0.0000 0.0000
# 5 0.0000 0.0000 0.0000 0.0000 41.0847 0.0000
# 6 0.0000 0.0000 0.0000 0.0000 0.0000 21.0903
#
#
#
# Elastic Compliance Matrix: (Units=1/GPa)
#
#
# Indices 1 2 3 4 5 6 
#
# 1 0.009683 -0.004376 -0.001471 0.000000 0.000000 0.000000
# 2 -0.004376 0.012641 -0.003320 0.000000 0.000000 0.000000
# 3 -0.001471 -0.003320 0.017705 0.000000 0.000000 0.000000
# 4 0.000000 0.000000 0.000000 0.029438 0.000000 0.000000
# 5 0.000000 0.000000 0.000000 0.000000 0.024340 0.000000
# 6 0.000000 0.000000 0.000000 0.000000 0.000000 0.047415
#
#
# Mechanical properties :
#
#
# Convention : Reuss Voigt Hill
#
# Bulk Modulus (GPa) = 46.09514 53.39188 49.74351
# Shear Modulus (GPa) = 29.97841 32.60262 31.29052
#
# Velocity S-wave (km/s) = 3.85690 4.02217 3.94040
# Velocity P-wave (km/s) = 6.53507 6.93283 6.73689
#
# Compressibility (1/GPa) = 0.02169426
#
# Stress axis : x y z
#
# Youngs Moduli (GPa) = 103.27911 79.10812 56.48168
#
# Poissons Ratio (x) = 0.34617 0.08306
# Poissons Ratio (y) = 0.45194 0.18755
# Poissons Ratio (z) = 0.15188 0.26268
#
# Static dielectric constant tensor:
#      x y z
#    x 3.975840 0.000000 0.000000 
#    y 0.000000 3.715440 0.000000 
#    z 0.000000 0.000000 3.661300 
# 
# 
# High freq. dielectric constant tensor:
#      x y z
#    x 1.791860 0.000000 0.000000 
#    y 0.000000 1.793410 0.000000 
#    z 0.000000 0.000000 1.784900 
# 
# From -- ./inp_files/3671.got.cif
#   From: 2010.03.12/outbox.cif.g09.slc.cpg/sg20_2_cif.got.tgz:3671.got - 2010.04.14 01:38:04.
