data_PCOD8159810
_publ_section_title
;
Structure prediction by ZEFSAII (Michael W. Deem and Ramdas Pophale) SiO2 
 PCOD8159810
Probable space group: C 2 2 21
;
_chemical_formula_sum "Si O2"
_cell_formula_units_Z 48
_cell_length_a 27.941236
_cell_length_b 10.069115
_cell_length_c 8.421141
_cell_angle_alpha 90.000000
_cell_angle_beta 90.000000
_cell_angle_gamma 90.000000
_cell_volume 2369.233439
_symmetry_space_group_name_H-M "C 2 2 21"
_symmetry_group_IT_number 20
_symmetry_cell_setting 'orthorhombic'
loop_
_space_group_symop_operation_xyz
x,y,z
-x,-y,1/2+z
x,-y,-z
-x,y,1/2-z
1/2+x,1/2+y,z
1/2-x,1/2-y,1/2+z
1/2+x,1/2-y,-z
1/2-x,1/2+y,1/2-z
loop_
_atom_site_type_symbol
_atom_site_label
_atom_site_fract_x
_atom_site_fract_y
_atom_site_fract_z
Si Si1 0.855487 0.525341 0.814084
Si Si2 0.707872 0.746525 0.180138
Si Si3 0.545653 0.598496 0.143969
Si Si4 0.355405 0.507525 0.311443
Si Si5 0.812093 0.263825 0.691646
Si Si6 0.547495 0.098434 0.851957
O O1 0.813380 0.628408 0.773658
O O2 0.845008 0.390148 0.721575
O O3 0.906953 0.577794 0.760656
O O4 0.855788 0.500000 0.000000
O O5 0.683751 0.612973 0.247924
O O6 0.763993 0.732295 0.206760
O O7 0.698961 0.759338 0.993790
O O8 0.500000 0.580703 0.250000
O O9 0.592364 0.556176 0.246676
O O10 0.550001 0.750552 0.083414
O O11 0.538827 0.500000 0.000000
O O12 0.356774 0.500000 0.500000
O O13 0.341895 0.363102 0.245235
O O14 0.500000 0.071955 0.750000
O O15 0.548482 0.000000 0.000000
#
# Coordination Sequence:
#
# PCOD8159810 Si02
#       6
#     8   8   8   8   8   8
#     4  12  25  42  62  94 131 174 220 267 318 382
#     4  11  21  41  64  93 130 167 215 266 324 382
#     4  10  22  43  66  95 126 164 206 257 315 383
#     4   9  20  39  62  89 122 164 204 256 317 377
#     4  11  23  39  66  94 127 171 213 266 326 386
#     4  11  24  44  69  97 130 166 212 268 326 392
#
# _framework density 20.259717999999999
#
# number of rings (size 3 to 8) (size 9 to 14) (size 15 to 20)
#    0.000    1.333    1.667    4.000    4.667    2.000 
#    6.000    2.500    0.000    0.000    0.000    0.000 
#    0.000    0.000    0.000    0.000    0.000    0.000 
#
# Total GULP energy -297663.408142 kJ/mol
# GULP energy per Si atom -12402.642006 kJ/mol
# Density = 2.021361 g / cm^3
# Si number density = 20.259718 Si / 1000 Ang^3
#
#
#
# Elastic Constant Matrix: (Units=GPa)
#
#
# Indices 1 2 3 4 5 6 
#
# 1 133.4494 56.4424 19.5332 0.0000 0.0000 0.0000
# 2 56.4424 156.5577 37.7707 0.0000 0.0000 0.0000
# 3 19.5332 37.7707 77.1855 0.0000 0.0000 0.0000
# 4 0.0000 0.0000 0.0000 23.8702 0.0000 0.0000
# 5 0.0000 0.0000 0.0000 0.0000 24.1543 0.0000
# 6 0.0000 0.0000 0.0000 0.0000 0.0000 39.6419
#
#
#
# Elastic Compliance Matrix: (Units=1/GPa)
#
#
# Indices 1 2 3 4 5 6 
#
# 1 0.008882 -0.003016 -0.000772 0.000000 0.000000 0.000000
# 2 -0.003016 0.008267 -0.003282 0.000000 0.000000 0.000000
# 3 -0.000772 -0.003282 0.014757 0.000000 0.000000 0.000000
# 4 0.000000 0.000000 0.000000 0.041893 0.000000 0.000000
# 5 0.000000 0.000000 0.000000 0.000000 0.041400 0.000000
# 6 0.000000 0.000000 0.000000 0.000000 0.000000 0.025226
#
#
# Mechanical properties :
#
#
# Convention : Reuss Voigt Hill
#
# Bulk Modulus (GPa) = 56.28700 66.07613 61.18156
# Shear Modulus (GPa) = 31.15517 34.42970 32.79243
#
# Velocity S-wave (km/s) = 3.92572 4.12687 4.02755
# Velocity P-wave (km/s) = 6.95639 7.44268 7.20364
#
# Compressibility (1/GPa) = 0.01776609
#
# Stress axis : x y z
#
# Youngs Moduli (GPa) = 112.58654 120.96967 67.76357
#
# Poissons Ratio (x) = 0.36484 0.05231
# Poissons Ratio (y) = 0.33955 0.22240
# Poissons Ratio (z) = 0.08691 0.39702
#
# Static dielectric constant tensor:
#      x y z
#    x 4.098520 0.000000 0.000000 
#    y 0.000000 4.117270 0.000000 
#    z 0.000000 0.000000 3.389790 
# 
# 
# High freq. dielectric constant tensor:
#      x y z
#    x 1.811780 0.000000 0.000000 
#    y 0.000000 1.814440 0.000000 
#    z 0.000000 0.000000 1.770640 
# 
# From -- ./inp_files/11435.got.cif
#   From: 2010.03.12/outbox.cif.g09.slc.cpg/sg20_6_cif.got.tgz:11435.got - 2010.04.14 01:38:04.
