data_PCOD8159596
_publ_section_title
;
Structure prediction by ZEFSAII (Michael W. Deem and Ramdas Pophale) SiO2 
 PCOD8159596
Probable space group: C 2 2 21
;
_chemical_formula_sum "Si O2"
_cell_formula_units_Z 64
_cell_length_a 13.942257
_cell_length_b 9.783962
_cell_length_c 24.743360
_cell_angle_alpha 90.000000
_cell_angle_beta 90.000000
_cell_angle_gamma 90.000000
_cell_volume 3375.254423
_symmetry_space_group_name_H-M "C 2 2 21"
_symmetry_group_IT_number 20
_symmetry_cell_setting 'orthorhombic'
loop_
_space_group_symop_operation_xyz
x,y,z
-x,-y,1/2+z
x,-y,-z
-x,y,1/2-z
1/2+x,1/2+y,z
1/2-x,1/2-y,1/2+z
1/2+x,1/2-y,-z
1/2-x,1/2+y,1/2-z
loop_
_atom_site_type_symbol
_atom_site_label
_atom_site_fract_x
_atom_site_fract_y
_atom_site_fract_z
Si Si1 0.257282 0.511842 0.839242
Si Si2 0.388370 0.922853 0.250000
Si Si3 0.757282 0.011838 0.660757
Si Si4 0.388420 0.839732 0.492953
Si Si5 0.889622 0.898596 0.750000
Si Si6 0.738203 0.240206 0.087940
Si Si7 0.888422 0.660267 0.992952
Si Si8 0.738201 0.240205 0.412062
O O1 0.160148 0.515180 0.803679
O O2 0.345967 0.464094 0.803472
O O3 0.243756 0.412904 0.889935
O O4 0.285061 0.660182 0.862267
O O5 0.500000 0.962653 0.250000
O O6 0.339850 0.984829 0.196323
O O7 0.370547 0.761945 0.249997
O O8 0.845969 0.964079 0.696523
O O9 0.743752 0.912906 0.610063
O O10 0.785061 0.160180 0.637734
O O11 0.345907 0.755303 0.543473
O O12 0.499999 0.806494 0.488290
O O13 0.339148 0.785752 0.438266
O O14 0.368246 0.000000 0.500000
O O15 0.000000 0.935753 0.750000
O O16 0.839149 0.285754 0.061736
O O17 0.845908 0.744700 0.043472
O O18 0.868247 0.500000 0.000000
#
# Coordination Sequence:
#
# PCOD8159596 Si02
#       8
#     8   8   8   8   8   8   8   8
#     4  11  22  39  61  88 120 155 192 241 297 345
#     4  10  22  39  62  89 116 155 201 238 284 354
#     4  11  22  39  61  88 120 155 192 241 297 345
#     4  10  22  39  61  89 118 154 201 243 286 351
#     4  10  22  39  60  89 120 151 195 244 290 348
#     4  11  22  39  61  88 120 155 192 243 296 344
#     4  10  22  39  61  89 118 154 201 243 286 351
#     4  11  22  39  61  88 120 155 192 243 296 344
#
# _framework density 18.961532999999999
#
# number of rings (size 3 to 8) (size 9 to 14) (size 15 to 20)
#    0.000    1.500    5.000    0.000    0.000    4.000 
#    0.000    2.500    0.000    0.000    0.000    0.000 
#    0.000    0.000    0.000    0.000    0.000    0.000 
#
# Total GULP energy -396969.522324 kJ/mol
# GULP energy per Si atom -12405.297573 kJ/mol
# Density = 1.891838 g / cm^3
# Si number density = 18.961533 Si / 1000 Ang^3
#
#
#
# Elastic Constant Matrix: (Units=GPa)
#
#
# Indices 1 2 3 4 5 6 
#
# 1 150.8246 45.9551 58.0967 0.0000 0.0000 0.0000
# 2 45.9551 65.2213 27.5174 0.0000 0.0000 0.0000
# 3 58.0967 27.5174 99.1881 0.0000 0.0000 0.0000
# 4 0.0000 0.0000 0.0000 50.8013 0.0000 0.0000
# 5 0.0000 0.0000 0.0000 0.0000 17.3037 0.0000
# 6 0.0000 0.0000 0.0000 0.0000 0.0000 28.6462
#
#
#
# Elastic Compliance Matrix: (Units=1/GPa)
#
#
# Indices 1 2 3 4 5 6 
#
# 1 0.009868 -0.005113 -0.004362 0.000000 0.000000 0.000000
# 2 -0.005113 0.020014 -0.002558 0.000000 0.000000 0.000000
# 3 -0.004362 -0.002558 0.013346 0.000000 0.000000 0.000000
# 4 0.000000 0.000000 0.000000 0.019685 0.000000 0.000000
# 5 0.000000 0.000000 0.000000 0.000000 0.057791 0.000000
# 6 0.000000 0.000000 0.000000 0.000000 0.000000 0.034909
#
#
# Mechanical properties :
#
#
# Convention : Reuss Voigt Hill
#
# Bulk Modulus (GPa) = 52.18113 64.26360 58.22236
# Shear Modulus (GPa) = 26.87234 31.59456 29.23345
#
# Velocity S-wave (km/s) = 3.76866 4.08639 3.93074
# Velocity P-wave (km/s) = 6.82028 7.49866 7.16750
#
# Compressibility (1/GPa) = 0.01916402
#
# Stress axis : x y z
#
# Youngs Moduli (GPa) = 101.33646 49.96479 74.92848
#
# Poissons Ratio (x) = 0.25547 0.32680
# Poissons Ratio (y) = 0.51813 0.19164
# Poissons Ratio (z) = 0.44198 0.12779
#
# Static dielectric constant tensor:
#      x y z
#    x 3.350360 0.000000 0.000000 
#    y 0.000000 3.485390 0.000000 
#    z 0.000000 0.000000 3.643260 
# 
# 
# High freq. dielectric constant tensor:
#      x y z
#    x 1.728510 0.000000 0.000000 
#    y 0.000000 1.741670 0.000000 
#    z 0.000000 0.000000 1.752430 
# 
# From -- ./inp_files/28879.got.cif
#   From: 2010.03.12/outbox.cif.g09.slc.cpg/sg20_15_cif.got.tgz:28879.got - 2010.04.14 01:38:04.
