data_PCOD8159522
_publ_section_title
;
Structure prediction by ZEFSAII (Michael W. Deem and Ramdas Pophale) SiO2 
 PCOD8159522
Probable space group: C 2 2 21
;
_chemical_formula_sum "Si O2"
_cell_formula_units_Z 28
_cell_length_a 5.206342
_cell_length_b 13.562595
_cell_length_c 15.664982
_cell_angle_alpha 90.000000
_cell_angle_beta 90.000000
_cell_angle_gamma 90.000000
_cell_volume 1106.128001
_symmetry_space_group_name_H-M "C 2 2 21"
_symmetry_group_IT_number 20
_symmetry_cell_setting 'orthorhombic'
loop_
_space_group_symop_operation_xyz
x,y,z
-x,-y,1/2+z
x,-y,-z
-x,y,1/2-z
1/2+x,1/2+y,z
1/2-x,1/2-y,1/2+z
1/2+x,1/2-y,-z
1/2-x,1/2+y,1/2-z
loop_
_atom_site_type_symbol
_atom_site_label
_atom_site_fract_x
_atom_site_fract_y
_atom_site_fract_z
Si Si1 0.475166 0.134824 0.468109
Si Si2 0.780998 0.725846 0.634412
Si Si3 0.461639 0.572549 0.388902
Si Si4 0.000000 0.087496 0.750000
O O1 0.515798 0.236108 0.412507
O O2 0.440038 0.161970 0.566433
O O3 0.736401 0.070462 0.460234
O O4 0.240349 0.068035 0.433111
O O5 0.940617 0.823219 0.662771
O O6 0.727526 0.658588 0.716996
O O7 0.406571 0.480995 0.327087
#
# Coordination Sequence:
#
# PCOD8159522 Si02
#       4
#     8   8   8   4
#     4  10  21  49  77 101 156 203 252 313 367 455
#     4  10  23  49  80 108 150 208 250 316 380 452
#     4  10  24  47  72 111 152 189 260 316 366 466
#     4  12  28  46  80 122 152 204 250 322 414 424
#
# _framework density 25.313524999999998
#
# number of rings (size 3 to 8) (size 9 to 14) (size 15 to 20)
#    1.714    0.000    2.857    0.000    4.000    2.286 
#   10.286    5.714    0.000    0.000    0.000    0.000 
#    0.000    0.000    0.000    0.000    0.000    0.000 
#
# Total GULP energy -173446.446489 kJ/mol
# GULP energy per Si atom -12389.031892 kJ/mol
# Density = 2.525591 g / cm^3
# Si number density = 25.313525 Si / 1000 Ang^3
#
#
#
# Elastic Constant Matrix: (Units=GPa)
#
#
# Indices 1 2 3 4 5 6 
#
# 1 125.7296 -13.2304 -14.8136 0.0000 0.0000 0.0000
# 2 -13.2304 100.7023 0.9575 0.0000 0.0000 0.0000
# 3 -14.8136 0.9575 21.7274 0.0000 0.0000 0.0000
# 4 0.0000 0.0000 0.0000 67.2781 0.0000 0.0000
# 5 0.0000 0.0000 0.0000 0.0000 35.6374 0.0000
# 6 0.0000 0.0000 0.0000 0.0000 0.0000 -134.3222
#
#
#
# Elastic Compliance Matrix: (Units=1/GPa)
#
#
# Indices 1 2 3 4 5 6 
#
# 1 0.008767 0.001096 0.005929 0.000000 0.000000 0.000000
# 2 0.001096 0.010071 0.000303 0.000000 0.000000 0.000000
# 3 0.005929 0.000303 0.050054 0.000000 0.000000 0.000000
# 4 0.000000 0.000000 0.000000 0.014864 0.000000 0.000000
# 5 0.000000 0.000000 0.000000 0.000000 0.028060 0.000000
# 6 0.000000 0.000000 0.000000 0.000000 0.000000 -0.007445
#
#
# Mechanical properties :
#
#
# Convention : Reuss Voigt Hill
#
# Bulk Modulus (GPa) = 11.96905 21.55401 16.76153
# Shear Modulus (GPa) = 42.52931 12.06837 27.29884
#
# Velocity S-wave (km/s) = 4.10335 2.18584 3.28751
# Velocity P-wave (km/s) = 5.21427 3.86055 4.58762
#
# Compressibility (1/GPa) = 0.08354883
#
# Stress axis : x y z
#
# Youngs Moduli (GPa) = 114.05813 99.29198 19.97835
#
# Poissons Ratio (x) = -0.10878 -0.11846
# Poissons Ratio (y) = -0.12495 -0.00606
# Poissons Ratio (z) = -0.67629 -0.03009
#
# Static dielectric constant tensor:
#      x y z
#    x 4.323400 0.000000 0.000000 
#    y 0.000000 4.786260 0.000000 
#    z 0.000000 0.000000 4.093780 
# 
# 
# High freq. dielectric constant tensor:
#      x y z
#    x 1.994240 0.000000 0.000000 
#    y 0.000000 2.028990 0.000000 
#    z 0.000000 0.000000 1.988550 
# 
# From -- ./inp_files/22465.got.cif
#   From: 2010.03.12/outbox.cif.g09.slc.cpg/sg20_12_cif.got.tgz:22465.got - 2010.04.14 01:38:04.
