data_PCOD8159620
_publ_section_title
;
Structure prediction by ZEFSAII (Michael W. Deem and Ramdas Pophale) SiO2 
 PCOD8159620
Probable space group: C 2 2 21
;
_chemical_formula_sum "Si O2"
_cell_formula_units_Z 48
_cell_length_a 18.838570
_cell_length_b 9.770684
_cell_length_c 10.267161
_cell_angle_alpha 90.000000
_cell_angle_beta 90.000000
_cell_angle_gamma 90.000000
_cell_volume 1889.832325
_symmetry_space_group_name_H-M "C 2 2 21"
_symmetry_group_IT_number 20
_symmetry_cell_setting 'orthorhombic'
loop_
_space_group_symop_operation_xyz
x,y,z
-x,-y,1/2+z
x,-y,-z
-x,y,1/2-z
1/2+x,1/2+y,z
1/2-x,1/2-y,1/2+z
1/2+x,1/2-y,-z
1/2-x,1/2+y,1/2-z
loop_
_atom_site_type_symbol
_atom_site_label
_atom_site_fract_x
_atom_site_fract_y
_atom_site_fract_z
Si Si1 0.713708 0.540186 0.715296
Si Si2 0.116971 0.313437 0.437093
Si Si3 0.062194 0.034013 0.355021
Si Si4 0.259826 0.306849 0.596042
Si Si5 0.925944 0.580352 0.189485
Si Si6 0.832990 0.619270 0.419694
O O1 0.630810 0.558823 0.677026
O O2 0.722454 0.459696 0.853234
O O3 0.746971 0.694939 0.714376
O O4 0.755459 0.445791 0.611871
O O5 0.091987 0.188241 0.348414
O O6 0.193760 0.303861 0.499724
O O7 0.061740 0.331483 0.558342
O O8 0.117640 0.443317 0.342241
O O9 0.000000 0.009653 0.250000
O O10 0.033552 0.000000 0.500000
O O11 0.325687 0.255107 0.507837
O O12 0.876445 0.662099 0.291186
O O13 0.000000 0.540319 0.250000
O O14 0.875060 0.500000 0.500000
#
# Coordination Sequence:
#
# PCOD8159620 Si02
#       6
#     8   8   8   8   8   8
#     4  11  23  45  75 107 150 197 259 315 392 455
#     4  11  24  46  73 104 147 197 247 315 388 456
#     4  12  26  49  77 104 154 211 258 321 389 469
#     4  11  23  44  77 111 149 201 253 326 383 465
#     4  11  26  44  70 108 150 192 246 314 389 463
#     4  10  22  39  68 104 147 186 242 313 371 457
#
# _framework density 25.399076999999998
#
# number of rings (size 3 to 8) (size 9 to 14) (size 15 to 20)
#    0.000    1.000    5.000    1.000    7.000    2.000 
#    0.000    3.333    0.000    0.000    0.000    0.000 
#    0.000    0.000    0.000    0.000    0.000    0.000 
#
# Total GULP energy -297530.592484 kJ/mol
# GULP energy per Si atom -12397.108020 kJ/mol
# Density = 2.534127 g / cm^3
# Si number density = 25.399077 Si / 1000 Ang^3
#
#
#
# Elastic Constant Matrix: (Units=GPa)
#
#
# Indices 1 2 3 4 5 6 
#
# 1 91.1583 22.1459 45.5640 0.0000 0.0000 0.0000
# 2 22.1459 71.5317 18.8754 0.0000 0.0000 0.0000
# 3 45.5640 18.8754 115.6135 0.0000 0.0000 0.0000
# 4 0.0000 0.0000 0.0000 40.3990 0.0000 0.0000
# 5 0.0000 0.0000 0.0000 0.0000 36.0922 0.0000
# 6 0.0000 0.0000 0.0000 0.0000 0.0000 25.3481
#
#
#
# Elastic Compliance Matrix: (Units=1/GPa)
#
#
# Indices 1 2 3 4 5 6 
#
# 1 0.014277 -0.003068 -0.005126 0.000000 0.000000 0.000000
# 2 -0.003068 0.015268 -0.001284 0.000000 0.000000 0.000000
# 3 -0.005126 -0.001284 0.010879 0.000000 0.000000 0.000000
# 4 0.000000 0.000000 0.000000 0.024753 0.000000 0.000000
# 5 0.000000 0.000000 0.000000 0.000000 0.027707 0.000000
# 6 0.000000 0.000000 0.000000 0.000000 0.000000 0.039451
#
#
# Mechanical properties :
#
#
# Convention : Reuss Voigt Hill
#
# Bulk Modulus (GPa) = 46.57618 50.16379 48.36999
# Shear Modulus (GPa) = 31.55635 33.14908 32.35272
#
# Velocity S-wave (km/s) = 3.52862 3.61658 3.57287
# Velocity P-wave (km/s) = 5.91432 6.10185 6.00882
#
# Compressibility (1/GPa) = 0.02147020
#
# Stress axis : x y z
#
# Youngs Moduli (GPa) = 70.04138 65.49528 91.91792
#
# Poissons Ratio (x) = 0.20091 0.47117
# Poissons Ratio (y) = 0.21486 0.11800
# Poissons Ratio (z) = 0.35903 0.08408
#
# Static dielectric constant tensor:
#      x y z
#    x 4.191370 0.000000 0.000000 
#    y 0.000000 4.776960 0.000000 
#    z 0.000000 0.000000 4.923510 
# 
# 
# High freq. dielectric constant tensor:
#      x y z
#    x 1.981410 0.000000 0.000000 
#    y 0.000000 2.018010 0.000000 
#    z 0.000000 0.000000 2.027590 
# 
# From -- ./inp_files/15725.got.cif
#   From: 2010.03.12/outbox.cif.g09.slc.cpg/sg20_8_cif.got.tgz:15725.got - 2010.04.14 01:38:04.
