data_PCOD8159095
_publ_section_title
;
Structure prediction by ZEFSAII (Michael W. Deem and Ramdas Pophale) SiO2 
 PCOD8159095
Probable space group: C 2 2 21
;
_chemical_formula_sum "Si O2"
_cell_formula_units_Z 64
_cell_length_a 11.736065
_cell_length_b 14.509097
_cell_length_c 18.212827
_cell_angle_alpha 90.000000
_cell_angle_beta 90.000000
_cell_angle_gamma 90.000000
_cell_volume 3101.274818
_symmetry_space_group_name_H-M "C 2 2 21"
_symmetry_group_IT_number 20
_symmetry_cell_setting 'orthorhombic'
loop_
_space_group_symop_operation_xyz
x,y,z
-x,-y,1/2+z
x,-y,-z
-x,y,1/2-z
1/2+x,1/2+y,z
1/2-x,1/2-y,1/2+z
1/2+x,1/2-y,-z
1/2-x,1/2+y,1/2-z
loop_
_atom_site_type_symbol
_atom_site_label
_atom_site_fract_x
_atom_site_fract_y
_atom_site_fract_z
Si Si1 0.913591 0.127268 0.428546
Si Si2 0.451128 0.757708 0.172527
Si Si3 0.964085 0.628026 0.434549
Si Si4 0.934006 0.572326 0.600556
Si Si5 0.713421 0.726711 0.880521
Si Si6 0.195122 0.278910 0.534407
Si Si7 0.809093 0.927731 0.066588
Si Si8 0.945867 0.924664 0.404327
O O1 0.798447 0.184711 0.415181
O O2 0.947104 0.118819 0.513708
O O3 0.014770 0.182451 0.388634
O O4 0.890607 0.025329 0.397102
O O5 0.500000 0.724659 0.250000
O O6 0.500216 0.859882 0.155318
O O7 0.312911 0.757270 0.179195
O O8 0.933059 0.614748 0.519167
O O9 0.989098 0.529525 0.396172
O O10 0.859675 0.681073 0.395453
O O11 0.078963 0.686437 0.429215
O O12 0.799907 0.559057 0.619914
O O13 0.626237 0.645990 0.853848
O O14 0.783009 0.686358 0.951247
O O15 0.195469 0.170515 0.528654
O O16 0.921370 0.935359 0.118024
O O17 0.812020 0.000000 0.000000
#
# Coordination Sequence:
#
# PCOD8159095 Si02
#       8
#     8   8   8   8   8   8   8   8
#     4  10  21  37  59  92 122 158 200 250 322 365
#     4  12  26  44  61  82 127 177 212 244 287 379
#     4  11  21  34  61  97 120 147 191 270 322 358
#     4  11  22  35  58  93 121 158 203 243 316 366
#     4  11  21  36  57  87 122 159 196 247 312 369
#     4  11  20  33  58  89 130 146 190 262 322 361
#     4  12  18  31  54  91 128 154 183 244 321 373
#     4  10  21  33  63  95 125 149 188 272 331 364
#
# _framework density 20.636675
#
# number of rings (size 3 to 8) (size 9 to 14) (size 15 to 20)
#    0.000    1.000    7.500    1.500    3.500    1.000 
#    0.000    1.250    0.000    1.500    0.000    0.000 
#    0.000    0.000    0.000    0.000    0.000    0.000 
#
# Total GULP energy -396716.984944 kJ/mol
# GULP energy per Si atom -12397.405780 kJ/mol
# Density = 2.058970 g / cm^3
# Si number density = 20.636675 Si / 1000 Ang^3
#
#
#
# Elastic Constant Matrix: (Units=GPa)
#
#
# Indices 1 2 3 4 5 6 
#
# 1 126.0483 44.6218 4.6103 0.0000 0.0000 0.0000
# 2 44.6218 136.1310 13.2754 0.0000 0.0000 0.0000
# 3 4.6103 13.2754 18.6871 0.0000 0.0000 0.0000
# 4 0.0000 0.0000 0.0000 10.7257 0.0000 0.0000
# 5 0.0000 0.0000 0.0000 0.0000 14.5613 0.0000
# 6 0.0000 0.0000 0.0000 0.0000 0.0000 30.3208
#
#
#
# Elastic Compliance Matrix: (Units=1/GPa)
#
#
# Indices 1 2 3 4 5 6 
#
# 1 0.008975 -0.002929 -0.000134 0.000000 0.000000 0.000000
# 2 -0.002929 0.008848 -0.005563 0.000000 0.000000 0.000000
# 3 -0.000134 -0.005563 0.057498 0.000000 0.000000 0.000000
# 4 0.000000 0.000000 0.000000 0.093234 0.000000 0.000000
# 5 0.000000 0.000000 0.000000 0.000000 0.068675 0.000000
# 6 0.000000 0.000000 0.000000 0.000000 0.000000 0.032981
#
#
# Mechanical properties :
#
#
# Convention : Reuss Voigt Hill
#
# Bulk Modulus (GPa) = 17.22056 45.09793 31.15924
# Shear Modulus (GPa) = 16.29618 25.67882 20.98750
#
# Velocity S-wave (km/s) = 2.81316 3.53133 3.19250
# Velocity P-wave (km/s) = 4.34909 6.20708 5.35921
#
# Compressibility (1/GPa) = 0.05807012
#
# Stress axis : x y z
#
# Youngs Moduli (GPa) = 111.41806 113.01393 17.39185
#
# Poissons Ratio (x) = 0.33101 0.00232
# Poissons Ratio (y) = 0.32634 0.09676
# Poissons Ratio (z) = 0.01488 0.62874
#
# Static dielectric constant tensor:
#      x y z
#    x 4.350230 0.000000 0.000000 
#    y 0.000000 3.982870 0.000000 
#    z 0.000000 0.000000 2.974430 
# 
# 
# High freq. dielectric constant tensor:
#      x y z
#    x 1.832800 0.000000 0.000000 
#    y 0.000000 1.828420 0.000000 
#    z 0.000000 0.000000 1.712390 
# 
# From -- ./inp_files/24452.got.cif
#   From: 2010.03.12/outbox.cif.g09.slc.cpg/sg20_13_cif.got.tgz:24452.got - 2010.04.14 01:38:04.
