data_PCOD8159850
_publ_section_title
;
Structure prediction by ZEFSAII (Michael W. Deem and Ramdas Pophale) SiO2 
 PCOD8159850
Probable space group: C 2 2 21
;
_chemical_formula_sum "Si O2"
_cell_formula_units_Z 48
_cell_length_a 13.650159
_cell_length_b 9.151766
_cell_length_c 17.490927
_cell_angle_alpha 90.000000
_cell_angle_beta 90.000000
_cell_angle_gamma 90.000000
_cell_volume 2185.020141
_symmetry_space_group_name_H-M "C 2 2 21"
_symmetry_group_IT_number 20
_symmetry_cell_setting 'orthorhombic'
loop_
_space_group_symop_operation_xyz
x,y,z
-x,-y,1/2+z
x,-y,-z
-x,y,1/2-z
1/2+x,1/2+y,z
1/2-x,1/2-y,1/2+z
1/2+x,1/2-y,-z
1/2-x,1/2+y,1/2-z
loop_
_atom_site_type_symbol
_atom_site_label
_atom_site_fract_x
_atom_site_fract_y
_atom_site_fract_z
Si Si1 0.689705 0.112404 0.681211
Si Si2 0.462210 0.737901 0.631058
Si Si3 0.837689 0.122966 0.938010
Si Si4 0.697998 0.433358 0.702519
Si Si5 0.000000 0.007733 0.750000
Si Si6 0.715371 0.348465 0.032186
Si Si7 0.500000 0.014233 0.250000
O O1 0.739345 0.271052 0.694712
O O2 0.697144 0.099098 0.589543
O O3 0.758211 0.992829 0.719542
O O4 0.581637 0.092864 0.715030
O O5 0.567188 0.711957 0.590417
O O6 0.441362 0.607124 0.689622
O O7 0.374661 0.740170 0.569997
O O8 0.460357 0.888689 0.679348
O O9 0.781122 0.040669 0.868770
O O10 0.760956 0.240917 0.969433
O O11 0.868060 0.000000 0.000000
O O12 0.580532 0.410384 0.707857
O O13 0.671704 0.500000 0.000000
#
# Coordination Sequence:
#
# PCOD8159850 Si02
#       7
#     8   8   8   8   4   8   4
#     4  12  25  44  69 102 135 178 230 284 346 413
#     4  10  22  44  69  99 134 181 224 282 346 404
#     4  11  24  45  68  99 142 183 230 283 345 419
#     4  11  24  42  71  98 132 179 232 281 342 409
#     4   9  19  38  70  94 128 172 224 278 326 402
#     4  12  25  44  69 105 140 184 230 283 352 415
#     4  11  25  44  70 102 138 176 234 292 340 408
#
# _framework density 21.967759999999998
#
# number of rings (size 3 to 8) (size 9 to 14) (size 15 to 20)
#    0.000    1.000    3.333    3.000    7.000    0.000 
#    3.000    0.833    0.000    0.000    0.000    0.000 
#    0.000    0.000    0.000    0.000    0.000    0.000 
#
# Total GULP energy -297528.234321 kJ/mol
# GULP energy per Si atom -12397.009763 kJ/mol
# Density = 2.191776 g / cm^3
# Si number density = 21.967760 Si / 1000 Ang^3
#
#
#
# Elastic Constant Matrix: (Units=GPa)
#
#
# Indices 1 2 3 4 5 6 
#
# 1 77.1151 25.4628 17.7009 0.0000 0.0000 0.0000
# 2 25.4628 111.3412 36.7848 0.0000 0.0000 0.0000
# 3 17.7009 36.7848 76.5328 0.0000 0.0000 0.0000
# 4 0.0000 0.0000 0.0000 40.6891 0.0000 0.0000
# 5 0.0000 0.0000 0.0000 0.0000 45.3150 0.0000
# 6 0.0000 0.0000 0.0000 0.0000 0.0000 24.0639
#
#
#
# Elastic Compliance Matrix: (Units=1/GPa)
#
#
# Indices 1 2 3 4 5 6 
#
# 1 0.014296 -0.002588 -0.002063 0.000000 0.000000 0.000000
# 2 -0.002588 0.011145 -0.004758 0.000000 0.000000 0.000000
# 3 -0.002063 -0.004758 0.015830 0.000000 0.000000 0.000000
# 4 0.000000 0.000000 0.000000 0.024577 0.000000 0.000000
# 5 0.000000 0.000000 0.000000 0.000000 0.022068 0.000000
# 6 0.000000 0.000000 0.000000 0.000000 0.000000 0.041556
#
#
# Mechanical properties :
#
#
# Convention : Reuss Voigt Hill
#
# Bulk Modulus (GPa) = 44.53597 47.20957 45.87277
# Shear Modulus (GPa) = 32.09784 34.34962 33.22373
#
# Velocity S-wave (km/s) = 3.82663 3.95858 3.89316
# Velocity P-wave (km/s) = 6.31201 6.51389 6.41374
#
# Compressibility (1/GPa) = 0.02245376
#
# Stress axis : x y z
#
# Youngs Moduli (GPa) = 69.95185 89.72405 63.16966
#
# Poissons Ratio (x) = 0.23219 0.13029
# Poissons Ratio (y) = 0.18103 0.30058
# Poissons Ratio (z) = 0.14428 0.42694
#
# Static dielectric constant tensor:
#      x y z
#    x 3.886900 0.000000 0.000000 
#    y 0.000000 3.911270 0.000000 
#    z 0.000000 0.000000 4.135300 
# 
# 
# High freq. dielectric constant tensor:
#      x y z
#    x 1.863500 0.000000 0.000000 
#    y 0.000000 1.865730 0.000000 
#    z 0.000000 0.000000 1.867890 
# 
# From -- ./inp_files/23512.got.cif
#   From: 2010.03.12/outbox.cif.g09.slc.cpg/sg20_12_cif.got.tgz:23512.got - 2010.04.14 01:38:04.
