data_PCOD8159227
_publ_section_title
;
Structure prediction by ZEFSAII (Michael W. Deem and Ramdas Pophale) SiO2 
 PCOD8159227
Probable space group: C 2 2 21
;
_chemical_formula_sum "Si O2"
_cell_formula_units_Z 64
_cell_length_a 12.024706
_cell_length_b 17.052224
_cell_length_c 14.259445
_cell_angle_alpha 90.000000
_cell_angle_beta 90.000000
_cell_angle_gamma 90.000000
_cell_volume 2923.870397
_symmetry_space_group_name_H-M "C 2 2 21"
_symmetry_group_IT_number 20
_symmetry_cell_setting 'orthorhombic'
loop_
_space_group_symop_operation_xyz
x,y,z
-x,-y,1/2+z
x,-y,-z
-x,y,1/2-z
1/2+x,1/2+y,z
1/2-x,1/2-y,1/2+z
1/2+x,1/2-y,-z
1/2-x,1/2+y,1/2-z
loop_
_atom_site_type_symbol
_atom_site_label
_atom_site_fract_x
_atom_site_fract_y
_atom_site_fract_z
Si Si1 0.319092 0.124717 0.745899
Si Si2 0.699171 0.588605 0.113148
Si Si3 0.804660 0.191310 0.036273
Si Si4 0.862119 0.373119 0.042514
Si Si5 0.887498 0.414375 0.455199
Si Si6 0.110765 0.058620 0.801223
Si Si7 0.502893 0.412672 0.486444
Si Si8 0.128550 0.197509 0.257788
O O1 0.347098 0.093930 0.851602
O O2 0.373444 0.077875 0.658313
O O3 0.183835 0.119163 0.738140
O O4 0.367670 0.210756 0.740211
O O5 0.694747 0.512976 0.179984
O O6 0.713889 0.662944 0.180716
O O7 0.792467 0.576536 0.033499
O O8 0.575819 0.601809 0.073855
O O9 0.814830 0.285058 0.027805
O O10 0.820881 0.168568 0.144310
O O11 0.690814 0.154578 0.996700
O O12 0.901979 0.151334 0.976499
O O13 0.990828 0.383357 0.016839
O O14 0.863429 0.500000 0.500000
O O15 0.000000 0.029549 0.750000
O O16 0.076440 0.099429 0.897375
O O17 0.554832 0.500000 0.500000
O O18 0.000000 0.169977 0.250000
#
# Coordination Sequence:
#
# PCOD8159227 Si02
#       8
#     8   8   8   8   8   8   8   8
#     4  11  24  44  69  97 137 181 231 276 347 422
#     4  11  23  41  68  99 134 174 233 277 335 412
#     4  11  24  42  71 102 142 177 235 287 343 412
#     4  11  26  46  72  97 137 193 232 276 344 427
#     4  12  28  45  68 104 145 184 232 293 358 415
#     4  11  24  39  67 103 134 174 224 290 346 399
#     4  10  21  38  66  99 137 176 217 285 346 397
#     4  11  22  41  70 104 134 182 231 283 342 415
#
# _framework density 21.888794000000001
#
# number of rings (size 3 to 8) (size 9 to 14) (size 15 to 20)
#    0.000    1.000    2.500    4.125    7.000    0.000 
#    0.000    0.625    0.000    0.000    0.000    0.000 
#    0.000    0.000    0.000    0.000    0.000    0.000 
#
# Total GULP energy -396591.933861 kJ/mol
# GULP energy per Si atom -12393.497933 kJ/mol
# Density = 2.183897 g / cm^3
# Si number density = 21.888794 Si / 1000 Ang^3
#
#
#
# Elastic Constant Matrix: (Units=GPa)
#
#
# Indices 1 2 3 4 5 6 
#
# 1 125.1407 34.4553 27.0081 0.0000 0.0000 0.0000
# 2 34.4553 59.3075 27.5670 0.0000 0.0000 0.0000
# 3 27.0081 27.5670 99.2013 0.0000 0.0000 0.0000
# 4 0.0000 0.0000 0.0000 33.8010 0.0000 0.0000
# 5 0.0000 0.0000 0.0000 0.0000 28.0275 0.0000
# 6 0.0000 0.0000 0.0000 0.0000 0.0000 28.6492
#
#
#
# Elastic Compliance Matrix: (Units=1/GPa)
#
#
# Indices 1 2 3 4 5 6 
#
# 1 0.009641 -0.005031 -0.001227 0.000000 0.000000 0.000000
# 2 -0.005031 0.021987 -0.004740 0.000000 0.000000 0.000000
# 3 -0.001227 -0.004740 0.011732 0.000000 0.000000 0.000000
# 4 0.000000 0.000000 0.000000 0.029585 0.000000 0.000000
# 5 0.000000 0.000000 0.000000 0.000000 0.035679 0.000000
# 6 0.000000 0.000000 0.000000 0.000000 0.000000 0.034905
#
#
# Mechanical properties :
#
#
# Convention : Reuss Voigt Hill
#
# Bulk Modulus (GPa) = 46.80734 51.30116 49.05425
# Shear Modulus (GPa) = 28.96090 31.07015 30.01552
#
# Velocity S-wave (km/s) = 3.64138 3.77165 3.70709
# Velocity P-wave (km/s) = 6.25381 6.51577 6.38613
#
# Compressibility (1/GPa) = 0.02136417
#
# Stress axis : x y z
#
# Youngs Moduli (GPa) = 103.72470 45.48067 85.23825
#
# Poissons Ratio (x) = 0.22880 0.10457
# Poissons Ratio (y) = 0.52181 0.40406
# Poissons Ratio (z) = 0.12725 0.21560
#
# Static dielectric constant tensor:
#      x y z
#    x 4.015230 0.000000 0.000000 
#    y 0.000000 3.925570 0.000000 
#    z 0.000000 0.000000 4.282420 
# 
# 
# High freq. dielectric constant tensor:
#      x y z
#    x 1.858250 0.000000 0.000000 
#    y 0.000000 1.851590 0.000000 
#    z 0.000000 0.000000 1.874370 
# 
# From -- ./inp_files/20265.got.cif
#   From: 2010.03.12/outbox.cif.g09.slc.cpg/sg20_11_cif.got.tgz:20265.got - 2010.04.14 01:38:04.
