data_PCOD8159976
_publ_section_title
;
Structure prediction by ZEFSAII (Michael W. Deem and Ramdas Pophale) SiO2 
 PCOD8159976
Probable space group: C 2 2 21
;
_chemical_formula_sum "Si O2"
_cell_formula_units_Z 48
_cell_length_a 8.953381
_cell_length_b 30.565444
_cell_length_c 8.140040
_cell_angle_alpha 90.000000
_cell_angle_beta 90.000000
_cell_angle_gamma 90.000000
_cell_volume 2227.636440
_symmetry_space_group_name_H-M "C 2 2 21"
_symmetry_group_IT_number 20
_symmetry_cell_setting 'orthorhombic'
loop_
_space_group_symop_operation_xyz
x,y,z
-x,-y,1/2+z
x,-y,-z
-x,y,1/2-z
1/2+x,1/2+y,z
1/2-x,1/2-y,1/2+z
1/2+x,1/2-y,-z
1/2-x,1/2+y,1/2-z
loop_
_atom_site_type_symbol
_atom_site_label
_atom_site_fract_x
_atom_site_fract_y
_atom_site_fract_z
Si Si1 0.468352 0.879001 0.558756
Si Si2 0.109250 0.288056 0.099120
Si Si3 0.716856 0.450647 0.497039
Si Si4 0.297318 0.630636 0.495737
Si Si5 0.138517 0.784716 0.159552
Si Si6 0.500000 0.583471 0.750000
Si Si7 0.500000 0.410733 0.750000
O O1 0.500000 0.868581 0.750000
O O2 0.394934 0.837977 0.464884
O O3 0.359645 0.919871 0.529379
O O4 0.632202 0.890096 0.482715
O O5 0.263864 0.273995 0.180633
O O6 0.000000 0.279441 0.250000
O O7 0.083853 0.257872 0.939936
O O8 0.777912 0.500000 0.500000
O O9 0.638247 0.444406 0.320968
O O10 0.582400 0.442953 0.624653
O O11 0.280523 0.682394 0.531592
O O12 0.423480 0.612923 0.614461
O O13 0.367566 0.620807 0.317281
O O14 0.000000 0.807591 0.250000
#
# Coordination Sequence:
#
# PCOD8159976 Si02
#       7
#     8   8   8   8   8   4   4
#     4  12  26  47  70 100 141 186 226 283 354 408
#     4  12  27  45  66  97 141 183 225 287 343 404
#     4  11  24  45  71 103 135 176 230 283 344 413
#     4  11  23  44  67  99 136 178 227 273 338 410
#     4  12  26  42  67 100 132 181 236 279 337 403
#     4  10  23  44  70 100 136 178 220 284 339 412
#     4  10  23  42  72 100 138 178 220 280 345 400
#
# _framework density 21.547502000000001
#
# number of rings (size 3 to 8) (size 9 to 14) (size 15 to 20)
#    0.000    0.667    4.167    3.000    5.833    0.000 
#    3.000    0.833    0.000    0.000    0.000    0.000 
#    0.000    0.000    0.000    0.000    0.000    0.000 
#
# Total GULP energy -297417.829317 kJ/mol
# GULP energy per Si atom -12392.409555 kJ/mol
# Density = 2.149846 g / cm^3
# Si number density = 21.547502 Si / 1000 Ang^3
#
#
#
# Elastic Constant Matrix: (Units=GPa)
#
#
# Indices 1 2 3 4 5 6 
#
# 1 132.6464 51.6984 34.5439 0.0000 0.0000 0.0000
# 2 51.6984 119.1257 38.7985 0.0000 0.0000 0.0000
# 3 34.5439 38.7985 90.9150 0.0000 0.0000 0.0000
# 4 0.0000 0.0000 0.0000 23.3497 0.0000 0.0000
# 5 0.0000 0.0000 0.0000 0.0000 43.0763 0.0000
# 6 0.0000 0.0000 0.0000 0.0000 0.0000 30.7464
#
#
#
# Elastic Compliance Matrix: (Units=1/GPa)
#
#
# Indices 1 2 3 4 5 6 
#
# 1 0.009416 -0.003393 -0.002130 0.000000 0.000000 0.000000
# 2 -0.003393 0.010972 -0.003393 0.000000 0.000000 0.000000
# 3 -0.002130 -0.003393 0.013257 0.000000 0.000000 0.000000
# 4 0.000000 0.000000 0.000000 0.042827 0.000000 0.000000
# 5 0.000000 0.000000 0.000000 0.000000 0.023215 0.000000
# 6 0.000000 0.000000 0.000000 0.000000 0.000000 0.032524
#
#
# Mechanical properties :
#
#
# Convention : Reuss Voigt Hill
#
# Bulk Modulus (GPa) = 63.23921 65.86320 64.55120
# Shear Modulus (GPa) = 32.19314 33.94423 33.06869
#
# Velocity S-wave (km/s) = 3.86949 3.97334 3.92176
# Velocity P-wave (km/s) = 7.02684 7.18907 7.10842
#
# Compressibility (1/GPa) = 0.01581298
#
# Stress axis : x y z
#
# Youngs Moduli (GPa) = 106.20522 91.14098 75.43395
#
# Poissons Ratio (x) = 0.30921 0.16066
# Poissons Ratio (y) = 0.36031 0.25597
# Poissons Ratio (z) = 0.22619 0.30927
#
# Static dielectric constant tensor:
#      x y z
#    x 3.650250 0.000000 0.000000 
#    y 0.000000 3.606290 0.000000 
#    z 0.000000 0.000000 4.248740 
# 
# 
# High freq. dielectric constant tensor:
#      x y z
#    x 1.865160 0.000000 0.000000 
#    y 0.000000 1.824430 0.000000 
#    z 0.000000 0.000000 1.859360 
# 
# From -- ./inp_files/6560.got.cif
#   From: 2010.03.12/outbox.cif.g09.slc.cpg/sg20_4_cif.got.tgz:6560.got - 2010.04.14 01:38:04.
