data_PCOD8159618
_publ_section_title
;
Structure prediction by ZEFSAII (Michael W. Deem and Ramdas Pophale) SiO2 
 PCOD8159618
Probable space group: C 2 2 21
;
_chemical_formula_sum "Si O2"
_cell_formula_units_Z 56
_cell_length_a 23.445948
_cell_length_b 8.169926
_cell_length_c 13.871510
_cell_angle_alpha 90.000000
_cell_angle_beta 90.000000
_cell_angle_gamma 90.000000
_cell_volume 2657.110769
_symmetry_space_group_name_H-M "C 2 2 21"
_symmetry_group_IT_number 20
_symmetry_cell_setting 'orthorhombic'
loop_
_space_group_symop_operation_xyz
x,y,z
-x,-y,1/2+z
x,-y,-z
-x,y,1/2-z
1/2+x,1/2+y,z
1/2-x,1/2-y,1/2+z
1/2+x,1/2-y,-z
1/2-x,1/2+y,1/2-z
loop_
_atom_site_type_symbol
_atom_site_label
_atom_site_fract_x
_atom_site_fract_y
_atom_site_fract_z
Si Si1 0.961707 0.175038 0.047459
Si Si2 0.288025 0.675534 0.836224
Si Si3 0.105039 0.337413 0.286336
Si Si4 0.201517 0.307193 0.011843
Si Si5 0.115554 0.383260 0.578785
Si Si6 0.726941 0.294709 0.666333
Si Si7 0.919750 0.668276 0.559050
O O1 0.932040 0.200684 0.153829
O O2 0.029248 0.202981 0.052151
O O3 0.939047 0.309765 0.973969
O O4 0.948265 0.000000 0.000000
O O5 0.343744 0.736047 0.890784
O O6 0.293118 0.481134 0.831991
O O7 0.281862 0.761321 0.733458
O O8 0.229748 0.734416 0.886560
O O9 0.091805 0.516222 0.330032
O O10 0.172525 0.312481 0.304778
O O11 0.090637 0.354713 0.173878
O O12 0.245861 0.235706 0.934295
O O13 0.196643 0.500000 0.000000
O O14 0.136244 0.242456 0.012482
O O15 0.147149 0.500000 0.500000
O O16 0.932631 0.500000 0.500000
#
# Coordination Sequence:
#
# PCOD8159618 Si02
#       7
#     8   8   8   8   8   8   8
#     4  11  24  45  66  96 130 167 219 277 334 394
#     4  11  21  37  61  95 129 166 214 260 325 393
#     4  11  22  43  69  97 127 175 220 274 328 393
#     4   9  20  37  60  87 126 172 206 262 324 382
#     4  10  22  39  67  94 121 165 223 268 321 394
#     4  11  22  38  62  95 132 169 212 264 325 394
#     4  11  23  43  67  92 130 175 220 270 329 390
#
# _framework density 21.075523
#
# number of rings (size 3 to 8) (size 9 to 14) (size 15 to 20)
#    0.000    1.429    1.429    5.143    4.000    1.143 
#    2.571    3.571    0.000    0.000    0.000    0.000 
#    0.000    0.000    0.000    0.000    0.000    0.000 
#
# Total GULP energy -346950.751575 kJ/mol
# GULP energy per Si atom -12391.098271 kJ/mol
# Density = 2.102755 g / cm^3
# Si number density = 21.075523 Si / 1000 Ang^3
#
#
#
# Elastic Constant Matrix: (Units=GPa)
#
#
# Indices 1 2 3 4 5 6 
#
# 1 102.1908 16.2641 39.3190 0.0000 0.0000 0.0000
# 2 16.2641 70.2918 50.3798 0.0000 0.0000 0.0000
# 3 39.3190 50.3798 128.0340 0.0000 0.0000 0.0000
# 4 0.0000 0.0000 0.0000 26.0295 0.0000 0.0000
# 5 0.0000 0.0000 0.0000 0.0000 33.1256 0.0000
# 6 0.0000 0.0000 0.0000 0.0000 0.0000 -56.5720
#
#
#
# Elastic Compliance Matrix: (Units=1/GPa)
#
#
# Indices 1 2 3 4 5 6 
#
# 1 0.011098 -0.000174 -0.003340 0.000000 0.000000 0.000000
# 2 -0.000174 0.019817 -0.007744 0.000000 0.000000 0.000000
# 3 -0.003340 -0.007744 0.011883 0.000000 0.000000 0.000000
# 4 0.000000 0.000000 0.000000 0.038418 0.000000 0.000000
# 5 0.000000 0.000000 0.000000 0.000000 0.030188 0.000000
# 6 0.000000 0.000000 0.000000 0.000000 0.000000 -0.017677
#
#
# Mechanical properties :
#
#
# Convention : Reuss Voigt Hill
#
# Bulk Modulus (GPa) = 49.30400 56.93803 53.12101
# Shear Modulus (GPa) = 40.64845 13.48686 27.06765
#
# Velocity S-wave (km/s) = 4.39647 2.53243 3.58762
# Velocity P-wave (km/s) = 7.01546 5.96873 6.51316
#
# Compressibility (1/GPa) = 0.02028233
#
# Stress axis : x y z
#
# Youngs Moduli (GPa) = 90.10351 50.46100 84.15138
#
# Poissons Ratio (x) = 0.00879 0.28104
# Poissons Ratio (y) = 0.01570 0.65170
# Poissons Ratio (z) = 0.30092 0.39079
#
# Static dielectric constant tensor:
#      x y z
#    x 3.934690 0.000000 0.000000 
#    y 0.000000 3.702460 0.000000 
#    z 0.000000 0.000000 4.195330 
# 
# 
# High freq. dielectric constant tensor:
#      x y z
#    x 1.830380 0.000000 0.000000 
#    y 0.000000 1.804940 0.000000 
#    z 0.000000 0.000000 1.838860 
# 
# From -- ./inp_files/21785.got.cif
#   From: 2010.03.12/outbox.cif.g09.slc.cpg/sg20_11_cif.got.tgz:21785.got - 2010.04.14 01:38:04.
