data_PCOD8159433
_publ_section_title
;
Structure prediction by ZEFSAII (Michael W. Deem and Ramdas Pophale) SiO2 
 PCOD8159433
Probable space group: C 2 2 21
;
_chemical_formula_sum "Si O2"
_cell_formula_units_Z 64
_cell_length_a 9.526271
_cell_length_b 11.105918
_cell_length_c 29.800631
_cell_angle_alpha 90.000000
_cell_angle_beta 90.000000
_cell_angle_gamma 90.000000
_cell_volume 3152.846699
_symmetry_space_group_name_H-M "C 2 2 21"
_symmetry_group_IT_number 20
_symmetry_cell_setting 'orthorhombic'
loop_
_space_group_symop_operation_xyz
x,y,z
-x,-y,1/2+z
x,-y,-z
-x,y,1/2-z
1/2+x,1/2+y,z
1/2-x,1/2-y,1/2+z
1/2+x,1/2-y,-z
1/2-x,1/2+y,1/2-z
loop_
_atom_site_type_symbol
_atom_site_label
_atom_site_fract_x
_atom_site_fract_y
_atom_site_fract_z
Si Si1 0.677873 0.516882 0.795891
Si Si2 0.484404 0.023929 0.069476
Si Si3 0.755387 0.137485 0.380015
Si Si4 0.906044 0.678070 0.992078
Si Si5 0.066553 0.312078 0.298955
Si Si6 0.386591 0.379907 0.528524
Si Si7 0.169033 0.403077 0.135743
Si Si8 0.124643 0.962223 0.698522
O O1 0.707600 0.412325 0.831390
O O2 0.776914 0.632528 0.802151
O O3 0.703680 0.462293 0.746388
O O4 0.512514 0.549710 0.800611
O O5 0.628223 0.973018 0.090047
O O6 0.399093 0.090319 0.108600
O O7 0.510545 0.118281 0.029143
O O8 0.393949 0.911073 0.050470
O O9 0.865990 0.093444 0.418368
O O10 0.751196 0.281675 0.377453
O O11 0.750750 0.695137 0.012582
O O12 0.971164 0.804810 0.977734
O O13 0.000000 0.329801 0.250000
O O14 0.969683 0.377612 0.335251
O O15 0.076102 0.172962 0.312339
O O16 0.403149 0.500000 0.500000
O O17 0.271971 0.492563 0.160821
#
# Coordination Sequence:
#
# PCOD8159433 Si02
#       8
#     8   8   8   8   8   8   8   8
#     4  11  23  42  64  92 134 165 214 270 324 378
#     4  10  21  42  66  93 132 167 215 266 327 384
#     4  11  21  41  69  93 129 169 213 274 319 387
#     4  10  21  44  66  92 132 173 210 268 324 393
#     4  12  22  43  68  88 127 179 211 261 331 387
#     4  11  22  44  68  94 131 174 214 265 333 385
#     4  12  23  41  68  94 127 172 216 266 325 385
#     4  11  25  43  62  98 130 170 218 272 317 386
#
# _framework density 20.299116000000001
#
# number of rings (size 3 to 8) (size 9 to 14) (size 15 to 20)
#    0.000    1.000    8.750    0.000    0.000    1.000 
#   13.500    0.000    0.000    0.000    0.000    0.000 
#    0.000    0.000    0.000    0.000    0.000    0.000 
#
# Total GULP energy -396777.020642 kJ/mol
# GULP energy per Si atom -12399.281895 kJ/mol
# Density = 2.025291 g / cm^3
# Si number density = 20.299116 Si / 1000 Ang^3
#
#
#
# Elastic Constant Matrix: (Units=GPa)
#
#
# Indices 1 2 3 4 5 6 
#
# 1 83.1916 39.2682 19.2602 0.0000 0.0000 0.0000
# 2 39.2682 83.4599 21.7684 0.0000 0.0000 0.0000
# 3 19.2602 21.7684 67.3281 0.0000 0.0000 0.0000
# 4 0.0000 0.0000 0.0000 29.1780 0.0000 0.0000
# 5 0.0000 0.0000 0.0000 0.0000 25.2125 0.0000
# 6 0.0000 0.0000 0.0000 0.0000 0.0000 36.3685
#
#
#
# Elastic Compliance Matrix: (Units=1/GPa)
#
#
# Indices 1 2 3 4 5 6 
#
# 1 0.015774 -0.006820 -0.002307 0.000000 0.000000 0.000000
# 2 -0.006820 0.016034 -0.003233 0.000000 0.000000 0.000000
# 3 -0.002307 -0.003233 0.016558 0.000000 0.000000 0.000000
# 4 0.000000 0.000000 0.000000 0.034272 0.000000 0.000000
# 5 0.000000 0.000000 0.000000 0.000000 0.039663 0.000000
# 6 0.000000 0.000000 0.000000 0.000000 0.000000 0.027496
#
#
# Mechanical properties :
#
#
# Convention : Reuss Voigt Hill
#
# Bulk Modulus (GPa) = 42.29215 43.84146 43.06680
# Shear Modulus (GPa) = 27.41238 28.39732 27.90485
#
# Velocity S-wave (km/s) = 3.67880 3.74430 3.71169
# Velocity P-wave (km/s) = 6.23894 6.35119 6.29532
#
# Compressibility (1/GPa) = 0.02364505
#
# Stress axis : x y z
#
# Youngs Moduli (GPa) = 63.39660 62.36815 60.39370
#
# Poissons Ratio (x) = 0.42534 0.13935
# Poissons Ratio (y) = 0.43235 0.19526
# Poissons Ratio (z) = 0.14628 0.20165
#
# Static dielectric constant tensor:
#      x y z
#    x 3.637490 0.000000 0.000000 
#    y 0.000000 3.536250 0.000000 
#    z 0.000000 0.000000 3.896860 
# 
# 
# High freq. dielectric constant tensor:
#      x y z
#    x 1.779380 0.000000 0.000000 
#    y 0.000000 1.782330 0.000000 
#    z 0.000000 0.000000 1.808910 
# 
# From -- ./inp_files/31093.got.cif
#   From: 2010.03.12/outbox.cif.g09.slc.cpg/sg20_16_cif.got.tgz:31093.got - 2010.04.14 01:38:04.
