data_PCOD8159284
_publ_section_title
;
Structure prediction by ZEFSAII (Michael W. Deem and Ramdas Pophale) SiO2 
 PCOD8159284
Probable space group: C 2 2 21
;
_chemical_formula_sum "Si O2"
_cell_formula_units_Z 64
_cell_length_a 6.411457
_cell_length_b 26.070553
_cell_length_c 17.844381
_cell_angle_alpha 90.000000
_cell_angle_beta 90.000000
_cell_angle_gamma 90.000000
_cell_volume 2982.692380
_symmetry_space_group_name_H-M "C 2 2 21"
_symmetry_group_IT_number 20
_symmetry_cell_setting 'orthorhombic'
loop_
_space_group_symop_operation_xyz
x,y,z
-x,-y,1/2+z
x,-y,-z
-x,y,1/2-z
1/2+x,1/2+y,z
1/2-x,1/2-y,1/2+z
1/2+x,1/2-y,-z
1/2-x,1/2+y,1/2-z
loop_
_atom_site_type_symbol
_atom_site_label
_atom_site_fract_x
_atom_site_fract_y
_atom_site_fract_z
Si Si1 0.408569 0.639457 0.324327
Si Si2 0.620628 0.952817 0.678010
Si Si3 0.158390 0.887134 0.428376
Si Si4 0.531128 0.821735 0.161448
Si Si5 0.647612 0.296796 0.065520
Si Si6 0.564319 0.510591 0.914710
Si Si7 0.260485 0.580634 0.088075
Si Si8 0.290018 0.230036 0.096998
O O1 0.500000 0.666687 0.250000
O O2 0.294083 0.587958 0.296070
O O3 0.598266 0.626912 0.380393
O O4 0.238572 0.675104 0.364682
O O5 0.500000 0.975091 0.750000
O O6 0.466558 0.921763 0.623790
O O7 0.732650 0.999937 0.636199
O O8 0.325289 0.869206 0.366081
O O9 0.278659 0.909971 0.500085
O O10 0.022438 0.839282 0.456723
O O11 0.007609 0.931611 0.396515
O O12 0.500000 0.825819 0.250000
O O13 0.306985 0.823879 0.121965
O O14 0.628985 0.767819 0.137282
O O15 0.526762 0.250175 0.107850
O O16 0.756181 0.274106 0.992088
O O17 0.373306 0.473207 0.895327
O O18 0.633997 0.500000 0.000000
#
# Coordination Sequence:
#
# PCOD8159284 Si02
#       8
#     8   8   8   8   8   8   8   8
#     4  11  22  39  62  99 141 169 216 273 338 401
#     4  11  23  39  66 100 140 177 211 278 347 408
#     4  10  23  43  71  94 127 181 230 282 325 401
#     4  11  26  46  66  95 138 171 226 292 337 394
#     4  11  23  42  69  96 129 172 235 273 333 399
#     4   9  22  42  65  95 132 174 229 283 332 402
#     4  10  21  39  65  96 134 172 224 275 334 403
#     4  11  23  40  68  98 128 181 218 274 332 404
#
# _framework density 21.457125000000001
#
# number of rings (size 3 to 8) (size 9 to 14) (size 15 to 20)
#    0.000    1.500    3.750    0.375    1.750    5.500 
#    2.250    3.750    0.000    0.000    0.000    0.000 
#    0.000    0.000    0.000    0.000    0.000    0.000 
#
# Total GULP energy -396871.482986 kJ/mol
# GULP energy per Si atom -12402.233843 kJ/mol
# Density = 2.140829 g / cm^3
# Si number density = 21.457125 Si / 1000 Ang^3
#
#
#
# Elastic Constant Matrix: (Units=GPa)
#
#
# Indices 1 2 3 4 5 6 
#
# 1 108.7832 41.0558 60.2683 0.0000 0.0000 0.0000
# 2 41.0558 100.3365 43.7229 0.0000 0.0000 0.0000
# 3 60.2683 43.7229 139.5009 0.0000 0.0000 0.0000
# 4 0.0000 0.0000 0.0000 26.1855 0.0000 0.0000
# 5 0.0000 0.0000 0.0000 0.0000 37.8207 0.0000
# 6 0.0000 0.0000 0.0000 0.0000 0.0000 34.4749
#
#
#
# Elastic Compliance Matrix: (Units=1/GPa)
#
#
# Indices 1 2 3 4 5 6 
#
# 1 0.012975 -0.003320 -0.004565 0.000000 0.000000 0.000000
# 2 -0.003320 0.012392 -0.002450 0.000000 0.000000 0.000000
# 3 -0.004565 -0.002450 0.009908 0.000000 0.000000 0.000000
# 4 0.000000 0.000000 0.000000 0.038189 0.000000 0.000000
# 5 0.000000 0.000000 0.000000 0.000000 0.026441 0.000000
# 6 0.000000 0.000000 0.000000 0.000000 0.000000 0.029007
#
#
# Mechanical properties :
#
#
# Convention : Reuss Voigt Hill
#
# Bulk Modulus (GPa) = 68.46309 70.96827 69.71568
# Shear Modulus (GPa) = 32.37307 33.26778 32.82043
#
# Velocity S-wave (km/s) = 3.88845 3.94182 3.91523
# Velocity P-wave (km/s) = 7.22055 7.33918 7.28010
#
# Compressibility (1/GPa) = 0.01460641
#
# Stress axis : x y z
#
# Youngs Moduli (GPa) = 77.07404 80.69468 100.92437
#
# Poissons Ratio (x) = 0.26788 0.46071
# Poissons Ratio (y) = 0.25587 0.24725
# Poissons Ratio (z) = 0.35183 0.19769
#
# Static dielectric constant tensor:
#      x y z
#    x 3.836230 0.000000 0.000000 
#    y 0.000000 3.771130 0.000000 
#    z 0.000000 0.000000 3.757930 
# 
# 
# High freq. dielectric constant tensor:
#      x y z
#    x 1.845130 0.000000 0.000000 
#    y 0.000000 1.835620 0.000000 
#    z 0.000000 0.000000 1.838550 
# 
# From -- ./inp_files/23010.got.cif
#   From: 2010.03.12/outbox.cif.g09.slc.cpg/sg20_12_cif.got.tgz:23010.got - 2010.04.14 01:38:04.
