data_PCOD8159656
_publ_section_title
;
Structure prediction by ZEFSAII (Michael W. Deem and Ramdas Pophale) SiO2 
 PCOD8159656
Probable space group: C 2 2 21
;
_chemical_formula_sum "Si O2"
_cell_formula_units_Z 32
_cell_length_a 10.750437
_cell_length_b 13.216716
_cell_length_c 9.178792
_cell_angle_alpha 90.000000
_cell_angle_beta 90.000000
_cell_angle_gamma 90.000000
_cell_volume 1304.173000
_symmetry_space_group_name_H-M "C 2 2 21"
_symmetry_group_IT_number 20
_symmetry_cell_setting 'orthorhombic'
loop_
_space_group_symop_operation_xyz
x,y,z
-x,-y,1/2+z
x,-y,-z
-x,y,1/2-z
1/2+x,1/2+y,z
1/2-x,1/2-y,1/2+z
1/2+x,1/2-y,-z
1/2-x,1/2+y,1/2-z
loop_
_atom_site_type_symbol
_atom_site_label
_atom_site_fract_x
_atom_site_fract_y
_atom_site_fract_z
Si Si1 0.885800 0.807629 0.359465
Si Si2 0.964433 0.908154 0.909999
Si Si3 0.385800 0.807629 0.140535
Si Si4 0.535567 0.908154 0.909999
O O1 0.750000 0.839079 0.295667
O O2 0.875135 0.688906 0.400469
O O3 0.000000 0.826777 0.250000
O O4 0.910133 0.873043 0.504877
O O5 0.875135 0.811094 0.900469
O O6 0.000000 0.949122 0.750000
O O7 0.900458 0.000000 0.000000
O O8 0.500000 0.826776 0.250000
O O9 0.410134 0.873044 0.995123
O O10 0.500000 0.949122 0.750000
O O11 0.599542 0.000000 0.000000
#
# Coordination Sequence:
#
# PCOD8159656 Si02
#       4
#     8   8   8   8
#     4  10  23  44  68  95 128 167 214 266 318 376
#     4  10  22  40  64  96 130 167 211 262 318 378
#     4  10  23  44  68  95 128 167 214 266 318 376
#     4  10  22  40  64  96 130 167 211 262 318 378
#
# _framework density 24.536622000000001
#
# number of rings (size 3 to 8) (size 9 to 14) (size 15 to 20)
#    0.000    2.000    0.000    1.500    0.000   22.000 
#    0.000   10.000    0.000    0.000    0.000    0.000 
#    0.000    0.000    0.000    0.000    0.000    0.000 
#
# Total GULP energy -198244.646388 kJ/mol
# GULP energy per Si atom -12390.290399 kJ/mol
# Density = 2.448078 g / cm^3
# Si number density = 24.536622 Si / 1000 Ang^3
#
#
#
# Elastic Constant Matrix: (Units=GPa)
#
#
# Indices 1 2 3 4 5 6 
#
# 1 196.0319 2.4005 63.7120 0.0000 0.0000 0.0000
# 2 2.4005 81.1406 51.5353 0.0000 0.0000 0.0000
# 3 63.7120 51.5353 180.7646 0.0000 0.0000 0.0000
# 4 0.0000 0.0000 0.0000 44.7114 0.0000 0.0000
# 5 0.0000 0.0000 0.0000 0.0000 27.3589 0.0000
# 6 0.0000 0.0000 0.0000 0.0000 0.0000 -5.0825
#
#
#
# Elastic Compliance Matrix: (Units=1/GPa)
#
#
# Indices 1 2 3 4 5 6 
#
# 1 0.005888 0.001397 -0.002474 0.000000 0.000000 0.000000
# 2 0.001397 0.015381 -0.004877 0.000000 0.000000 0.000000
# 3 -0.002474 -0.004877 0.007794 0.000000 0.000000 0.000000
# 4 0.000000 0.000000 0.000000 0.022366 0.000000 0.000000
# 5 0.000000 0.000000 0.000000 0.000000 0.036551 0.000000
# 6 0.000000 0.000000 0.000000 0.000000 0.000000 -0.196755
#
#
# Mechanical properties :
#
#
# Convention : Reuss Voigt Hill
#
# Bulk Modulus (GPa) = 58.29166 77.02585 67.65875
# Shear Modulus (GPa) = -54.85564 36.08351 -9.38607
#
# Velocity S-wave (km/s) = -4.73341 3.83900 -1.95797
# Velocity P-wave (km/s) = 2.46272 7.14919 4.74584
#
# Compressibility (1/GPa) = 0.01715511
#
# Stress axis : x y z
#
# Youngs Moduli (GPa) = 169.83645 65.01648 128.29777
#
# Poissons Ratio (x) = -0.09082 0.31735
# Poissons Ratio (y) = -0.23723 0.62575
# Poissons Ratio (z) = 0.42009 0.31711
#
# Static dielectric constant tensor:
#      x y z
#    x 3.781730 0.000000 0.000000 
#    y 0.000000 4.622580 0.000000 
#    z 0.000000 0.000000 4.570200 
# 
# 
# High freq. dielectric constant tensor:
#      x y z
#    x 1.929940 0.000000 0.000000 
#    y 0.000000 1.989360 0.000000 
#    z 0.000000 0.000000 1.981640 
# 
# From -- ./inp_files/6884.got.cif
#   From: 2010.03.12/outbox.cif.g09.slc.cpg/sg20_4_cif.got.tgz:6884.got - 2010.04.14 01:38:04.
