data_PCOD8159783
_publ_section_title
;
Structure prediction by ZEFSAII (Michael W. Deem and Ramdas Pophale) SiO2 
 PCOD8159783
Probable space group: C 2 2 21
;
_chemical_formula_sum "Si O2"
_cell_formula_units_Z 32
_cell_length_a 10.435512
_cell_length_b 14.911396
_cell_length_c 7.722943
_cell_angle_alpha 90.000000
_cell_angle_beta 90.000000
_cell_angle_gamma 90.000000
_cell_volume 1201.752115
_symmetry_space_group_name_H-M "C 2 2 21"
_symmetry_group_IT_number 20
_symmetry_cell_setting 'orthorhombic'
loop_
_space_group_symop_operation_xyz
x,y,z
-x,-y,1/2+z
x,-y,-z
-x,y,1/2-z
1/2+x,1/2+y,z
1/2-x,1/2-y,1/2+z
1/2+x,1/2-y,-z
1/2-x,1/2+y,1/2-z
loop_
_atom_site_type_symbol
_atom_site_label
_atom_site_fract_x
_atom_site_fract_y
_atom_site_fract_z
Si Si1 0.363174 0.474921 0.699467
Si Si2 0.574034 0.089750 0.573873
Si Si3 0.715288 0.664574 0.715089
Si Si4 0.348029 0.157693 0.358799
O O1 0.363737 0.500000 0.500000
O O2 0.500000 0.428981 0.750000
O O3 0.356453 0.569267 0.804629
O O4 0.243406 0.410801 0.752081
O O5 0.500000 0.065721 0.750000
O O6 0.683332 0.160361 0.624320
O O7 0.488214 0.119815 0.409909
O O8 0.641849 0.000000 0.500000
O O9 0.626913 0.750364 0.753362
O O10 0.785199 0.684638 0.538149
#
# Coordination Sequence:
#
# PCOD8159783 Si02
#       4
#     8   8   8   8
#     4  12  26  47  72 102 141 184 229 286 350 417
#     4  10  22  42  68  97 139 185 234 289 342 406
#     4  11  24  43  67 102 140 186 234 284 343 408
#     4  11  24  44  70 103 140 183 234 285 345 411
#
# _framework density 26.627789
#
# number of rings (size 3 to 8) (size 9 to 14) (size 15 to 20)
#    0.000    1.000    0.000    7.500    0.000    9.000 
#    0.000    0.000    0.000    0.000    0.000    0.000 
#    0.000    0.000    0.000    0.000    0.000    0.000 
#
# Total GULP energy -198288.011990 kJ/mol
# GULP energy per Si atom -12393.000749 kJ/mol
# Density = 2.656718 g / cm^3
# Si number density = 26.627789 Si / 1000 Ang^3
#
#
#
# Elastic Constant Matrix: (Units=GPa)
#
#
# Indices 1 2 3 4 5 6 
#
# 1 133.5617 24.7670 3.4167 0.0000 0.0000 0.0000
# 2 24.7670 149.8085 23.8566 0.0000 0.0000 0.0000
# 3 3.4167 23.8566 87.1695 0.0000 0.0000 0.0000
# 4 0.0000 0.0000 0.0000 36.6968 0.0000 0.0000
# 5 0.0000 0.0000 0.0000 0.0000 36.9158 0.0000
# 6 0.0000 0.0000 0.0000 0.0000 0.0000 31.7995
#
#
#
# Elastic Compliance Matrix: (Units=1/GPa)
#
#
# Indices 1 2 3 4 5 6 
#
# 1 0.007724 -0.001285 0.000049 0.000000 0.000000 0.000000
# 2 -0.001285 0.007193 -0.001918 0.000000 0.000000 0.000000
# 3 0.000049 -0.001918 0.011995 0.000000 0.000000 0.000000
# 4 0.000000 0.000000 0.000000 0.027250 0.000000 0.000000
# 5 0.000000 0.000000 0.000000 0.000000 0.027089 0.000000
# 6 0.000000 0.000000 0.000000 0.000000 0.000000 0.031447
#
#
# Mechanical properties :
#
#
# Convention : Reuss Voigt Hill
#
# Bulk Modulus (GPa) = 48.53452 52.73559 50.63506
# Shear Modulus (GPa) = 39.72208 42.31571 41.01889
#
# Velocity S-wave (km/s) = 3.86651 3.99075 3.92912
# Velocity P-wave (km/s) = 6.18060 6.40956 6.29612
#
# Compressibility (1/GPa) = 0.02060389
#
# Stress axis : x y z
#
# Youngs Moduli (GPa) = 129.46375 139.02273 83.36828
#
# Poissons Ratio (x) = 0.17861 -0.00407
# Poissons Ratio (y) = 0.16633 0.15992
# Poissons Ratio (z) = -0.00633 0.26668
#
# Static dielectric constant tensor:
#      x y z
#    x 5.143520 0.000000 0.000000 
#    y 0.000000 4.709700 0.000000 
#    z 0.000000 0.000000 5.251750 
# 
# 
# High freq. dielectric constant tensor:
#      x y z
#    x 2.078330 0.000000 0.000000 
#    y 0.000000 2.056920 0.000000 
#    z 0.000000 0.000000 2.108290 
# 
# From -- ./inp_files/6791.got.cif
#   From: 2010.03.12/outbox.cif.g09.slc.cpg/sg20_4_cif.got.tgz:6791.got - 2010.04.14 01:38:04.
