data_PCOD8159562
_publ_section_title
;
Structure prediction by ZEFSAII (Michael W. Deem and Ramdas Pophale) SiO2 
 PCOD8159562
Probable space group: C 2 2 21
;
_chemical_formula_sum "Si O2"
_cell_formula_units_Z 60
_cell_length_a 11.484162
_cell_length_b 8.516665
_cell_length_c 27.097568
_cell_angle_alpha 90.000000
_cell_angle_beta 90.000000
_cell_angle_gamma 90.000000
_cell_volume 2650.325345
_symmetry_space_group_name_H-M "C 2 2 21"
_symmetry_group_IT_number 20
_symmetry_cell_setting 'orthorhombic'
loop_
_space_group_symop_operation_xyz
x,y,z
-x,-y,1/2+z
x,-y,-z
-x,y,1/2-z
1/2+x,1/2+y,z
1/2-x,1/2-y,1/2+z
1/2+x,1/2-y,-z
1/2-x,1/2+y,1/2-z
loop_
_atom_site_type_symbol
_atom_site_label
_atom_site_fract_x
_atom_site_fract_y
_atom_site_fract_z
Si Si1 0.073417 0.158295 0.359587
Si Si2 0.417029 0.424638 0.553578
Si Si3 0.495181 0.112383 0.092066
Si Si4 0.500000 0.119966 0.250000
Si Si5 0.107523 0.595760 0.828421
Si Si6 0.794554 0.622045 0.921041
Si Si7 0.672178 0.175435 0.009055
Si Si8 0.869889 0.823821 0.169899
O O1 0.186094 0.267680 0.372531
O O2 0.029387 0.097087 0.412884
O O3 0.983926 0.262338 0.328951
O O4 0.102468 0.009043 0.326056
O O5 0.444117 0.500000 0.500000
O O6 0.323244 0.522135 0.585832
O O7 0.365660 0.250415 0.543069
O O8 0.565390 0.192312 0.047801
O O9 0.424068 0.247454 0.120687
O O10 0.588926 0.021764 0.125784
O O11 0.405162 0.987687 0.069696
O O12 0.419848 0.230453 0.216394
O O13 0.411097 0.007992 0.279498
O O14 0.230549 0.684451 0.830334
O O15 0.782453 0.728537 0.970085
O O16 0.712896 0.000000 0.000000
#
# Coordination Sequence:
#
# PCOD8159562 Si02
#       8
#     8   8   8   4   8   8   8   8
#     4  11  23  40  65  92 121 169 216 255 311 380
#     4  10  22  38  57  88 126 162 208 262 308 356
#     4  10  22  42  63  90 128 167 212 265 316 373
#     4  10  26  44  64 100 130 156 200 262 324 388
#     4  10  23  44  65  92 130 165 203 259 324 387
#     4  10  22  38  56  83 121 163 205 256 311 355
#     4  11  22  37  60  90 126 170 220 265 309 365
#     4  11  23  42  72  97 122 163 209 255 318 390
#
# _framework density 22.638729999999999
#
# number of rings (size 3 to 8) (size 9 to 14) (size 15 to 20)
#    0.000    1.600    0.000    4.800    0.000   10.133 
#    0.000    4.000    0.000    0.000    0.000    0.000 
#    0.000    0.000    0.000    0.000    0.000    0.000 
#
# Total GULP energy -371974.508400 kJ/mol
# GULP energy per Si atom -12399.150280 kJ/mol
# Density = 2.258720 g / cm^3
# Si number density = 22.638730 Si / 1000 Ang^3
#
#
#
# Elastic Constant Matrix: (Units=GPa)
#
#
# Indices 1 2 3 4 5 6 
#
# 1 82.7200 34.3581 38.2525 0.0000 0.0000 0.0000
# 2 34.3581 134.6882 45.2856 0.0000 0.0000 0.0000
# 3 38.2525 45.2856 74.8943 0.0000 0.0000 0.0000
# 4 0.0000 0.0000 0.0000 41.4085 0.0000 0.0000
# 5 0.0000 0.0000 0.0000 0.0000 24.4598 0.0000
# 6 0.0000 0.0000 0.0000 0.0000 0.0000 40.9654
#
#
#
# Elastic Compliance Matrix: (Units=1/GPa)
#
#
# Indices 1 2 3 4 5 6 
#
# 1 0.016127 -0.001688 -0.007217 0.000000 0.000000 0.000000
# 2 -0.001688 0.009496 -0.004880 0.000000 0.000000 0.000000
# 3 -0.007217 -0.004880 0.019989 0.000000 0.000000 0.000000
# 4 0.000000 0.000000 0.000000 0.024150 0.000000 0.000000
# 5 0.000000 0.000000 0.000000 0.000000 0.040883 0.000000
# 6 0.000000 0.000000 0.000000 0.000000 0.000000 0.024411
#
#
# Mechanical properties :
#
#
# Convention : Reuss Voigt Hill
#
# Bulk Modulus (GPa) = 55.42101 58.67722 57.04912
# Shear Modulus (GPa) = 29.64935 32.99381 31.32158
#
# Velocity S-wave (km/s) = 3.62287 3.82174 3.72363
# Velocity P-wave (km/s) = 6.48336 6.74162 6.61375
#
# Compressibility (1/GPa) = 0.01804370
#
# Stress axis : x y z
#
# Youngs Moduli (GPa) = 62.00750 105.31040 50.02835
#
# Poissons Ratio (x) = 0.17771 0.36103
# Poissons Ratio (y) = 0.10464 0.24413
# Poissons Ratio (z) = 0.44748 0.51389
#
# Static dielectric constant tensor:
#      x y z
#    x 3.938360 0.000000 0.000000 
#    y 0.000000 4.500080 0.000000 
#    z 0.000000 0.000000 3.884230 
# 
# 
# High freq. dielectric constant tensor:
#      x y z
#    x 1.886600 0.000000 0.000000 
#    y 0.000000 1.923790 0.000000 
#    z 0.000000 0.000000 1.865920 
# 
# From -- ./inp_files/31185.got.cif
#   From: 2010.03.12/outbox.cif.g09.slc.cpg/sg20_16_cif.got.tgz:31185.got - 2010.04.14 01:38:04.
