data_PCOD8159848
_publ_section_title
;
Structure prediction by ZEFSAII (Michael W. Deem and Ramdas Pophale) SiO2 
 PCOD8159848
Probable space group: C 2 2 21
;
_chemical_formula_sum "Si O2"
_cell_formula_units_Z 40
_cell_length_a 18.183726
_cell_length_b 9.573522
_cell_length_c 10.891538
_cell_angle_alpha 90.000000
_cell_angle_beta 90.000000
_cell_angle_gamma 90.000000
_cell_volume 1896.023995
_symmetry_space_group_name_H-M "C 2 2 21"
_symmetry_group_IT_number 20
_symmetry_cell_setting 'orthorhombic'
loop_
_space_group_symop_operation_xyz
x,y,z
-x,-y,1/2+z
x,-y,-z
-x,y,1/2-z
1/2+x,1/2+y,z
1/2-x,1/2-y,1/2+z
1/2+x,1/2-y,-z
1/2-x,1/2+y,1/2-z
loop_
_atom_site_type_symbol
_atom_site_label
_atom_site_fract_x
_atom_site_fract_y
_atom_site_fract_z
Si Si1 0.113302 0.847704 0.529989
Si Si2 0.324331 0.612012 0.276623
Si Si3 0.380023 0.000000 0.500000
Si Si4 0.015577 0.737458 0.106946
Si Si5 0.748607 0.366243 0.362939
Si Si6 0.591984 0.500000 0.000000
O O1 0.116879 0.828130 0.677284
O O2 0.197529 0.840775 0.481780
O O3 0.061421 0.729531 0.469393
O O4 0.079396 0.000000 0.500000
O O5 0.292458 0.465731 0.231945
O O6 0.258166 0.721440 0.291322
O O7 0.360600 0.594735 0.408883
O O8 0.430750 0.114793 0.435194
O O9 0.328267 0.074194 0.600230
O O10 0.000000 0.718823 0.250000
O O11 0.047137 0.891769 0.083480
#
# Coordination Sequence:
#
# PCOD8159848 Si02
#       6
#     8   8   4   8   8   4
#     4  10  22  44  68  96 135 187 231 291 352 424
#     4  11  25  42  73  98 139 179 248 290 362 429
#     4  12  26  49  67 108 148 188 232 308 368 419
#     4  12  27  46  72 102 150 189 244 298 371 436
#     4  11  24  45  70 100 139 184 237 301 352 426
#     4  12  26  43  73 104 130 200 244 292 362 451
#
# _framework density 21.096779999999999
#
# number of rings (size 3 to 8) (size 9 to 14) (size 15 to 20)
#    0.000    0.800    6.000    2.400    8.400    1.600 
#    0.000    0.000    0.000    0.000    0.000    0.000 
#    0.000    0.000    0.000    0.000    0.000    0.000 
#
# Total GULP energy -248021.112069 kJ/mol
# GULP energy per Si atom -12401.055603 kJ/mol
# Density = 2.104876 g / cm^3
# Si number density = 21.096780 Si / 1000 Ang^3
#
#
#
# Elastic Constant Matrix: (Units=GPa)
#
#
# Indices 1 2 3 4 5 6 
#
# 1 120.4598 38.7690 49.2412 0.0000 0.0000 0.0000
# 2 38.7690 59.4798 17.9998 0.0000 0.0000 0.0000
# 3 49.2412 17.9998 126.4350 0.0000 0.0000 0.0000
# 4 0.0000 0.0000 0.0000 26.7005 0.0000 0.0000
# 5 0.0000 0.0000 0.0000 0.0000 27.1468 0.0000
# 6 0.0000 0.0000 0.0000 0.0000 0.0000 32.2722
#
#
#
# Elastic Compliance Matrix: (Units=1/GPa)
#
#
# Indices 1 2 3 4 5 6 
#
# 1 0.011967 -0.006678 -0.003710 0.000000 0.000000 0.000000
# 2 -0.006678 0.021295 -0.000431 0.000000 0.000000 0.000000
# 3 -0.003710 -0.000431 0.009415 0.000000 0.000000 0.000000
# 4 0.000000 0.000000 0.000000 0.037453 0.000000 0.000000
# 5 0.000000 0.000000 0.000000 0.000000 0.036837 0.000000
# 6 0.000000 0.000000 0.000000 0.000000 0.000000 0.030986
#
#
# Mechanical properties :
#
#
# Convention : Reuss Voigt Hill
#
# Bulk Modulus (GPa) = 47.52699 57.59938 52.56318
# Shear Modulus (GPa) = 28.31182 30.58153 29.44667
#
# Velocity S-wave (km/s) = 3.66730 3.81147 3.74008
# Velocity P-wave (km/s) = 6.36468 6.83604 6.60457
#
# Compressibility (1/GPa) = 0.02104068
#
# Stress axis : x y z
#
# Youngs Moduli (GPa) = 83.56150 46.95871 106.20785
#
# Poissons Ratio (x) = 0.31357 0.39404
# Poissons Ratio (y) = 0.55798 0.04578
# Poissons Ratio (z) = 0.31002 0.02024
#
# Static dielectric constant tensor:
#      x y z
#    x 3.899470 0.000000 0.000000 
#    y 0.000000 3.806170 0.000000 
#    z 0.000000 0.000000 3.822090 
# 
# 
# High freq. dielectric constant tensor:
#      x y z
#    x 1.830520 0.000000 0.000000 
#    y 0.000000 1.820510 0.000000 
#    z 0.000000 0.000000 1.833570 
# 
# From -- ./inp_files/15579.got.cif
#   From: 2010.03.12/outbox.cif.g09.slc.cpg/sg20_8_cif.got.tgz:15579.got - 2010.04.14 01:38:04.
