data_PCOD8159027
_publ_section_title
;
Structure prediction by ZEFSAII (Michael W. Deem and Ramdas Pophale) SiO2 
 PCOD8159027
Probable space group: C 2 2 21
;
_chemical_formula_sum "Si O2"
_cell_formula_units_Z 48
_cell_length_a 16.230614
_cell_length_b 8.897274
_cell_length_c 14.848434
_cell_angle_alpha 90.000000
_cell_angle_beta 90.000000
_cell_angle_gamma 90.000000
_cell_volume 2144.235923
_symmetry_space_group_name_H-M "C 2 2 21"
_symmetry_group_IT_number 20
_symmetry_cell_setting 'orthorhombic'
loop_
_space_group_symop_operation_xyz
x,y,z
-x,-y,1/2+z
x,-y,-z
-x,y,1/2-z
1/2+x,1/2+y,z
1/2-x,1/2-y,1/2+z
1/2+x,1/2-y,-z
1/2-x,1/2+y,1/2-z
loop_
_atom_site_type_symbol
_atom_site_label
_atom_site_fract_x
_atom_site_fract_y
_atom_site_fract_z
Si Si1 0.929349 0.178654 0.315026
Si Si2 0.687918 0.643756 0.653200
Si Si3 0.500900 0.359827 0.345496
Si Si4 0.316470 0.827608 0.020571
Si Si5 0.509755 0.170471 0.985840
Si Si6 0.266652 0.678652 0.201160
O O1 0.931770 0.269384 0.407632
O O2 0.843316 0.205529 0.267176
O O3 0.000000 0.241993 0.250000
O O4 0.942346 0.003737 0.337221
O O5 0.594714 0.586885 0.635824
O O6 0.717207 0.727017 0.562145
O O7 0.743487 0.496441 0.674002
O O8 0.690658 0.759749 0.738220
O O9 0.500000 0.271202 0.250000
O O10 0.465510 0.255119 0.422833
O O11 0.271107 0.778378 0.111399
O O12 0.413824 0.805205 0.035842
O O13 0.294823 0.000000 0.000000
O O14 0.533041 0.000000 0.000000
#
# Coordination Sequence:
#
# PCOD8159027 Si02
#       6
#     8   8   8   8   8   8
#     4  11  20  40  67  94 120 170 220 261 309 383
#     4  11  23  41  65  95 128 170 211 265 325 382
#     4  10  20  42  67  91 122 172 222 251 312 393
#     4  10  21  41  65  91 126 177 214 257 325 396
#     4  10  21  37  61  95 131 162 213 271 320 369
#     4  12  23  42  66  95 133 165 219 270 320 385
#
# _framework density 22.385596
#
# number of rings (size 3 to 8) (size 9 to 14) (size 15 to 20)
#    0.000    1.333    5.000    2.000    0.000    3.333 
#    9.000    0.000    0.000    0.000    0.000    0.000 
#    0.000    0.000    0.000    0.000    0.000    0.000 
#
# Total GULP energy -297627.057928 kJ/mol
# GULP energy per Si atom -12401.127414 kJ/mol
# Density = 2.233465 g / cm^3
# Si number density = 22.385596 Si / 1000 Ang^3
#
#
#
# Elastic Constant Matrix: (Units=GPa)
#
#
# Indices 1 2 3 4 5 6 
#
# 1 23.1216 14.5209 18.3871 0.0000 0.0000 0.0000
# 2 14.5209 127.7767 77.6963 0.0000 0.0000 0.0000
# 3 18.3871 77.6963 198.7455 0.0000 0.0000 0.0000
# 4 0.0000 0.0000 0.0000 32.3739 0.0000 0.0000
# 5 0.0000 0.0000 0.0000 0.0000 34.7983 0.0000
# 6 0.0000 0.0000 0.0000 0.0000 0.0000 21.9998
#
#
#
# Elastic Compliance Matrix: (Units=1/GPa)
#
#
# Indices 1 2 3 4 5 6 
#
# 1 0.047919 -0.003608 -0.003023 0.000000 0.000000 0.000000
# 2 -0.003608 0.010538 -0.003786 0.000000 0.000000 0.000000
# 3 -0.003023 -0.003786 0.006791 0.000000 0.000000 0.000000
# 4 0.000000 0.000000 0.000000 0.030889 0.000000 0.000000
# 5 0.000000 0.000000 0.000000 0.000000 0.028737 0.000000
# 6 0.000000 0.000000 0.000000 0.000000 0.000000 0.045455
#
#
# Mechanical properties :
#
#
# Convention : Reuss Voigt Hill
#
# Bulk Modulus (GPa) = 22.51450 63.42804 42.97127
# Shear Modulus (GPa) = 24.27558 33.77035 29.02296
#
# Velocity S-wave (km/s) = 3.29664 3.88825 3.60460
# Velocity P-wave (km/s) = 4.95680 6.96806 6.04664
#
# Compressibility (1/GPa) = 0.04441583
#
# Stress axis : x y z
#
# Youngs Moduli (GPa) = 20.86842 94.89240 147.24699
#
# Poissons Ratio (x) = 0.34233 0.44513
# Poissons Ratio (y) = 0.07528 0.55748
# Poissons Ratio (z) = 0.06309 0.35926
#
# Static dielectric constant tensor:
#      x y z
#    x 3.676860 0.000000 0.000000 
#    y 0.000000 3.958020 0.000000 
#    z 0.000000 0.000000 4.409970 
# 
# 
# High freq. dielectric constant tensor:
#      x y z
#    x 1.854480 0.000000 0.000000 
#    y 0.000000 1.877610 0.000000 
#    z 0.000000 0.000000 1.904980 
# 
# From -- ./inp_files/21288.got.cif
#   From: 2010.03.12/outbox.cif.g09.slc.cpg/sg20_11_cif.got.tgz:21288.got - 2010.04.14 01:38:04.
