data_PCOD8159712
_publ_section_title
;
Structure prediction by ZEFSAII (Michael W. Deem and Ramdas Pophale) SiO2 
 PCOD8159712
Probable space group: C 2 2 21
;
_chemical_formula_sum "Si O2"
_cell_formula_units_Z 48
_cell_length_a 15.333120
_cell_length_b 5.077364
_cell_length_c 29.814712
_cell_angle_alpha 90.000000
_cell_angle_beta 90.000000
_cell_angle_gamma 90.000000
_cell_volume 2321.129935
_symmetry_space_group_name_H-M "C 2 2 21"
_symmetry_group_IT_number 20
_symmetry_cell_setting 'orthorhombic'
loop_
_space_group_symop_operation_xyz
x,y,z
-x,-y,1/2+z
x,-y,-z
-x,y,1/2-z
1/2+x,1/2+y,z
1/2-x,1/2-y,1/2+z
1/2+x,1/2-y,-z
1/2-x,1/2+y,1/2-z
loop_
_atom_site_type_symbol
_atom_site_label
_atom_site_fract_x
_atom_site_fract_y
_atom_site_fract_z
Si Si1 0.658701 0.560421 0.911841
Si Si2 0.233651 0.388505 0.777825
Si Si3 0.458940 0.858128 0.703500
Si Si4 0.503689 0.369650 0.850313
Si Si5 0.219372 0.556204 0.950660
Si Si6 0.689695 0.341193 0.628680
O O1 0.571716 0.487882 0.885620
O O2 0.645592 0.836647 0.938175
O O3 0.745264 0.590055 0.879576
O O4 0.675832 0.340935 0.949446
O O5 0.218751 0.657707 0.750100
O O6 0.140253 0.267430 0.790588
O O7 0.288253 0.459849 0.822380
O O8 0.500000 0.951203 0.750000
O O9 0.512905 0.606623 0.685070
O O10 0.456338 0.107958 0.670838
O O11 0.412933 0.277097 0.872717
O O12 0.294675 0.545564 0.912410
O O13 0.258499 0.500000 0.000000
#
# Coordination Sequence:
#
# PCOD8159712 Si02
#       6
#     8   8   8   8   8   8
#     4  10  22  41  66  92 127 167 216 261 338 394
#     4  12  24  39  61  91 127 171 221 265 324 393
#     4  12  24  40  59  93 131 173 229 278 328 392
#     4  12  23  41  64  92 132 172 219 275 335 394
#     4  10  22  43  70  95 129 168 218 271 341 398
#     4  10  25  39  68  92 129 172 214 267 333 392
#
# _framework density 20.679583000000001
#
# number of rings (size 3 to 8) (size 9 to 14) (size 15 to 20)
#    1.000    0.000    1.667    6.000    4.667    0.000 
#    0.000    1.667    0.000    0.000    0.000    0.000 
#    0.000    0.000    0.000    0.000    0.000    0.000 
#
# Total GULP energy -297450.254086 kJ/mol
# GULP energy per Si atom -12393.760587 kJ/mol
# Density = 2.063252 g / cm^3
# Si number density = 20.679583 Si / 1000 Ang^3
#
#
#
# Elastic Constant Matrix: (Units=GPa)
#
#
# Indices 1 2 3 4 5 6 
#
# 1 121.1076 9.1156 28.8892 0.0000 0.0000 0.0000
# 2 9.1156 98.5230 24.2342 0.0000 0.0000 0.0000
# 3 28.8892 24.2342 116.1496 0.0000 0.0000 0.0000
# 4 0.0000 0.0000 0.0000 26.2788 0.0000 0.0000
# 5 0.0000 0.0000 0.0000 0.0000 18.0917 0.0000
# 6 0.0000 0.0000 0.0000 0.0000 0.0000 20.8206
#
#
#
# Elastic Compliance Matrix: (Units=1/GPa)
#
#
# Indices 1 2 3 4 5 6 
#
# 1 0.008786 -0.000290 -0.002125 0.000000 0.000000 0.000000
# 2 -0.000290 0.010709 -0.002162 0.000000 0.000000 0.000000
# 3 -0.002125 -0.002162 0.009589 0.000000 0.000000 0.000000
# 4 0.000000 0.000000 0.000000 0.038053 0.000000 0.000000
# 5 0.000000 0.000000 0.000000 0.000000 0.055274 0.000000
# 6 0.000000 0.000000 0.000000 0.000000 0.000000 0.048029
#
#
# Mechanical properties :
#
#
# Convention : Reuss Voigt Hill
#
# Bulk Modulus (GPa) = 50.17702 51.13979 50.65841
# Shear Modulus (GPa) = 26.84744 31.27431 29.06087
#
# Velocity S-wave (km/s) = 3.60704 3.89308 3.75279
# Velocity P-wave (km/s) = 6.45480 6.70757 6.58239
#
# Compressibility (1/GPa) = 0.01992944
#
# Stress axis : x y z
#
# Youngs Moduli (GPa) = 113.82019 93.38288 104.28437
#
# Poissons Ratio (x) = 0.02711 0.22157
# Poissons Ratio (y) = 0.03304 0.22547
# Poissons Ratio (z) = 0.24183 0.20190
#
# Static dielectric constant tensor:
#      x y z
#    x 3.509690 0.000000 0.000000 
#    y 0.000000 3.703590 0.000000 
#    z 0.000000 0.000000 3.659460 
# 
# 
# High freq. dielectric constant tensor:
#      x y z
#    x 1.789870 0.000000 0.000000 
#    y 0.000000 1.815000 0.000000 
#    z 0.000000 0.000000 1.803180 
# 
# From -- ./inp_files/31254.got.cif
#   From: 2010.03.12/outbox.cif.g09.slc.cpg/sg20_16_cif.got.tgz:31254.got - 2010.04.14 01:38:04.
