data_PCOD8159113
_publ_section_title
;
Structure prediction by ZEFSAII (Michael W. Deem and Ramdas Pophale) SiO2 
 PCOD8159113
Probable space group: C 2 2 21
;
_chemical_formula_sum "Si O2"
_cell_formula_units_Z 32
_cell_length_a 25.530913
_cell_length_b 13.033648
_cell_length_c 4.999229
_cell_angle_alpha 90.000000
_cell_angle_beta 90.000000
_cell_angle_gamma 90.000000
_cell_volume 1663.548107
_symmetry_space_group_name_H-M "C 2 2 21"
_symmetry_group_IT_number 20
_symmetry_cell_setting 'orthorhombic'
loop_
_space_group_symop_operation_xyz
x,y,z
-x,-y,1/2+z
x,-y,-z
-x,y,1/2-z
1/2+x,1/2+y,z
1/2-x,1/2-y,1/2+z
1/2+x,1/2-y,-z
1/2-x,1/2+y,1/2-z
loop_
_atom_site_type_symbol
_atom_site_label
_atom_site_fract_x
_atom_site_fract_y
_atom_site_fract_z
Si Si1 0.199620 0.605118 0.368058
Si Si2 0.654494 0.206715 0.838314
Si Si3 0.681232 0.433233 0.756509
Si Si4 0.940856 0.429287 0.249932
O O1 0.175473 0.500000 0.500000
O O2 0.200415 0.680534 0.623290
O O3 0.256714 0.586229 0.250637
O O4 0.166229 0.656622 0.128594
O O5 0.650226 0.328676 0.816563
O O6 0.598387 0.166406 0.739403
O O7 0.664338 0.500000 0.500000
O O8 0.663032 0.500000 0.000000
O O9 0.928697 0.500000 0.500000
O O10 0.000000 0.385300 0.250000
O O11 0.930471 0.500000 0.000000
#
# Coordination Sequence:
#
# PCOD8159113 Si02
#       4
#     8   8   8   8
#     4  11  21  34  54  82 110 138 176 221 268 321
#     4  12  21  35  57  78 106 145 181 214 267 323
#     4  11  23  37  51  75 111 146 182 221 256 304
#     4  10  21  36  55  81 108 131 164 216 273 324
#
# _framework density 19.235994000000002
#
# number of rings (size 3 to 8) (size 9 to 14) (size 15 to 20)
#    0.000    1.000    0.000   10.500    0.000    0.000 
#    0.000    0.000    0.000    1.500    0.000    0.000 
#    0.000    0.000    0.000    0.000    0.000    0.000 
#
# Total GULP energy -198276.207085 kJ/mol
# GULP energy per Si atom -12392.262943 kJ/mol
# Density = 1.919221 g / cm^3
# Si number density = 19.235994 Si / 1000 Ang^3
#
#
#
# Elastic Constant Matrix: (Units=GPa)
#
#
# Indices 1 2 3 4 5 6 
#
# 1 70.5423 63.3913 29.4199 0.0000 0.0000 0.0000
# 2 63.3913 173.8449 74.5344 0.0000 0.0000 0.0000
# 3 29.4199 74.5344 163.5957 0.0000 0.0000 0.0000
# 4 0.0000 0.0000 0.0000 41.6210 0.0000 0.0000
# 5 0.0000 0.0000 0.0000 0.0000 18.5209 0.0000
# 6 0.0000 0.0000 0.0000 0.0000 0.0000 22.0180
#
#
#
# Elastic Compliance Matrix: (Units=1/GPa)
#
#
# Indices 1 2 3 4 5 6 
#
# 1 0.021102 -0.007541 -0.000359 0.000000 0.000000 0.000000
# 2 -0.007541 0.009843 -0.003129 0.000000 0.000000 0.000000
# 3 -0.000359 -0.003129 0.007603 0.000000 0.000000 0.000000
# 4 0.000000 0.000000 0.000000 0.024026 0.000000 0.000000
# 5 0.000000 0.000000 0.000000 0.000000 0.053993 0.000000
# 6 0.000000 0.000000 0.000000 0.000000 0.000000 0.045417
#
#
# Mechanical properties :
#
#
# Convention : Reuss Voigt Hill
#
# Bulk Modulus (GPa) = 60.63968 82.51933 71.57950
# Shear Modulus (GPa) = 26.37989 32.47448 29.42719
#
# Velocity S-wave (km/s) = 3.70723 4.11325 3.91551
# Velocity P-wave (km/s) = 7.06522 8.09629 7.59826
#
# Compressibility (1/GPa) = 0.01649085
#
# Stress axis : x y z
#
# Youngs Moduli (GPa) = 47.38896 101.59289 131.53384
#
# Poissons Ratio (x) = 0.76607 0.04726
# Poissons Ratio (y) = 0.35734 0.41151
# Poissons Ratio (z) = 0.01703 0.31784
#
# Static dielectric constant tensor:
#      x y z
#    x 3.253270 0.000000 0.000000 
#    y 0.000000 3.519380 0.000000 
#    z 0.000000 0.000000 3.805180 
# 
# 
# High freq. dielectric constant tensor:
#      x y z
#    x 1.713900 0.000000 0.000000 
#    y 0.000000 1.745690 0.000000 
#    z 0.000000 0.000000 1.777400 
# 
# From -- ./inp_files/3508.got.cif
#   From: 2010.03.12/outbox.cif.g09.slc.cpg/sg20_2_cif.got.tgz:3508.got - 2010.04.14 01:38:04.
