data_PCOD8159046
_publ_section_title
;
Structure prediction by ZEFSAII (Michael W. Deem and Ramdas Pophale) SiO2 
 PCOD8159046
Probable space group: C 2 2 21
;
_chemical_formula_sum "Si O2"
_cell_formula_units_Z 32
_cell_length_a 14.183054
_cell_length_b 5.074071
_cell_length_c 19.447957
_cell_angle_alpha 90.000000
_cell_angle_beta 90.000000
_cell_angle_gamma 90.000000
_cell_volume 1399.588231
_symmetry_space_group_name_H-M "C 2 2 21"
_symmetry_group_IT_number 20
_symmetry_cell_setting 'orthorhombic'
loop_
_space_group_symop_operation_xyz
x,y,z
-x,-y,1/2+z
x,-y,-z
-x,y,1/2-z
1/2+x,1/2+y,z
1/2-x,1/2-y,1/2+z
1/2+x,1/2-y,-z
1/2-x,1/2+y,1/2-z
loop_
_atom_site_type_symbol
_atom_site_label
_atom_site_fract_x
_atom_site_fract_y
_atom_site_fract_z
Si Si1 0.781267 0.530266 0.354024
Si Si2 0.070387 0.253790 0.955053
Si Si3 0.411398 0.306758 0.155214
Si Si4 0.864709 0.706956 0.770586
O O1 0.833254 0.659673 0.418027
O O2 0.692007 0.354944 0.379853
O O3 0.854759 0.350169 0.310597
O O4 0.741707 0.758879 0.302229
O O5 0.989830 0.167181 0.902650
O O6 0.033315 0.500000 0.000000
O O7 0.096305 0.000000 0.000000
O O8 0.419969 0.026141 0.191311
O O9 0.425986 0.530829 0.214223
#
# Coordination Sequence:
#
# PCOD8159046 Si02
#       4
#     8   8   8   8
#     4  10  23  44  75 102 139 178 236 293 371 405
#     4  12  29  46  65 105 145 194 248 275 336 448
#     4  10  22  44  67 102 137 180 223 303 348 417
#     4  10  20  42  73 103 137 170 234 296 379 406
#
# _framework density 22.863866999999999
#
# number of rings (size 3 to 8) (size 9 to 14) (size 15 to 20)
#    1.500    0.000    2.500    1.500    3.500    2.000 
#    0.000    5.000    0.000    0.000    0.000    0.000 
#    0.000    0.000    0.000    0.000    0.000    0.000 
#
# Total GULP energy -198334.718782 kJ/mol
# GULP energy per Si atom -12395.919924 kJ/mol
# Density = 2.281183 g / cm^3
# Si number density = 22.863867 Si / 1000 Ang^3
#
#
#
# Elastic Constant Matrix: (Units=GPa)
#
#
# Indices 1 2 3 4 5 6 
#
# 1 75.6684 -2.7364 9.7346 0.0000 0.0000 0.0000
# 2 -2.7364 124.4438 4.7698 0.0000 0.0000 0.0000
# 3 9.7346 4.7698 39.0341 0.0000 0.0000 0.0000
# 4 0.0000 0.0000 0.0000 47.4576 0.0000 0.0000
# 5 0.0000 0.0000 0.0000 0.0000 17.9505 0.0000
# 6 0.0000 0.0000 0.0000 0.0000 0.0000 4.1134
#
#
#
# Elastic Compliance Matrix: (Units=1/GPa)
#
#
# Indices 1 2 3 4 5 6 
#
# 1 0.013677 0.000434 -0.003464 0.000000 0.000000 0.000000
# 2 0.000434 0.008087 -0.001096 0.000000 0.000000 0.000000
# 3 -0.003464 -0.001096 0.026616 0.000000 0.000000 0.000000
# 4 0.000000 0.000000 0.000000 0.021071 0.000000 0.000000
# 5 0.000000 0.000000 0.000000 0.000000 0.055709 0.000000
# 6 0.000000 0.000000 0.000000 0.000000 0.000000 0.243110
#
#
# Mechanical properties :
#
#
# Convention : Reuss Voigt Hill
#
# Bulk Modulus (GPa) = 24.92070 29.18691 27.05381
# Shear Modulus (GPa) = 12.82382 29.06286 20.94334
#
# Velocity S-wave (km/s) = 2.37085 3.56915 3.02984
# Velocity P-wave (km/s) = 4.29160 5.45696 4.90898
#
# Compressibility (1/GPa) = 0.04012728
#
# Stress axis : x y z
#
# Youngs Moduli (GPa) = 73.11628 123.65047 37.57084
#
# Poissons Ratio (x) = -0.05360 0.13014
# Poissons Ratio (y) = -0.03170 0.04119
# Poissons Ratio (z) = 0.25326 0.13556
#
# Static dielectric constant tensor:
#      x y z
#    x 3.909290 0.000000 0.000000 
#    y 0.000000 4.219530 0.000000 
#    z 0.000000 0.000000 3.819650 
# 
# 
# High freq. dielectric constant tensor:
#      x y z
#    x 1.901500 0.000000 0.000000 
#    y 0.000000 1.914170 0.000000 
#    z 0.000000 0.000000 1.879480 
# 
# From -- ./inp_files/27018.got.cif
#   From: 2010.03.12/outbox.cif.g09.slc.cpg/sg20_14_cif.got.tgz:27018.got - 2010.04.14 01:38:04.
