data_PCOD8159796
_publ_section_title
;
Structure prediction by ZEFSAII (Michael W. Deem and Ramdas Pophale) SiO2 
 PCOD8159796
Probable space group: C 2 2 21
;
_chemical_formula_sum "Si O2"
_cell_formula_units_Z 48
_cell_length_a 13.673396
_cell_length_b 17.219908
_cell_length_c 9.343623
_cell_angle_alpha 90.000000
_cell_angle_beta 90.000000
_cell_angle_gamma 90.000000
_cell_volume 2199.999214
_symmetry_space_group_name_H-M "C 2 2 21"
_symmetry_group_IT_number 20
_symmetry_cell_setting 'orthorhombic'
loop_
_space_group_symop_operation_xyz
x,y,z
-x,-y,1/2+z
x,-y,-z
-x,y,1/2-z
1/2+x,1/2+y,z
1/2-x,1/2-y,1/2+z
1/2+x,1/2-y,-z
1/2-x,1/2+y,1/2-z
loop_
_atom_site_type_symbol
_atom_site_label
_atom_site_fract_x
_atom_site_fract_y
_atom_site_fract_z
Si Si1 0.697444 0.556142 0.130230
Si Si2 0.961351 0.773488 0.965835
Si Si3 0.500000 0.136778 0.750000
Si Si4 0.715672 0.315132 0.344727
Si Si5 0.500000 0.401079 0.750000
Si Si6 0.673751 0.710315 0.971844
Si Si7 0.683706 0.965712 0.152953
O O1 0.585074 0.545249 0.184012
O O2 0.780045 0.537263 0.248672
O O3 0.715103 0.500000 0.000000
O O4 0.715188 0.642541 0.073281
O O5 0.968274 0.691042 0.884005
O O6 0.941949 0.844577 0.858360
O O7 0.058582 0.794694 0.054560
O O8 0.876931 0.773607 0.083662
O O9 0.408800 0.080558 0.716098
O O10 0.727412 0.288302 0.180536
O O11 0.809503 0.287886 0.435836
O O12 0.720922 0.408630 0.353856
O O13 0.654511 0.000000 0.000000
#
# Coordination Sequence:
#
# PCOD8159796 Si02
#       7
#     8   8   4   8   4   8   8
#     4  11  24  44  66 101 140 182 226 290 357 413
#     4  10  22  42  73  98 135 176 235 291 346 406
#     4  11  24  50  66 104 145 184 230 292 339 422
#     4  12  24  44  72 100 135 181 235 294 339 426
#     4   9  22  40  68 100 135 172 220 294 353 410
#     4  11  25  43  68 103 135 180 237 288 355 411
#     4  12  27  46  71 102 143 187 232 281 356 419
#
# _framework density 21.818190000000001
#
# number of rings (size 3 to 8) (size 9 to 14) (size 15 to 20)
#    0.000    1.000    3.333    2.500    7.000    4.000 
#    0.000    0.000    0.000    0.000    0.000    0.000 
#    0.000    0.000    0.000    0.000    0.000    0.000 
#
# Total GULP energy -297573.610983 kJ/mol
# GULP energy per Si atom -12398.900458 kJ/mol
# Density = 2.176853 g / cm^3
# Si number density = 21.818190 Si / 1000 Ang^3
#
#
#
# Elastic Constant Matrix: (Units=GPa)
#
#
# Indices 1 2 3 4 5 6 
#
# 1 101.7963 36.0166 46.6357 0.0000 0.0000 0.0000
# 2 36.0166 73.0856 46.3221 0.0000 0.0000 0.0000
# 3 46.6357 46.3221 129.5507 0.0000 0.0000 0.0000
# 4 0.0000 0.0000 0.0000 35.5785 0.0000 0.0000
# 5 0.0000 0.0000 0.0000 0.0000 22.0991 0.0000
# 6 0.0000 0.0000 0.0000 0.0000 0.0000 31.3420
#
#
#
# Elastic Compliance Matrix: (Units=1/GPa)
#
#
# Indices 1 2 3 4 5 6 
#
# 1 0.012757 -0.004365 -0.003031 0.000000 0.000000 0.000000
# 2 -0.004365 0.019186 -0.005289 0.000000 0.000000 0.000000
# 3 -0.003031 -0.005289 0.010701 0.000000 0.000000 0.000000
# 4 0.000000 0.000000 0.000000 0.028107 0.000000 0.000000
# 5 0.000000 0.000000 0.000000 0.000000 0.045251 0.000000
# 6 0.000000 0.000000 0.000000 0.000000 0.000000 0.031906
#
#
# Mechanical properties :
#
#
# Convention : Reuss Voigt Hill
#
# Bulk Modulus (GPa) = 57.89297 62.48680 60.18988
# Shear Modulus (GPa) = 27.92741 29.50114 28.71428
#
# Velocity S-wave (km/s) = 3.58160 3.68113 3.63170
# Velocity P-wave (km/s) = 6.61027 6.83883 6.72552
#
# Compressibility (1/GPa) = 0.01727326
#
# Stress axis : x y z
#
# Youngs Moduli (GPa) = 78.38988 52.12195 93.44727
#
# Poissons Ratio (x) = 0.22753 0.28327
# Poissons Ratio (y) = 0.34219 0.49421
# Poissons Ratio (z) = 0.23763 0.27566
#
# Static dielectric constant tensor:
#      x y z
#    x 3.830010 0.000000 0.000000 
#    y 0.000000 5.416600 0.000000 
#    z 0.000000 0.000000 3.969040 
# 
# 
# High freq. dielectric constant tensor:
#      x y z
#    x 1.856740 0.000000 0.000000 
#    y 0.000000 1.855500 0.000000 
#    z 0.000000 0.000000 1.864740 
# 
# From -- ./inp_files/8462.got.cif
#   From: 2010.03.12/outbox.cif.g09.slc.cpg/sg20_5_cif.got.tgz:8462.got - 2010.04.14 01:38:04.
