data_PCOD8159019
_publ_section_title
;
Structure prediction by ZEFSAII (Michael W. Deem and Ramdas Pophale) SiO2 
 PCOD8159019
Probable space group: C 2 2 21
;
_chemical_formula_sum "Si O2"
_cell_formula_units_Z 44
_cell_length_a 12.088153
_cell_length_b 6.890444
_cell_length_c 25.106449
_cell_angle_alpha 90.000000
_cell_angle_beta 90.000000
_cell_angle_gamma 90.000000
_cell_volume 2091.184962
_symmetry_space_group_name_H-M "C 2 2 21"
_symmetry_group_IT_number 20
_symmetry_cell_setting 'orthorhombic'
loop_
_space_group_symop_operation_xyz
x,y,z
-x,-y,1/2+z
x,-y,-z
-x,y,1/2-z
1/2+x,1/2+y,z
1/2-x,1/2-y,1/2+z
1/2+x,1/2-y,-z
1/2-x,1/2+y,1/2-z
loop_
_atom_site_type_symbol
_atom_site_label
_atom_site_fract_x
_atom_site_fract_y
_atom_site_fract_z
Si Si1 0.110828 0.855741 0.855100
Si Si2 0.368922 0.500000 0.000000
Si Si3 0.787539 0.225557 0.674640
Si Si4 0.628329 0.913050 0.237443
Si Si5 0.727919 0.880051 0.549145
Si Si6 0.394175 0.235270 0.906402
O O1 0.163555 0.756540 0.803104
O O2 0.185080 0.825910 0.906420
O O3 0.992285 0.753283 0.863676
O O4 0.110647 0.086172 0.842996
O O5 0.301427 0.332419 0.029000
O O6 0.433423 0.615831 0.046704
O O7 0.844530 0.387685 0.708794
O O8 0.720889 0.301640 0.622223
O O9 0.697735 0.105541 0.708640
O O10 0.500000 0.903213 0.250000
O O11 0.782098 0.000000 0.500000
O O12 0.625318 0.013993 0.571720
#
# Coordination Sequence:
#
# PCOD8159019 Si02
#       6
#     8   4   8   8   8   8
#     4  11  23  41  65  95 127 167 215 264 320 379
#     4  10  20  42  64  92 130 170 208 260 320 376
#     4  11  24  42  63  91 128 165 213 266 318 382
#     4  12  24  40  63  91 123 167 213 263 322 383
#     4   9  21  41  63  94 131 165 210 261 311 385
#     4  10  22  40  64  93 130 166 214 263 316 383
#
# _framework density 21.040704000000002
#
# number of rings (size 3 to 8) (size 9 to 14) (size 15 to 20)
#    0.000    1.455    3.636    1.091    1.273    3.636 
#    4.909    0.000    0.000    0.000    0.000    0.000 
#    0.000    0.000    0.000    0.000    0.000    0.000 
#
# Total GULP energy -272564.645604 kJ/mol
# GULP energy per Si atom -12389.302073 kJ/mol
# Density = 2.099281 g / cm^3
# Si number density = 21.040704 Si / 1000 Ang^3
#
#
#
# Elastic Constant Matrix: (Units=GPa)
#
#
# Indices 1 2 3 4 5 6 
#
# 1 67.0593 36.4408 26.3614 0.0000 0.0000 0.0000
# 2 36.4408 106.9733 25.5505 0.0000 0.0000 0.0000
# 3 26.3614 25.5505 83.3980 0.0000 0.0000 0.0000
# 4 0.0000 0.0000 0.0000 46.6271 0.0000 0.0000
# 5 0.0000 0.0000 0.0000 0.0000 35.9210 0.0000
# 6 0.0000 0.0000 0.0000 0.0000 0.0000 34.2389
#
#
#
# Elastic Compliance Matrix: (Units=1/GPa)
#
#
# Indices 1 2 3 4 5 6 
#
# 1 0.019758 -0.005653 -0.004514 0.000000 0.000000 0.000000
# 2 -0.005653 0.011703 -0.001799 0.000000 0.000000 0.000000
# 3 -0.004514 -0.001799 0.013969 0.000000 0.000000 0.000000
# 4 0.000000 0.000000 0.000000 0.021447 0.000000 0.000000
# 5 0.000000 0.000000 0.000000 0.000000 0.027839 0.000000
# 6 0.000000 0.000000 0.000000 0.000000 0.000000 0.029207
#
#
# Mechanical properties :
#
#
# Convention : Reuss Voigt Hill
#
# Bulk Modulus (GPa) = 46.51162 48.23732 47.37447
# Shear Modulus (GPa) = 32.25413 34.62927 33.44170
#
# Velocity S-wave (km/s) = 3.91952 4.06128 3.99103
# Velocity P-wave (km/s) = 6.52971 6.70578 6.61833
#
# Compressibility (1/GPa) = 0.02150001
#
# Stress axis : x y z
#
# Youngs Moduli (GPa) = 50.61190 85.44562 71.58964
#
# Poissons Ratio (x) = 0.48299 0.32313
# Poissons Ratio (y) = 0.28609 0.12877
# Poissons Ratio (z) = 0.22844 0.15370
#
# Static dielectric constant tensor:
#      x y z
#    x 3.438350 0.000000 0.000000 
#    y 0.000000 3.880500 0.000000 
#    z 0.000000 0.000000 4.240950 
# 
# 
# High freq. dielectric constant tensor:
#      x y z
#    x 1.788430 0.000000 0.000000 
#    y 0.000000 1.830210 0.000000 
#    z 0.000000 0.000000 1.859110 
# 
# From -- ./inp_files/30382.got.cif
#   From: 2010.03.12/outbox.cif.g09.slc.cpg/sg20_16_cif.got.tgz:30382.got - 2010.04.14 01:38:04.
