data_PCOD8159370
_publ_section_title
;
Structure prediction by ZEFSAII (Michael W. Deem and Ramdas Pophale) SiO2 
 PCOD8159370
Probable space group: C 2 2 21
;
_chemical_formula_sum "Si O2"
_cell_formula_units_Z 64
_cell_length_a 9.388199
_cell_length_b 19.406781
_cell_length_c 18.213994
_cell_angle_alpha 90.000000
_cell_angle_beta 90.000000
_cell_angle_gamma 90.000000
_cell_volume 3318.493573
_symmetry_space_group_name_H-M "C 2 2 21"
_symmetry_group_IT_number 20
_symmetry_cell_setting 'orthorhombic'
loop_
_space_group_symop_operation_xyz
x,y,z
-x,-y,1/2+z
x,-y,-z
-x,y,1/2-z
1/2+x,1/2+y,z
1/2-x,1/2-y,1/2+z
1/2+x,1/2-y,-z
1/2-x,1/2+y,1/2-z
loop_
_atom_site_type_symbol
_atom_site_label
_atom_site_fract_x
_atom_site_fract_y
_atom_site_fract_z
Si Si1 0.717360 0.972124 0.418912
Si Si2 0.719699 0.660195 0.566674
Si Si3 0.121263 0.422154 0.694899
Si Si4 0.370070 0.409174 0.799516
Si Si5 0.447745 0.836334 0.063070
Si Si6 0.946305 0.292898 0.899456
Si Si7 0.773597 0.793000 0.904027
Si Si8 0.454353 0.524324 0.916402
O O1 0.636548 0.901168 0.406700
O O2 0.881623 0.960717 0.396461
O O3 0.709782 0.000000 0.500000
O O4 0.628279 0.027640 0.373729
O O5 0.886982 0.656712 0.584596
O O6 0.653628 0.726166 0.608056
O O7 0.696185 0.666771 0.479622
O O8 0.640393 0.592324 0.595974
O O9 0.263339 0.436587 0.739093
O O10 0.095062 0.344171 0.666542
O O11 0.000000 0.445490 0.750000
O O12 0.500000 0.384931 0.750000
O O13 0.303432 0.342889 0.837138
O O14 0.401236 0.466472 0.860438
O O15 0.381745 0.770215 0.103241
O O16 0.419877 0.831549 0.976187
O O17 0.110380 0.268141 0.897361
O O18 0.435672 0.500000 0.000000
#
# Coordination Sequence:
#
# PCOD8159370 Si02
#       8
#     8   8   8   8   8   8   8   8
#     4  11  23  41  65  95 128 170 216 266 315 383
#     4  10  22  37  66  96 123 159 215 267 310 369
#     4  12  25  42  65  94 129 174 213 260 328 386
#     4  12  25  42  63  94 131 171 213 261 324 387
#     4  10  22  37  66  96 124 159 214 269 309 367
#     4  10  21  41  62  93 126 165 209 260 319 377
#     4  10  21  41  62  92 127 165 207 262 316 381
#     4  11  23  41  65  94 128 173 215 264 320 377
#
# _framework density 19.28586
#
# number of rings (size 3 to 8) (size 9 to 14) (size 15 to 20)
#    0.000    1.250    5.000    0.750    3.500    1.500 
#    0.000    2.500    0.000    0.000    0.000    0.000 
#    0.000    0.000    0.000    0.000    0.000    0.000 
#
# Total GULP energy -396825.267457 kJ/mol
# GULP energy per Si atom -12400.789608 kJ/mol
# Density = 1.924196 g / cm^3
# Si number density = 19.285860 Si / 1000 Ang^3
#
#
#
# Elastic Constant Matrix: (Units=GPa)
#
#
# Indices 1 2 3 4 5 6 
#
# 1 119.0532 49.1289 26.4682 0.0000 0.0000 0.0000
# 2 49.1289 100.6877 23.3055 0.0000 0.0000 0.0000
# 3 26.4682 23.3055 62.1507 0.0000 0.0000 0.0000
# 4 0.0000 0.0000 0.0000 28.4961 0.0000 0.0000
# 5 0.0000 0.0000 0.0000 0.0000 32.6471 0.0000
# 6 0.0000 0.0000 0.0000 0.0000 0.0000 40.9501
#
#
#
# Elastic Compliance Matrix: (Units=1/GPa)
#
#
# Indices 1 2 3 4 5 6 
#
# 1 0.010981 -0.004682 -0.002921 0.000000 0.000000 0.000000
# 2 -0.004682 0.012872 -0.002833 0.000000 0.000000 0.000000
# 3 -0.002921 -0.002833 0.018396 0.000000 0.000000 0.000000
# 4 0.000000 0.000000 0.000000 0.035092 0.000000 0.000000
# 5 0.000000 0.000000 0.000000 0.000000 0.030631 0.000000
# 6 0.000000 0.000000 0.000000 0.000000 0.000000 0.024420
#
#
# Mechanical properties :
#
#
# Convention : Reuss Voigt Hill
#
# Bulk Modulus (GPa) = 46.77762 53.29964 50.03863
# Shear Modulus (GPa) = 31.17414 32.61792 31.89603
#
# Velocity S-wave (km/s) = 4.02484 4.11699 4.07117
# Velocity P-wave (km/s) = 6.77544 7.09197 6.93551
#
# Compressibility (1/GPa) = 0.02137774
#
# Stress axis : x y z
#
# Youngs Moduli (GPa) = 91.06593 77.68871 54.35933
#
# Poissons Ratio (x) = 0.36374 0.15878
# Poissons Ratio (y) = 0.42637 0.15399
# Poissons Ratio (z) = 0.26599 0.22008
#
# Static dielectric constant tensor:
#      x y z
#    x 3.696490 0.000000 0.000000 
#    y 0.000000 3.484840 0.000000 
#    z 0.000000 0.000000 3.452960 
# 
# 
# High freq. dielectric constant tensor:
#      x y z
#    x 1.768480 0.000000 0.000000 
#    y 0.000000 1.750640 0.000000 
#    z 0.000000 0.000000 1.741160 
# 
# From -- ./inp_files/23927.got.cif
#   From: 2010.03.12/outbox.cif.g09.slc.cpg/sg20_12_cif.got.tgz:23927.got - 2010.04.14 01:38:04.
