data_PCOD8159023
_publ_section_title
;
Structure prediction by ZEFSAII (Michael W. Deem and Ramdas Pophale) SiO2 
 PCOD8159023
Probable space group: C 2 2 21
;
_chemical_formula_sum "Si O2"
_cell_formula_units_Z 60
_cell_length_a 17.457124
_cell_length_b 17.450976
_cell_length_c 8.658395
_cell_angle_alpha 90.000000
_cell_angle_beta 90.000000
_cell_angle_gamma 90.000000
_cell_volume 2637.726805
_symmetry_space_group_name_H-M "C 2 2 21"
_symmetry_group_IT_number 20
_symmetry_cell_setting 'orthorhombic'
loop_
_space_group_symop_operation_xyz
x,y,z
-x,-y,1/2+z
x,-y,-z
-x,y,1/2-z
1/2+x,1/2+y,z
1/2-x,1/2-y,1/2+z
1/2+x,1/2-y,-z
1/2-x,1/2+y,1/2-z
loop_
_atom_site_type_symbol
_atom_site_label
_atom_site_fract_x
_atom_site_fract_y
_atom_site_fract_z
Si Si1 0.622847 0.424750 0.443859
Si Si2 0.500000 0.186082 0.250000
Si Si3 0.217182 0.808001 0.904019
Si Si4 0.421908 0.916291 0.512528
Si Si5 0.188718 0.943386 0.129340
Si Si6 0.086481 0.707685 0.770907
Si Si7 0.759865 0.433708 0.667501
Si Si8 0.375622 0.256897 0.049178
O O1 0.573114 0.500000 0.500000
O O2 0.624906 0.423474 0.257438
O O3 0.706598 0.438938 0.517915
O O4 0.593956 0.341857 0.499530
O O5 0.481434 0.136583 0.399105
O O6 0.425802 0.234359 0.198468
O O7 0.135963 0.765203 0.879733
O O8 0.234519 0.857397 0.754104
O O9 0.284965 0.744483 0.911379
O O10 0.216314 0.863002 0.055274
O O11 0.409139 0.876994 0.345788
O O12 0.345771 0.926766 0.611562
O O13 0.460072 0.000000 0.500000
O O14 0.254998 0.992259 0.217651
O O15 0.152467 0.000000 0.000000
O O16 0.117991 0.700634 0.597203
O O17 0.000000 0.738826 0.750000
#
# Coordination Sequence:
#
# PCOD8159023 Si02
#       8
#     8   4   8   8   8   8   8   8
#     4  10  21  39  69 100 136 176 234 299 361 427
#     4  12  28  48  68 104 144 190 250 306 368 444
#     4  11  24  41  72 104 140 192 248 303 372 433
#     4  12  27  46  70  98 149 201 240 296 378 448
#     4   9  21  37  63 108 140 174 237 303 354 431
#     4  12  28  48  71 107 147 196 250 313 380 446
#     4  10  20  42  66 107 139 184 240 301 359 437
#     4  12  26  45  73 103 147 190 248 306 369 451
#
# _framework density 22.746859000000001
#
# number of rings (size 3 to 8) (size 9 to 14) (size 15 to 20)
#    0.000    1.067    4.000    2.000    8.400    0.000 
#    0.000    0.000    1.467    2.400    0.000    0.000 
#    0.000    0.000    0.000    0.000    0.000    0.000 
#
# Total GULP energy -371734.097062 kJ/mol
# GULP energy per Si atom -12391.136569 kJ/mol
# Density = 2.269509 g / cm^3
# Si number density = 22.746859 Si / 1000 Ang^3
#
#
#
# Elastic Constant Matrix: (Units=GPa)
#
#
# Indices 1 2 3 4 5 6 
#
# 1 93.1049 33.2633 20.9806 0.0000 0.0000 0.0000
# 2 33.2633 163.0156 49.1645 0.0000 0.0000 0.0000
# 3 20.9806 49.1645 128.3330 0.0000 0.0000 0.0000
# 4 0.0000 0.0000 0.0000 38.9547 0.0000 0.0000
# 5 0.0000 0.0000 0.0000 0.0000 20.2536 0.0000
# 6 0.0000 0.0000 0.0000 0.0000 0.0000 14.5295
#
#
#
# Elastic Compliance Matrix: (Units=1/GPa)
#
#
# Indices 1 2 3 4 5 6 
#
# 1 0.011729 -0.002052 -0.001131 0.000000 0.000000 0.000000
# 2 -0.002052 0.007295 -0.002459 0.000000 0.000000 0.000000
# 3 -0.001131 -0.002459 0.008919 0.000000 0.000000 0.000000
# 4 0.000000 0.000000 0.000000 0.025671 0.000000 0.000000
# 5 0.000000 0.000000 0.000000 0.000000 0.049374 0.000000
# 6 0.000000 0.000000 0.000000 0.000000 0.000000 0.068826
#
#
# Mechanical properties :
#
#
# Convention : Reuss Voigt Hill
#
# Bulk Modulus (GPa) = 60.03244 65.69672 62.86458
# Shear Modulus (GPa) = 26.50402 33.48389 29.99395
#
# Velocity S-wave (km/s) = 3.41717 3.84086 3.63519
# Velocity P-wave (km/s) = 6.48214 6.97237 6.73172
#
# Compressibility (1/GPa) = 0.01665766
#
# Stress axis : x y z
#
# Youngs Moduli (GPa) = 85.26144 137.08461 112.11653
#
# Poissons Ratio (x) = 0.28130 0.12684
# Poissons Ratio (y) = 0.17496 0.27571
# Poissons Ratio (z) = 0.09646 0.33711
#
# Static dielectric constant tensor:
#      x y z
#    x 3.708070 0.000000 0.000000 
#    y 0.000000 4.696740 0.000000 
#    z 0.000000 0.000000 4.315240 
# 
# 
# High freq. dielectric constant tensor:
#      x y z
#    x 1.854750 0.000000 0.000000 
#    y 0.000000 1.914340 0.000000 
#    z 0.000000 0.000000 1.915700 
# 
# From -- ./inp_files/9594.got.cif
#   From: 2010.03.12/outbox.cif.g09.slc.cpg/sg20_5_cif.got.tgz:9594.got - 2010.04.14 01:38:04.
