data_PCOD8159155
_publ_section_title
;
Structure prediction by ZEFSAII (Michael W. Deem and Ramdas Pophale) SiO2 
 PCOD8159155
Probable space group: C 2 2 21
;
_chemical_formula_sum "Si O2"
_cell_formula_units_Z 60
_cell_length_a 13.055427
_cell_length_b 8.669685
_cell_length_c 25.466741
_cell_angle_alpha 90.000000
_cell_angle_beta 90.000000
_cell_angle_gamma 90.000000
_cell_volume 2882.489743
_symmetry_space_group_name_H-M "C 2 2 21"
_symmetry_group_IT_number 20
_symmetry_cell_setting 'orthorhombic'
loop_
_space_group_symop_operation_xyz
x,y,z
-x,-y,1/2+z
x,-y,-z
-x,y,1/2-z
1/2+x,1/2+y,z
1/2-x,1/2-y,1/2+z
1/2+x,1/2-y,-z
1/2-x,1/2+y,1/2-z
loop_
_atom_site_type_symbol
_atom_site_label
_atom_site_fract_x
_atom_site_fract_y
_atom_site_fract_z
Si Si1 0.701571 0.691957 0.717972
Si Si2 0.462782 0.394718 0.046533
Si Si3 0.449322 0.676228 0.115552
Si Si4 0.000000 0.080333 0.750000
Si Si5 0.644258 0.417078 0.834235
Si Si6 0.164438 0.199458 0.908680
Si Si7 0.351961 0.833245 0.022198
Si Si8 0.260955 0.357683 0.819321
O O1 0.575968 0.683933 0.712753
O O2 0.754162 0.823047 0.682278
O O3 0.752016 0.527870 0.704135
O O4 0.723733 0.728099 0.778709
O O5 0.421770 0.506504 0.092135
O O6 0.549685 0.283625 0.070348
O O7 0.510669 0.500000 0.000000
O O8 0.371204 0.290405 0.024148
O O9 0.567271 0.692508 0.132749
O O10 0.426552 0.806377 0.072177
O O11 0.378083 0.686988 0.166976
O O12 0.079598 0.978280 0.784033
O O13 0.682916 0.549248 0.872880
O O14 0.235494 0.187749 0.959892
O O15 0.193007 0.346347 0.872583
O O16 0.375736 0.000000 0.000000
#
# Coordination Sequence:
#
# PCOD8159155 Si02
#       8
#     8   8   8   4   8   8   8   8
#     4  12  23  39  65  91 132 169 216 260 323 380
#     4   9  19  38  61  83 116 167 203 250 336 386
#     4   9  20  39  64  86 120 168 214 257 321 396
#     4  12  22  42  68  88 138 172 208 268 330 372
#     4  11  21  41  67  91 124 178 216 262 325 384
#     4  10  21  39  63  86 125 161 216 264 313 398
#     4  10  21  37  59  90 126 154 206 275 323 373
#     4  11  21  38  60  94 123 166 215 263 314 384
#
# _framework density 20.815339999999999
#
# number of rings (size 3 to 8) (size 9 to 14) (size 15 to 20)
#    0.000    1.600    4.000    0.400    0.000    2.133 
#    0.000    8.000    0.000    0.000    0.000    0.000 
#    0.000    0.000    0.000    0.000    0.000    0.000 
#
# Total GULP energy -371890.404993 kJ/mol
# GULP energy per Si atom -12396.346833 kJ/mol
# Density = 2.076796 g / cm^3
# Si number density = 20.815340 Si / 1000 Ang^3
#
#
#
# Elastic Constant Matrix: (Units=GPa)
#
#
# Indices 1 2 3 4 5 6 
#
# 1 91.1311 51.6930 35.4215 0.0000 0.0000 0.0000
# 2 51.6930 86.0463 43.5341 0.0000 0.0000 0.0000
# 3 35.4215 43.5341 78.5315 0.0000 0.0000 0.0000
# 4 0.0000 0.0000 0.0000 35.7095 0.0000 0.0000
# 5 0.0000 0.0000 0.0000 0.0000 42.3443 0.0000
# 6 0.0000 0.0000 0.0000 0.0000 0.0000 29.9361
#
#
#
# Elastic Compliance Matrix: (Units=1/GPa)
#
#
# Indices 1 2 3 4 5 6 
#
# 1 0.017078 -0.008842 -0.002801 0.000000 0.000000 0.000000
# 2 -0.008842 0.020730 -0.007503 0.000000 0.000000 0.000000
# 3 -0.002801 -0.007503 0.018157 0.000000 0.000000 0.000000
# 4 0.000000 0.000000 0.000000 0.028004 0.000000 0.000000
# 5 0.000000 0.000000 0.000000 0.000000 0.023616 0.000000
# 6 0.000000 0.000000 0.000000 0.000000 0.000000 0.033405
#
#
# Mechanical properties :
#
#
# Convention : Reuss Voigt Hill
#
# Bulk Modulus (GPa) = 56.59084 57.44512 57.01798
# Shear Modulus (GPa) = 27.00184 29.93533 28.46858
#
# Velocity S-wave (km/s) = 3.60559 3.79639 3.70222
# Velocity P-wave (km/s) = 6.67681 6.84647 6.76217
#
# Compressibility (1/GPa) = 0.01767071
#
# Stress axis : x y z
#
# Youngs Moduli (GPa) = 58.55598 48.23917 55.07611
#
# Poissons Ratio (x) = 0.42655 0.15427
# Poissons Ratio (y) = 0.51777 0.41326
# Poissons Ratio (z) = 0.16402 0.36196
#
# Static dielectric constant tensor:
#      x y z
#    x 3.804290 0.000000 0.000000 
#    y 0.000000 3.602850 0.000000 
#    z 0.000000 0.000000 4.013000 
# 
# 
# High freq. dielectric constant tensor:
#      x y z
#    x 1.806240 0.000000 0.000000 
#    y 0.000000 1.792310 0.000000 
#    z 0.000000 0.000000 1.831310 
# 
# From -- ./inp_files/29329.got.cif
#   From: 2010.03.12/outbox.cif.g09.slc.cpg/sg20_15_cif.got.tgz:29329.got - 2010.04.14 01:38:04.
