data_PCOD8159168
_publ_section_title
;
Structure prediction by ZEFSAII (Michael W. Deem and Ramdas Pophale) SiO2 
 PCOD8159168
Probable space group: C 2 2 21
;
_chemical_formula_sum "Si O2"
_cell_formula_units_Z 44
_cell_length_a 19.981385
_cell_length_b 14.053134
_cell_length_c 7.706766
_cell_angle_alpha 90.000000
_cell_angle_beta 90.000000
_cell_angle_gamma 90.000000
_cell_volume 2164.068223
_symmetry_space_group_name_H-M "C 2 2 21"
_symmetry_group_IT_number 20
_symmetry_cell_setting 'orthorhombic'
loop_
_space_group_symop_operation_xyz
x,y,z
-x,-y,1/2+z
x,-y,-z
-x,y,1/2-z
1/2+x,1/2+y,z
1/2-x,1/2-y,1/2+z
1/2+x,1/2-y,-z
1/2-x,1/2+y,1/2-z
loop_
_atom_site_type_symbol
_atom_site_label
_atom_site_fract_x
_atom_site_fract_y
_atom_site_fract_z
Si Si1 0.458887 0.407903 0.082630
Si Si2 0.500000 0.684422 0.250000
Si Si3 0.235404 0.619116 0.324589
Si Si4 0.640095 0.746207 0.155897
Si Si5 0.146481 0.786045 0.241276
Si Si6 0.270198 0.908319 0.232609
O O1 0.500000 0.443590 0.250000
O O2 0.415285 0.317306 0.140044
O O3 0.419842 0.500000 0.000000
O O4 0.507536 0.375386 0.926988
O O5 0.569852 0.743309 0.260158
O O6 0.303461 0.674034 0.265731
O O7 0.169773 0.679500 0.280193
O O8 0.231234 0.602991 0.527408
O O9 0.229674 0.520064 0.219237
O O10 0.667344 0.854213 0.177291
O O11 0.626975 0.713231 0.959837
O O12 0.202514 0.861150 0.300683
#
# Coordination Sequence:
#
# PCOD8159168 Si02
#       6
#     8   4   8   8   8   8
#     4  12  25  41  60  91 126 169 208 248 313 382
#     4  12  24  40  64  84 132 166 202 254 310 382
#     4   9  19  37  62  87 124 161 208 268 311 367
#     4  10  21  37  61  91 124 167 206 258 321 368
#     4  10  21  39  59  92 126 157 211 265 310 368
#     4   9  19  37  62  89 120 163 211 260 312 370
#
# _framework density 20.332076000000001
#
# number of rings (size 3 to 8) (size 9 to 14) (size 15 to 20)
#    0.000    1.818    2.727    1.091    2.545    2.182 
#    0.000    0.000    2.000    0.000    0.000    0.000 
#    0.000    0.000    0.000    0.000    0.000    0.000 
#
# Total GULP energy -272611.535977 kJ/mol
# GULP energy per Si atom -12391.433454 kJ/mol
# Density = 2.028580 g / cm^3
# Si number density = 20.332076 Si / 1000 Ang^3
#
#
#
# Elastic Constant Matrix: (Units=GPa)
#
#
# Indices 1 2 3 4 5 6 
#
# 1 101.2584 52.9830 33.4307 0.0000 0.0000 0.0000
# 2 52.9830 153.0608 29.4066 0.0000 0.0000 0.0000
# 3 33.4307 29.4066 71.6664 0.0000 0.0000 0.0000
# 4 0.0000 0.0000 0.0000 32.0195 0.0000 0.0000
# 5 0.0000 0.0000 0.0000 0.0000 28.2679 0.0000
# 6 0.0000 0.0000 0.0000 0.0000 0.0000 24.2561
#
#
#
# Elastic Compliance Matrix: (Units=1/GPa)
#
#
# Indices 1 2 3 4 5 6 
#
# 1 0.013382 -0.003727 -0.004713 0.000000 0.000000 0.000000
# 2 -0.003727 0.008130 -0.001598 0.000000 0.000000 0.000000
# 3 -0.004713 -0.001598 0.016808 0.000000 0.000000 0.000000
# 4 0.000000 0.000000 0.000000 0.031231 0.000000 0.000000
# 5 0.000000 0.000000 0.000000 0.000000 0.035376 0.000000
# 6 0.000000 0.000000 0.000000 0.000000 0.000000 0.041227
#
#
# Mechanical properties :
#
#
# Convention : Reuss Voigt Hill
#
# Bulk Modulus (GPa) = 54.81017 61.95847 58.38432
# Shear Modulus (GPa) = 29.01750 30.91971 29.96860
#
# Velocity S-wave (km/s) = 3.78190 3.90389 3.84338
# Velocity P-wave (km/s) = 6.78869 7.13161 6.96227
#
# Compressibility (1/GPa) = 0.01824479
#
# Stress axis : x y z
#
# Youngs Moduli (GPa) = 74.72870 122.99641 59.49666
#
# Poissons Ratio (x) = 0.45837 0.28041
# Poissons Ratio (y) = 0.27849 0.09506
# Poissons Ratio (z) = 0.35220 0.19651
#
# Static dielectric constant tensor:
#      x y z
#    x 3.461730 0.000000 0.000000 
#    y 0.000000 3.874010 0.000000 
#    z 0.000000 0.000000 3.688490 
# 
# 
# High freq. dielectric constant tensor:
#      x y z
#    x 1.770610 0.000000 0.000000 
#    y 0.000000 1.785150 0.000000 
#    z 0.000000 0.000000 1.807020 
# 
# From -- ./inp_files/9290.got.cif
#   From: 2010.03.12/outbox.cif.g09.slc.cpg/sg20_5_cif.got.tgz:9290.got - 2010.04.14 01:38:04.
