data_PCOD8159892
_publ_section_title
;
Structure prediction by ZEFSAII (Michael W. Deem and Ramdas Pophale) SiO2 
 PCOD8159892
Probable space group: C 2 2 21
;
_chemical_formula_sum "Si O2"
_cell_formula_units_Z 28
_cell_length_a 29.249282
_cell_length_b 7.634205
_cell_length_c 5.376039
_cell_angle_alpha 90.000000
_cell_angle_beta 90.000000
_cell_angle_gamma 90.000000
_cell_volume 1200.442709
_symmetry_space_group_name_H-M "C 2 2 21"
_symmetry_group_IT_number 20
_symmetry_cell_setting 'orthorhombic'
loop_
_space_group_symop_operation_xyz
x,y,z
-x,-y,1/2+z
x,-y,-z
-x,y,1/2-z
1/2+x,1/2+y,z
1/2-x,1/2-y,1/2+z
1/2+x,1/2-y,-z
1/2-x,1/2+y,1/2-z
loop_
_atom_site_type_symbol
_atom_site_label
_atom_site_fract_x
_atom_site_fract_y
_atom_site_fract_z
Si Si1 0.000000 0.388505 0.750000
Si Si2 0.097890 0.680467 0.153766
Si Si3 0.657337 0.500000 0.000000
Si Si4 0.659365 0.000000 0.500000
Si Si5 0.721172 0.260446 0.736944
O O1 0.045237 0.269061 0.785572
O O2 0.008371 0.500000 0.500000
O O3 0.126999 0.654224 0.402415
O O4 0.098409 0.500000 0.000000
O O5 0.123177 0.839056 0.025643
O O6 0.691306 0.438952 0.776418
O O7 0.690108 0.913942 0.283878
O O8 0.748799 0.277475 0.481055
#
# Coordination Sequence:
#
# PCOD8159892 Si02
#       5
#     4   8   4   4   8
#     4  10  22  46  78 110 152 200 238 302 388 452
#     4  11  24  48  74 113 148 197 244 314 370 463
#     4  12  27  48  80 108 148 198 258 312 375 438
#     4  12  25  46  72 102 150 192 246 310 367 454
#     4  12  29  49  72 109 150 199 254 313 378 441
#
# _framework density 23.324728
#
# number of rings (size 3 to 8) (size 9 to 14) (size 15 to 20)
#    0.000    0.571    4.286    2.571    0.000   11.429 
#    0.000    8.571    0.000    0.000    0.000    0.000 
#    0.000    0.000    0.000    0.000    0.000    0.000 
#
# Total GULP energy -173449.360090 kJ/mol
# GULP energy per Si atom -12389.240006 kJ/mol
# Density = 2.327164 g / cm^3
# Si number density = 23.324728 Si / 1000 Ang^3
#
#
#
# Elastic Constant Matrix: (Units=GPa)
#
#
# Indices 1 2 3 4 5 6 
#
# 1 197.3485 58.9129 61.1300 0.0000 0.0000 0.0000
# 2 58.9129 107.4923 28.6360 0.0000 0.0000 0.0000
# 3 61.1300 28.6360 125.7107 0.0000 0.0000 0.0000
# 4 0.0000 0.0000 0.0000 35.3672 0.0000 0.0000
# 5 0.0000 0.0000 0.0000 0.0000 32.7496 0.0000
# 6 0.0000 0.0000 0.0000 0.0000 0.0000 24.0868
#
#
#
# Elastic Compliance Matrix: (Units=1/GPa)
#
#
# Indices 1 2 3 4 5 6 
#
# 1 0.006776 -0.003019 -0.002607 0.000000 0.000000 0.000000
# 2 -0.003019 0.011249 -0.001094 0.000000 0.000000 0.000000
# 3 -0.002607 -0.001094 0.009472 0.000000 0.000000 0.000000
# 4 0.000000 0.000000 0.000000 0.028275 0.000000 0.000000
# 5 0.000000 0.000000 0.000000 0.000000 0.030535 0.000000
# 6 0.000000 0.000000 0.000000 0.000000 0.000000 0.041517
#
#
# Mechanical properties :
#
#
# Convention : Reuss Voigt Hill
#
# Bulk Modulus (GPa) = 71.14594 80.87882 76.01238
# Shear Modulus (GPa) = 34.25827 37.23222 35.74525
#
# Velocity S-wave (km/s) = 3.83659 3.99965 3.91897
# Velocity P-wave (km/s) = 7.08481 7.48866 7.28953
#
# Compressibility (1/GPa) = 0.01405562
#
# Stress axis : x y z
#
# Youngs Moduli (GPa) = 147.57768 88.89498 105.57515
#
# Poissons Ratio (x) = 0.26839 0.27527
# Poissons Ratio (y) = 0.44556 0.11554
# Poissons Ratio (z) = 0.38478 0.09728
#
# Static dielectric constant tensor:
#      x y z
#    x 4.889370 0.000000 0.000000 
#    y 0.000000 3.680810 0.000000 
#    z 0.000000 0.000000 4.327550 
# 
# 
# High freq. dielectric constant tensor:
#      x y z
#    x 1.951260 0.000000 0.000000 
#    y 0.000000 1.901710 0.000000 
#    z 0.000000 0.000000 1.925180 
# 
# From -- ./inp_files/469.got.cif
#   From: 2010.03.12/outbox.cif.g09.slc.cpg/sg20_1_cif.got.tgz:469.got - 2010.04.14 01:38:04.
