data_PCOD8159259
_publ_section_title
;
Structure prediction by ZEFSAII (Michael W. Deem and Ramdas Pophale) SiO2 
 PCOD8159259
Probable space group: C 2 2 21
;
_chemical_formula_sum "Si O2"
_cell_formula_units_Z 32
_cell_length_a 12.593060
_cell_length_b 14.217529
_cell_length_c 7.988329
_cell_angle_alpha 90.000000
_cell_angle_beta 90.000000
_cell_angle_gamma 90.000000
_cell_volume 1430.247965
_symmetry_space_group_name_H-M "C 2 2 21"
_symmetry_group_IT_number 20
_symmetry_cell_setting 'orthorhombic'
loop_
_space_group_symop_operation_xyz
x,y,z
-x,-y,1/2+z
x,-y,-z
-x,y,1/2-z
1/2+x,1/2+y,z
1/2-x,1/2-y,1/2+z
1/2+x,1/2-y,-z
1/2-x,1/2+y,1/2-z
loop_
_atom_site_type_symbol
_atom_site_label
_atom_site_fract_x
_atom_site_fract_y
_atom_site_fract_z
Si Si1 0.279215 0.510467 0.694655
Si Si2 0.749532 0.188119 0.904702
Si Si3 0.880810 0.169836 0.203872
Si Si4 0.411733 0.924560 0.629391
O O1 0.303146 0.500000 0.500000
O O2 0.289406 0.617554 0.758914
O O3 0.364363 0.442968 0.789601
O O4 0.161250 0.480038 0.739977
O O5 0.705190 0.284437 0.829694
O O6 0.853891 0.208265 0.017917
O O7 0.656453 0.149754 0.025255
O O8 0.000000 0.199822 0.250000
O O9 0.500000 0.876439 0.750000
O O10 0.462767 0.000000 0.500000
#
# Coordination Sequence:
#
# PCOD8159259 Si02
#       4
#     8   8   8   8
#     4  10  21  39  62  89 125 166 210 267 321 381
#     4  10  23  41  60  92 131 164 216 272 314 380
#     4  11  24  42  65  94 128 170 214 264 323 381
#     4   9  18  32  55  87 123 166 214 263 320 380
#
# _framework density 22.373742
#
# number of rings (size 3 to 8) (size 9 to 14) (size 15 to 20)
#    0.000    2.000    0.000    4.500    0.000   12.000 
#    0.000    2.500    0.000    0.000    0.000    0.000 
#    0.000    0.000    0.000    0.000    0.000    0.000 
#
# Total GULP energy -198312.354349 kJ/mol
# GULP energy per Si atom -12394.522147 kJ/mol
# Density = 2.232282 g / cm^3
# Si number density = 22.373742 Si / 1000 Ang^3
#
#
#
# Elastic Constant Matrix: (Units=GPa)
#
#
# Indices 1 2 3 4 5 6 
#
# 1 93.8975 25.0398 49.8638 0.0000 0.0000 0.0000
# 2 25.0398 63.3735 8.6605 0.0000 0.0000 0.0000
# 3 49.8638 8.6605 114.4866 0.0000 0.0000 0.0000
# 4 0.0000 0.0000 0.0000 33.4194 0.0000 0.0000
# 5 0.0000 0.0000 0.0000 0.0000 39.6025 0.0000
# 6 0.0000 0.0000 0.0000 0.0000 0.0000 15.3892
#
#
#
# Elastic Compliance Matrix: (Units=1/GPa)
#
#
# Indices 1 2 3 4 5 6 
#
# 1 0.015392 -0.005219 -0.006309 0.000000 0.000000 0.000000
# 2 -0.005219 0.017714 0.000933 0.000000 0.000000 0.000000
# 3 -0.006309 0.000933 0.011412 0.000000 0.000000 0.000000
# 4 0.000000 0.000000 0.000000 0.029923 0.000000 0.000000
# 5 0.000000 0.000000 0.000000 0.000000 0.025251 0.000000
# 6 0.000000 0.000000 0.000000 0.000000 0.000000 0.064980
#
#
# Mechanical properties :
#
#
# Convention : Reuss Voigt Hill
#
# Bulk Modulus (GPa) = 42.86745 48.76509 45.81627
# Shear Modulus (GPa) = 25.82123 30.22846 28.02484
#
# Velocity S-wave (km/s) = 3.40087 3.67968 3.54302
# Velocity P-wave (km/s) = 5.88409 6.31636 6.10405
#
# Compressibility (1/GPa) = 0.02332772
#
# Stress axis : x y z
#
# Youngs Moduli (GPa) = 64.96785 56.45180 87.62751
#
# Poissons Ratio (x) = 0.29465 0.55285
# Poissons Ratio (y) = 0.33910 -0.08178
# Poissons Ratio (z) = 0.40989 -0.05269
#
# Static dielectric constant tensor:
#      x y z
#    x 3.732320 0.000000 0.000000 
#    y 0.000000 3.858450 0.000000 
#    z 0.000000 0.000000 4.260380 
# 
# 
# High freq. dielectric constant tensor:
#      x y z
#    x 1.857420 0.000000 0.000000 
#    y 0.000000 1.867890 0.000000 
#    z 0.000000 0.000000 1.896730 
# 
# From -- ./inp_files/6769.got.cif
#   From: 2010.03.12/outbox.cif.g09.slc.cpg/sg20_4_cif.got.tgz:6769.got - 2010.04.14 01:38:04.
