data_PCOD8159856
_publ_section_title
;
Structure prediction by ZEFSAII (Michael W. Deem and Ramdas Pophale) SiO2 
 PCOD8159856
Probable space group: C 2 2 21
;
_chemical_formula_sum "Si O2"
_cell_formula_units_Z 56
_cell_length_a 13.848027
_cell_length_b 12.402455
_cell_length_c 14.464852
_cell_angle_alpha 90.000000
_cell_angle_beta 90.000000
_cell_angle_gamma 90.000000
_cell_volume 2484.331557
_symmetry_space_group_name_H-M "C 2 2 21"
_symmetry_group_IT_number 20
_symmetry_cell_setting 'orthorhombic'
loop_
_space_group_symop_operation_xyz
x,y,z
-x,-y,1/2+z
x,-y,-z
-x,y,1/2-z
1/2+x,1/2+y,z
1/2-x,1/2-y,1/2+z
1/2+x,1/2-y,-z
1/2-x,1/2+y,1/2-z
loop_
_atom_site_type_symbol
_atom_site_label
_atom_site_fract_x
_atom_site_fract_y
_atom_site_fract_z
Si Si1 0.805912 0.055383 0.700100
Si Si2 0.120714 0.707896 0.396496
Si Si3 0.500000 0.321574 0.250000
Si Si4 0.530185 0.996349 0.647563
Si Si5 0.609320 0.331086 0.768724
Si Si6 0.127744 0.500000 0.000000
Si Si7 0.203731 0.346227 0.138046
Si Si8 0.654299 0.190000 0.605534
O O1 0.908654 0.107190 0.722862
O O2 0.728119 0.063306 0.784815
O O3 0.753283 0.117391 0.613833
O O4 0.829271 0.928795 0.685145
O O5 0.025768 0.752479 0.342535
O O6 0.119874 0.578659 0.384085
O O7 0.212948 0.758784 0.349250
O O8 0.130677 0.736211 0.504478
O O9 0.500000 0.969788 0.750000
O O10 0.437807 0.964723 0.585720
O O11 0.561609 0.118790 0.634246
O O12 0.500000 0.368610 0.750000
O O13 0.609103 0.225054 0.836260
O O14 0.659999 0.293876 0.672598
O O15 0.193854 0.599265 0.963091
#
# Coordination Sequence:
#
# PCOD8159856 Si02
#       8
#     8   8   4   8   8   4   8   8
#     4  10  22  44  71  99 143 185 234 292 362 427
#     4  11  23  43  68  98 142 180 238 289 359 421
#     4  10  22  46  68 106 138 200 236 284 368 446
#     4  12  23  42  70  99 135 181 234 292 349 422
#     4  11  22  42  70  96 134 183 230 283 359 423
#     4  12  24  42  66  98 140 170 228 294 346 416
#     4  10  25  41  64 103 136 178 231 283 356 428
#     4  11  23  41  67 105 138 179 242 297 349 430
#
# _framework density 22.541276
#
# number of rings (size 3 to 8) (size 9 to 14) (size 15 to 20)
#    0.000    1.143    2.857    3.857    2.000    1.143 
#    0.000    0.000    0.000    0.000    0.000    0.000 
#    0.000    0.000    0.000    0.000    0.000    0.000 
#
# Total GULP energy -346975.159202 kJ/mol
# GULP energy per Si atom -12391.969971 kJ/mol
# Density = 2.248997 g / cm^3
# Si number density = 22.541276 Si / 1000 Ang^3
#
#
#
# Elastic Constant Matrix: (Units=GPa)
#
#
# Indices 1 2 3 4 5 6 
#
# 1 97.8376 37.1548 25.0905 0.0000 0.0000 0.0000
# 2 37.1548 88.0891 26.2459 0.0000 0.0000 0.0000
# 3 25.0905 26.2459 130.5923 0.0000 0.0000 0.0000
# 4 0.0000 0.0000 0.0000 33.1165 0.0000 0.0000
# 5 0.0000 0.0000 0.0000 0.0000 27.4301 0.0000
# 6 0.0000 0.0000 0.0000 0.0000 0.0000 29.5342
#
#
#
# Elastic Compliance Matrix: (Units=1/GPa)
#
#
# Indices 1 2 3 4 5 6 
#
# 1 0.012412 -0.004813 -0.001417 0.000000 0.000000 0.000000
# 2 -0.004813 0.013942 -0.001877 0.000000 0.000000 0.000000
# 3 -0.001417 -0.001877 0.008307 0.000000 0.000000 0.000000
# 4 0.000000 0.000000 0.000000 0.030196 0.000000 0.000000
# 5 0.000000 0.000000 0.000000 0.000000 0.036456 0.000000
# 6 0.000000 0.000000 0.000000 0.000000 0.000000 0.033859
#
#
# Mechanical properties :
#
#
# Convention : Reuss Voigt Hill
#
# Bulk Modulus (GPa) = 54.21374 54.83351 54.52362
# Shear Modulus (GPa) = 31.73866 33.21800 32.47833
#
# Velocity S-wave (km/s) = 3.75644 3.84298 3.79996
# Velocity P-wave (km/s) = 6.55114 6.63852 6.59498
#
# Compressibility (1/GPa) = 0.01844551
#
# Stress axis : x y z
#
# Youngs Moduli (GPa) = 80.56511 71.72822 120.38006
#
# Poissons Ratio (x) = 0.34523 0.17063
# Poissons Ratio (y) = 0.38776 0.22598
# Poissons Ratio (z) = 0.11420 0.13465
#
# Static dielectric constant tensor:
#      x y z
#    x 4.128790 0.000000 0.000000 
#    y 0.000000 4.136990 0.000000 
#    z 0.000000 0.000000 4.147450 
# 
# 
# High freq. dielectric constant tensor:
#      x y z
#    x 1.895500 0.000000 0.000000 
#    y 0.000000 1.890120 0.000000 
#    z 0.000000 0.000000 1.874990 
# 
# From -- ./inp_files/20785.got.cif
#   From: 2010.03.12/outbox.cif.g09.slc.cpg/sg20_11_cif.got.tgz:20785.got - 2010.04.14 01:38:04.
