data_PCOD8159855
_publ_section_title
;
Structure prediction by ZEFSAII (Michael W. Deem and Ramdas Pophale) SiO2 
 PCOD8159855
Probable space group: C 2 2 21
;
_chemical_formula_sum "Si O2"
_cell_formula_units_Z 36
_cell_length_a 22.697345
_cell_length_b 7.499669
_cell_length_c 9.785514
_cell_angle_alpha 90.000000
_cell_angle_beta 90.000000
_cell_angle_gamma 90.000000
_cell_volume 1665.715388
_symmetry_space_group_name_H-M "C 2 2 21"
_symmetry_group_IT_number 20
_symmetry_cell_setting 'orthorhombic'
loop_
_space_group_symop_operation_xyz
x,y,z
-x,-y,1/2+z
x,-y,-z
-x,y,1/2-z
1/2+x,1/2+y,z
1/2-x,1/2-y,1/2+z
1/2+x,1/2-y,-z
1/2-x,1/2+y,1/2-z
loop_
_atom_site_type_symbol
_atom_site_label
_atom_site_fract_x
_atom_site_fract_y
_atom_site_fract_z
Si Si1 0.321050 0.914414 0.801926
Si Si2 0.634857 0.299949 0.049910
Si Si3 0.418396 0.000000 0.000000
Si Si4 0.998657 0.822303 0.415702
Si Si5 0.237782 0.357099 0.098839
O O1 0.342490 0.755837 0.700530
O O2 0.281307 0.809864 0.911894
O O3 0.273682 0.056897 0.746470
O O4 0.376033 0.019090 0.867994
O O5 0.565851 0.257389 0.040645
O O6 0.647462 0.500000 0.000000
O O7 0.670377 0.177887 0.945724
O O8 0.457173 0.173913 0.027039
O O9 0.000000 0.850943 0.250000
O O10 0.015506 0.000000 0.500000
O O11 0.268269 0.500000 0.000000
#
# Coordination Sequence:
#
# PCOD8159855 Si02
#       5
#     8   8   4   8   8
#     4  11  24  43  65 105 137 181 230 292 354 425
#     4  10  22  44  71  95 135 178 233 290 353 426
#     4  12  28  42  76 102 150 178 242 290 360 422
#     4  11  26  49  72 108 142 191 245 298 363 430
#     4  10  24  40  68  98 134 181 230 283 359 423
#
# _framework density 21.612337
#
# number of rings (size 3 to 8) (size 9 to 14) (size 15 to 20)
#    0.000    1.333    2.222    1.333   12.444    5.333 
#    0.000    0.000    0.000    0.000    0.000    0.000 
#    0.000    0.000    0.000    0.000    0.000    0.000 
#
# Total GULP energy -223000.208994 kJ/mol
# GULP energy per Si atom -12388.900500 kJ/mol
# Density = 2.156315 g / cm^3
# Si number density = 21.612337 Si / 1000 Ang^3
#
#
#
# Elastic Constant Matrix: (Units=GPa)
#
#
# Indices 1 2 3 4 5 6 
#
# 1 112.1327 50.4633 36.4547 0.0000 0.0000 0.0000
# 2 50.4633 96.0362 49.5327 0.0000 0.0000 0.0000
# 3 36.4547 49.5327 107.8865 0.0000 0.0000 0.0000
# 4 0.0000 0.0000 0.0000 41.7139 0.0000 0.0000
# 5 0.0000 0.0000 0.0000 0.0000 -116.1365 0.0000
# 6 0.0000 0.0000 0.0000 0.0000 0.0000 24.3469
#
#
#
# Elastic Compliance Matrix: (Units=1/GPa)
#
#
# Indices 1 2 3 4 5 6 
#
# 1 0.011863 -0.005459 -0.001502 0.000000 0.000000 0.000000
# 2 -0.005459 0.016155 -0.005573 0.000000 0.000000 0.000000
# 3 -0.001502 -0.005573 0.012335 0.000000 0.000000 0.000000
# 4 0.000000 0.000000 0.000000 0.023973 0.000000 0.000000
# 5 0.000000 0.000000 0.000000 0.000000 -0.008611 0.000000
# 6 0.000000 0.000000 0.000000 0.000000 0.000000 0.041073
#
#
# Mechanical properties :
#
#
# Convention : Reuss Voigt Hill
#
# Bulk Modulus (GPa) = 65.41916 65.43964 65.42940
# Shear Modulus (GPa) = 39.38510 1.95850 20.67180
#
# Velocity S-wave (km/s) = 4.27352 0.95298 3.09606
# Velocity P-wave (km/s) = 7.39498 5.61742 6.56663
#
# Compressibility (1/GPa) = 0.01528604
#
# Stress axis : x y z
#
# Youngs Moduli (GPa) = 84.29578 61.89911 81.06905
#
# Poissons Ratio (x) = 0.33789 0.12179
# Poissons Ratio (y) = 0.46015 0.45178
# Poissons Ratio (z) = 0.12664 0.34495
#
# Static dielectric constant tensor:
#      x y z
#    x 4.010410 0.000000 0.000000 
#    y 0.000000 4.378370 0.000000 
#    z 0.000000 0.000000 4.055550 
# 
# 
# High freq. dielectric constant tensor:
#      x y z
#    x 1.860780 0.000000 0.000000 
#    y 0.000000 1.854360 0.000000 
#    z 0.000000 0.000000 1.848640 
# 
# From -- ./inp_files/5900.got.cif
#   From: 2010.03.12/outbox.cif.g09.slc.cpg/sg20_3_cif.got.tgz:5900.got - 2010.04.14 01:38:04.
