data_PCOD8159281
_publ_section_title
;
Structure prediction by ZEFSAII (Michael W. Deem and Ramdas Pophale) SiO2 
 PCOD8159281
Probable space group: C 2 2 21
;
_chemical_formula_sum "Si O2"
_cell_formula_units_Z 52
_cell_length_a 9.602731
_cell_length_b 16.723122
_cell_length_c 16.324091
_cell_angle_alpha 90.000000
_cell_angle_beta 90.000000
_cell_angle_gamma 90.000000
_cell_volume 2621.447282
_symmetry_space_group_name_H-M "C 2 2 21"
_symmetry_group_IT_number 20
_symmetry_cell_setting 'orthorhombic'
loop_
_space_group_symop_operation_xyz
x,y,z
-x,-y,1/2+z
x,-y,-z
-x,y,1/2-z
1/2+x,1/2+y,z
1/2-x,1/2-y,1/2+z
1/2+x,1/2-y,-z
1/2-x,1/2+y,1/2-z
loop_
_atom_site_type_symbol
_atom_site_label
_atom_site_fract_x
_atom_site_fract_y
_atom_site_fract_z
Si Si1 0.285443 0.942186 0.224007
Si Si2 0.017258 0.000000 0.000000
Si Si3 0.327630 0.259809 0.557234
Si Si4 0.500000 0.639712 0.750000
Si Si5 0.537957 0.111912 0.871561
Si Si6 0.962995 0.500000 0.000000
Si Si7 0.258762 0.425702 0.611759
Si Si8 0.548250 0.330134 0.434898
O O1 0.356786 0.930258 0.310027
O O2 0.376673 0.893781 0.156305
O O3 0.129590 0.912489 0.222965
O O4 0.278928 0.036307 0.200360
O O5 0.107618 0.971257 0.923384
O O6 0.932786 0.076305 0.962144
O O7 0.426398 0.203633 0.612009
O O8 0.287683 0.331825 0.618532
O O9 0.409978 0.292509 0.477358
O O10 0.186440 0.214118 0.531141
O O11 0.461503 0.685768 0.835546
O O12 0.563538 0.058918 0.951249
O O13 0.871736 0.439480 0.946791
#
# Coordination Sequence:
#
# PCOD8159281 Si02
#       8
#     8   4   8   4   8   4   8   8
#     4  10  21  40  66  88 122 170 213 257 323 392
#     4   9  18  37  64  92 118 168 216 256 298 404
#     4  11  23  40  62 100 128 168 212 272 327 382
#     4  12  22  42  66  92 128 176 216 270 320 396
#     4  10  21  39  65  94 125 165 217 264 322 388
#     4   9  18  35  64  88 120 168 212 252 304 390
#     4   9  18  36  63  89 122 164 208 255 322 379
#     4  11  24  40  68  93 134 170 221 265 334 385
#
# _framework density 19.836369999999999
#
# number of rings (size 3 to 8) (size 9 to 14) (size 15 to 20)
#    0.000    1.846    3.077    0.923    4.308    0.615 
#    0.000    6.154    0.000    0.000    0.000    0.000 
#    0.000    0.000    0.000    0.000    0.000    0.000 
#
# Total GULP energy -322158.198738 kJ/mol
# GULP energy per Si atom -12390.699951 kJ/mol
# Density = 1.979122 g / cm^3
# Si number density = 19.836370 Si / 1000 Ang^3
#
#
#
# Elastic Constant Matrix: (Units=GPa)
#
#
# Indices 1 2 3 4 5 6 
#
# 1 96.9149 55.5485 25.4967 0.0000 0.0000 0.0000
# 2 55.5485 160.8806 57.6370 0.0000 0.0000 0.0000
# 3 25.4967 57.6370 102.2868 0.0000 0.0000 0.0000
# 4 0.0000 0.0000 0.0000 28.9523 0.0000 0.0000
# 5 0.0000 0.0000 0.0000 0.0000 7.1451 0.0000
# 6 0.0000 0.0000 0.0000 0.0000 0.0000 22.5167
#
#
#
# Elastic Compliance Matrix: (Units=1/GPa)
#
#
# Indices 1 2 3 4 5 6 
#
# 1 0.012928 -0.004146 -0.000886 0.000000 0.000000 0.000000
# 2 -0.004146 0.009118 -0.004104 0.000000 0.000000 0.000000
# 3 -0.000886 -0.004104 0.012310 0.000000 0.000000 0.000000
# 4 0.000000 0.000000 0.000000 0.034540 0.000000 0.000000
# 5 0.000000 0.000000 0.000000 0.000000 0.139957 0.000000
# 6 0.000000 0.000000 0.000000 0.000000 0.000000 0.044412
#
#
# Mechanical properties :
#
#
# Convention : Reuss Voigt Hill
#
# Bulk Modulus (GPa) = 62.17947 70.82741 66.50344
# Shear Modulus (GPa) = 18.05721 26.48280 22.27000
#
# Velocity S-wave (km/s) = 3.02040 3.65782 3.35428
# Velocity P-wave (km/s) = 6.60137 7.32276 6.97140
#
# Compressibility (1/GPa) = 0.01608248
#
# Stress axis : x y z
#
# Youngs Moduli (GPa) = 77.35163 109.67586 81.23494
#
# Poissons Ratio (x) = 0.45475 0.07199
# Poissons Ratio (y) = 0.32072 0.33340
# Poissons Ratio (z) = 0.06855 0.45013
#
# Static dielectric constant tensor:
#      x y z
#    x 3.741180 0.000000 0.000000 
#    y 0.000000 3.763640 0.000000 
#    z 0.000000 0.000000 3.743220 
# 
# 
# High freq. dielectric constant tensor:
#      x y z
#    x 1.780500 0.000000 0.000000 
#    y 0.000000 1.764620 0.000000 
#    z 0.000000 0.000000 1.765780 
# 
# From -- ./inp_files/23732.got.cif
#   From: 2010.03.12/outbox.cif.g09.slc.cpg/sg20_12_cif.got.tgz:23732.got - 2010.04.14 01:38:04.
