data_PCOD8159335
_publ_section_title
;
Structure prediction by ZEFSAII (Michael W. Deem and Ramdas Pophale) SiO2 
 PCOD8159335
Probable space group: C 2 2 21
;
_chemical_formula_sum "Si O2"
_cell_formula_units_Z 28
_cell_length_a 18.844791
_cell_length_b 4.899736
_cell_length_c 13.949920
_cell_angle_alpha 90.000000
_cell_angle_beta 90.000000
_cell_angle_gamma 90.000000
_cell_volume 1288.058900
_symmetry_space_group_name_H-M "C 2 2 21"
_symmetry_group_IT_number 20
_symmetry_cell_setting 'orthorhombic'
loop_
_space_group_symop_operation_xyz
x,y,z
-x,-y,1/2+z
x,-y,-z
-x,y,1/2-z
1/2+x,1/2+y,z
1/2-x,1/2-y,1/2+z
1/2+x,1/2-y,-z
1/2-x,1/2+y,1/2-z
loop_
_atom_site_type_symbol
_atom_site_label
_atom_site_fract_x
_atom_site_fract_y
_atom_site_fract_z
Si Si1 0.575640 0.340776 0.702874
Si Si2 0.399503 0.165446 0.083565
Si Si3 0.713465 0.444958 0.203558
Si Si4 0.265306 0.000000 0.000000
O O1 0.500000 0.303176 0.750000
O O2 0.566238 0.546294 0.612032
O O3 0.632477 0.471773 0.775207
O O4 0.604140 0.044294 0.673036
O O5 0.319475 0.229060 0.043859
O O6 0.443240 0.000000 0.000000
O O7 0.769260 0.669560 0.239876
O O8 0.717896 0.392059 0.088494
#
# Coordination Sequence:
#
# PCOD8159335 Si02
#       4
#     8   8   8   4
#     4  12  23  41  64  91 129 163 199 257 318 365
#     4  10  21  40  65  87 119 167 206 246 312 368
#     4  12  22  41  65  94 122 163 212 257 302 372
#     4  10  22  38  68  90 124 162 218 250 314 354
#
# _framework density 21.738133999999999
#
# number of rings (size 3 to 8) (size 9 to 14) (size 15 to 20)
#    0.857    0.000    5.714    1.714    0.000    3.429 
#    5.143    0.000    0.000    0.000    0.000    0.000 
#    0.000    0.000    0.000    0.000    0.000    0.000 
#
# Total GULP energy -173439.923042 kJ/mol
# GULP energy per Si atom -12388.565932 kJ/mol
# Density = 2.168866 g / cm^3
# Si number density = 21.738134 Si / 1000 Ang^3
#
#
#
# Elastic Constant Matrix: (Units=GPa)
#
#
# Indices 1 2 3 4 5 6 
#
# 1 104.6148 17.3134 48.9042 0.0000 0.0000 0.0000
# 2 17.3134 78.3956 8.5902 0.0000 0.0000 0.0000
# 3 48.9042 8.5902 123.7119 0.0000 0.0000 0.0000
# 4 0.0000 0.0000 0.0000 22.0438 0.0000 0.0000
# 5 0.0000 0.0000 0.0000 0.0000 29.6086 0.0000
# 6 0.0000 0.0000 0.0000 0.0000 0.0000 15.2831
#
#
#
# Elastic Compliance Matrix: (Units=1/GPa)
#
#
# Indices 1 2 3 4 5 6 
#
# 1 0.012078 -0.002161 -0.004625 0.000000 0.000000 0.000000
# 2 -0.002161 0.013240 -0.000065 0.000000 0.000000 0.000000
# 3 -0.004625 -0.000065 0.009916 0.000000 0.000000 0.000000
# 4 0.000000 0.000000 0.000000 0.045364 0.000000 0.000000
# 5 0.000000 0.000000 0.000000 0.000000 0.033774 0.000000
# 6 0.000000 0.000000 0.000000 0.000000 0.000000 0.065432
#
#
# Mechanical properties :
#
#
# Convention : Reuss Voigt Hill
#
# Bulk Modulus (GPa) = 46.43957 50.70422 48.57189
# Shear Modulus (GPa) = 24.91490 28.84808 26.88149
#
# Velocity S-wave (km/s) = 3.38914 3.64685 3.52035
# Velocity P-wave (km/s) = 6.06008 6.41158 6.23831
#
# Compressibility (1/GPa) = 0.02153336
#
# Stress axis : x y z
#
# Youngs Moduli (GPa) = 82.79288 75.52782 100.84737
#
# Poissons Ratio (x) = 0.16319 0.46638
# Poissons Ratio (y) = 0.17889 0.00658
# Poissons Ratio (z) = 0.38289 0.00493
#
# Static dielectric constant tensor:
#      x y z
#    x 3.487650 0.000000 0.000000 
#    y 0.000000 3.843600 0.000000 
#    z 0.000000 0.000000 4.160490 
# 
# 
# High freq. dielectric constant tensor:
#      x y z
#    x 1.813790 0.000000 0.000000 
#    y 0.000000 1.854090 0.000000 
#    z 0.000000 0.000000 1.863260 
# 
# From -- ./inp_files/16025.got.cif
#   From: 2010.03.12/outbox.cif.g09.slc.cpg/sg20_9_cif.got.tgz:16025.got - 2010.04.14 01:38:04.
