data_PCOD8159252
_publ_section_title
;
Structure prediction by ZEFSAII (Michael W. Deem and Ramdas Pophale) SiO2 
 PCOD8159252
Probable space group: C 2 2 21
;
_chemical_formula_sum "Si O2"
_cell_formula_units_Z 36
_cell_length_a 13.321797
_cell_length_b 8.264153
_cell_length_c 14.595330
_cell_angle_alpha 90.000000
_cell_angle_beta 90.000000
_cell_angle_gamma 90.000000
_cell_volume 1606.849046
_symmetry_space_group_name_H-M "C 2 2 21"
_symmetry_group_IT_number 20
_symmetry_cell_setting 'orthorhombic'
loop_
_space_group_symop_operation_xyz
x,y,z
-x,-y,1/2+z
x,-y,-z
-x,y,1/2-z
1/2+x,1/2+y,z
1/2-x,1/2-y,1/2+z
1/2+x,1/2-y,-z
1/2-x,1/2+y,1/2-z
loop_
_atom_site_type_symbol
_atom_site_label
_atom_site_fract_x
_atom_site_fract_y
_atom_site_fract_z
Si Si1 0.000000 0.882376 0.750000
Si Si2 0.899883 0.685031 0.002599
Si Si3 0.911528 0.876353 0.571943
Si Si4 0.302079 0.304153 0.834726
Si Si5 0.231369 0.818352 0.346521
O O1 0.950831 0.977102 0.662911
O O2 0.912475 0.772028 0.792352
O O3 0.805566 0.712733 0.932307
O O4 0.994877 0.794178 0.978282
O O5 0.933445 0.500000 0.000000
O O6 0.863390 0.735846 0.103785
O O7 0.832726 0.742062 0.604397
O O8 0.861153 0.000000 0.500000
O O9 0.224314 0.228949 0.761458
O O10 0.275920 0.489727 0.854224
#
# Coordination Sequence:
#
# PCOD8159252 Si02
#       5
#     4   8   8   8   8
#     4   8  18  38  60  82 114 154 198 250 300 352
#     4  11  22  38  60  89 124 164 206 251 304 366
#     4  10  21  39  62  88 122 161 203 255 307 358
#     4  10  21  39  61  88 121 161 205 253 305 361
#     4  11  22  39  63  89 123 163 203 252 304 363
#
# _framework density 22.404095999999999
#
# number of rings (size 3 to 8) (size 9 to 14) (size 15 to 20)
#    0.000    1.778    0.000    5.333    0.000    3.556 
#    0.000    2.222    0.000    5.333    0.000    0.000 
#    0.000    0.000    0.000    0.000    0.000    0.000 
#
# Total GULP energy -223000.267714 kJ/mol
# GULP energy per Si atom -12388.903762 kJ/mol
# Density = 2.235310 g / cm^3
# Si number density = 22.404096 Si / 1000 Ang^3
#
#
#
# Elastic Constant Matrix: (Units=GPa)
#
#
# Indices 1 2 3 4 5 6 
#
# 1 73.3074 15.9248 15.3498 0.0000 0.0000 0.0000
# 2 15.9248 100.8576 30.7098 0.0000 0.0000 0.0000
# 3 15.3498 30.7098 66.4367 0.0000 0.0000 0.0000
# 4 0.0000 0.0000 0.0000 36.6742 0.0000 0.0000
# 5 0.0000 0.0000 0.0000 0.0000 32.4138 0.0000
# 6 0.0000 0.0000 0.0000 0.0000 0.0000 12.7589
#
#
#
# Elastic Compliance Matrix: (Units=1/GPa)
#
#
# Indices 1 2 3 4 5 6 
#
# 1 0.014522 -0.001480 -0.002671 0.000000 0.000000 0.000000
# 2 -0.001480 0.011690 -0.005062 0.000000 0.000000 0.000000
# 3 -0.002671 -0.005062 0.018009 0.000000 0.000000 0.000000
# 4 0.000000 0.000000 0.000000 0.027267 0.000000 0.000000
# 5 0.000000 0.000000 0.000000 0.000000 0.030851 0.000000
# 6 0.000000 0.000000 0.000000 0.000000 0.000000 0.078377
#
#
# Mechanical properties :
#
#
# Convention : Reuss Voigt Hill
#
# Bulk Modulus (GPa) = 38.76641 40.50783 39.63712
# Shear Modulus (GPa) = 24.06866 28.27719 26.17292
#
# Velocity S-wave (km/s) = 3.28120 3.55652 3.42163
# Velocity P-wave (km/s) = 5.62991 5.91480 5.77411
#
# Compressibility (1/GPa) = 0.02579553
#
# Stress axis : x y z
#
# Youngs Moduli (GPa) = 68.86132 85.54467 55.52832
#
# Poissons Ratio (x) = 0.12657 0.14833
# Poissons Ratio (y) = 0.10188 0.28107
# Poissons Ratio (z) = 0.18395 0.43300
#
# Static dielectric constant tensor:
#      x y z
#    x 4.014360 0.000000 0.000000 
#    y 0.000000 3.683670 0.000000 
#    z 0.000000 0.000000 4.851330 
# 
# 
# High freq. dielectric constant tensor:
#      x y z
#    x 1.877900 0.000000 0.000000 
#    y 0.000000 1.848860 0.000000 
#    z 0.000000 0.000000 1.915610 
# 
# From -- ./inp_files/18448.got.cif
#   From: 2010.03.12/outbox.cif.g09.slc.cpg/sg20_10_cif.got.tgz:18448.got - 2010.04.14 01:38:04.
