data_PCOD8159018
_publ_section_title
;
Structure prediction by ZEFSAII (Michael W. Deem and Ramdas Pophale) SiO2 
 PCOD8159018
Probable space group: C 2 2 21
;
_chemical_formula_sum "Si O2"
_cell_formula_units_Z 56
_cell_length_a 8.642206
_cell_length_b 20.105059
_cell_length_c 15.420907
_cell_angle_alpha 90.000000
_cell_angle_beta 90.000000
_cell_angle_gamma 90.000000
_cell_volume 2679.414382
_symmetry_space_group_name_H-M "C 2 2 21"
_symmetry_group_IT_number 20
_symmetry_cell_setting 'orthorhombic'
loop_
_space_group_symop_operation_xyz
x,y,z
-x,-y,1/2+z
x,-y,-z
-x,y,1/2-z
1/2+x,1/2+y,z
1/2-x,1/2-y,1/2+z
1/2+x,1/2-y,-z
1/2-x,1/2+y,1/2-z
loop_
_atom_site_type_symbol
_atom_site_label
_atom_site_fract_x
_atom_site_fract_y
_atom_site_fract_z
Si Si1 0.534645 0.000000 0.000000
Si Si2 0.135158 0.701193 0.681865
Si Si3 0.790873 0.578985 0.925011
Si Si4 0.976674 0.000000 0.500000
Si Si5 0.282902 0.595938 0.074113
Si Si6 0.816698 0.325489 0.739546
Si Si7 0.223924 0.675145 0.431093
Si Si8 0.452202 0.720386 0.015760
O O1 0.633923 0.937573 0.967515
O O2 0.427762 0.024092 0.918371
O O3 0.210149 0.630124 0.655514
O O4 0.269407 0.750145 0.715800
O O5 0.053940 0.733687 0.599877
O O6 0.000000 0.688052 0.750000
O O7 0.623354 0.545209 0.934450
O O8 0.837798 0.611391 0.018243
O O9 0.076527 0.956428 0.567776
O O10 0.248964 0.619795 0.172503
O O11 0.330003 0.660220 0.018078
O O12 0.736032 0.342287 0.832067
O O13 0.000000 0.331298 0.750000
O O14 0.372182 0.695754 0.490288
O O15 0.094836 0.734183 0.433066
#
# Coordination Sequence:
#
# PCOD8159018 Si02
#       8
#     4   8   8   4   8   8   8   8
#     4  10  22  40  62  88 122 172 214 258 290 376
#     4  10  21  40  62  92 127 158 196 259 324 377
#     4  10  22  39  66  89 124 166 214 250 314 371
#     4  10  20  42  64  92 120 174 220 260 292 386
#     4  10  22  40  64  90 124 164 218 257 314 367
#     4  11  24  38  63  96 130 159 202 268 330 378
#     4  11  22  38  65  95 129 157 207 261 321 395
#     4  10  22  36  64  96 121 160 202 254 326 378
#
# _framework density 20.900089000000001
#
# number of rings (size 3 to 8) (size 9 to 14) (size 15 to 20)
#    0.000    1.714    2.857    0.857   10.000    0.000 
#    0.000    5.000    0.000    1.714    0.000    0.000 
#    0.000    0.000    0.000    0.000    0.000    0.000 
#
# Total GULP energy -347075.775546 kJ/mol
# GULP energy per Si atom -12395.563412 kJ/mol
# Density = 2.085252 g / cm^3
# Si number density = 20.900089 Si / 1000 Ang^3
#
#
#
# Elastic Constant Matrix: (Units=GPa)
#
#
# Indices 1 2 3 4 5 6 
#
# 1 126.6955 50.4350 28.9227 0.0000 0.0000 0.0000
# 2 50.4350 107.0947 40.6766 0.0000 0.0000 0.0000
# 3 28.9227 40.6766 84.4438 0.0000 0.0000 0.0000
# 4 0.0000 0.0000 0.0000 30.2851 0.0000 0.0000
# 5 0.0000 0.0000 0.0000 0.0000 25.3673 0.0000
# 6 0.0000 0.0000 0.0000 0.0000 0.0000 36.6919
#
#
#
# Elastic Compliance Matrix: (Units=1/GPa)
#
#
# Indices 1 2 3 4 5 6 
#
# 1 0.009846 -0.004108 -0.001394 0.000000 0.000000 0.000000
# 2 -0.004108 0.013142 -0.004924 0.000000 0.000000 0.000000
# 3 -0.001394 -0.004924 0.014691 0.000000 0.000000 0.000000
# 4 0.000000 0.000000 0.000000 0.033020 0.000000 0.000000
# 5 0.000000 0.000000 0.000000 0.000000 0.039421 0.000000
# 6 0.000000 0.000000 0.000000 0.000000 0.000000 0.027254
#
#
# Mechanical properties :
#
#
# Convention : Reuss Voigt Hill
#
# Bulk Modulus (GPa) = 59.41929 62.03361 60.72645
# Shear Modulus (GPa) = 30.51872 31.68218 31.10045
#
# Velocity S-wave (km/s) = 3.82543 3.89766 3.86171
# Velocity P-wave (km/s) = 6.92847 7.07115 7.00018
#
# Compressibility (1/GPa) = 0.01682955
#
# Stress axis : x y z
#
# Youngs Moduli (GPa) = 101.56117 76.09170 68.06755
#
# Poissons Ratio (x) = 0.31255 0.09487
# Poissons Ratio (y) = 0.41717 0.33514
# Poissons Ratio (z) = 0.14156 0.37465
#
# Static dielectric constant tensor:
#      x y z
#    x 3.847630 0.000000 0.000000 
#    y 0.000000 4.061010 0.000000 
#    z 0.000000 0.000000 3.641930 
# 
# 
# High freq. dielectric constant tensor:
#      x y z
#    x 1.832640 0.000000 0.000000 
#    y 0.000000 1.830190 0.000000 
#    z 0.000000 0.000000 1.786600 
# 
# From -- ./inp_files/19240.got.cif
#   From: 2010.03.12/outbox.cif.g09.slc.cpg/sg20_10_cif.got.tgz:19240.got - 2010.04.14 01:38:04.
