data_PCOD8159806
_publ_section_title
;
Structure prediction by ZEFSAII (Michael W. Deem and Ramdas Pophale) SiO2 
 PCOD8159806
Probable space group: C 2 2 21
;
_chemical_formula_sum "Si O2"
_cell_formula_units_Z 44
_cell_length_a 10.107193
_cell_length_b 10.258816
_cell_length_c 20.652233
_cell_angle_alpha 90.000000
_cell_angle_beta 90.000000
_cell_angle_gamma 90.000000
_cell_volume 2141.385292
_symmetry_space_group_name_H-M "C 2 2 21"
_symmetry_group_IT_number 20
_symmetry_cell_setting 'orthorhombic'
loop_
_space_group_symop_operation_xyz
x,y,z
-x,-y,1/2+z
x,-y,-z
-x,y,1/2-z
1/2+x,1/2+y,z
1/2-x,1/2-y,1/2+z
1/2+x,1/2-y,-z
1/2-x,1/2+y,1/2-z
loop_
_atom_site_type_symbol
_atom_site_label
_atom_site_fract_x
_atom_site_fract_y
_atom_site_fract_z
Si Si1 0.250424 0.850669 0.514553
Si Si2 0.402951 0.988239 0.076446
Si Si3 0.620962 0.490601 0.136190
Si Si4 0.999017 0.757186 0.066612
Si Si5 0.000000 0.115294 0.250000
Si Si6 0.055141 0.214239 0.381952
O O1 0.383765 0.762277 0.513132
O O2 0.192441 0.835161 0.586961
O O3 0.139206 0.797358 0.466120
O O4 0.289816 0.000000 0.500000
O O5 0.270361 0.968526 0.116965
O O6 0.487060 0.858489 0.093250
O O7 0.479063 0.116577 0.101156
O O8 0.373279 0.000000 0.000000
O O9 0.535674 0.362301 0.120337
O O10 0.606182 0.521979 0.212974
O O11 0.560691 0.613521 0.096041
O O12 0.072293 0.206977 0.303550
#
# Coordination Sequence:
#
# PCOD8159806 Si02
#       6
#     8   8   8   8   4   8
#     4  12  24  38  66  99 137 172 216 273 338 402
#     4  12  24  39  67 106 135 164 218 282 347 400
#     4  10  23  45  65  91 130 180 221 271 330 396
#     4  12  25  39  66 103 135 169 218 275 340 400
#     4   8  22  46  68  86 126 186 232 260 326 404
#     4  10  22  43  65  91 133 176 218 272 328 396
#
# _framework density 20.547446000000001
#
# number of rings (size 3 to 8) (size 9 to 14) (size 15 to 20)
#    1.091    0.000    5.455    0.545    5.091    0.000 
#    3.273    2.727    0.000    0.000    0.000    0.000 
#    0.000    0.000    0.000    0.000    0.000    0.000 
#
# Total GULP energy -272594.410567 kJ/mol
# GULP energy per Si atom -12390.655026 kJ/mol
# Density = 2.050068 g / cm^3
# Si number density = 20.547446 Si / 1000 Ang^3
#
#
#
# Elastic Constant Matrix: (Units=GPa)
#
#
# Indices 1 2 3 4 5 6 
#
# 1 31.6916 11.5574 -10.8742 0.0000 0.0000 0.0000
# 2 11.5574 153.7705 37.4297 0.0000 0.0000 0.0000
# 3 -10.8742 37.4297 102.6643 0.0000 0.0000 0.0000
# 4 0.0000 0.0000 0.0000 29.2919 0.0000 0.0000
# 5 0.0000 0.0000 0.0000 0.0000 18.9617 0.0000
# 6 0.0000 0.0000 0.0000 0.0000 0.0000 32.8577
#
#
#
# Elastic Compliance Matrix: (Units=1/GPa)
#
#
# Indices 1 2 3 4 5 6 
#
# 1 0.034698 -0.003844 0.005076 0.000000 0.000000 0.000000
# 2 -0.003844 0.007562 -0.003164 0.000000 0.000000 0.000000
# 3 0.005076 -0.003164 0.011432 0.000000 0.000000 0.000000
# 4 0.000000 0.000000 0.000000 0.034139 0.000000 0.000000
# 5 0.000000 0.000000 0.000000 0.000000 0.052738 0.000000
# 6 0.000000 0.000000 0.000000 0.000000 0.000000 0.030434
#
#
# Mechanical properties :
#
#
# Convention : Reuss Voigt Hill
#
# Bulk Modulus (GPa) = 20.06853 40.48356 30.27604
# Shear Modulus (GPa) = 26.11302 32.88982 29.50142
#
# Velocity S-wave (km/s) = 3.56879 4.00519 3.79327
# Velocity P-wave (km/s) = 5.17395 6.41357 5.82682
#
# Compressibility (1/GPa) = 0.04982927
#
# Stress axis : x y z
#
# Youngs Moduli (GPa) = 28.82035 132.23517 87.47527
#
# Poissons Ratio (x) = 0.50825 -0.44407
# Poissons Ratio (y) = 0.11077 0.27679
# Poissons Ratio (z) = -0.14631 0.41842
#
# Static dielectric constant tensor:
#      x y z
#    x 3.648350 0.000000 0.000000 
#    y 0.000000 4.132310 0.000000 
#    z 0.000000 0.000000 3.410480 
# 
# 
# High freq. dielectric constant tensor:
#      x y z
#    x 1.798730 0.000000 0.000000 
#    y 0.000000 1.825310 0.000000 
#    z 0.000000 0.000000 1.767720 
# 
# From -- ./inp_files/28674.got.cif
#   From: 2010.03.12/outbox.cif.g09.slc.cpg/sg20_15_cif.got.tgz:28674.got - 2010.04.14 01:38:04.
