data_PCOD8159641
_publ_section_title
;
Structure prediction by ZEFSAII (Michael W. Deem and Ramdas Pophale) SiO2 
 PCOD8159641
Probable space group: C 2 2 21
;
_chemical_formula_sum "Si O2"
_cell_formula_units_Z 56
_cell_length_a 14.850380
_cell_length_b 22.396892
_cell_length_c 8.841916
_cell_angle_alpha 90.000000
_cell_angle_beta 90.000000
_cell_angle_gamma 90.000000
_cell_volume 2940.842102
_symmetry_space_group_name_H-M "C 2 2 21"
_symmetry_group_IT_number 20
_symmetry_cell_setting 'orthorhombic'
loop_
_space_group_symop_operation_xyz
x,y,z
-x,-y,1/2+z
x,-y,-z
-x,y,1/2-z
1/2+x,1/2+y,z
1/2-x,1/2-y,1/2+z
1/2+x,1/2-y,-z
1/2-x,1/2+y,1/2-z
loop_
_atom_site_type_symbol
_atom_site_label
_atom_site_fract_x
_atom_site_fract_y
_atom_site_fract_z
Si Si1 0.410486 0.472993 0.157003
Si Si2 0.798574 0.146465 0.843123
Si Si3 0.093752 0.266956 0.671285
Si Si4 0.244198 0.537620 0.285529
Si Si5 0.307457 0.916048 0.097734
Si Si6 0.659555 0.861089 0.900778
Si Si7 0.977645 0.344556 0.078577
O O1 0.500000 0.459821 0.250000
O O2 0.359430 0.411190 0.126164
O O3 0.346402 0.521556 0.239259
O O4 0.442922 0.500000 0.000000
O O5 0.858527 0.204122 0.824157
O O6 0.741182 0.136752 0.690269
O O7 0.733702 0.161664 0.982381
O O8 0.153725 0.315830 0.759845
O O9 0.073618 0.289024 0.500589
O O10 0.000000 0.256774 0.750000
O O11 0.247339 0.574451 0.442188
O O12 0.189526 0.476313 0.304174
O O13 0.191162 0.574187 0.157525
O O14 0.411362 0.900914 0.070798
O O15 0.564538 0.865893 0.985823
O O16 0.000000 0.325588 0.250000
#
# Coordination Sequence:
#
# PCOD8159641 Si02
#       7
#     8   8   8   8   8   8   8
#     4  11  24  41  65  93 129 161 208 264 316 369
#     4  11  23  41  66  90 121 169 209 254 314 373
#     4  10  24  42  62  90 126 164 212 258 307 369
#     4  10  22  43  60  95 124 162 207 251 312 376
#     4  10  22  40  63  90 127 162 204 254 307 377
#     4  11  22  39  65  88 127 163 205 261 304 371
#     4  11  22  42  59  92 129 162 205 258 312 362
#
# _framework density 19.042165000000001
#
# number of rings (size 3 to 8) (size 9 to 14) (size 15 to 20)
#    0.000    1.429    4.286    0.429    6.000    0.000 
#    5.143    2.143    0.000    0.000    0.000    0.000 
#    0.000    0.000    0.000    0.000    0.000    0.000 
#
# Total GULP energy -347227.240639 kJ/mol
# GULP energy per Si atom -12400.972880 kJ/mol
# Density = 1.899882 g / cm^3
# Si number density = 19.042165 Si / 1000 Ang^3
#
#
#
# Elastic Constant Matrix: (Units=GPa)
#
#
# Indices 1 2 3 4 5 6 
#
# 1 89.5456 47.5235 38.8527 0.0000 0.0000 0.0000
# 2 47.5235 89.4535 40.0131 0.0000 0.0000 0.0000
# 3 38.8527 40.0131 113.9271 0.0000 0.0000 0.0000
# 4 0.0000 0.0000 0.0000 21.8951 0.0000 0.0000
# 5 0.0000 0.0000 0.0000 0.0000 21.1400 0.0000
# 6 0.0000 0.0000 0.0000 0.0000 0.0000 20.2669
#
#
#
# Elastic Compliance Matrix: (Units=1/GPa)
#
#
# Indices 1 2 3 4 5 6 
#
# 1 0.016374 -0.007357 -0.003000 0.000000 0.000000 0.000000
# 2 -0.007357 0.016568 -0.003310 0.000000 0.000000 0.000000
# 3 -0.003000 -0.003310 0.010963 0.000000 0.000000 0.000000
# 4 0.000000 0.000000 0.000000 0.045672 0.000000 0.000000
# 5 0.000000 0.000000 0.000000 0.000000 0.047304 0.000000
# 6 0.000000 0.000000 0.000000 0.000000 0.000000 0.049342
#
#
# Mechanical properties :
#
#
# Convention : Reuss Voigt Hill
#
# Bulk Modulus (GPa) = 60.34654 60.63388 60.49021
# Shear Modulus (GPa) = 22.82274 23.76286 23.29280
#
# Velocity S-wave (km/s) = 3.46574 3.53641 3.50125
# Velocity P-wave (km/s) = 6.91195 6.97036 6.94121
#
# Compressibility (1/GPa) = 0.01657096
#
# Stress axis : x y z
#
# Youngs Moduli (GPa) = 61.07415 60.35732 91.21407
#
# Poissons Ratio (x) = 0.44403 0.27365
# Poissons Ratio (y) = 0.44931 0.30193
# Poissons Ratio (z) = 0.18323 0.19979
#
# Static dielectric constant tensor:
#      x y z
#    x 3.517930 0.000000 0.000000 
#    y 0.000000 3.393700 0.000000 
#    z 0.000000 0.000000 3.885540 
# 
# 
# High freq. dielectric constant tensor:
#      x y z
#    x 1.744710 0.000000 0.000000 
#    y 0.000000 1.731700 0.000000 
#    z 0.000000 0.000000 1.756010 
# 
# From -- ./inp_files/8709.got.cif
#   From: 2010.03.12/outbox.cif.g09.slc.cpg/sg20_5_cif.got.tgz:8709.got - 2010.04.14 01:38:04.
