data_PCOD8159011
_publ_section_title
;
Structure prediction by ZEFSAII (Michael W. Deem and Ramdas Pophale) SiO2 
 PCOD8159011
Probable space group: C 2 2 21
;
_chemical_formula_sum "Si O2"
_cell_formula_units_Z 60
_cell_length_a 27.329134
_cell_length_b 14.990779
_cell_length_c 7.253857
_cell_angle_alpha 90.000000
_cell_angle_beta 90.000000
_cell_angle_gamma 90.000000
_cell_volume 2971.796463
_symmetry_space_group_name_H-M "C 2 2 21"
_symmetry_group_IT_number 20
_symmetry_cell_setting 'orthorhombic'
loop_
_space_group_symop_operation_xyz
x,y,z
-x,-y,1/2+z
x,-y,-z
-x,y,1/2-z
1/2+x,1/2+y,z
1/2-x,1/2-y,1/2+z
1/2+x,1/2-y,-z
1/2-x,1/2+y,1/2-z
loop_
_atom_site_type_symbol
_atom_site_label
_atom_site_fract_x
_atom_site_fract_y
_atom_site_fract_z
Si Si1 0.308023 0.200708 0.548395
Si Si2 0.356086 0.481183 0.796333
Si Si3 0.934020 0.000000 0.500000
Si Si4 0.444944 0.009840 0.216562
Si Si5 0.587959 0.862756 0.016409
Si Si6 0.452002 0.687040 0.640410
Si Si7 0.291884 0.681622 0.115240
Si Si8 0.154638 0.827004 0.256548
O O1 0.354770 0.137290 0.572479
O O2 0.289163 0.235959 0.744973
O O3 0.262449 0.152226 0.449164
O O4 0.325957 0.282411 0.425898
O O5 0.401223 0.460206 0.664392
O O6 0.317116 0.402136 0.787766
O O7 0.327957 0.570737 0.734010
O O8 0.377237 0.500000 0.000000
O O9 0.964878 0.911334 0.445681
O O10 0.500000 0.041671 0.250000
O O11 0.413352 0.087030 0.317343
O O12 0.438772 0.915609 0.320285
O O13 0.431547 0.000000 0.000000
O O14 0.562171 0.765145 0.006071
O O15 0.500000 0.718954 0.750000
O O16 0.404630 0.676608 0.772220
O O17 0.323484 0.716422 0.941324
#
# Coordination Sequence:
#
# PCOD8159011 Si02
#       8
#     8   8   4   8   8   8   8   8
#     4  11  22  38  61  88 126 156 207 259 318 369
#     4   9  18  34  61  81 107 158 203 239 303 370
#     4  10  20  42  62  88 132 160 202 268 308 358
#     4  11  22  44  71  95 129 169 215 270 340 394
#     4  10  23  41  65  98 128 167 217 273 316 396
#     4  10  21  40  66  94 130 167 212 263 314 382
#     4  11  20  37  60  86 119 165 202 252 318 377
#     4   9  20  39  58  85 117 156 205 258 305 370
#
# _framework density 20.189806999999998
#
# number of rings (size 3 to 8) (size 9 to 14) (size 15 to 20)
#    0.000    1.867    2.667    2.800    0.000    2.133 
#   16.800    2.000    1.467    0.000    0.000    0.000 
#    0.000    0.000    0.000    0.000    0.000    0.000 
#
# Total GULP energy -371824.318854 kJ/mol
# GULP energy per Si atom -12394.143962 kJ/mol
# Density = 2.014385 g / cm^3
# Si number density = 20.189807 Si / 1000 Ang^3
#
#
#
# Elastic Constant Matrix: (Units=GPa)
#
#
# Indices 1 2 3 4 5 6 
#
# 1 100.0509 14.9029 19.8954 0.0000 0.0000 0.0000
# 2 14.9029 86.0466 20.6327 0.0000 0.0000 0.0000
# 3 19.8954 20.6327 87.3992 0.0000 0.0000 0.0000
# 4 0.0000 0.0000 0.0000 29.0119 0.0000 0.0000
# 5 0.0000 0.0000 0.0000 0.0000 26.6642 0.0000
# 6 0.0000 0.0000 0.0000 0.0000 0.0000 24.2921
#
#
#
# Elastic Compliance Matrix: (Units=1/GPa)
#
#
# Indices 1 2 3 4 5 6 
#
# 1 0.010611 -0.001334 -0.002101 0.000000 0.000000 0.000000
# 2 -0.001334 0.012487 -0.002644 0.000000 0.000000 0.000000
# 3 -0.002101 -0.002644 0.012544 0.000000 0.000000 0.000000
# 4 0.000000 0.000000 0.000000 0.034469 0.000000 0.000000
# 5 0.000000 0.000000 0.000000 0.000000 0.037504 0.000000
# 6 0.000000 0.000000 0.000000 0.000000 0.000000 0.041166
#
#
# Mechanical properties :
#
#
# Convention : Reuss Voigt Hill
#
# Bulk Modulus (GPa) = 42.58125 42.70653 42.64389
# Shear Modulus (GPa) = 29.62686 30.53135 30.07911
#
# Velocity S-wave (km/s) = 3.83484 3.89294 3.86400
# Velocity P-wave (km/s) = 6.38313 6.43468 6.40895
#
# Compressibility (1/GPa) = 0.02348451
#
# Stress axis : x y z
#
# Youngs Moduli (GPa) = 94.23875 80.08531 79.71856
#
# Poissons Ratio (x) = 0.10685 0.16746
# Poissons Ratio (y) = 0.12573 0.21078
# Poissons Ratio (z) = 0.19796 0.21175
#
# Static dielectric constant tensor:
#      x y z
#    x 3.738410 0.000000 0.000000 
#    y 0.000000 3.711240 0.000000 
#    z 0.000000 0.000000 3.785970 
# 
# 
# High freq. dielectric constant tensor:
#      x y z
#    x 1.779010 0.000000 0.000000 
#    y 0.000000 1.785720 0.000000 
#    z 0.000000 0.000000 1.788560 
# 
# From -- ./inp_files/11188.got.cif
#   From: 2010.03.12/outbox.cif.g09.slc.cpg/sg20_6_cif.got.tgz:11188.got - 2010.04.14 01:38:04.
