data_PCOD8159183
_publ_section_title
;
Structure prediction by ZEFSAII (Michael W. Deem and Ramdas Pophale) SiO2 
 PCOD8159183
Probable space group: C 2 2 21
;
_chemical_formula_sum "Si O2"
_cell_formula_units_Z 32
_cell_length_a 15.202446
_cell_length_b 5.302646
_cell_length_c 17.326433
_cell_angle_alpha 90.000000
_cell_angle_beta 90.000000
_cell_angle_gamma 90.000000
_cell_volume 1396.739026
_symmetry_space_group_name_H-M "C 2 2 21"
_symmetry_group_IT_number 20
_symmetry_cell_setting 'orthorhombic'
loop_
_space_group_symop_operation_xyz
x,y,z
-x,-y,1/2+z
x,-y,-z
-x,y,1/2-z
1/2+x,1/2+y,z
1/2-x,1/2-y,1/2+z
1/2+x,1/2-y,-z
1/2-x,1/2+y,1/2-z
loop_
_atom_site_type_symbol
_atom_site_label
_atom_site_fract_x
_atom_site_fract_y
_atom_site_fract_z
Si Si1 0.385817 0.250000 0.528952
Si Si2 0.080607 0.750000 0.463845
Si Si3 0.354745 0.750001 0.794453
Si Si4 0.851688 0.750001 0.701944
O O1 0.333425 0.500000 0.500000
O O2 0.477902 0.250000 0.483720
O O3 0.401163 0.250000 0.620327
O O4 0.333425 0.000000 0.500000
O O5 0.125972 0.500000 0.500000
O O6 0.089805 0.750000 0.372249
O O7 0.125972 0.000000 0.500000
O O8 0.251997 0.750001 0.814603
O O9 0.381060 0.499845 0.747414
O O10 0.381060 0.000158 0.747414
#
# Coordination Sequence:
#
# PCOD8159183 Si02
#       4
#     8   8   8   8
#     4  10  21  38  56  83 117 149 188 228 279 338
#     4  10  21  38  56  83 117 149 188 228 279 338
#     4  10  21  38  60  85 113 147 188 234 282 332
#     4  10  21  38  60  85 113 147 188 234 282 332
#
# _framework density 22.910511
#
# number of rings (size 3 to 8) (size 9 to 14) (size 15 to 20)
#    0.000    2.000    0.000    3.000    0.000    2.000 
#    0.000   30.000    0.000    0.000    0.000    0.000 
#    0.000    0.000    0.000    0.000    0.000    0.000 
#
# Total GULP energy -198380.955633 kJ/mol
# GULP energy per Si atom -12398.809727 kJ/mol
# Density = 2.285837 g / cm^3
# Si number density = 22.910511 Si / 1000 Ang^3
#
#
#
# Elastic Constant Matrix: (Units=GPa)
#
#
# Indices 1 2 3 4 5 6 
#
# 1 30.8070 4.5254 22.7052 0.0000 0.0000 0.0000
# 2 4.5254 278.8462 95.2696 0.0000 0.0000 0.0000
# 3 22.7052 95.2696 190.9029 0.0000 0.0000 0.0000
# 4 0.0000 0.0000 0.0000 51.6956 0.0000 0.0000
# 5 0.0000 0.0000 0.0000 0.0000 17.5512 0.0000
# 6 0.0000 0.0000 0.0000 0.0000 0.0000 0.0879
#
#
#
# Elastic Compliance Matrix: (Units=1/GPa)
#
#
# Indices 1 2 3 4 5 6 
#
# 1 0.035834 0.001054 -0.004788 0.000000 0.000000 0.000000
# 2 0.001054 0.004354 -0.002298 0.000000 0.000000 0.000000
# 3 -0.004788 -0.002298 0.006955 0.000000 0.000000 0.000000
# 4 0.000000 0.000000 0.000000 0.019344 0.000000 0.000000
# 5 0.000000 0.000000 0.000000 0.000000 0.056976 0.000000
# 6 0.000000 0.000000 0.000000 0.000000 0.000000 11.375413
#
#
# Mechanical properties :
#
#
# Convention : Reuss Voigt Hill
#
# Bulk Modulus (GPa) = 28.50715 82.83962 55.67339
# Shear Modulus (GPa) = 0.43393 39.07064 19.75229
#
# Velocity S-wave (km/s) = 0.43567 4.13408 2.93942
# Velocity P-wave (km/s) = 3.56692 7.68270 5.98944
#
# Compressibility (1/GPa) = 0.03507892
#
# Stress axis : x y z
#
# Youngs Moduli (GPa) = 27.90626 229.65425 143.78601
#
# Poissons Ratio (x) = -0.24213 0.68847
# Poissons Ratio (y) = -0.02942 0.33048
# Poissons Ratio (z) = 0.13362 0.52785
#
# Static dielectric constant tensor:
#      x y z
#    x 3.540990 0.000000 0.000000 
#    y 0.000000 7.608930 0.000000 
#    z 0.000000 0.000000 3.977210 
# 
# 
# High freq. dielectric constant tensor:
#      x y z
#    x 1.863100 0.000000 0.000000 
#    y 0.000000 1.945030 0.000000 
#    z 0.000000 0.000000 1.912860 
# 
# From -- ./inp_files/11892.got.cif
#   From: 2010.03.12/outbox.cif.g09.slc.cpg/sg20_6_cif.got.tgz:11892.got - 2010.04.14 01:38:04.
