data_PCOD8159684
_publ_section_title
;
Structure prediction by ZEFSAII (Michael W. Deem and Ramdas Pophale) SiO2 
 PCOD8159684
Probable space group: C 2 2 21
;
_chemical_formula_sum "Si O2"
_cell_formula_units_Z 56
_cell_length_a 19.824482
_cell_length_b 11.979287
_cell_length_c 11.660527
_cell_angle_alpha 90.000000
_cell_angle_beta 90.000000
_cell_angle_gamma 90.000000
_cell_volume 2769.178793
_symmetry_space_group_name_H-M "C 2 2 21"
_symmetry_group_IT_number 20
_symmetry_cell_setting 'orthorhombic'
loop_
_space_group_symop_operation_xyz
x,y,z
-x,-y,1/2+z
x,-y,-z
-x,y,1/2-z
1/2+x,1/2+y,z
1/2-x,1/2-y,1/2+z
1/2+x,1/2-y,-z
1/2-x,1/2+y,1/2-z
loop_
_atom_site_type_symbol
_atom_site_label
_atom_site_fract_x
_atom_site_fract_y
_atom_site_fract_z
Si Si1 0.009442 0.869686 0.984698
Si Si2 0.641685 0.144018 0.767287
Si Si3 0.397181 0.914192 0.675006
Si Si4 0.153406 0.237827 0.000294
Si Si5 0.917843 0.695412 0.088476
Si Si6 0.496881 0.000000 0.000000
Si Si7 0.706688 0.129516 0.530273
Si Si8 0.000000 0.246051 0.250000
O O1 0.990276 0.836285 0.856601
O O2 0.085909 0.834501 0.009330
O O3 0.957851 0.811112 0.074213
O O4 0.000158 0.000000 0.000000
O O5 0.683923 0.172284 0.654988
O O6 0.563329 0.172894 0.756949
O O7 0.652091 0.010990 0.781169
O O8 0.669961 0.211592 0.875450
O O9 0.353683 0.837621 0.590458
O O10 0.427584 0.844259 0.780868
O O11 0.457468 0.980042 0.611231
O O12 0.214676 0.156035 0.974230
O O13 0.949637 0.609654 0.992665
O O14 0.838166 0.702674 0.059388
O O15 0.694741 0.000000 0.500000
#
# Coordination Sequence:
#
# PCOD8159684 Si02
#       8
#     8   8   8   8   8   4   8   4
#     4  11  24  45  65  94 136 180 225 266 335 410
#     4  11  22  40  70  96 133 172 219 285 343 394
#     4  12  23  39  70 105 137 163 222 288 347 397
#     4  11  26  42  62  97 134 181 224 261 339 416
#     4  12  24  40  69 106 129 167 227 287 332 399
#     4  12  20  40  68 110 134 162 210 288 356 382
#     4  12  25  42  65  94 131 175 222 276 335 397
#     4  10  22  40  70  98 128 172 226 282 336 404
#
# _framework density 20.222601000000001
#
# number of rings (size 3 to 8) (size 9 to 14) (size 15 to 20)
#    0.000    0.571    6.429    1.714    4.000    1.143 
#    0.000    1.429    0.000    0.000    0.000    0.000 
#    0.000    0.000    0.000    0.000    0.000    0.000 
#
# Total GULP energy -347184.085465 kJ/mol
# GULP energy per Si atom -12399.431624 kJ/mol
# Density = 2.017657 g / cm^3
# Si number density = 20.222601 Si / 1000 Ang^3
#
#
#
# Elastic Constant Matrix: (Units=GPa)
#
#
# Indices 1 2 3 4 5 6 
#
# 1 84.9294 36.1110 34.6854 0.0000 0.0000 0.0000
# 2 36.1110 117.7734 41.2210 0.0000 0.0000 0.0000
# 3 34.6854 41.2210 133.6552 0.0000 0.0000 0.0000
# 4 0.0000 0.0000 0.0000 19.8631 0.0000 0.0000
# 5 0.0000 0.0000 0.0000 0.0000 18.2092 0.0000
# 6 0.0000 0.0000 0.0000 0.0000 0.0000 20.2277
#
#
#
# Elastic Compliance Matrix: (Units=1/GPa)
#
#
# Indices 1 2 3 4 5 6 
#
# 1 0.014331 -0.003467 -0.002650 0.000000 0.000000 0.000000
# 2 -0.003467 0.010357 -0.002295 0.000000 0.000000 0.000000
# 3 -0.002650 -0.002295 0.008877 0.000000 0.000000 0.000000
# 4 0.000000 0.000000 0.000000 0.050345 0.000000 0.000000
# 5 0.000000 0.000000 0.000000 0.000000 0.054917 0.000000
# 6 0.000000 0.000000 0.000000 0.000000 0.000000 0.049437
#
#
# Mechanical properties :
#
#
# Convention : Reuss Voigt Hill
#
# Bulk Modulus (GPa) = 59.72700 62.26587 60.99643
# Shear Modulus (GPa) = 23.73415 26.61603 25.17509
#
# Velocity S-wave (km/s) = 3.42957 3.63182 3.53214
# Velocity P-wave (km/s) = 6.72915 6.96016 6.84563
#
# Compressibility (1/GPa) = 0.01674285
#
# Stress axis : x y z
#
# Youngs Moduli (GPa) = 69.78063 96.55423 112.64682
#
# Poissons Ratio (x) = 0.33471 0.29850
# Poissons Ratio (y) = 0.24190 0.25848
# Poissons Ratio (z) = 0.18491 0.22155
#
# Static dielectric constant tensor:
#      x y z
#    x 3.594000 0.000000 0.000000 
#    y 0.000000 3.544530 0.000000 
#    z 0.000000 0.000000 3.964390 
# 
# 
# High freq. dielectric constant tensor:
#      x y z
#    x 1.780140 0.000000 0.000000 
#    y 0.000000 1.776940 0.000000 
#    z 0.000000 0.000000 1.807310 
# 
# From -- ./inp_files/16354.got.cif
#   From: 2010.03.12/outbox.cif.g09.slc.cpg/sg20_9_cif.got.tgz:16354.got - 2010.04.14 01:38:04.
