data_PCOD8159323
_publ_section_title
;
Structure prediction by ZEFSAII (Michael W. Deem and Ramdas Pophale) SiO2 
 PCOD8159323
Probable space group: C 2 2 21
;
_chemical_formula_sum "Si O2"
_cell_formula_units_Z 64
_cell_length_a 12.438727
_cell_length_b 7.783721
_cell_length_c 28.797841
_cell_angle_alpha 90.000000
_cell_angle_beta 90.000000
_cell_angle_gamma 90.000000
_cell_volume 2788.194887
_symmetry_space_group_name_H-M "C 2 2 21"
_symmetry_group_IT_number 20
_symmetry_cell_setting 'orthorhombic'
loop_
_space_group_symop_operation_xyz
x,y,z
-x,-y,1/2+z
x,-y,-z
-x,y,1/2-z
1/2+x,1/2+y,z
1/2-x,1/2-y,1/2+z
1/2+x,1/2-y,-z
1/2-x,1/2+y,1/2-z
loop_
_atom_site_type_symbol
_atom_site_label
_atom_site_fract_x
_atom_site_fract_y
_atom_site_fract_z
Si Si1 0.524645 0.255221 0.823470
Si Si2 0.149141 0.993756 0.307863
Si Si3 0.237140 0.110257 0.398690
Si Si4 0.309666 0.881230 0.939056
Si Si5 0.680398 0.050473 0.652996
Si Si6 0.267704 0.310502 0.726365
Si Si7 0.393617 0.828469 0.421711
Si Si8 0.390292 0.222811 0.972405
O O1 0.473963 0.439898 0.808132
O O2 0.621207 0.211830 0.787972
O O3 0.570532 0.266538 0.875021
O O4 0.431212 0.111620 0.823791
O O5 0.189128 0.977317 0.360844
O O6 0.222682 0.134095 0.279879
O O7 0.164082 0.811380 0.282074
O O8 0.244142 0.295083 0.373125
O O9 0.155820 0.114948 0.443210
O O10 0.350346 0.024439 0.413795
O O11 0.346143 0.900203 0.884971
O O12 0.194439 0.793583 0.944320
O O13 0.305541 0.072126 0.960137
O O14 0.388411 0.759972 0.971238
O O15 0.755702 0.978632 0.693852
O O16 0.492170 0.837723 0.457041
#
# Coordination Sequence:
#
# PCOD8159323 Si02
#       8
#     8   8   8   8   8   8   8   8
#     4  11  22  42  66  95 132 175 222 276 332 402
#     4  11  22  40  66  97 133 176 224 275 334 401
#     4  10  21  40  63  97 127 174 225 268 340 409
#     4  10  21  40  65  92 129 171 219 279 338 399
#     4  10  21  44  65  96 135 171 226 280 333 416
#     4  12  24  44  68  97 139 180 221 285 340 398
#     4  12  21  43  70  91 133 182 215 281 350 392
#     4  10  23  42  62  93 134 167 227 288 327 416
#
# _framework density 22.953918000000002
#
# number of rings (size 3 to 8) (size 9 to 14) (size 15 to 20)
#    0.000    1.250    6.250    1.875    0.000    2.500 
#    2.250    7.500    0.000    0.000    0.000    0.000 
#    0.000    0.000    0.000    0.000    0.000    0.000 
#
# Total GULP energy -396447.400440 kJ/mol
# GULP energy per Si atom -12388.981264 kJ/mol
# Density = 2.290167 g / cm^3
# Si number density = 22.953918 Si / 1000 Ang^3
#
#
#
# Elastic Constant Matrix: (Units=GPa)
#
#
# Indices 1 2 3 4 5 6 
#
# 1 110.0808 43.5553 44.5168 0.0000 0.0000 0.0000
# 2 43.5553 84.0753 10.0978 0.0000 0.0000 0.0000
# 3 44.5168 10.0978 50.2885 0.0000 0.0000 0.0000
# 4 0.0000 0.0000 0.0000 17.8321 0.0000 0.0000
# 5 0.0000 0.0000 0.0000 0.0000 35.9223 0.0000
# 6 0.0000 0.0000 0.0000 0.0000 0.0000 25.6538
#
#
#
# Elastic Compliance Matrix: (Units=1/GPa)
#
#
# Indices 1 2 3 4 5 6 
#
# 1 0.017835 -0.007525 -0.014277 0.000000 0.000000 0.000000
# 2 -0.007525 0.015363 0.003576 0.000000 0.000000 0.000000
# 3 -0.014277 0.003576 0.031806 0.000000 0.000000 0.000000
# 4 0.000000 0.000000 0.000000 0.056079 0.000000 0.000000
# 5 0.000000 0.000000 0.000000 0.000000 0.027838 0.000000
# 6 0.000000 0.000000 0.000000 0.000000 0.000000 0.038981
#
#
# Mechanical properties :
#
#
# Convention : Reuss Voigt Hill
#
# Bulk Modulus (GPa) = 35.02332 48.97604 41.99968
# Shear Modulus (GPa) = 21.37934 25.63327 23.50630
#
# Velocity S-wave (km/s) = 3.05520 3.34537 3.20357
# Velocity P-wave (km/s) = 5.26658 6.02536 5.65871
#
# Compressibility (1/GPa) = 0.02855241
#
# Stress axis : x y z
#
# Youngs Moduli (GPa) = 56.06824 65.09212 31.44065
#
# Poissons Ratio (x) = 0.48981 0.44889
# Poissons Ratio (y) = 0.42191 -0.11245
# Poissons Ratio (z) = 0.80051 -0.23280
#
# Static dielectric constant tensor:
#      x y z
#    x 4.101530 0.000000 0.000000 
#    y 0.000000 4.044600 0.000000 
#    z 0.000000 0.000000 4.698670 
# 
# 
# High freq. dielectric constant tensor:
#      x y z
#    x 1.877690 0.000000 0.000000 
#    y 0.000000 1.889140 0.000000 
#    z 0.000000 0.000000 1.929790 
# 
# From -- ./inp_files/31187.got.cif
#   From: 2010.03.12/outbox.cif.g09.slc.cpg/sg20_16_cif.got.tgz:31187.got - 2010.04.14 01:38:04.
