data_PCOD8159659
_publ_section_title
;
Structure prediction by ZEFSAII (Michael W. Deem and Ramdas Pophale) SiO2 
 PCOD8159659
Probable space group: C 2 2 21
;
_chemical_formula_sum "Si O2"
_cell_formula_units_Z 48
_cell_length_a 8.444873
_cell_length_b 15.051416
_cell_length_c 18.448101
_cell_angle_alpha 90.000000
_cell_angle_beta 90.000000
_cell_angle_gamma 90.000000
_cell_volume 2344.888245
_symmetry_space_group_name_H-M "C 2 2 21"
_symmetry_group_IT_number 20
_symmetry_cell_setting 'orthorhombic'
loop_
_space_group_symop_operation_xyz
x,y,z
-x,-y,1/2+z
x,-y,-z
-x,y,1/2-z
1/2+x,1/2+y,z
1/2-x,1/2-y,1/2+z
1/2+x,1/2-y,-z
1/2-x,1/2+y,1/2-z
loop_
_atom_site_type_symbol
_atom_site_label
_atom_site_fract_x
_atom_site_fract_y
_atom_site_fract_z
Si Si1 0.461214 0.720525 0.441872
Si Si2 0.148871 0.038229 0.421477
Si Si3 0.093062 0.285090 0.586977
Si Si4 0.530710 0.946288 0.833830
Si Si5 0.082500 0.117093 0.673501
Si Si6 0.955813 0.358528 0.326881
O O1 0.541862 0.624688 0.435887
O O2 0.274925 0.721385 0.432370
O O3 0.488325 0.769733 0.516831
O O4 0.527872 0.786803 0.381202
O O5 0.290320 0.063005 0.365656
O O6 0.208887 0.000000 0.500000
O O7 0.040300 0.962982 0.382413
O O8 0.026812 0.212579 0.644154
O O9 0.075328 0.383222 0.617470
O O10 0.500000 0.918199 0.750000
O O11 0.463604 0.046165 0.843484
O O12 0.270610 0.121908 0.676041
O O13 0.000000 0.096844 0.750000
O O14 0.000000 0.318462 0.250000
#
# Coordination Sequence:
#
# PCOD8159659 Si02
#       6
#     8   8   8   8   8   8
#     4  11  24  41  63  96 127 175 216 270 327 395
#     4  11  23  44  66  93 134 174 214 272 333 385
#     4  11  23  40  64  94 132 166 223 264 332 388
#     4  10  23  42  67  95 126 172 215 267 332 393
#     4  10  22  40  65  89 127 170 210 263 325 384
#     4   9  22  41  61  91 127 164 213 261 323 379
#
# _framework density 20.470058999999999
#
# number of rings (size 3 to 8) (size 9 to 14) (size 15 to 20)
#    0.000    1.667    1.667    1.500    4.667   10.000 
#    3.000    0.000    0.000    0.000    0.000    0.000 
#    0.000    0.000    0.000    0.000    0.000    0.000 
#
# Total GULP energy -297421.507374 kJ/mol
# GULP energy per Si atom -12392.562807 kJ/mol
# Density = 2.042347 g / cm^3
# Si number density = 20.470059 Si / 1000 Ang^3
#
#
#
# Elastic Constant Matrix: (Units=GPa)
#
#
# Indices 1 2 3 4 5 6 
#
# 1 37.4144 30.3272 40.5922 0.0000 0.0000 0.0000
# 2 30.3272 126.0076 76.6710 0.0000 0.0000 0.0000
# 3 40.5922 76.6710 160.7084 0.0000 0.0000 0.0000
# 4 0.0000 0.0000 0.0000 54.4410 0.0000 0.0000
# 5 0.0000 0.0000 0.0000 0.0000 40.1326 0.0000
# 6 0.0000 0.0000 0.0000 0.0000 0.0000 27.5038
#
#
#
# Elastic Compliance Matrix: (Units=1/GPa)
#
#
# Indices 1 2 3 4 5 6 
#
# 1 0.038733 -0.004747 -0.007518 0.000000 0.000000 0.000000
# 2 -0.004747 0.011764 -0.004413 0.000000 0.000000 0.000000
# 3 -0.007518 -0.004413 0.010227 0.000000 0.000000 0.000000
# 4 0.000000 0.000000 0.000000 0.018369 0.000000 0.000000
# 5 0.000000 0.000000 0.000000 0.000000 0.024917 0.000000
# 6 0.000000 0.000000 0.000000 0.000000 0.000000 0.036359
#
#
# Mechanical properties :
#
#
# Convention : Reuss Voigt Hill
#
# Bulk Modulus (GPa) = 36.54222 68.81234 52.67728
# Shear Modulus (GPa) = 27.34512 36.18482 31.76497
#
# Velocity S-wave (km/s) = 3.65891 4.20896 3.94353
# Velocity P-wave (km/s) = 5.97833 7.57030 6.82092
#
# Compressibility (1/GPa) = 0.02736560
#
# Stress axis : x y z
#
# Youngs Moduli (GPa) = 25.81793 85.00566 97.78132
#
# Poissons Ratio (x) = 0.40356 0.73515
# Poissons Ratio (y) = 0.12257 0.43153
# Poissons Ratio (z) = 0.19411 0.37515
#
# Static dielectric constant tensor:
#      x y z
#    x 3.423550 0.000000 0.000000 
#    y 0.000000 4.171550 0.000000 
#    z 0.000000 0.000000 4.002880 
# 
# 
# High freq. dielectric constant tensor:
#      x y z
#    x 1.778110 0.000000 0.000000 
#    y 0.000000 1.820020 0.000000 
#    z 0.000000 0.000000 1.815870 
# 
# From -- ./inp_files/23457.got.cif
#   From: 2010.03.12/outbox.cif.g09.slc.cpg/sg20_12_cif.got.tgz:23457.got - 2010.04.14 01:38:04.
