data_PCOD8159112
_publ_section_title
;
Structure prediction by ZEFSAII (Michael W. Deem and Ramdas Pophale) SiO2 
 PCOD8159112
Probable space group: C 2 2 21
;
_chemical_formula_sum "Si O2"
_cell_formula_units_Z 64
_cell_length_a 13.942896
_cell_length_b 9.785253
_cell_length_c 26.509149
_cell_angle_alpha 90.000000
_cell_angle_beta 90.000000
_cell_angle_gamma 90.000000
_cell_volume 3616.769512
_symmetry_space_group_name_H-M "C 2 2 21"
_symmetry_group_IT_number 20
_symmetry_cell_setting 'orthorhombic'
loop_
_space_group_symop_operation_xyz
x,y,z
-x,-y,1/2+z
x,-y,-z
-x,y,1/2-z
1/2+x,1/2+y,z
1/2-x,1/2-y,1/2+z
1/2+x,1/2-y,-z
1/2-x,1/2+y,1/2-z
loop_
_atom_site_type_symbol
_atom_site_label
_atom_site_fract_x
_atom_site_fract_y
_atom_site_fract_z
Si Si1 0.350363 0.721849 0.616926
Si Si2 0.864349 0.045980 0.880182
Si Si3 0.506947 0.131179 0.531809
Si Si4 0.008939 0.459930 0.308015
Si Si5 0.986220 0.883920 0.461300
Si Si6 0.144724 0.533057 0.890600
Si Si7 0.013097 0.227283 0.692667
Si Si8 0.367167 0.776639 0.122560
O O1 0.399030 0.618173 0.577950
O O2 0.407676 0.711687 0.669141
O O3 0.242356 0.676227 0.625742
O O4 0.354974 0.874281 0.594364
O O5 0.914120 0.086898 0.932696
O O6 0.752984 0.087225 0.885336
O O7 0.908793 0.131136 0.833979
O O8 0.879284 0.885452 0.869672
O O9 0.491245 0.242863 0.489817
O O10 0.409872 0.110950 0.564291
O O11 0.592313 0.175668 0.568783
O O12 0.538918 0.000000 0.500000
O O13 0.047885 0.615369 0.312643
O O14 0.083267 0.354782 0.331763
O O15 0.000000 0.417574 0.250000
O O16 0.907549 0.444163 0.336894
O O17 0.960431 0.000000 0.500000
O O18 0.000000 0.181199 0.750000
#
# Coordination Sequence:
#
# PCOD8159112 Si02
#       8
#     8   8   8   8   8   8   8   8
#     4   9  19  36  55  76 109 140 174 221 264 314
#     4  10  21  36  55  79 109 140 179 219 263 320
#     4  11  21  36  57  77 106 145 181 214 263 323
#     4   9  19  37  58  80 108 139 177 223 267 317
#     4  11  21  36  53  79 110 139 175 226 264 302
#     4   9  19  36  56  77 104 144 180 209 263 330
#     4   9  19  37  58  79 107 143 176 216 272 324
#     4  10  21  36  54  81 107 139 180 221 264 313
#
# _framework density 17.695347999999999
#
# number of rings (size 3 to 8) (size 9 to 14) (size 15 to 20)
#    0.000    2.250    2.500    0.000    1.750    3.500 
#    2.250    0.000    0.000    0.000    0.000    0.000 
#    0.000    0.000    0.000    0.000    0.000    0.000 
#
# Total GULP energy -396815.087405 kJ/mol
# GULP energy per Si atom -12400.471481 kJ/mol
# Density = 1.765507 g / cm^3
# Si number density = 17.695348 Si / 1000 Ang^3
#
#
#
# Elastic Constant Matrix: (Units=GPa)
#
#
# Indices 1 2 3 4 5 6 
#
# 1 145.9551 49.3262 55.4143 0.0000 0.0000 0.0000
# 2 49.3262 89.2371 50.7462 0.0000 0.0000 0.0000
# 3 55.4143 50.7462 121.8925 0.0000 0.0000 0.0000
# 4 0.0000 0.0000 0.0000 34.7562 0.0000 0.0000
# 5 0.0000 0.0000 0.0000 0.0000 13.3781 0.0000
# 6 0.0000 0.0000 0.0000 0.0000 0.0000 25.5347
#
#
#
# Elastic Compliance Matrix: (Units=1/GPa)
#
#
# Indices 1 2 3 4 5 6 
#
# 1 0.009038 -0.003484 -0.002658 0.000000 0.000000 0.000000
# 2 -0.003484 0.016025 -0.005088 0.000000 0.000000 0.000000
# 3 -0.002658 -0.005088 0.011531 0.000000 0.000000 0.000000
# 4 0.000000 0.000000 0.000000 0.028772 0.000000 0.000000
# 5 0.000000 0.000000 0.000000 0.000000 0.074749 0.000000
# 6 0.000000 0.000000 0.000000 0.000000 0.000000 0.039162
#
#
# Mechanical properties :
#
#
# Convention : Reuss Voigt Hill
#
# Bulk Modulus (GPa) = 70.75349 74.22867 72.49108
# Shear Modulus (GPa) = 24.21909 28.17368 26.19638
#
# Velocity S-wave (km/s) = 3.70357 3.99451 3.85178
# Velocity P-wave (km/s) = 7.63934 7.95701 7.79979
#
# Compressibility (1/GPa) = 0.01413358
#
# Stress axis : x y z
#
# Youngs Moduli (GPa) = 110.64133 62.40188 86.72594
#
# Poissons Ratio (x) = 0.21742 0.23055
# Poissons Ratio (y) = 0.38549 0.44123
# Poissons Ratio (z) = 0.29413 0.31748
#
# Static dielectric constant tensor:
#      x y z
#    x 3.292970 0.000000 0.000000 
#    y 0.000000 3.275680 0.000000 
#    z 0.000000 0.000000 3.357990 
# 
# 
# High freq. dielectric constant tensor:
#      x y z
#    x 1.680030 0.000000 0.000000 
#    y 0.000000 1.685630 0.000000 
#    z 0.000000 0.000000 1.692590 
# 
# From -- ./inp_files/29340.got.cif
#   From: 2010.03.12/outbox.cif.g09.slc.cpg/sg20_15_cif.got.tgz:29340.got - 2010.04.14 01:38:04.
