data_PCOD8159167
_publ_section_title
;
Structure prediction by ZEFSAII (Michael W. Deem and Ramdas Pophale) SiO2 
 PCOD8159167
Probable space group: C 2 2 21
;
_chemical_formula_sum "Si O2"
_cell_formula_units_Z 56
_cell_length_a 8.574437
_cell_length_b 19.335050
_cell_length_c 16.311378
_cell_angle_alpha 90.000000
_cell_angle_beta 90.000000
_cell_angle_gamma 90.000000
_cell_volume 2704.217167
_symmetry_space_group_name_H-M "C 2 2 21"
_symmetry_group_IT_number 20
_symmetry_cell_setting 'orthorhombic'
loop_
_space_group_symop_operation_xyz
x,y,z
-x,-y,1/2+z
x,-y,-z
-x,y,1/2-z
1/2+x,1/2+y,z
1/2-x,1/2-y,1/2+z
1/2+x,1/2-y,-z
1/2-x,1/2+y,1/2-z
loop_
_atom_site_type_symbol
_atom_site_label
_atom_site_fract_x
_atom_site_fract_y
_atom_site_fract_z
Si Si1 0.775951 0.897119 0.802458
Si Si2 0.841172 0.457729 0.291274
Si Si3 0.305061 0.187035 0.451416
Si Si4 0.799749 0.063958 0.627769
Si Si5 0.971700 0.427482 0.453332
Si Si6 0.966026 0.830988 0.476819
Si Si7 0.893219 0.088479 0.367999
O O1 0.722873 0.831353 0.855677
O O2 0.805375 0.874699 0.708356
O O3 0.930356 0.929238 0.843592
O O4 0.652921 0.959320 0.802736
O O5 0.705342 0.432489 0.228256
O O6 0.837674 0.425185 0.382218
O O7 0.000000 0.434042 0.250000
O O8 0.432931 0.133762 0.484698
O O9 0.377193 0.262396 0.450491
O O10 0.147967 0.182761 0.505791
O O11 0.639812 0.088624 0.585591
O O12 0.941643 0.111677 0.595075
O O13 0.819053 0.983728 0.603160
O O14 0.966405 0.500000 0.500000
O O15 0.880863 0.857911 0.558329
#
# Coordination Sequence:
#
# PCOD8159167 Si02
#       7
#     8   8   8   8   8   8   8
#     4   9  18  37  60  89 114 152 196 245 297 351
#     4   9  19  35  57  92 120 148 187 244 301 350
#     4  11  24  39  61  83 123 161 204 246 293 362
#     4  10  21  37  61  90 122 152 193 250 299 354
#     4  11  20  35  61  89 118 155 196 245 295 350
#     4  11  23  40  57  87 117 161 203 241 301 355
#     4   9  19  36  65  87 114 154 197 249 298 355
#
# _framework density 20.708394999999999
#
# number of rings (size 3 to 8) (size 9 to 14) (size 15 to 20)
#    0.000    2.000    1.429    2.143    2.000    0.000 
#    5.143    0.000    0.000    0.000    0.000    0.000 
#    0.000    0.000    0.000    0.000    0.000    0.000 
#
# Total GULP energy -347069.005266 kJ/mol
# GULP energy per Si atom -12395.321617 kJ/mol
# Density = 2.066126 g / cm^3
# Si number density = 20.708395 Si / 1000 Ang^3
#
#
#
# Elastic Constant Matrix: (Units=GPa)
#
#
# Indices 1 2 3 4 5 6 
#
# 1 44.4844 18.2594 6.1536 0.0000 0.0000 0.0000
# 2 18.2594 97.7939 32.5678 0.0000 0.0000 0.0000
# 3 6.1536 32.5678 78.8475 0.0000 0.0000 0.0000
# 4 0.0000 0.0000 0.0000 27.4465 0.0000 0.0000
# 5 0.0000 0.0000 0.0000 0.0000 26.3267 0.0000
# 6 0.0000 0.0000 0.0000 0.0000 0.0000 27.1762
#
#
#
# Elastic Compliance Matrix: (Units=1/GPa)
#
#
# Indices 1 2 3 4 5 6 
#
# 1 0.024346 -0.004537 -0.000026 0.000000 0.000000 0.000000
# 2 -0.004537 0.012702 -0.004892 0.000000 0.000000 0.000000
# 3 -0.000026 -0.004892 0.014706 0.000000 0.000000 0.000000
# 4 0.000000 0.000000 0.000000 0.036435 0.000000 0.000000
# 5 0.000000 0.000000 0.000000 0.000000 0.037984 0.000000
# 6 0.000000 0.000000 0.000000 0.000000 0.000000 0.036797
#
#
# Mechanical properties :
#
#
# Convention : Reuss Voigt Hill
#
# Bulk Modulus (GPa) = 30.44857 37.23193 33.84025
# Shear Modulus (GPa) = 25.92993 27.13287 26.53140
#
# Velocity S-wave (km/s) = 3.54241 3.62364 3.58326
# Velocity P-wave (km/s) = 5.60954 5.96036 5.78761
#
# Compressibility (1/GPa) = 0.03284227
#
# Stress axis : x y z
#
# Youngs Moduli (GPa) = 41.07505 78.72772 68.00149
#
# Poissons Ratio (x) = 0.35719 0.00177
# Poissons Ratio (y) = 0.18636 0.33269
# Poissons Ratio (z) = 0.00107 0.38517
#
# Static dielectric constant tensor:
#      x y z
#    x 3.735070 0.000000 0.000000 
#    y 0.000000 3.421550 0.000000 
#    z 0.000000 0.000000 4.170000 
# 
# 
# High freq. dielectric constant tensor:
#      x y z
#    x 1.806490 0.000000 0.000000 
#    y 0.000000 1.779270 0.000000 
#    z 0.000000 0.000000 1.825570 
# 
# From -- ./inp_files/19226.got.cif
#   From: 2010.03.12/outbox.cif.g09.slc.cpg/sg20_10_cif.got.tgz:19226.got - 2010.04.14 01:38:04.
