data_PCOD8159742
_publ_section_title
;
Structure prediction by ZEFSAII (Michael W. Deem and Ramdas Pophale) SiO2 
 PCOD8159742
Probable space group: C 2 2 21
;
_chemical_formula_sum "Si O2"
_cell_formula_units_Z 64
_cell_length_a 9.730161
_cell_length_b 20.535868
_cell_length_c 15.330428
_cell_angle_alpha 90.000000
_cell_angle_beta 90.000000
_cell_angle_gamma 90.000000
_cell_volume 3063.284760
_symmetry_space_group_name_H-M "C 2 2 21"
_symmetry_group_IT_number 20
_symmetry_cell_setting 'orthorhombic'
loop_
_space_group_symop_operation_xyz
x,y,z
-x,-y,1/2+z
x,-y,-z
-x,y,1/2-z
1/2+x,1/2+y,z
1/2-x,1/2-y,1/2+z
1/2+x,1/2-y,-z
1/2-x,1/2+y,1/2-z
loop_
_atom_site_type_symbol
_atom_site_label
_atom_site_fract_x
_atom_site_fract_y
_atom_site_fract_z
Si Si1 0.791523 0.155908 0.092607
Si Si2 0.327904 0.810303 0.413406
Si Si3 0.840075 0.152280 0.750661
Si Si4 0.852918 0.998393 0.284508
Si Si5 0.520351 0.557321 0.059053
Si Si6 0.231578 0.837568 0.941755
Si Si7 0.371681 0.799128 0.108013
Si Si8 0.340866 0.109287 0.241920
O O1 0.880104 0.221844 0.091430
O O2 0.698543 0.157762 0.179404
O O3 0.889847 0.092819 0.102480
O O4 0.698480 0.152051 0.004898
O O5 0.209246 0.832437 0.347891
O O6 0.329468 0.733733 0.429732
O O7 0.476098 0.825850 0.368567
O O8 0.745263 0.188800 0.680425
O O9 0.000000 0.174532 0.750000
O O10 0.824096 0.076420 0.732246
O O11 0.867640 0.016862 0.385187
O O12 0.730366 0.039525 0.242228
O O13 0.000000 0.021770 0.250000
O O14 0.611155 0.616008 0.019443
O O15 0.457324 0.500000 0.000000
O O16 0.296819 0.860118 0.850321
O O17 0.343821 0.836338 0.017573
O O18 0.500000 0.096022 0.250000
#
# Coordination Sequence:
#
# PCOD8159742 Si02
#       8
#     8   8   8   8   8   8   8   8
#     4  11  24  38  66  97 132 172 224 272 334 399
#     4  11  24  40  64  97 136 173 219 279 340 399
#     4  11  26  42  68  96 130 178 226 277 334 398
#     4  10  22  42  63  90 124 167 225 268 323 391
#     4  11  22  40  68  94 126 174 223 275 321 396
#     4  10  23  40  66  96 131 174 224 268 336 395
#     4  11  23  43  64  94 137 173 218 280 340 400
#     4  11  23  41  64  94 131 171 218 278 332 397
#
# _framework density 20.892606000000001
#
# number of rings (size 3 to 8) (size 9 to 14) (size 15 to 20)
#    0.000    1.250    2.500    2.625    5.250    4.000 
#    0.000    0.000    0.000    4.500    0.000    0.000 
#    0.000    0.000    0.000    0.000    0.000    0.000 
#
# Total GULP energy -396562.820514 kJ/mol
# GULP energy per Si atom -12392.588141 kJ/mol
# Density = 2.084505 g / cm^3
# Si number density = 20.892606 Si / 1000 Ang^3
#
#
#
# Elastic Constant Matrix: (Units=GPa)
#
#
# Indices 1 2 3 4 5 6 
#
# 1 135.3919 33.7507 37.6335 0.0000 0.0000 0.0000
# 2 33.7507 97.5168 29.8907 0.0000 0.0000 0.0000
# 3 37.6335 29.8907 105.2663 0.0000 0.0000 0.0000
# 4 0.0000 0.0000 0.0000 29.7951 0.0000 0.0000
# 5 0.0000 0.0000 0.0000 0.0000 30.5740 0.0000
# 6 0.0000 0.0000 0.0000 0.0000 0.0000 18.1549
#
#
#
# Elastic Compliance Matrix: (Units=1/GPa)
#
#
# Indices 1 2 3 4 5 6 
#
# 1 0.008623 -0.002234 -0.002449 0.000000 0.000000 0.000000
# 2 -0.002234 0.011811 -0.002555 0.000000 0.000000 0.000000
# 3 -0.002449 -0.002555 0.011101 0.000000 0.000000 0.000000
# 4 0.000000 0.000000 0.000000 0.033563 0.000000 0.000000
# 5 0.000000 0.000000 0.000000 0.000000 0.032708 0.000000
# 6 0.000000 0.000000 0.000000 0.000000 0.000000 0.055082
#
#
# Mechanical properties :
#
#
# Convention : Reuss Voigt Hill
#
# Bulk Modulus (GPa) = 58.61776 60.08052 59.34914
# Shear Modulus (GPa) = 28.89358 31.49814 30.19586
#
# Velocity S-wave (km/s) = 3.72285 3.88702 3.80582
# Velocity P-wave (km/s) = 6.82620 6.99747 6.91237
#
# Compressibility (1/GPa) = 0.01705968
#
# Stress axis : x y z
#
# Youngs Moduli (GPa) = 115.96236 84.66659 90.08500
#
# Poissons Ratio (x) = 0.18915 0.22058
# Poissons Ratio (y) = 0.25907 0.23017
# Poissons Ratio (z) = 0.28395 0.21633
#
# Static dielectric constant tensor:
#      x y z
#    x 3.902170 0.000000 0.000000 
#    y 0.000000 3.776690 0.000000 
#    z 0.000000 0.000000 4.275520 
# 
# 
# High freq. dielectric constant tensor:
#      x y z
#    x 1.819360 0.000000 0.000000 
#    y 0.000000 1.819140 0.000000 
#    z 0.000000 0.000000 1.821480 
# 
# From -- ./inp_files/23924.got.cif
#   From: 2010.03.12/outbox.cif.g09.slc.cpg/sg20_12_cif.got.tgz:23924.got - 2010.04.14 01:38:04.
