data_PCOD8159010
_publ_section_title
;
Structure prediction by ZEFSAII (Michael W. Deem and Ramdas Pophale) SiO2 
 PCOD8159010
Probable space group: C 2 2 21
;
_chemical_formula_sum "Si O2"
_cell_formula_units_Z 60
_cell_length_a 7.793839
_cell_length_b 11.688112
_cell_length_c 31.688130
_cell_angle_alpha 90.000000
_cell_angle_beta 90.000000
_cell_angle_gamma 90.000000
_cell_volume 2886.638541
_symmetry_space_group_name_H-M "C 2 2 21"
_symmetry_group_IT_number 20
_symmetry_cell_setting 'orthorhombic'
loop_
_space_group_symop_operation_xyz
x,y,z
-x,-y,1/2+z
x,-y,-z
-x,y,1/2-z
1/2+x,1/2+y,z
1/2-x,1/2-y,1/2+z
1/2+x,1/2-y,-z
1/2-x,1/2+y,1/2-z
loop_
_atom_site_type_symbol
_atom_site_label
_atom_site_fract_x
_atom_site_fract_y
_atom_site_fract_z
Si Si1 0.571704 0.614808 0.981313
Si Si2 0.964218 0.649902 0.147152
Si Si3 0.177298 0.347519 0.005714
Si Si4 0.033885 0.107722 0.606953
Si Si5 0.000000 0.145272 0.250000
Si Si6 0.160013 0.996085 0.818727
Si Si7 0.129265 0.488190 0.926262
Si Si8 0.663950 0.736554 0.780561
O O1 0.658311 0.712339 0.009597
O O2 0.601069 0.628294 0.931339
O O3 0.654174 0.500000 0.000000
O O4 0.368709 0.613442 0.986419
O O5 0.904317 0.769672 0.125575
O O6 0.813307 0.593294 0.174035
O O7 0.012918 0.552813 0.112658
O O8 0.118751 0.681769 0.179365
O O9 0.135064 0.380179 0.957680
O O10 0.061382 0.408123 0.042723
O O11 0.192612 0.029567 0.593394
O O12 0.929345 0.029301 0.638281
O O13 0.172245 0.218773 0.255199
O O14 0.016973 0.066375 0.209085
O O15 0.223096 0.111025 0.795599
O O16 0.500000 0.728703 0.750000
#
# Coordination Sequence:
#
# PCOD8159010 Si02
#       8
#     8   8   8   8   4   8   8   8
#     4  11  21  41  63  89 126 175 221 272 325 392
#     4  11  23  42  67  95 133 170 217 274 333 400
#     4  10  21  39  62  90 127 176 217 271 336 380
#     4  10  22  40  63  91 132 169 219 272 326 393
#     4  12  24  44  72  98 132 172 216 270 348 400
#     4  11  25  42  67  99 130 173 218 273 340 398
#     4  10  20  42  61  90 134 167 216 280 327 393
#     4  11  24  45  69  99 132 170 222 276 326 413
#
# _framework density 20.785419999999998
#
# number of rings (size 3 to 8) (size 9 to 14) (size 15 to 20)
#    0.000    1.333    6.000    0.800    0.000    5.333 
#    2.400    0.000    0.000    0.000    0.000    0.000 
#    0.000    0.000    0.000    0.000    0.000    0.000 
#
# Total GULP energy -371760.751777 kJ/mol
# GULP energy per Si atom -12392.025059 kJ/mol
# Density = 2.073811 g / cm^3
# Si number density = 20.785420 Si / 1000 Ang^3
#
#
#
# Elastic Constant Matrix: (Units=GPa)
#
#
# Indices 1 2 3 4 5 6 
#
# 1 64.0054 37.8126 31.8512 0.0000 0.0000 0.0000
# 2 37.8126 151.1344 47.9212 0.0000 0.0000 0.0000
# 3 31.8512 47.9212 112.4474 0.0000 0.0000 0.0000
# 4 0.0000 0.0000 0.0000 35.7006 0.0000 0.0000
# 5 0.0000 0.0000 0.0000 0.0000 32.1824 0.0000
# 6 0.0000 0.0000 0.0000 0.0000 0.0000 27.3108
#
#
#
# Elastic Compliance Matrix: (Units=1/GPa)
#
#
# Indices 1 2 3 4 5 6 
#
# 1 0.019806 -0.003673 -0.004045 0.000000 0.000000 0.000000
# 2 -0.003673 0.008331 -0.002510 0.000000 0.000000 0.000000
# 3 -0.004045 -0.002510 0.011109 0.000000 0.000000 0.000000
# 4 0.000000 0.000000 0.000000 0.028011 0.000000 0.000000
# 5 0.000000 0.000000 0.000000 0.000000 0.031073 0.000000
# 6 0.000000 0.000000 0.000000 0.000000 0.000000 0.036616
#
#
# Mechanical properties :
#
#
# Convention : Reuss Voigt Hill
#
# Bulk Modulus (GPa) = 53.21890 62.52858 57.87374
# Shear Modulus (GPa) = 30.92809 33.03890 31.98350
#
# Velocity S-wave (km/s) = 3.86161 3.99121 3.92694
# Velocity P-wave (km/s) = 6.74850 7.16853 6.96168
#
# Compressibility (1/GPa) = 0.01879032
#
# Stress axis : x y z
#
# Youngs Moduli (GPa) = 50.48871 120.02671 90.02034
#
# Poissons Ratio (x) = 0.44084 0.36413
# Poissons Ratio (y) = 0.18544 0.22597
# Poissons Ratio (z) = 0.20423 0.30130
#
# Static dielectric constant tensor:
#      x y z
#    x 3.505350 0.000000 0.000000 
#    y 0.000000 3.777290 0.000000 
#    z 0.000000 0.000000 4.192440 
# 
# 
# High freq. dielectric constant tensor:
#      x y z
#    x 1.784730 0.000000 0.000000 
#    y 0.000000 1.827740 0.000000 
#    z 0.000000 0.000000 1.834710 
# 
# From -- ./inp_files/31035.got.cif
#   From: 2010.03.12/outbox.cif.g09.slc.cpg/sg20_16_cif.got.tgz:31035.got - 2010.04.14 01:38:04.
