data_PCOD8159121
_publ_section_title
;
Structure prediction by ZEFSAII (Michael W. Deem and Ramdas Pophale) SiO2 
 PCOD8159121
Probable space group: C 2 2 21
;
_chemical_formula_sum "Si O2"
_cell_formula_units_Z 40
_cell_length_a 9.548595
_cell_length_b 23.199472
_cell_length_c 8.201319
_cell_angle_alpha 90.000000
_cell_angle_beta 90.000000
_cell_angle_gamma 90.000000
_cell_volume 1816.775559
_symmetry_space_group_name_H-M "C 2 2 21"
_symmetry_group_IT_number 20
_symmetry_cell_setting 'orthorhombic'
loop_
_space_group_symop_operation_xyz
x,y,z
-x,-y,1/2+z
x,-y,-z
-x,y,1/2-z
1/2+x,1/2+y,z
1/2-x,1/2-y,1/2+z
1/2+x,1/2-y,-z
1/2-x,1/2+y,1/2-z
loop_
_atom_site_type_symbol
_atom_site_label
_atom_site_fract_x
_atom_site_fract_y
_atom_site_fract_z
Si Si1 0.118236 0.549827 0.624335
Si Si2 0.892357 0.353262 0.887725
Si Si3 0.160309 0.124657 0.694452
Si Si4 0.849279 0.277436 0.172549
Si Si5 0.350649 0.642963 0.175690
O O1 0.163536 0.500000 0.500000
O O2 0.047555 0.601816 0.520797
O O3 0.256381 0.572695 0.717841
O O4 0.000000 0.527441 0.750000
O O5 0.760470 0.384552 0.800769
O O6 0.000000 0.335070 0.750000
O O7 0.849237 0.295231 0.982331
O O8 0.230137 0.186200 0.734803
O O9 0.164678 0.114531 0.500746
O O10 0.000000 0.125095 0.750000
O O11 0.812942 0.210541 0.174832
O O12 0.000000 0.290694 0.250000
O O13 0.500000 0.629407 0.250000
#
# Coordination Sequence:
#
# PCOD8159121 Si02
#       5
#     8   8   8   8   8
#     4  11  24  45  69  93 117 152 202 256 315 375
#     4  11  21  36  60  89 121 158 205 259 310 359
#     4  11  23  41  62  91 130 165 204 254 306 362
#     4  10  21  36  57  89 129 173 216 248 288 352
#     4  11  22  36  58  90 129 172 209 247 297 356
#
# _framework density 22.017029000000001
#
# number of rings (size 3 to 8) (size 9 to 14) (size 15 to 20)
#    0.000    1.200    0.000    9.000    0.000    6.400 
#    0.000    4.000    0.000    0.000    0.000    0.000 
#    0.000    0.000    0.000    0.000    0.000    0.000 
#
# Total GULP energy -248024.459127 kJ/mol
# GULP energy per Si atom -12401.222956 kJ/mol
# Density = 2.196692 g / cm^3
# Si number density = 22.017029 Si / 1000 Ang^3
#
#
#
# Elastic Constant Matrix: (Units=GPa)
#
#
# Indices 1 2 3 4 5 6 
#
# 1 131.5587 15.0292 44.9171 0.0000 0.0000 0.0000
# 2 15.0292 63.1834 25.3760 0.0000 0.0000 0.0000
# 3 44.9171 25.3760 158.9640 0.0000 0.0000 0.0000
# 4 0.0000 0.0000 0.0000 9.5792 0.0000 0.0000
# 5 0.0000 0.0000 0.0000 0.0000 45.6920 0.0000
# 6 0.0000 0.0000 0.0000 0.0000 0.0000 27.3818
#
#
#
# Elastic Compliance Matrix: (Units=1/GPa)
#
#
# Indices 1 2 3 4 5 6 
#
# 1 0.008487 -0.001128 -0.002218 0.000000 0.000000 0.000000
# 2 -0.001128 0.017061 -0.002405 0.000000 0.000000 0.000000
# 3 -0.002218 -0.002405 0.007301 0.000000 0.000000 0.000000
# 4 0.000000 0.000000 0.000000 0.104393 0.000000 0.000000
# 5 0.000000 0.000000 0.000000 0.000000 0.021886 0.000000
# 6 0.000000 0.000000 0.000000 0.000000 0.000000 0.036521
#
#
# Mechanical properties :
#
#
# Convention : Reuss Voigt Hill
#
# Bulk Modulus (GPa) = 46.84287 58.26117 52.55202
# Shear Modulus (GPa) = 23.33536 34.42286 28.87911
#
# Velocity S-wave (km/s) = 3.25911 3.95836 3.62563
# Velocity P-wave (km/s) = 5.95687 6.88555 6.43798
#
# Compressibility (1/GPa) = 0.02134796
#
# Stress axis : x y z
#
# Youngs Moduli (GPa) = 117.82238 58.61296 136.96052
#
# Poissons Ratio (x) = 0.06612 0.30380
# Poissons Ratio (y) = 0.13290 0.32936
# Poissons Ratio (z) = 0.26135 0.14095
#
# Static dielectric constant tensor:
#      x y z
#    x 4.086820 0.000000 0.000000 
#    y 0.000000 3.652110 0.000000 
#    z 0.000000 0.000000 4.314490 
# 
# 
# High freq. dielectric constant tensor:
#      x y z
#    x 1.869270 0.000000 0.000000 
#    y 0.000000 1.835750 0.000000 
#    z 0.000000 0.000000 1.895350 
# 
# From -- ./inp_files/6029.got.cif
#   From: 2010.03.12/outbox.cif.g09.slc.cpg/sg20_4_cif.got.tgz:6029.got - 2010.04.14 01:38:04.
