data_PCOD8159364
_publ_section_title
;
Structure prediction by ZEFSAII (Michael W. Deem and Ramdas Pophale) SiO2 
 PCOD8159364
Probable space group: C 2 2 21
;
_chemical_formula_sum "Si O2"
_cell_formula_units_Z 44
_cell_length_a 11.844265
_cell_length_b 7.935713
_cell_length_c 22.998447
_cell_angle_alpha 90.000000
_cell_angle_beta 90.000000
_cell_angle_gamma 90.000000
_cell_volume 2161.685847
_symmetry_space_group_name_H-M "C 2 2 21"
_symmetry_group_IT_number 20
_symmetry_cell_setting 'orthorhombic'
loop_
_space_group_symop_operation_xyz
x,y,z
-x,-y,1/2+z
x,-y,-z
-x,y,1/2-z
1/2+x,1/2+y,z
1/2-x,1/2-y,1/2+z
1/2+x,1/2-y,-z
1/2-x,1/2+y,1/2-z
loop_
_atom_site_type_symbol
_atom_site_label
_atom_site_fract_x
_atom_site_fract_y
_atom_site_fract_z
Si Si1 0.677050 0.840109 0.580899
Si Si2 0.660424 0.500000 0.000000
Si Si3 0.377601 0.358294 0.770459
Si Si4 0.286157 0.130283 0.674933
Si Si5 0.969589 0.601353 0.861180
Si Si6 0.502750 0.808345 0.011678
O O1 0.740618 0.687975 0.612151
O O2 0.611349 0.771461 0.524278
O O3 0.765362 0.979911 0.558247
O O4 0.592734 0.926043 0.626678
O O5 0.590879 0.329465 0.010325
O O6 0.500000 0.429331 0.750000
O O7 0.303795 0.291123 0.716571
O O8 0.305122 0.504741 0.799003
O O9 0.397026 0.206361 0.815264
O O10 0.408836 0.047359 0.664793
O O11 0.980492 0.713675 0.919666
O O12 0.546184 0.000000 0.000000
#
# Coordination Sequence:
#
# PCOD8159364 Si02
#       6
#     8   4   8   8   8   8
#     4  11  23  41  62  94 130 165 218 262 317 397
#     4  12  22  42  64  88 138 170 206 274 318 382
#     4  10  24  41  63  92 124 161 220 264 319 386
#     4  11  23  41  64  91 122 171 208 264 328 374
#     4  10  21  41  59  90 127 157 212 270 310 382
#     4  10  23  41  60  97 130 169 221 260 322 396
#
# _framework density 20.354483999999999
#
# number of rings (size 3 to 8) (size 9 to 14) (size 15 to 20)
#    0.000    1.455    4.545    1.091    2.545    4.364 
#    1.636    0.000    0.000    0.000    0.000    0.000 
#    0.000    0.000    0.000    0.000    0.000    0.000 
#
# Total GULP energy -272807.756927 kJ/mol
# GULP energy per Si atom -12400.352588 kJ/mol
# Density = 2.030816 g / cm^3
# Si number density = 20.354484 Si / 1000 Ang^3
#
#
#
# Elastic Constant Matrix: (Units=GPa)
#
#
# Indices 1 2 3 4 5 6 
#
# 1 106.2015 40.6818 28.7755 0.0000 0.0000 0.0000
# 2 40.6818 60.9166 12.1821 0.0000 0.0000 0.0000
# 3 28.7755 12.1821 82.3465 0.0000 0.0000 0.0000
# 4 0.0000 0.0000 0.0000 32.5407 0.0000 0.0000
# 5 0.0000 0.0000 0.0000 0.0000 38.7025 0.0000
# 6 0.0000 0.0000 0.0000 0.0000 0.0000 23.6308
#
#
#
# Elastic Compliance Matrix: (Units=1/GPa)
#
#
# Indices 1 2 3 4 5 6 
#
# 1 0.013568 -0.008360 -0.003505 0.000000 0.000000 0.000000
# 2 -0.008360 0.022068 -0.000343 0.000000 0.000000 0.000000
# 3 -0.003505 -0.000343 0.013419 0.000000 0.000000 0.000000
# 4 0.000000 0.000000 0.000000 0.030731 0.000000 0.000000
# 5 0.000000 0.000000 0.000000 0.000000 0.025838 0.000000
# 6 0.000000 0.000000 0.000000 0.000000 0.000000 0.042318
#
#
# Mechanical properties :
#
#
# Convention : Reuss Voigt Hill
#
# Bulk Modulus (GPa) = 40.58592 45.86038 43.22315
# Shear Modulus (GPa) = 27.68997 30.16314 28.92655
#
# Velocity S-wave (km/s) = 3.69234 3.85371 3.77389
# Velocity P-wave (km/s) = 6.17744 6.51009 6.34594
#
# Compressibility (1/GPa) = 0.02463909
#
# Stress axis : x y z
#
# Youngs Moduli (GPa) = 73.70201 45.31497 74.52005
#
# Poissons Ratio (x) = 0.37885 0.26116
# Poissons Ratio (y) = 0.61617 0.02557
# Poissons Ratio (z) = 0.25829 0.01555
#
# Static dielectric constant tensor:
#      x y z
#    x 3.939690 0.000000 0.000000 
#    y 0.000000 3.326580 0.000000 
#    z 0.000000 0.000000 3.934510 
# 
# 
# High freq. dielectric constant tensor:
#      x y z
#    x 1.809670 0.000000 0.000000 
#    y 0.000000 1.767550 0.000000 
#    z 0.000000 0.000000 1.810000 
# 
# From -- ./inp_files/28652.got.cif
#   From: 2010.03.12/outbox.cif.g09.slc.cpg/sg20_15_cif.got.tgz:28652.got - 2010.04.14 01:38:04.
