data_PCOD8159347
_publ_section_title
;
Structure prediction by ZEFSAII (Michael W. Deem and Ramdas Pophale) SiO2 
 PCOD8159347
Probable space group: C 2 2 21
;
_chemical_formula_sum "Si O2"
_cell_formula_units_Z 64
_cell_length_a 13.959245
_cell_length_b 11.501274
_cell_length_c 19.450849
_cell_angle_alpha 90.000000
_cell_angle_beta 90.000000
_cell_angle_gamma 90.000000
_cell_volume 3122.816332
_symmetry_space_group_name_H-M "C 2 2 21"
_symmetry_group_IT_number 20
_symmetry_cell_setting 'orthorhombic'
loop_
_space_group_symop_operation_xyz
x,y,z
-x,-y,1/2+z
x,-y,-z
-x,y,1/2-z
1/2+x,1/2+y,z
1/2-x,1/2-y,1/2+z
1/2+x,1/2-y,-z
1/2-x,1/2+y,1/2-z
loop_
_atom_site_type_symbol
_atom_site_label
_atom_site_fract_x
_atom_site_fract_y
_atom_site_fract_z
Si Si1 0.572111 0.461953 0.653168
Si Si2 0.132350 0.070415 0.194892
Si Si3 0.329758 0.727948 0.072148
Si Si4 0.281196 0.269178 0.172502
Si Si5 0.287682 0.120591 0.540551
Si Si6 0.996340 0.634856 0.985982
Si Si7 0.321391 0.677290 0.676655
Si Si8 0.478738 0.273141 0.126012
O O1 0.473403 0.395016 0.669896
O O2 0.634311 0.458410 0.723472
O O3 0.625833 0.396541 0.591786
O O4 0.551024 0.591152 0.625936
O O5 0.202014 0.170603 0.170163
O O6 0.164669 0.955402 0.153390
O O7 0.413703 0.822942 0.065684
O O8 0.258278 0.762567 0.131796
O O9 0.269596 0.719063 0.001796
O O10 0.256115 0.372566 0.117579
O O11 0.282591 0.326279 0.246532
O O12 0.385651 0.210191 0.158666
O O13 0.399674 0.149649 0.547984
O O14 0.273518 0.000000 0.500000
O O15 0.975331 0.500000 0.000000
O O16 0.996051 0.719117 0.051668
O O17 0.423976 0.744350 0.670113
#
# Coordination Sequence:
#
# PCOD8159347 Si02
#       8
#     8   8   8   8   8   8   8   8
#     4  10  21  40  66  96 128 166 217 282 330 385
#     4  10  22  39  63  96 133 165 214 282 334 391
#     4  12  23  41  67  96 127 172 223 271 330 404
#     4  12  22  41  69  96 131 175 222 277 345 398
#     4  11  25  43  67  94 132 176 226 273 333 409
#     4  11  26  45  62  94 142 177 216 272 335 408
#     4  11  24  41  66  98 132 170 226 278 337 408
#     4  11  22  43  66  93 133 175 219 274 338 397
#
# _framework density 20.494322
#
# number of rings (size 3 to 8) (size 9 to 14) (size 15 to 20)
#    0.000    1.000    5.000    1.875    1.750    0.000 
#    0.000    0.000    0.000    0.000    0.000    0.000 
#    0.000    0.000    0.000    0.000    0.000    0.000 
#
# Total GULP energy -396683.620627 kJ/mol
# GULP energy per Si atom -12396.363145 kJ/mol
# Density = 2.044768 g / cm^3
# Si number density = 20.494322 Si / 1000 Ang^3
#
#
#
# Elastic Constant Matrix: (Units=GPa)
#
#
# Indices 1 2 3 4 5 6 
#
# 1 148.1450 46.8477 52.3897 0.0000 0.0000 0.0000
# 2 46.8477 72.3003 42.6036 0.0000 0.0000 0.0000
# 3 52.3897 42.6036 101.5641 0.0000 0.0000 0.0000
# 4 0.0000 0.0000 0.0000 32.0265 0.0000 0.0000
# 5 0.0000 0.0000 0.0000 0.0000 29.9325 0.0000
# 6 0.0000 0.0000 0.0000 0.0000 0.0000 35.2808
#
#
#
# Elastic Compliance Matrix: (Units=1/GPa)
#
#
# Indices 1 2 3 4 5 6 
#
# 1 0.009111 -0.004163 -0.002953 0.000000 0.000000 0.000000
# 2 -0.004163 0.020275 -0.006357 0.000000 0.000000 0.000000
# 3 -0.002953 -0.006357 0.014036 0.000000 0.000000 0.000000
# 4 0.000000 0.000000 0.000000 0.031224 0.000000 0.000000
# 5 0.000000 0.000000 0.000000 0.000000 0.033409 0.000000
# 6 0.000000 0.000000 0.000000 0.000000 0.000000 0.028344
#
#
# Mechanical properties :
#
#
# Convention : Reuss Voigt Hill
#
# Bulk Modulus (GPa) = 60.70070 67.29906 63.99988
# Shear Modulus (GPa) = 29.61412 31.45917 30.53664
#
# Velocity S-wave (km/s) = 3.80543 3.92218 3.86425
# Velocity P-wave (km/s) = 6.99936 7.30894 7.15582
#
# Compressibility (1/GPa) = 0.01647428
#
# Stress axis : x y z
#
# Youngs Moduli (GPa) = 109.75577 49.32188 71.24464
#
# Poissons Ratio (x) = 0.20534 0.21041
# Poissons Ratio (y) = 0.45695 0.45292
# Poissons Ratio (z) = 0.32415 0.31355
#
# Static dielectric constant tensor:
#      x y z
#    x 4.190720 0.000000 0.000000 
#    y 0.000000 3.568640 0.000000 
#    z 0.000000 0.000000 3.456610 
# 
# 
# High freq. dielectric constant tensor:
#      x y z
#    x 1.828600 0.000000 0.000000 
#    y 0.000000 1.784720 0.000000 
#    z 0.000000 0.000000 1.795980 
# 
# From -- ./inp_files/24992.got.cif
#   From: 2010.03.12/outbox.cif.g09.slc.cpg/sg20_13_cif.got.tgz:24992.got - 2010.04.14 01:38:04.
