data_PCOD8159154
_publ_section_title
;
Structure prediction by ZEFSAII (Michael W. Deem and Ramdas Pophale) SiO2 
 PCOD8159154
Probable space group: C 2 2 21
;
_chemical_formula_sum "Si O2"
_cell_formula_units_Z 48
_cell_length_a 4.952387
_cell_length_b 29.487140
_cell_length_c 15.804456
_cell_angle_alpha 90.000000
_cell_angle_beta 90.000000
_cell_angle_gamma 90.000000
_cell_volume 2307.952032
_symmetry_space_group_name_H-M "C 2 2 21"
_symmetry_group_IT_number 20
_symmetry_cell_setting 'orthorhombic'
loop_
_space_group_symop_operation_xyz
x,y,z
-x,-y,1/2+z
x,-y,-z
-x,y,1/2-z
1/2+x,1/2+y,z
1/2-x,1/2-y,1/2+z
1/2+x,1/2-y,-z
1/2-x,1/2+y,1/2-z
loop_
_atom_site_type_symbol
_atom_site_label
_atom_site_fract_x
_atom_site_fract_y
_atom_site_fract_z
Si Si1 0.913110 0.607955 0.660646
Si Si2 0.587148 0.657078 0.894343
Si Si3 0.757773 0.826465 0.692922
Si Si4 0.439319 0.947402 0.504438
Si Si5 0.063338 0.103209 0.062826
Si Si6 0.384412 0.249604 0.057587
O O1 0.610349 0.626987 0.663693
O O2 0.935540 0.568551 0.592331
O O3 0.000000 0.586392 0.750000
O O4 0.110187 0.650238 0.639212
O O5 0.505128 0.709378 0.887261
O O6 0.571959 0.642366 0.992089
O O7 0.500000 0.838190 0.750000
O O8 0.870250 0.873024 0.651729
O O9 0.673175 0.791576 0.620287
O O10 0.000000 0.805867 0.750000
O O11 0.730668 0.937692 0.544014
O O12 0.229827 0.919940 0.563309
O O13 0.371428 0.000000 0.500000
O O14 0.609808 0.234458 0.989044
#
# Coordination Sequence:
#
# PCOD8159154 Si02
#       6
#     8   8   8   8   8   8
#     4  10  21  37  59  89 126 155 197 263 318 360
#     4  10  21  37  62  86 115 166 206 245 308 377
#     4  12  26  42  62  94 132 172 216 269 318 367
#     4  10  21  39  67  95 118 162 214 253 310 398
#     4  10  21  41  63  86 125 162 206 254 315 383
#     4  12  24  40  65  89 125 170 222 261 306 373
#
# _framework density 20.797657000000001
#
# number of rings (size 3 to 8) (size 9 to 14) (size 15 to 20)
#    0.000    1.333    1.667    4.000    4.667    2.000 
#    0.000    2.500    0.000    2.000    0.000    0.000 
#    0.000    0.000    0.000    0.000    0.000    0.000 
#
# Total GULP energy -297677.667999 kJ/mol
# GULP energy per Si atom -12403.236167 kJ/mol
# Density = 2.075032 g / cm^3
# Si number density = 20.797657 Si / 1000 Ang^3
#
#
#
# Elastic Constant Matrix: (Units=GPa)
#
#
# Indices 1 2 3 4 5 6 
#
# 1 105.2116 21.3218 42.9007 0.0000 0.0000 0.0000
# 2 21.3218 95.9620 50.3173 0.0000 0.0000 0.0000
# 3 42.9007 50.3173 105.7869 0.0000 0.0000 0.0000
# 4 0.0000 0.0000 0.0000 14.7601 0.0000 0.0000
# 5 0.0000 0.0000 0.0000 0.0000 39.7210 0.0000
# 6 0.0000 0.0000 0.0000 0.0000 0.0000 15.3079
#
#
#
# Elastic Compliance Matrix: (Units=1/GPa)
#
#
# Indices 1 2 3 4 5 6 
#
# 1 0.011389 -0.000145 -0.004550 0.000000 0.000000 0.000000
# 2 -0.000145 0.013885 -0.006546 0.000000 0.000000 0.000000
# 3 -0.004550 -0.006546 0.014412 0.000000 0.000000 0.000000
# 4 0.000000 0.000000 0.000000 0.067750 0.000000 0.000000
# 5 0.000000 0.000000 0.000000 0.000000 0.025176 0.000000
# 6 0.000000 0.000000 0.000000 0.000000 0.000000 0.065326
#
#
# Mechanical properties :
#
#
# Convention : Reuss Voigt Hill
#
# Bulk Modulus (GPa) = 58.12228 59.56001 58.84114
# Shear Modulus (GPa) = 22.10885 26.78584 24.44735
#
# Velocity S-wave (km/s) = 3.26397 3.59266 3.43226
# Velocity P-wave (km/s) = 6.49707 6.77567 6.63783
#
# Compressibility (1/GPa) = 0.01720511
#
# Stress axis : x y z
#
# Youngs Moduli (GPa) = 87.80202 72.01913 69.38873
#
# Poissons Ratio (x) = 0.01043 0.31571
# Poissons Ratio (y) = 0.01272 0.45420
# Poissons Ratio (z) = 0.39949 0.47142
#
# Static dielectric constant tensor:
#      x y z
#    x 4.092450 0.000000 0.000000 
#    y 0.000000 3.387790 0.000000 
#    z 0.000000 0.000000 3.799950 
# 
# 
# High freq. dielectric constant tensor:
#      x y z
#    x 1.839200 0.000000 0.000000 
#    y 0.000000 1.790410 0.000000 
#    z 0.000000 0.000000 1.807760 
# 
# From -- ./inp_files/17779.got.cif
#   From: 2010.03.12/outbox.cif.g09.slc.cpg/sg20_9_cif.got.tgz:17779.got - 2010.04.14 01:38:04.
