data_PCOD8159793
_publ_section_title
;
Structure prediction by ZEFSAII (Michael W. Deem and Ramdas Pophale) SiO2 
 PCOD8159793
Probable space group: C 2 2 21
;
_chemical_formula_sum "Si O2"
_cell_formula_units_Z 40
_cell_length_a 22.611773
_cell_length_b 8.536695
_cell_length_c 9.341817
_cell_angle_alpha 90.000000
_cell_angle_beta 90.000000
_cell_angle_gamma 90.000000
_cell_volume 1803.249156
_symmetry_space_group_name_H-M "C 2 2 21"
_symmetry_group_IT_number 20
_symmetry_cell_setting 'orthorhombic'
loop_
_space_group_symop_operation_xyz
x,y,z
-x,-y,1/2+z
x,-y,-z
-x,y,1/2-z
1/2+x,1/2+y,z
1/2-x,1/2-y,1/2+z
1/2+x,1/2-y,-z
1/2-x,1/2+y,1/2-z
loop_
_atom_site_type_symbol
_atom_site_label
_atom_site_fract_x
_atom_site_fract_y
_atom_site_fract_z
Si Si1 0.146549 0.682018 0.033074
Si Si2 0.738625 0.407069 0.145323
Si Si3 0.165361 0.177375 0.261851
Si Si4 0.523778 0.859812 0.904588
Si Si5 0.460099 0.361033 0.893982
O O1 0.199194 0.751296 0.128025
O O2 0.086163 0.727934 0.119575
O O3 0.160295 0.500000 0.000000
O O4 0.139295 0.789099 0.893308
O O5 0.801366 0.338420 0.195593
O O6 0.708474 0.524921 0.260284
O O7 0.750004 0.500000 0.000000
O O8 0.109704 0.142284 0.363670
O O9 0.500000 0.908941 0.750000
O O10 0.474160 0.787490 0.006993
O O11 0.548533 0.000000 0.000000
O O12 0.500000 0.369705 0.750000
O O13 0.477485 0.500000 0.000000
#
# Coordination Sequence:
#
# PCOD8159793 Si02
#       5
#     8   8   8   8   8
#     4  10  22  42  71  96 141 186 233 293 360 427
#     4  10  24  43  69 102 139 189 240 298 360 426
#     4  11  24  45  69 102 141 187 243 302 356 437
#     4  11  25  45  71 105 144 189 233 293 364 435
#     4  12  27  44  71 105 145 188 242 297 359 434
#
# _framework density 22.182182000000001
#
# number of rings (size 3 to 8) (size 9 to 14) (size 15 to 20)
#    0.000    1.200    2.000    2.400    8.400    4.800 
#    0.000    0.000    0.000    0.000    0.000    0.000 
#    0.000    0.000    0.000    0.000    0.000    0.000 
#
# Total GULP energy -247826.370462 kJ/mol
# GULP energy per Si atom -12391.318523 kJ/mol
# Density = 2.213169 g / cm^3
# Si number density = 22.182182 Si / 1000 Ang^3
#
#
#
# Elastic Constant Matrix: (Units=GPa)
#
#
# Indices 1 2 3 4 5 6 
#
# 1 127.0708 36.4819 51.2842 0.0000 0.0000 0.0000
# 2 36.4819 94.9020 24.3968 0.0000 0.0000 0.0000
# 3 51.2842 24.3968 113.2555 0.0000 0.0000 0.0000
# 4 0.0000 0.0000 0.0000 36.9177 0.0000 0.0000
# 5 0.0000 0.0000 0.0000 0.0000 35.5909 0.0000
# 6 0.0000 0.0000 0.0000 0.0000 0.0000 34.1495
#
#
#
# Elastic Compliance Matrix: (Units=1/GPa)
#
#
# Indices 1 2 3 4 5 6 
#
# 1 0.010349 -0.002936 -0.004054 0.000000 0.000000 0.000000
# 2 -0.002936 0.011988 -0.001253 0.000000 0.000000 0.000000
# 3 -0.004054 -0.001253 0.010935 0.000000 0.000000 0.000000
# 4 0.000000 0.000000 0.000000 0.027087 0.000000 0.000000
# 5 0.000000 0.000000 0.000000 0.000000 0.028097 0.000000
# 6 0.000000 0.000000 0.000000 0.000000 0.000000 0.029283
#
#
# Mechanical properties :
#
#
# Convention : Reuss Voigt Hill
#
# Bulk Modulus (GPa) = 59.57162 62.17267 60.87215
# Shear Modulus (GPa) = 35.76045 36.20265 35.98155
#
# Velocity S-wave (km/s) = 4.01948 4.04426 4.03189
# Velocity P-wave (km/s) = 6.96100 7.06379 7.01258
#
# Compressibility (1/GPa) = 0.01678652
#
# Stress axis : x y z
#
# Youngs Moduli (GPa) = 96.63201 83.41710 91.44955
#
# Poissons Ratio (x) = 0.24492 0.37069
# Poissons Ratio (y) = 0.28372 0.11457
# Poissons Ratio (z) = 0.39170 0.10451
#
# Static dielectric constant tensor:
#      x y z
#    x 3.980820 0.000000 0.000000 
#    y 0.000000 3.752900 0.000000 
#    z 0.000000 0.000000 3.876530 
# 
# 
# High freq. dielectric constant tensor:
#      x y z
#    x 1.887540 0.000000 0.000000 
#    y 0.000000 1.878870 0.000000 
#    z 0.000000 0.000000 1.865770 
# 
# From -- ./inp_files/6120.got.cif
#   From: 2010.03.12/outbox.cif.g09.slc.cpg/sg20_4_cif.got.tgz:6120.got - 2010.04.14 01:38:04.
