data_PCOD8159043
_publ_section_title
;
Structure prediction by ZEFSAII (Michael W. Deem and Ramdas Pophale) SiO2 
 PCOD8159043
Probable space group: C 2 2 21
;
_chemical_formula_sum "Si O2"
_cell_formula_units_Z 40
_cell_length_a 8.083964
_cell_length_b 16.322820
_cell_length_c 14.124382
_cell_angle_alpha 90.000000
_cell_angle_beta 90.000000
_cell_angle_gamma 90.000000
_cell_volume 1863.755839
_symmetry_space_group_name_H-M "C 2 2 21"
_symmetry_group_IT_number 20
_symmetry_cell_setting 'orthorhombic'
loop_
_space_group_symop_operation_xyz
x,y,z
-x,-y,1/2+z
x,-y,-z
-x,y,1/2-z
1/2+x,1/2+y,z
1/2-x,1/2-y,1/2+z
1/2+x,1/2-y,-z
1/2-x,1/2+y,1/2-z
loop_
_atom_site_type_symbol
_atom_site_label
_atom_site_fract_x
_atom_site_fract_y
_atom_site_fract_z
Si Si1 0.330936 0.762421 0.707622
Si Si2 0.000000 0.591718 0.750000
Si Si3 0.144367 0.165809 0.461376
Si Si4 0.653909 0.569985 0.813656
Si Si5 0.980940 0.000000 0.500000
Si Si6 0.872691 0.277024 0.379617
O O1 0.500000 0.798103 0.750000
O O2 0.281069 0.817978 0.618777
O O3 0.350261 0.668028 0.677188
O O4 0.189341 0.771674 0.787081
O O5 0.829718 0.540575 0.766801
O O6 0.982965 0.646587 0.654938
O O7 0.213570 0.190125 0.564089
O O8 0.979294 0.218293 0.445612
O O9 0.100577 0.070585 0.461162
O O10 0.500000 0.539247 0.750000
O O11 0.639166 0.531551 0.917304
#
# Coordination Sequence:
#
# PCOD8159043 Si02
#       6
#     8   4   8   8   4   8
#     4  10  20  42  70  98 125 172 232 282 317 390
#     4  10  20  42  70  96 124 176 230 290 310 400
#     4  12  23  39  69  98 134 172 221 278 338 402
#     4  10  21  43  69  96 132 177 222 274 342 388
#     4  12  26  40  64 102 142 178 204 272 356 416
#     4  11  21  40  69  98 123 171 232 274 324 387
#
# _framework density 21.462038
#
# number of rings (size 3 to 8) (size 9 to 14) (size 15 to 20)
#    0.000    1.200    4.000    6.000    0.000    1.600 
#    0.000    4.000   11.000    0.000    0.000    0.000 
#    0.000    0.000    0.000    0.000    0.000    0.000 
#
# Total GULP energy -248051.386619 kJ/mol
# GULP energy per Si atom -12402.569331 kJ/mol
# Density = 2.141319 g / cm^3
# Si number density = 21.462038 Si / 1000 Ang^3
#
#
#
# Elastic Constant Matrix: (Units=GPa)
#
#
# Indices 1 2 3 4 5 6 
#
# 1 142.6297 39.7863 48.8615 0.0000 0.0000 0.0000
# 2 39.7863 71.8356 43.3429 0.0000 0.0000 0.0000
# 3 48.8615 43.3429 120.5673 0.0000 0.0000 0.0000
# 4 0.0000 0.0000 0.0000 24.8369 0.0000 0.0000
# 5 0.0000 0.0000 0.0000 0.0000 57.8167 0.0000
# 6 0.0000 0.0000 0.0000 0.0000 0.0000 18.6063
#
#
#
# Elastic Compliance Matrix: (Units=1/GPa)
#
#
# Indices 1 2 3 4 5 6 
#
# 1 0.008768 -0.003463 -0.002308 0.000000 0.000000 0.000000
# 2 -0.003463 0.019145 -0.005479 0.000000 0.000000 0.000000
# 3 -0.002308 -0.005479 0.011199 0.000000 0.000000 0.000000
# 4 0.000000 0.000000 0.000000 0.040263 0.000000 0.000000
# 5 0.000000 0.000000 0.000000 0.000000 0.017296 0.000000
# 6 0.000000 0.000000 0.000000 0.000000 0.000000 0.053745
#
#
# Mechanical properties :
#
#
# Convention : Reuss Voigt Hill
#
# Bulk Modulus (GPa) = 60.20161 66.55713 63.37937
# Shear Modulus (GPa) = 28.01853 33.78812 30.90332
#
# Velocity S-wave (km/s) = 3.61708 3.97207 3.79873
# Velocity P-wave (km/s) = 6.74948 7.21910 6.98824
#
# Compressibility (1/GPa) = 0.01661085
#
# Stress axis : x y z
#
# Youngs Moduli (GPa) = 114.05035 52.23420 89.29277
#
# Poissons Ratio (x) = 0.18091 0.20611
# Poissons Ratio (y) = 0.39501 0.48921
# Poissons Ratio (z) = 0.26326 0.28617
#
# Static dielectric constant tensor:
#      x y z
#    x 4.162410 0.000000 0.000000 
#    y 0.000000 3.433060 0.000000 
#    z 0.000000 0.000000 3.969100 
# 
# 
# High freq. dielectric constant tensor:
#      x y z
#    x 1.861280 0.000000 0.000000 
#    y 0.000000 1.796000 0.000000 
#    z 0.000000 0.000000 1.855800 
# 
# From -- ./inp_files/18561.got.cif
#   From: 2010.03.12/outbox.cif.g09.slc.cpg/sg20_10_cif.got.tgz:18561.got - 2010.04.14 01:38:04.
