data_PCOD8159885
_publ_section_title
;
Structure prediction by ZEFSAII (Michael W. Deem and Ramdas Pophale) SiO2 
 PCOD8159885
Probable space group: C 2 2 21
;
_chemical_formula_sum "Si O2"
_cell_formula_units_Z 60
_cell_length_a 8.606677
_cell_length_b 16.633305
_cell_length_c 19.150427
_cell_angle_alpha 90.000000
_cell_angle_beta 90.000000
_cell_angle_gamma 90.000000
_cell_volume 2741.526939
_symmetry_space_group_name_H-M "C 2 2 21"
_symmetry_group_IT_number 20
_symmetry_cell_setting 'orthorhombic'
loop_
_space_group_symop_operation_xyz
x,y,z
-x,-y,1/2+z
x,-y,-z
-x,y,1/2-z
1/2+x,1/2+y,z
1/2-x,1/2-y,1/2+z
1/2+x,1/2-y,-z
1/2-x,1/2+y,1/2-z
loop_
_atom_site_type_symbol
_atom_site_label
_atom_site_fract_x
_atom_site_fract_y
_atom_site_fract_z
Si Si1 0.617519 0.999315 0.349740
Si Si2 0.427717 0.500000 0.000000
Si Si3 0.299020 0.394763 0.449169
Si Si4 0.147663 0.900887 0.622732
Si Si5 0.780094 0.535289 0.700771
Si Si6 0.331844 0.255274 0.339102
Si Si7 0.705613 0.352887 0.894806
Si Si8 0.813133 0.788347 0.185881
O O1 0.673070 0.959218 0.422009
O O2 0.695081 0.954956 0.283292
O O3 0.433668 0.991048 0.341802
O O4 0.673206 0.092282 0.350822
O O5 0.536047 0.440412 0.046331
O O6 0.315937 0.551289 0.050645
O O7 0.295303 0.323020 0.394786
O O8 0.250320 0.359160 0.523860
O O9 0.268774 0.828188 0.629882
O O10 0.969864 0.876316 0.619957
O O11 0.161441 0.962383 0.687501
O O12 0.707691 0.617314 0.670155
O O13 0.250425 0.271195 0.264313
O O14 0.514206 0.255837 0.325074
O O15 0.712266 0.260792 0.869907
#
# Coordination Sequence:
#
# PCOD8159885 Si02
#       8
#     8   4   8   8   8   8   8   8
#     4  11  22  44  67 100 133 178 228 282 340 409
#     4  10  22  46  68  98 136 174 236 278 346 420
#     4  11  21  44  70  95 132 181 222 283 342 406
#     4  11  24  44  66 101 131 181 221 284 337 413
#     4  11  25  41  72  98 137 178 233 287 342 409
#     4  11  25  42  71  96 145 176 228 282 352 400
#     4  11  25  42  72  95 142 174 227 282 349 408
#     4  11  25  45  64 105 136 179 225 288 338 412
#
# _framework density 21.885612999999999
#
# number of rings (size 3 to 8) (size 9 to 14) (size 15 to 20)
#    0.000    1.067    4.000    2.400    1.867    7.467 
#    4.800    0.000    0.000    0.000    0.000    0.000 
#    0.000    0.000    0.000    0.000    0.000    0.000 
#
# Total GULP energy -371973.277482 kJ/mol
# GULP energy per Si atom -12399.109249 kJ/mol
# Density = 2.183580 g / cm^3
# Si number density = 21.885613 Si / 1000 Ang^3
#
#
#
# Elastic Constant Matrix: (Units=GPa)
#
#
# Indices 1 2 3 4 5 6 
#
# 1 64.2005 23.8819 34.3829 0.0000 0.0000 0.0000
# 2 23.8819 140.5904 36.9032 0.0000 0.0000 0.0000
# 3 34.3829 36.9032 97.0424 0.0000 0.0000 0.0000
# 4 0.0000 0.0000 0.0000 48.1664 0.0000 0.0000
# 5 0.0000 0.0000 0.0000 0.0000 34.8635 0.0000
# 6 0.0000 0.0000 0.0000 0.0000 0.0000 29.9617
#
#
#
# Elastic Compliance Matrix: (Units=1/GPa)
#
#
# Indices 1 2 3 4 5 6 
#
# 1 0.019571 -0.001671 -0.006299 0.000000 0.000000 0.000000
# 2 -0.001671 0.008044 -0.002467 0.000000 0.000000 0.000000
# 3 -0.006299 -0.002467 0.013475 0.000000 0.000000 0.000000
# 4 0.000000 0.000000 0.000000 0.020761 0.000000 0.000000
# 5 0.000000 0.000000 0.000000 0.000000 0.028683 0.000000
# 6 0.000000 0.000000 0.000000 0.000000 0.000000 0.033376
#
#
# Mechanical properties :
#
#
# Convention : Reuss Voigt Hill
#
# Bulk Modulus (GPa) = 49.46497 54.68549 52.07523
# Shear Modulus (GPa) = 32.99828 36.37601 34.68715
#
# Velocity S-wave (km/s) = 3.88720 4.08131 3.98544
# Velocity P-wave (km/s) = 6.54200 6.87391 6.71001
#
# Compressibility (1/GPa) = 0.02021633
#
# Stress axis : x y z
#
# Youngs Moduli (GPa) = 51.09560 124.31172 74.21378
#
# Poissons Ratio (x) = 0.20775 0.46745
# Poissons Ratio (y) = 0.08539 0.18308
# Poissons Ratio (z) = 0.32184 0.30667
#
# Static dielectric constant tensor:
#      x y z
#    x 3.737160 0.000000 0.000000 
#    y 0.000000 4.053340 0.000000 
#    z 0.000000 0.000000 4.275870 
# 
# 
# High freq. dielectric constant tensor:
#      x y z
#    x 1.844660 0.000000 0.000000 
#    y 0.000000 1.872670 0.000000 
#    z 0.000000 0.000000 1.868810 
# 
# From -- ./inp_files/23780.got.cif
#   From: 2010.03.12/outbox.cif.g09.slc.cpg/sg20_12_cif.got.tgz:23780.got - 2010.04.14 01:38:04.
