data_PCOD8159156
_publ_section_title
;
Structure prediction by ZEFSAII (Michael W. Deem and Ramdas Pophale) SiO2 
 PCOD8159156
Probable space group: C 2 2 21
;
_chemical_formula_sum "Si O2"
_cell_formula_units_Z 64
_cell_length_a 20.092089
_cell_length_b 18.298761
_cell_length_c 8.602426
_cell_angle_alpha 90.000000
_cell_angle_beta 90.000000
_cell_angle_gamma 90.000000
_cell_volume 3162.770822
_symmetry_space_group_name_H-M "C 2 2 21"
_symmetry_group_IT_number 20
_symmetry_cell_setting 'orthorhombic'
loop_
_space_group_symop_operation_xyz
x,y,z
-x,-y,1/2+z
x,-y,-z
-x,y,1/2-z
1/2+x,1/2+y,z
1/2-x,1/2-y,1/2+z
1/2+x,1/2-y,-z
1/2-x,1/2+y,1/2-z
loop_
_atom_site_type_symbol
_atom_site_label
_atom_site_fract_x
_atom_site_fract_y
_atom_site_fract_z
Si Si1 0.568332 0.197537 0.909512
Si Si2 0.956242 0.237444 0.885144
Si Si3 0.788182 0.477328 0.319667
Si Si4 0.343179 0.208595 0.310622
Si Si5 0.369848 0.712791 0.157120
Si Si6 0.232107 0.888852 0.814707
Si Si7 0.435132 0.032884 0.667329
Si Si8 0.743821 0.832660 0.345249
O O1 0.574652 0.258744 0.776963
O O2 0.559969 0.119908 0.829906
O O3 0.504072 0.213091 0.012156
O O4 0.636263 0.199637 0.009763
O O5 0.908334 0.293838 0.796265
O O6 0.000000 0.194409 0.750000
O O7 0.909808 0.188158 0.999728
O O8 0.779619 0.500000 0.500000
O O9 0.736814 0.524336 0.214677
O O10 0.864111 0.490546 0.258900
O O11 0.771217 0.392041 0.288647
O O12 0.297451 0.140691 0.270824
O O13 0.304951 0.284810 0.282022
O O14 0.333571 0.642933 0.231353
O O15 0.318559 0.779160 0.121300
O O16 0.233253 0.871359 0.996291
O O17 0.500000 0.999115 0.750000
O O18 0.437239 0.000000 0.500000
#
# Coordination Sequence:
#
# PCOD8159156 Si02
#       8
#     8   8   8   8   8   8   8   8
#     4  11  21  39  60  87 124 161 208 259 308 369
#     4  10  22  36  60  90 124 157 200 257 308 378
#     4  11  25  40  59  88 122 167 213 257 314 385
#     4  10  21  37  59  92 120 156 206 259 318 368
#     4  11  21  38  62  91 122 161 210 264 319 371
#     4  11  23  37  62  88 123 163 207 263 316 374
#     4  11  24  39  56  81 124 175 209 247 294 365
#     4  11  22  38  61  86 126 165 206 266 320 375
#
# _framework density 20.235420000000001
#
# number of rings (size 3 to 8) (size 9 to 14) (size 15 to 20)
#    0.000    1.250    3.750    3.000    1.750    3.500 
#    0.000    0.000    0.000    0.000    0.000    8.750 
#    0.000    0.000    0.000    0.000    0.000    0.000 
#
# Total GULP energy -396640.927754 kJ/mol
# GULP energy per Si atom -12395.028992 kJ/mol
# Density = 2.018936 g / cm^3
# Si number density = 20.235420 Si / 1000 Ang^3
#
#
#
# Elastic Constant Matrix: (Units=GPa)
#
#
# Indices 1 2 3 4 5 6 
#
# 1 87.0147 30.0013 40.1335 0.0000 0.0000 0.0000
# 2 30.0013 71.1796 14.4631 0.0000 0.0000 0.0000
# 3 40.1335 14.4631 84.1763 0.0000 0.0000 0.0000
# 4 0.0000 0.0000 0.0000 28.7492 0.0000 0.0000
# 5 0.0000 0.0000 0.0000 0.0000 50.3756 0.0000
# 6 0.0000 0.0000 0.0000 0.0000 0.0000 22.1930
#
#
#
# Elastic Compliance Matrix: (Units=1/GPa)
#
#
# Indices 1 2 3 4 5 6 
#
# 1 0.016637 -0.005596 -0.006971 0.000000 0.000000 0.000000
# 2 -0.005596 0.016439 -0.000157 0.000000 0.000000 0.000000
# 3 -0.006971 -0.000157 0.015230 0.000000 0.000000 0.000000
# 4 0.000000 0.000000 0.000000 0.034784 0.000000 0.000000
# 5 0.000000 0.000000 0.000000 0.000000 0.019851 0.000000
# 6 0.000000 0.000000 0.000000 0.000000 0.000000 0.045059
#
#
# Mechanical properties :
#
#
# Convention : Reuss Voigt Hill
#
# Bulk Modulus (GPa) = 43.74414 45.72962 44.73688
# Shear Modulus (GPa) = 27.61426 30.78174 29.19800
#
# Velocity S-wave (km/s) = 3.69812 3.90446 3.80269
# Velocity P-wave (km/s) = 6.31659 6.55548 6.43715
#
# Compressibility (1/GPa) = 0.02286020
#
# Stress axis : x y z
#
# Youngs Moduli (GPa) = 60.10825 60.82966 65.65919
#
# Poissons Ratio (x) = 0.34039 0.45768
# Poissons Ratio (y) = 0.33635 0.01028
# Poissons Ratio (z) = 0.41899 0.00953
#
# Static dielectric constant tensor:
#      x y z
#    x 4.212540 0.000000 0.000000 
#    y 0.000000 3.268030 0.000000 
#    z 0.000000 0.000000 3.869270 
# 
# 
# High freq. dielectric constant tensor:
#      x y z
#    x 1.796520 0.000000 0.000000 
#    y 0.000000 1.747170 0.000000 
#    z 0.000000 0.000000 1.806250 
# 
# From -- ./inp_files/10362.got.cif
#   From: 2010.03.12/outbox.cif.g09.slc.cpg/sg20_6_cif.got.tgz:10362.got - 2010.04.14 01:38:04.
