data_PCOD8159644
_publ_section_title
;
Structure prediction by ZEFSAII (Michael W. Deem and Ramdas Pophale) SiO2 
 PCOD8159644
Probable space group: C 2 2 21
;
_chemical_formula_sum "Si O2"
_cell_formula_units_Z 60
_cell_length_a 8.315970
_cell_length_b 28.926509
_cell_length_c 12.109649
_cell_angle_alpha 90.000000
_cell_angle_beta 90.000000
_cell_angle_gamma 90.000000
_cell_volume 2913.000057
_symmetry_space_group_name_H-M "C 2 2 21"
_symmetry_group_IT_number 20
_symmetry_cell_setting 'orthorhombic'
loop_
_space_group_symop_operation_xyz
x,y,z
-x,-y,1/2+z
x,-y,-z
-x,y,1/2-z
1/2+x,1/2+y,z
1/2-x,1/2-y,1/2+z
1/2+x,1/2-y,-z
1/2-x,1/2+y,1/2-z
loop_
_atom_site_type_symbol
_atom_site_label
_atom_site_fract_x
_atom_site_fract_y
_atom_site_fract_z
Si Si1 0.028920 0.448787 0.982841
Si Si2 0.041396 0.722773 0.879855
Si Si3 0.500000 0.096145 0.250000
Si Si4 0.142024 0.198499 0.508892
Si Si5 0.160678 0.126023 0.316616
Si Si6 0.392252 0.552783 0.014467
Si Si7 0.446887 0.625589 0.633145
Si Si8 0.416300 0.126750 0.864094
O O1 0.011648 0.436683 0.855127
O O2 0.962552 0.500000 0.000000
O O3 0.917546 0.415464 0.052474
O O4 0.210059 0.444067 0.031433
O O5 0.000000 0.728440 0.750000
O O6 0.950648 0.761741 0.945774
O O7 0.996585 0.671354 0.919545
O O8 0.226668 0.724964 0.916304
O O9 0.329668 0.125366 0.246287
O O10 0.199954 0.160691 0.418284
O O11 0.031497 0.172785 0.597185
O O12 0.116929 0.074167 0.361221
O O13 0.000000 0.143223 0.250000
O O14 0.520635 0.583948 0.950685
O O15 0.452642 0.500000 0.000000
O O16 0.500000 0.606270 0.750000
O O17 0.265808 0.640218 0.651940
O O18 0.500000 0.112583 0.750000
#
# Coordination Sequence:
#
# PCOD8159644 Si02
#       8
#     8   8   4   8   8   8   8   8
#     4  10  22  40  63  92 130 167 221 270 322 393
#     4  11  23  44  67  95 128 168 213 268 329 399
#     4  10  22  40  64  96 130 182 218 266 344 392
#     4  11  24  44  66  97 130 164 216 270 333 392
#     4  10  22  42  65  94 135 174 219 275 330 403
#     4   9  20  39  59  89 128 170 215 275 320 380
#     4  11  22  39  64  91 123 169 213 263 323 387
#     4  11  23  40  65  90 128 169 212 264 321 387
#
# _framework density 20.597321999999998
#
# number of rings (size 3 to 8) (size 9 to 14) (size 15 to 20)
#    0.000    1.600    0.000    6.000    4.667    1.067 
#    9.600    0.000    1.467    0.000    0.000    0.000 
#    0.000    0.000    0.000    0.000    0.000    0.000 
#
# Total GULP energy -371762.711256 kJ/mol
# GULP energy per Si atom -12392.090375 kJ/mol
# Density = 2.055044 g / cm^3
# Si number density = 20.597322 Si / 1000 Ang^3
#
#
#
# Elastic Constant Matrix: (Units=GPa)
#
#
# Indices 1 2 3 4 5 6 
#
# 1 131.9445 31.2578 54.3829 0.0000 0.0000 0.0000
# 2 31.2578 112.8960 43.8891 0.0000 0.0000 0.0000
# 3 54.3829 43.8891 89.8134 0.0000 0.0000 0.0000
# 4 0.0000 0.0000 0.0000 31.3348 0.0000 0.0000
# 5 0.0000 0.0000 0.0000 0.0000 35.5075 0.0000
# 6 0.0000 0.0000 0.0000 0.0000 0.0000 7.1724
#
#
#
# Elastic Compliance Matrix: (Units=1/GPa)
#
#
# Indices 1 2 3 4 5 6 
#
# 1 0.010124 -0.000518 -0.005877 0.000000 0.000000 0.000000
# 2 -0.000518 0.010962 -0.005043 0.000000 0.000000 0.000000
# 3 -0.005877 -0.005043 0.017157 0.000000 0.000000 0.000000
# 4 0.000000 0.000000 0.000000 0.031913 0.000000 0.000000
# 5 0.000000 0.000000 0.000000 0.000000 0.028163 0.000000
# 6 0.000000 0.000000 0.000000 0.000000 0.000000 0.139424
#
#
# Mechanical properties :
#
#
# Convention : Reuss Voigt Hill
#
# Bulk Modulus (GPa) = 65.07622 65.96817 65.52219
# Shear Modulus (GPa) = 18.81532 28.47786 23.64659
#
# Velocity S-wave (km/s) = 3.02567 3.72237 3.39195
# Velocity P-wave (km/s) = 6.62339 7.11138 6.87172
#
# Compressibility (1/GPa) = 0.01536660
#
# Stress axis : x y z
#
# Youngs Moduli (GPa) = 98.77534 91.22726 58.28553
#
# Poissons Ratio (x) = 0.04729 0.34254
# Poissons Ratio (y) = 0.05120 0.29392
# Poissons Ratio (z) = 0.58049 0.46003
#
# Static dielectric constant tensor:
#      x y z
#    x 3.728850 0.000000 0.000000 
#    y 0.000000 3.773610 0.000000 
#    z 0.000000 0.000000 3.730280 
# 
# 
# High freq. dielectric constant tensor:
#      x y z
#    x 1.812800 0.000000 0.000000 
#    y 0.000000 1.806060 0.000000 
#    z 0.000000 0.000000 1.802850 
# 
# From -- ./inp_files/13303.got.cif
#   From: 2010.03.12/outbox.cif.g09.slc.cpg/sg20_7_cif.got.tgz:13303.got - 2010.04.14 01:38:04.
