data_PCOD8159237
_publ_section_title
;
Structure prediction by ZEFSAII (Michael W. Deem and Ramdas Pophale) SiO2 
 PCOD8159237
Probable space group: C 2 2 21
;
_chemical_formula_sum "Si O2"
_cell_formula_units_Z 44
_cell_length_a 11.562180
_cell_length_b 8.617704
_cell_length_c 21.686757
_cell_angle_alpha 90.000000
_cell_angle_beta 90.000000
_cell_angle_gamma 90.000000
_cell_volume 2160.856428
_symmetry_space_group_name_H-M "C 2 2 21"
_symmetry_group_IT_number 20
_symmetry_cell_setting 'orthorhombic'
loop_
_space_group_symop_operation_xyz
x,y,z
-x,-y,1/2+z
x,-y,-z
-x,y,1/2-z
1/2+x,1/2+y,z
1/2-x,1/2-y,1/2+z
1/2+x,1/2-y,-z
1/2-x,1/2+y,1/2-z
loop_
_atom_site_type_symbol
_atom_site_label
_atom_site_fract_x
_atom_site_fract_y
_atom_site_fract_z
Si Si1 0.597317 0.123670 0.392774
Si Si2 0.887400 0.114852 0.212137
Si Si3 0.024626 0.831378 0.013223
Si Si4 0.744058 0.500000 0.000000
Si Si5 0.743245 0.806863 0.189496
Si Si6 0.983396 0.686503 0.615545
O O1 0.524874 0.262042 0.423915
O O2 0.657804 0.188639 0.331812
O O3 0.684060 0.048976 0.441283
O O4 0.514965 0.989246 0.367776
O O5 0.817084 0.248860 0.248020
O O6 0.000000 0.056016 0.250000
O O7 0.933452 0.190171 0.149160
O O8 0.799559 0.975039 0.199279
O O9 0.000757 0.713820 0.957236
O O10 0.965841 0.000000 0.000000
O O11 0.162784 0.855751 0.021229
O O12 0.649946 0.800854 0.134564
#
# Coordination Sequence:
#
# PCOD8159237 Si02
#       6
#     8   8   8   4   8   8
#     4  12  22  40  63  89 126 163 204 251 308 371
#     4  10  24  42  63  89 124 157 210 258 304 364
#     4  10  21  39  56  88 123 157 203 245 302 370
#     4  10  22  38  58  86 128 158 196 254 304 358
#     4  11  23  42  63  91 119 166 202 256 311 360
#     4  11  22  39  60  90 121 155 206 255 301 366
#
# _framework density 20.362295
#
# number of rings (size 3 to 8) (size 9 to 14) (size 15 to 20)
#    0.545    0.727    3.636    2.182    0.000    2.909 
#    3.273    0.000    0.000    0.000    0.000    0.000 
#    0.000    0.000    0.000    0.000    0.000    0.000 
#
# Total GULP energy -272783.858833 kJ/mol
# GULP energy per Si atom -12399.266311 kJ/mol
# Density = 2.031595 g / cm^3
# Si number density = 20.362295 Si / 1000 Ang^3
#
#
#
# Elastic Constant Matrix: (Units=GPa)
#
#
# Indices 1 2 3 4 5 6 
#
# 1 56.1831 32.7827 8.2220 0.0000 0.0000 0.0000
# 2 32.7827 106.7544 2.4968 0.0000 0.0000 0.0000
# 3 8.2220 2.4968 37.1555 0.0000 0.0000 0.0000
# 4 0.0000 0.0000 0.0000 31.6255 0.0000 0.0000
# 5 0.0000 0.0000 0.0000 0.0000 111.4111 0.0000
# 6 0.0000 0.0000 0.0000 0.0000 0.0000 49.3805
#
#
#
# Elastic Compliance Matrix: (Units=1/GPa)
#
#
# Indices 1 2 3 4 5 6 
#
# 1 0.022413 -0.006777 -0.004504 0.000000 0.000000 0.000000
# 2 -0.006777 0.011431 0.000732 0.000000 0.000000 0.000000
# 3 -0.004504 0.000732 0.027861 0.000000 0.000000 0.000000
# 4 0.000000 0.000000 0.000000 0.031620 0.000000 0.000000
# 5 0.000000 0.000000 0.000000 0.000000 0.008976 0.000000
# 6 0.000000 0.000000 0.000000 0.000000 0.000000 0.020251
#
#
# Mechanical properties :
#
#
# Convention : Reuss Voigt Hill
#
# Bulk Modulus (GPa) = 24.62709 31.89957 28.26333
# Shear Modulus (GPa) = 31.80922 48.92287 40.36604
#
# Velocity S-wave (km/s) = 3.95671 4.90697 4.45724
# Velocity P-wave (km/s) = 5.74411 6.91408 6.35607
#
# Compressibility (1/GPa) = 0.04060570
#
# Stress axis : x y z
#
# Youngs Moduli (GPa) = 44.61779 87.47857 35.89184
#
# Poissons Ratio (x) = 0.59286 0.16166
# Poissons Ratio (y) = 0.30239 -0.02626
# Poissons Ratio (z) = 0.20097 -0.06399
#
# Static dielectric constant tensor:
#      x y z
#    x 3.768030 0.000000 0.000000 
#    y 0.000000 -0.727110 0.000000 
#    z 0.000000 0.000000 3.518750 
# 
# 
# High freq. dielectric constant tensor:
#      x y z
#    x 1.801980 0.000000 0.000000 
#    y 0.000000 1.798890 0.000000 
#    z 0.000000 0.000000 1.790130 
# 
# From -- ./inp_files/29058.got.cif
#   From: 2010.03.12/outbox.cif.g09.slc.cpg/sg20_15_cif.got.tgz:29058.got - 2010.04.14 01:38:04.
