data_PCOD8159996
_publ_section_title
;
Structure prediction by ZEFSAII (Michael W. Deem and Ramdas Pophale) SiO2 
 PCOD8159996
Probable space group: C 2 2 21
;
_chemical_formula_sum "Si O2"
_cell_formula_units_Z 28
_cell_length_a 17.639900
_cell_length_b 6.874886
_cell_length_c 10.244492
_cell_angle_alpha 90.000000
_cell_angle_beta 90.000000
_cell_angle_gamma 90.000000
_cell_volume 1242.373123
_symmetry_space_group_name_H-M "C 2 2 21"
_symmetry_group_IT_number 20
_symmetry_cell_setting 'orthorhombic'
loop_
_space_group_symop_operation_xyz
x,y,z
-x,-y,1/2+z
x,-y,-z
-x,y,1/2-z
1/2+x,1/2+y,z
1/2-x,1/2-y,1/2+z
1/2+x,1/2-y,-z
1/2-x,1/2+y,1/2-z
loop_
_atom_site_type_symbol
_atom_site_label
_atom_site_fract_x
_atom_site_fract_y
_atom_site_fract_z
Si Si1 0.314240 0.115827 0.627254
Si Si2 0.820549 0.626801 0.115122
Si Si3 0.956009 0.852077 0.621186
Si Si4 0.963747 0.500000 0.000000
O O1 0.225692 0.173325 0.616806
O O2 0.366896 0.308680 0.649834
O O3 0.341380 0.000000 0.500000
O O4 0.317863 0.970902 0.745783
O O5 0.781447 0.500000 0.000000
O O6 0.909998 0.650868 0.081557
O O7 0.986829 0.635622 0.592619
O O8 0.000000 0.933842 0.750000
O O9 0.965454 0.000000 0.500000
#
# Coordination Sequence:
#
# PCOD8159996 Si02
#       4
#     8   8   8   4
#     4  12  24  42  72 103 139 182 239 293 348 422
#     4  10  23  43  66  96 141 179 228 283 363 403
#     4  12  26  46  74 107 141 191 239 290 356 422
#     4  10  24  48  68  96 148 182 228 298 352 408
#
# _framework density 22.537510999999999
#
# number of rings (size 3 to 8) (size 9 to 14) (size 15 to 20)
#    0.857    0.000    4.286    2.571    0.000    6.857 
#    0.000    0.000    0.000    0.000    0.000    0.000 
#    0.000    0.000    0.000    0.000    0.000    0.000 
#
# Total GULP energy -173487.255934 kJ/mol
# GULP energy per Si atom -12391.946852 kJ/mol
# Density = 2.248621 g / cm^3
# Si number density = 22.537511 Si / 1000 Ang^3
#
#
#
# Elastic Constant Matrix: (Units=GPa)
#
#
# Indices 1 2 3 4 5 6 
#
# 1 77.8423 22.8914 9.4595 0.0000 0.0000 0.0000
# 2 22.8914 45.5418 28.9904 0.0000 0.0000 0.0000
# 3 9.4595 28.9904 159.8916 0.0000 0.0000 0.0000
# 4 0.0000 0.0000 0.0000 39.5011 0.0000 0.0000
# 5 0.0000 0.0000 0.0000 0.0000 25.2590 0.0000
# 6 0.0000 0.0000 0.0000 0.0000 0.0000 41.6902
#
#
#
# Elastic Compliance Matrix: (Units=1/GPa)
#
#
# Indices 1 2 3 4 5 6 
#
# 1 0.015117 -0.007946 0.000546 0.000000 0.000000 0.000000
# 2 -0.007946 0.029000 -0.004788 0.000000 0.000000 0.000000
# 3 0.000546 -0.004788 0.007090 0.000000 0.000000 0.000000
# 4 0.000000 0.000000 0.000000 0.025316 0.000000 0.000000
# 5 0.000000 0.000000 0.000000 0.000000 0.039590 0.000000
# 6 0.000000 0.000000 0.000000 0.000000 0.000000 0.023986
#
#
# Mechanical properties :
#
#
# Convention : Reuss Voigt Hill
#
# Bulk Modulus (GPa) = 37.27004 45.10646 41.18825
# Shear Modulus (GPa) = 28.83204 36.08569 32.45887
#
# Velocity S-wave (km/s) = 3.58060 4.00576 3.79913
# Velocity P-wave (km/s) = 5.80233 6.43834 6.12859
#
# Compressibility (1/GPa) = 0.02683120
#
# Stress axis : x y z
#
# Youngs Moduli (GPa) = 66.15124 34.48290 141.04329
#
# Poissons Ratio (x) = 0.27401 -0.07707
# Poissons Ratio (y) = 0.52566 0.67531
# Poissons Ratio (z) = -0.03615 0.16510
#
# Static dielectric constant tensor:
#      x y z
#    x 4.336490 0.000000 0.000000 
#    y 0.000000 3.618290 0.000000 
#    z 0.000000 0.000000 4.082740 
# 
# 
# High freq. dielectric constant tensor:
#      x y z
#    x 1.902350 0.000000 0.000000 
#    y 0.000000 1.856060 0.000000 
#    z 0.000000 0.000000 1.901490 
# 
# From -- ./inp_files/9008.got.cif
#   From: 2010.03.12/outbox.cif.g09.slc.cpg/sg20_5_cif.got.tgz:9008.got - 2010.04.14 01:38:04.
