data_PCOD8159614
_publ_section_title
;
Structure prediction by ZEFSAII (Michael W. Deem and Ramdas Pophale) SiO2 
 PCOD8159614
Probable space group: C 2 2 21
;
_chemical_formula_sum "Si O2"
_cell_formula_units_Z 44
_cell_length_a 15.285639
_cell_length_b 16.611167
_cell_length_c 7.941763
_cell_angle_alpha 90.000000
_cell_angle_beta 90.000000
_cell_angle_gamma 90.000000
_cell_volume 2016.511326
_symmetry_space_group_name_H-M "C 2 2 21"
_symmetry_group_IT_number 20
_symmetry_cell_setting 'orthorhombic'
loop_
_space_group_symop_operation_xyz
x,y,z
-x,-y,1/2+z
x,-y,-z
-x,y,1/2-z
1/2+x,1/2+y,z
1/2-x,1/2-y,1/2+z
1/2+x,1/2-y,-z
1/2-x,1/2+y,1/2-z
loop_
_atom_site_type_symbol
_atom_site_label
_atom_site_fract_x
_atom_site_fract_y
_atom_site_fract_z
Si Si1 0.800293 0.227893 0.827405
Si Si2 0.732768 0.947028 0.145941
Si Si3 0.482714 0.244191 0.064827
Si Si4 0.792005 0.000000 0.500000
Si Si5 0.034238 0.418233 0.069733
Si Si6 0.145620 0.821488 0.970814
O O1 0.783130 0.135344 0.858251
O O2 0.831399 0.232195 0.634981
O O3 0.877275 0.251626 0.961859
O O4 0.716739 0.287918 0.837467
O O5 0.733935 0.989700 0.330649
O O6 0.636199 0.929963 0.085217
O O7 0.778887 0.000000 0.000000
O O8 0.500000 0.280287 0.250000
O O9 0.543595 0.296388 0.933549
O O10 0.510616 0.151230 0.060658
O O11 0.850249 0.918692 0.516701
O O12 0.000000 0.391509 0.250000
O O13 0.989704 0.500000 0.000000
#
# Coordination Sequence:
#
# PCOD8159614 Si02
#       6
#     8   8   8   4   8   8
#     4  10  22  39  65  89 125 170 212 271 327 388
#     4  10  23  43  64  94 128 168 217 265 328 396
#     4  10  22  41  64  89 127 169 217 268 325 392
#     4  10  24  40  68  94 128 170 212 272 324 386
#     4  11  24  38  59  91 130 161 214 268 331 399
#     4  10  22  41  63  94 126 167 218 265 330 394
#
# _framework density 21.819862000000001
#
# number of rings (size 3 to 8) (size 9 to 14) (size 15 to 20)
#    0.000    1.818    1.818    0.545    8.909    1.455 
#    1.636    0.000    0.000    0.000    0.000    0.000 
#    0.000    0.000    0.000    0.000    0.000    0.000 
#
# Total GULP energy -272583.294418 kJ/mol
# GULP energy per Si atom -12390.149746 kJ/mol
# Density = 2.177020 g / cm^3
# Si number density = 21.819862 Si / 1000 Ang^3
#
#
#
# Elastic Constant Matrix: (Units=GPa)
#
#
# Indices 1 2 3 4 5 6 
#
# 1 81.1002 32.4868 16.5505 0.0000 0.0000 0.0000
# 2 32.4868 127.2409 29.2786 0.0000 0.0000 0.0000
# 3 16.5505 29.2786 71.8034 0.0000 0.0000 0.0000
# 4 0.0000 0.0000 0.0000 41.0003 0.0000 0.0000
# 5 0.0000 0.0000 0.0000 0.0000 22.8990 0.0000
# 6 0.0000 0.0000 0.0000 0.0000 0.0000 24.6424
#
#
#
# Elastic Compliance Matrix: (Units=1/GPa)
#
#
# Indices 1 2 3 4 5 6 
#
# 1 0.013978 -0.003120 -0.001950 0.000000 0.000000 0.000000
# 2 -0.003120 0.009369 -0.003101 0.000000 0.000000 0.000000
# 3 -0.001950 -0.003101 0.015641 0.000000 0.000000 0.000000
# 4 0.000000 0.000000 0.000000 0.024390 0.000000 0.000000
# 5 0.000000 0.000000 0.000000 0.000000 0.043670 0.000000
# 6 0.000000 0.000000 0.000000 0.000000 0.000000 0.040580
#
#
# Mechanical properties :
#
#
# Convention : Reuss Voigt Hill
#
# Bulk Modulus (GPa) = 44.15754 48.53068 46.34411
# Shear Modulus (GPa) = 29.15113 31.16359 30.15736
#
# Velocity S-wave (km/s) = 3.65909 3.78328 3.72170
# Velocity P-wave (km/s) = 6.17520 6.43227 6.30505
#
# Compressibility (1/GPa) = 0.02264619
#
# Stress axis : x y z
#
# Youngs Moduli (GPa) = 71.54004 106.73079 63.93510
#
# Poissons Ratio (x) = 0.33303 0.12465
# Poissons Ratio (y) = 0.22322 0.19828
# Poissons Ratio (z) = 0.13948 0.33100
#
# Static dielectric constant tensor:
#      x y z
#    x 4.107190 0.000000 0.000000 
#    y 0.000000 4.311980 0.000000 
#    z 0.000000 0.000000 4.603730 
# 
# 
# High freq. dielectric constant tensor:
#      x y z
#    x 1.850690 0.000000 0.000000 
#    y 0.000000 1.863270 0.000000 
#    z 0.000000 0.000000 1.850460 
# 
# From -- ./inp_files/8318.got.cif
#   From: 2010.03.12/outbox.cif.g09.slc.cpg/sg20_5_cif.got.tgz:8318.got - 2010.04.14 01:38:04.
