data_PCOD8159033
_publ_section_title
;
Structure prediction by ZEFSAII (Michael W. Deem and Ramdas Pophale) SiO2 
 PCOD8159033
Probable space group: C 2 2 21
;
_chemical_formula_sum "Si O2"
_cell_formula_units_Z 60
_cell_length_a 16.828258
_cell_length_b 14.834901
_cell_length_c 11.011420
_cell_angle_alpha 90.000000
_cell_angle_beta 90.000000
_cell_angle_gamma 90.000000
_cell_volume 2748.951908
_symmetry_space_group_name_H-M "C 2 2 21"
_symmetry_group_IT_number 20
_symmetry_cell_setting 'orthorhombic'
loop_
_space_group_symop_operation_xyz
x,y,z
-x,-y,1/2+z
x,-y,-z
-x,y,1/2-z
1/2+x,1/2+y,z
1/2-x,1/2-y,1/2+z
1/2+x,1/2-y,-z
1/2-x,1/2+y,1/2-z
loop_
_atom_site_type_symbol
_atom_site_label
_atom_site_fract_x
_atom_site_fract_y
_atom_site_fract_z
Si Si1 0.861076 0.116816 0.888449
Si Si2 0.194276 0.460701 0.124406
Si Si3 0.501369 0.500000 0.500000
Si Si4 0.827044 0.790009 0.358088
Si Si5 0.334249 0.201675 0.977012
Si Si6 0.416646 0.178016 0.743008
Si Si7 0.213730 0.619539 0.290282
Si Si8 0.889728 0.851009 0.603613
O O1 0.787974 0.048785 0.896543
O O2 0.866819 0.155218 0.751899
O O3 0.838277 0.193843 0.984858
O O4 0.942936 0.065592 0.919343
O O5 0.150615 0.367958 0.159647
O O6 0.185014 0.524283 0.240848
O O7 0.156469 0.500000 0.000000
O O8 0.444793 0.439959 0.588146
O O9 0.743722 0.829912 0.403054
O O10 0.805105 0.688722 0.318711
O O11 0.884706 0.799523 0.473648
O O12 0.404057 0.181545 0.886363
O O13 0.343186 0.140857 0.096545
O O14 0.500000 0.124891 0.750000
O O15 0.429327 0.279542 0.694000
O O16 0.305135 0.621876 0.335954
#
# Coordination Sequence:
#
# PCOD8159033 Si02
#       8
#     8   8   4   8   8   8   8   8
#     4  11  23  42  65 101 141 184 237 283 348 437
#     4  12  24  43  71 103 130 182 247 294 339 426
#     4  12  28  42  62 108 156 190 220 306 372 438
#     4  10  20  43  70  95 132 183 241 280 339 427
#     4  10  20  42  68  97 130 187 236 284 350 418
#     4  12  25  45  70  96 139 183 231 296 362 417
#     4  10  22  40  75  99 132 181 240 297 334 425
#     4  11  25  44  67 105 143 186 227 287 370 425
#
# _framework density 21.826501
#
# number of rings (size 3 to 8) (size 9 to 14) (size 15 to 20)
#    0.000    1.067    3.333    4.000    1.867    2.133 
#    4.800    0.000    2.933    0.000    0.000    0.000 
#    0.000    0.000    0.000    0.000    0.000    0.000 
#
# Total GULP energy -371797.783149 kJ/mol
# GULP energy per Si atom -12393.259438 kJ/mol
# Density = 2.177682 g / cm^3
# Si number density = 21.826501 Si / 1000 Ang^3
#
#
#
# Elastic Constant Matrix: (Units=GPa)
#
#
# Indices 1 2 3 4 5 6 
#
# 1 89.9905 39.0671 48.6509 0.0000 0.0000 0.0000
# 2 39.0671 105.5046 47.8724 0.0000 0.0000 0.0000
# 3 48.6509 47.8724 129.7018 0.0000 0.0000 0.0000
# 4 0.0000 0.0000 0.0000 30.4529 0.0000 0.0000
# 5 0.0000 0.0000 0.0000 0.0000 21.0959 0.0000
# 6 0.0000 0.0000 0.0000 0.0000 0.0000 22.4269
#
#
#
# Elastic Compliance Matrix: (Units=1/GPa)
#
#
# Indices 1 2 3 4 5 6 
#
# 1 0.015000 -0.003605 -0.004296 0.000000 0.000000 0.000000
# 2 -0.003605 0.012251 -0.003170 0.000000 0.000000 0.000000
# 3 -0.004296 -0.003170 0.010491 0.000000 0.000000 0.000000
# 4 0.000000 0.000000 0.000000 0.032838 0.000000 0.000000
# 5 0.000000 0.000000 0.000000 0.000000 0.047403 0.000000
# 6 0.000000 0.000000 0.000000 0.000000 0.000000 0.044589
#
#
# Mechanical properties :
#
#
# Convention : Reuss Voigt Hill
#
# Bulk Modulus (GPa) = 64.09689 66.26416 65.18053
# Shear Modulus (GPa) = 26.32780 27.43557 26.88169
#
# Velocity S-wave (km/s) = 3.47685 3.54924 3.51323
# Velocity P-wave (km/s) = 6.74895 6.87180 6.81065
#
# Compressibility (1/GPa) = 0.01560138
#
# Stress axis : x y z
#
# Youngs Moduli (GPa) = 66.66801 81.62334 95.31754
#
# Poissons Ratio (x) = 0.29425 0.40946
# Poissons Ratio (y) = 0.24034 0.30213
# Poissons Ratio (z) = 0.28639 0.25872
#
# Static dielectric constant tensor:
#      x y z
#    x 3.775690 0.000000 0.000000 
#    y 0.000000 3.825140 0.000000 
#    z 0.000000 0.000000 4.473720 
# 
# 
# High freq. dielectric constant tensor:
#      x y z
#    x 1.838810 0.000000 0.000000 
#    y 0.000000 1.849190 0.000000 
#    z 0.000000 0.000000 1.882610 
# 
# From -- ./inp_files/15877.got.cif
#   From: 2010.03.12/outbox.cif.g09.slc.cpg/sg20_8_cif.got.tgz:15877.got - 2010.04.14 01:38:04.
