data_PCOD8159315
_publ_section_title
;
Structure prediction by ZEFSAII (Michael W. Deem and Ramdas Pophale) SiO2 
 PCOD8159315
Probable space group: C 2 2 21
;
_chemical_formula_sum "Si O2"
_cell_formula_units_Z 60
_cell_length_a 17.457762
_cell_length_b 8.812214
_cell_length_c 17.287465
_cell_angle_alpha 90.000000
_cell_angle_beta 90.000000
_cell_angle_gamma 90.000000
_cell_volume 2659.530147
_symmetry_space_group_name_H-M "C 2 2 21"
_symmetry_group_IT_number 20
_symmetry_cell_setting 'orthorhombic'
loop_
_space_group_symop_operation_xyz
x,y,z
-x,-y,1/2+z
x,-y,-z
-x,y,1/2-z
1/2+x,1/2+y,z
1/2-x,1/2-y,1/2+z
1/2+x,1/2-y,-z
1/2-x,1/2+y,1/2-z
loop_
_atom_site_type_symbol
_atom_site_label
_atom_site_fract_x
_atom_site_fract_y
_atom_site_fract_z
Si Si1 0.585799 0.289007 0.872085
Si Si2 0.348491 0.940567 0.185168
Si Si3 0.500000 0.114685 0.750000
Si Si4 0.492671 0.820762 0.517103
Si Si5 0.731293 0.730852 0.414297
Si Si6 0.122253 0.095070 0.920705
Si Si7 0.226162 0.414926 0.149406
Si Si8 0.339580 0.784918 0.920825
O O1 0.559775 0.222268 0.791689
O O2 0.519333 0.259655 0.934792
O O3 0.594719 0.469632 0.858643
O O4 0.665120 0.199692 0.891991
O O5 0.321710 0.052835 0.116933
O O6 0.439889 0.981571 0.198019
O O7 0.337186 0.773193 0.146333
O O8 0.297882 0.956889 0.262908
O O9 0.429201 0.748333 0.574583
O O10 0.572281 0.771197 0.555000
O O11 0.484402 0.000000 0.500000
O O12 0.795190 0.854296 0.393315
O O13 0.766735 0.566095 0.401028
O O14 0.709230 0.751676 0.502970
O O15 0.124116 0.000000 0.000000
O O16 0.310519 0.336331 0.143893
#
# Coordination Sequence:
#
# PCOD8159315 Si02
#       8
#     8   8   4   8   8   8   8   8
#     4  10  21  40  62  90 128 169 213 266 328 397
#     4  11  24  44  66  93 133 178 220 272 341 409
#     4  10  22  40  66  92 126 174 218 264 330 402
#     4  11  22  38  62  93 128 163 211 272 326 380
#     4  12  23  40  68  98 129 174 229 283 332 393
#     4  10  22  38  61  91 126 164 208 267 333 387
#     4  11  25  42  65  96 136 177 221 273 340 409
#     4  12  24  41  66  97 129 171 228 283 332 396
#
# _framework density 22.560376999999999
#
# number of rings (size 3 to 8) (size 9 to 14) (size 15 to 20)
#    0.000    1.067    0.000    8.000    0.000    6.400 
#    0.000    1.333    0.000    1.600    0.000    0.000 
#    0.000    0.000    0.000    0.000    0.000    0.000 
#
# Total GULP energy -371704.210704 kJ/mol
# GULP energy per Si atom -12390.140357 kJ/mol
# Density = 2.250903 g / cm^3
# Si number density = 22.560377 Si / 1000 Ang^3
#
#
#
# Elastic Constant Matrix: (Units=GPa)
#
#
# Indices 1 2 3 4 5 6 
#
# 1 112.3748 58.3815 33.0319 0.0000 0.0000 0.0000
# 2 58.3815 131.5682 27.5051 0.0000 0.0000 0.0000
# 3 33.0319 27.5051 77.9930 0.0000 0.0000 0.0000
# 4 0.0000 0.0000 0.0000 27.9759 0.0000 0.0000
# 5 0.0000 0.0000 0.0000 0.0000 41.4300 0.0000
# 6 0.0000 0.0000 0.0000 0.0000 0.0000 30.3578
#
#
#
# Elastic Compliance Matrix: (Units=1/GPa)
#
#
# Indices 1 2 3 4 5 6 
#
# 1 0.012428 -0.004766 -0.003583 0.000000 0.000000 0.000000
# 2 -0.004766 0.010033 -0.001520 0.000000 0.000000 0.000000
# 3 -0.003583 -0.001520 0.014875 0.000000 0.000000 0.000000
# 4 0.000000 0.000000 0.000000 0.035745 0.000000 0.000000
# 5 0.000000 0.000000 0.000000 0.000000 0.024137 0.000000
# 6 0.000000 0.000000 0.000000 0.000000 0.000000 0.032940
#
#
# Mechanical properties :
#
#
# Convention : Reuss Voigt Hill
#
# Bulk Modulus (GPa) = 56.82073 62.19700 59.50887
# Shear Modulus (GPa) = 32.10030 33.48723 32.79377
#
# Velocity S-wave (km/s) = 3.77618 3.85689 3.81675
# Velocity P-wave (km/s) = 6.65233 6.88935 6.77187
#
# Compressibility (1/GPa) = 0.01759921
#
# Stress axis : x y z
#
# Youngs Moduli (GPa) = 80.46456 99.67045 67.22647
#
# Poissons Ratio (x) = 0.47500 0.24086
# Poissons Ratio (y) = 0.38347 0.10218
# Poissons Ratio (z) = 0.28829 0.15149
#
# Static dielectric constant tensor:
#      x y z
#    x 4.391290 0.000000 0.000000 
#    y 0.000000 4.442130 0.000000 
#    z 0.000000 0.000000 4.066510 
# 
# 
# High freq. dielectric constant tensor:
#      x y z
#    x 1.897590 0.000000 0.000000 
#    y 0.000000 1.888170 0.000000 
#    z 0.000000 0.000000 1.884280 
# 
# From -- ./inp_files/25289.got.cif
#   From: 2010.03.12/outbox.cif.g09.slc.cpg/sg20_13_cif.got.tgz:25289.got - 2010.04.14 01:38:04.
