data_PCOD8159217
_publ_section_title
;
Structure prediction by ZEFSAII (Michael W. Deem and Ramdas Pophale) SiO2 
 PCOD8159217
Probable space group: C 2 2 21
;
_chemical_formula_sum "Si O2"
_cell_formula_units_Z 52
_cell_length_a 19.585797
_cell_length_b 8.919640
_cell_length_c 14.088651
_cell_angle_alpha 90.000000
_cell_angle_beta 90.000000
_cell_angle_gamma 90.000000
_cell_volume 2461.262792
_symmetry_space_group_name_H-M "C 2 2 21"
_symmetry_group_IT_number 20
_symmetry_cell_setting 'orthorhombic'
loop_
_space_group_symop_operation_xyz
x,y,z
-x,-y,1/2+z
x,-y,-z
-x,y,1/2-z
1/2+x,1/2+y,z
1/2-x,1/2-y,1/2+z
1/2+x,1/2-y,-z
1/2-x,1/2+y,1/2-z
loop_
_atom_site_type_symbol
_atom_site_label
_atom_site_fract_x
_atom_site_fract_y
_atom_site_fract_z
Si Si1 0.336190 0.161518 0.540461
Si Si2 0.594035 0.632952 0.629229
Si Si3 0.500000 0.844226 0.750000
Si Si4 0.747036 0.256645 0.623593
Si Si5 0.591940 0.696436 0.415009
Si Si6 0.258064 0.412695 0.193213
Si Si7 0.482736 0.923059 0.407066
O O1 0.302814 0.270773 0.460881
O O2 0.301997 0.183450 0.643278
O O3 0.417244 0.174032 0.557577
O O4 0.315062 0.000000 0.500000
O O5 0.557621 0.737005 0.706619
O O6 0.570564 0.680884 0.524743
O O7 0.577912 0.456450 0.642937
O O8 0.674729 0.647381 0.640913
O O9 0.535850 0.950282 0.829076
O O10 0.669854 0.248594 0.585677
O O11 0.756482 0.411607 0.680344
O O12 0.759825 0.119736 0.695142
O O13 0.541775 0.816379 0.365276
O O14 0.514444 0.000000 0.500000
#
# Coordination Sequence:
#
# PCOD8159217 Si02
#       7
#     8   8   4   8   8   8   8
#     4   9  20  39  61  86 126 161 198 252 320 368
#     4  10  22  41  67  89 127 168 219 259 317 383
#     4  12  26  40  64 100 124 168 220 268 316 382
#     4  10  21  39  65  90 125 164 212 256 320 378
#     4  10  21  44  63  91 128 178 208 261 320 383
#     4  10  21  38  63  91 117 164 209 258 308 376
#     4  11  24  40  64  96 130 167 214 265 322 376
#
# _framework density 21.127365999999999
#
# number of rings (size 3 to 8) (size 9 to 14) (size 15 to 20)
#    0.000    1.846    3.077    0.000    8.615    0.615 
#    2.769    0.769    0.000    0.000    0.000    0.000 
#    0.000    0.000    0.000    0.000    0.000    0.000 
#
# Total GULP energy -322298.058481 kJ/mol
# GULP energy per Si atom -12396.079172 kJ/mol
# Density = 2.107928 g / cm^3
# Si number density = 21.127366 Si / 1000 Ang^3
#
#
#
# Elastic Constant Matrix: (Units=GPa)
#
#
# Indices 1 2 3 4 5 6 
#
# 1 108.6428 54.6385 27.3848 0.0000 0.0000 0.0000
# 2 54.6385 66.4144 28.4605 0.0000 0.0000 0.0000
# 3 27.3848 28.4605 80.6064 0.0000 0.0000 0.0000
# 4 0.0000 0.0000 0.0000 40.5108 0.0000 0.0000
# 5 0.0000 0.0000 0.0000 0.0000 33.1718 0.0000
# 6 0.0000 0.0000 0.0000 0.0000 0.0000 29.7178
#
#
#
# Elastic Compliance Matrix: (Units=1/GPa)
#
#
# Indices 1 2 3 4 5 6 
#
# 1 0.015758 -0.012572 -0.000915 0.000000 0.000000 0.000000
# 2 -0.012572 0.027771 -0.005534 0.000000 0.000000 0.000000
# 3 -0.000915 -0.005534 0.014671 0.000000 0.000000 0.000000
# 4 0.000000 0.000000 0.000000 0.024685 0.000000 0.000000
# 5 0.000000 0.000000 0.000000 0.000000 0.030146 0.000000
# 6 0.000000 0.000000 0.000000 0.000000 0.000000 0.033650
#
#
# Mechanical properties :
#
#
# Convention : Reuss Voigt Hill
#
# Bulk Modulus (GPa) = 49.60761 52.95901 51.28331
# Shear Modulus (GPa) = 26.11771 30.35873 28.23822
#
# Velocity S-wave (km/s) = 3.51978 3.79481 3.65988
# Velocity P-wave (km/s) = 6.32849 6.65746 6.49505
#
# Compressibility (1/GPa) = 0.02015820
#
# Stress axis : x y z
#
# Youngs Moduli (GPa) = 63.46178 36.00853 68.16278
#
# Poissons Ratio (x) = 0.45269 0.06234
# Poissons Ratio (y) = 0.79782 0.37724
# Poissons Ratio (z) = 0.05804 0.19929
#
# Static dielectric constant tensor:
#      x y z
#    x 3.647290 0.000000 0.000000 
#    y 0.000000 3.641410 0.000000 
#    z 0.000000 0.000000 3.871160 
# 
# 
# High freq. dielectric constant tensor:
#      x y z
#    x 1.827110 0.000000 0.000000 
#    y 0.000000 1.802590 0.000000 
#    z 0.000000 0.000000 1.831100 
# 
# From -- ./inp_files/21705.got.cif
#   From: 2010.03.12/outbox.cif.g09.slc.cpg/sg20_11_cif.got.tgz:21705.got - 2010.04.14 01:38:04.
