data_PCOD8159407
_publ_section_title
;
Structure prediction by ZEFSAII (Michael W. Deem and Ramdas Pophale) SiO2 
 PCOD8159407
Probable space group: C 2 2 21
;
_chemical_formula_sum "Si O2"
_cell_formula_units_Z 32
_cell_length_a 33.287020
_cell_length_b 7.484956
_cell_length_c 5.216829
_cell_angle_alpha 90.000000
_cell_angle_beta 90.000000
_cell_angle_gamma 90.000000
_cell_volume 1299.782753
_symmetry_space_group_name_H-M "C 2 2 21"
_symmetry_group_IT_number 20
_symmetry_cell_setting 'orthorhombic'
loop_
_space_group_symop_operation_xyz
x,y,z
-x,-y,1/2+z
x,-y,-z
-x,y,1/2-z
1/2+x,1/2+y,z
1/2-x,1/2-y,1/2+z
1/2+x,1/2-y,-z
1/2-x,1/2+y,1/2-z
loop_
_atom_site_type_symbol
_atom_site_label
_atom_site_fract_x
_atom_site_fract_y
_atom_site_fract_z
Si Si1 0.233896 0.500000 0.500000
Si Si2 0.000000 0.392002 0.750000
Si Si3 0.382522 0.302339 0.538801
Si Si4 0.196055 0.853211 0.685324
Si Si5 0.421569 0.710423 0.955619
O O1 0.205186 0.665767 0.554113
O O2 0.262368 0.553326 0.264609
O O3 0.034120 0.269598 0.623037
O O4 0.983496 0.500000 0.500000
O O5 0.400837 0.500000 0.500000
O O6 0.334392 0.311272 0.582529
O O7 0.391463 0.211322 0.264607
O O8 0.405769 0.204471 0.775296
O O9 0.174392 0.000000 0.500000
O O10 0.420056 0.500000 0.000000
#
# Coordination Sequence:
#
# PCOD8159407 Si02
#       5
#     4   4   8   8   8
#     4  12  26  42  70 102 138 192 246 300 370 436
#     4  12  26  46  72 106 156 188 220 300 368 416
#     4  10  21  41  73 101 135 183 235 297 350 411
#     4  12  24  44  69 101 144 187 243 307 363 433
#     4  10  23  44  72 102 134 186 243 277 344 433
#
# _framework density 24.619498
#
# number of rings (size 3 to 8) (size 9 to 14) (size 15 to 20)
#    0.000    1.000    3.750    3.750    0.000    4.000 
#    6.750    0.000    0.000    0.000    0.000    0.000 
#    0.000    0.000    0.000    0.000    0.000    0.000 
#
# Total GULP energy -198263.222797 kJ/mol
# GULP energy per Si atom -12391.451425 kJ/mol
# Density = 2.456346 g / cm^3
# Si number density = 24.619498 Si / 1000 Ang^3
#
#
#
# Elastic Constant Matrix: (Units=GPa)
#
#
# Indices 1 2 3 4 5 6 
#
# 1 131.8189 37.9249 58.6588 0.0000 0.0000 0.0000
# 2 37.9249 96.6772 49.6972 0.0000 0.0000 0.0000
# 3 58.6588 49.6972 181.4683 0.0000 0.0000 0.0000
# 4 0.0000 0.0000 0.0000 26.7706 0.0000 0.0000
# 5 0.0000 0.0000 0.0000 0.0000 49.9597 0.0000
# 6 0.0000 0.0000 0.0000 0.0000 0.0000 -2.6008
#
#
#
# Elastic Compliance Matrix: (Units=1/GPa)
#
#
# Indices 1 2 3 4 5 6 
#
# 1 0.009337 -0.002457 -0.002345 0.000000 0.000000 0.000000
# 2 -0.002457 0.012685 -0.002680 0.000000 0.000000 0.000000
# 3 -0.002345 -0.002680 0.007003 0.000000 0.000000 0.000000
# 4 0.000000 0.000000 0.000000 0.037354 0.000000 0.000000
# 5 0.000000 0.000000 0.000000 0.000000 0.020016 0.000000
# 6 0.000000 0.000000 0.000000 0.000000 0.000000 -0.384498
#
#
# Mechanical properties :
#
#
# Convention : Reuss Voigt Hill
#
# Bulk Modulus (GPa) = 71.12174 78.05847 74.59011
# Shear Modulus (GPa) = -17.95640 32.40481 7.22420
#
# Velocity S-wave (km/s) = -2.70359 3.63192 1.71485
# Velocity P-wave (km/s) = 4.38238 7.02585 5.85524
#
# Compressibility (1/GPa) = 0.01406040
#
# Stress axis : x y z
#
# Youngs Moduli (GPa) = 107.10478 78.83263 142.80567
#
# Poissons Ratio (x) = 0.19370 0.33490
# Poissons Ratio (y) = 0.26317 0.38268
# Poissons Ratio (z) = 0.25117 0.21125
#
# Static dielectric constant tensor:
#      x y z
#    x 4.144010 0.000000 0.000000 
#    y 0.000000 4.217700 0.000000 
#    z 0.000000 0.000000 5.388170 
# 
# 
# High freq. dielectric constant tensor:
#      x y z
#    x 1.972230 0.000000 0.000000 
#    y 0.000000 1.957630 0.000000 
#    z 0.000000 0.000000 2.003790 
# 
# From -- ./inp_files/4488.got.cif
#   From: 2010.03.12/outbox.cif.g09.slc.cpg/sg20_3_cif.got.tgz:4488.got - 2010.04.14 01:38:04.
