data_PCOD8159802
_publ_section_title
;
Structure prediction by ZEFSAII (Michael W. Deem and Ramdas Pophale) SiO2 
 PCOD8159802
Probable space group: C 2 2 21
;
_chemical_formula_sum "Si O2"
_cell_formula_units_Z 28
_cell_length_a 5.106900
_cell_length_b 14.220948
_cell_length_c 19.654874
_cell_angle_alpha 90.000000
_cell_angle_beta 90.000000
_cell_angle_gamma 90.000000
_cell_volume 1427.434425
_symmetry_space_group_name_H-M "C 2 2 21"
_symmetry_group_IT_number 20
_symmetry_cell_setting 'orthorhombic'
loop_
_space_group_symop_operation_xyz
x,y,z
-x,-y,1/2+z
x,-y,-z
-x,y,1/2-z
1/2+x,1/2+y,z
1/2-x,1/2-y,1/2+z
1/2+x,1/2-y,-z
1/2-x,1/2+y,1/2-z
loop_
_atom_site_type_symbol
_atom_site_label
_atom_site_fract_x
_atom_site_fract_y
_atom_site_fract_z
Si Si1 0.000000 0.999953 0.250000
Si Si2 0.746618 0.562274 0.621460
Si Si3 0.285640 0.253377 0.544449
Si Si4 0.766508 0.947813 0.618166
O O1 0.810067 0.935283 0.203031
O O2 0.821670 0.064116 0.300409
O O3 0.754613 0.668124 0.596276
O O4 0.512067 0.503814 0.584636
O O5 0.013696 0.510255 0.603515
O O6 0.580614 0.256125 0.516847
O O7 0.223518 0.346999 0.585882
#
# Coordination Sequence:
#
# PCOD8159802 Si02
#       4
#     4   8   8   8
#     4   8  22  44  64  96 120 164 214 250 334 348
#     4  10  22  43  64  94 127 164 205 266 307 369
#     4  12  26  42  64  98 126 168 214 246 320 378
#     4  10  22  43  64  94 127 164 205 266 307 369
#
# _framework density 19.615611999999999
#
# number of rings (size 3 to 8) (size 9 to 14) (size 15 to 20)
#    1.714    0.000    0.000    4.286    0.000    6.857 
#   10.286    0.000    0.000    0.000    0.000    0.000 
#    0.000    0.000    0.000    0.000    0.000    0.000 
#
# Total GULP energy -173504.348992 kJ/mol
# GULP energy per Si atom -12393.167785 kJ/mol
# Density = 1.957097 g / cm^3
# Si number density = 19.615612 Si / 1000 Ang^3
#
#
#
# Elastic Constant Matrix: (Units=GPa)
#
#
# Indices 1 2 3 4 5 6 
#
# 1 125.1373 33.8532 13.1332 0.0000 0.0000 0.0000
# 2 33.8532 119.9082 37.0294 0.0000 0.0000 0.0000
# 3 13.1332 37.0294 70.7939 0.0000 0.0000 0.0000
# 4 0.0000 0.0000 0.0000 37.4820 0.0000 0.0000
# 5 0.0000 0.0000 0.0000 0.0000 7.5567 0.0000
# 6 0.0000 0.0000 0.0000 0.0000 0.0000 28.2816
#
#
#
# Elastic Compliance Matrix: (Units=1/GPa)
#
#
# Indices 1 2 3 4 5 6 
#
# 1 0.008661 -0.002325 -0.000391 0.000000 0.000000 0.000000
# 2 -0.002325 0.010570 -0.005098 0.000000 0.000000 0.000000
# 3 -0.000391 -0.005098 0.016864 0.000000 0.000000 0.000000
# 4 0.000000 0.000000 0.000000 0.026679 0.000000 0.000000
# 5 0.000000 0.000000 0.000000 0.000000 0.132333 0.000000
# 6 0.000000 0.000000 0.000000 0.000000 0.000000 0.035359
#
#
# Mechanical properties :
#
#
# Convention : Reuss Voigt Hill
#
# Bulk Modulus (GPa) = 48.85287 53.76344 51.30815
# Shear Modulus (GPa) = 19.76939 30.11897 24.94418
#
# Velocity S-wave (km/s) = 3.17809 3.92274 3.56989
# Velocity P-wave (km/s) = 6.19889 6.92714 6.57311
#
# Compressibility (1/GPa) = 0.02046963
#
# Stress axis : x y z
#
# Youngs Moduli (GPa) = 115.45876 94.60549 59.29661
#
# Poissons Ratio (x) = 0.21991 0.02318
# Poissons Ratio (y) = 0.26839 0.30227
# Poissons Ratio (z) = 0.04513 0.48226
#
# Static dielectric constant tensor:
#      x y z
#    x 3.750040 0.000000 0.000000 
#    y 0.000000 3.388690 0.000000 
#    z 0.000000 0.000000 3.501200 
# 
# 
# High freq. dielectric constant tensor:
#      x y z
#    x 1.782620 0.000000 0.000000 
#    y 0.000000 1.751830 0.000000 
#    z 0.000000 0.000000 1.759070 
# 
# From -- ./inp_files/22445.got.cif
#   From: 2010.03.12/outbox.cif.g09.slc.cpg/sg20_12_cif.got.tgz:22445.got - 2010.04.14 01:38:04.
