data_PCOD8159210
_publ_section_title
;
Structure prediction by ZEFSAII (Michael W. Deem and Ramdas Pophale) SiO2 
 PCOD8159210
Probable space group: C 2 2 21
;
_chemical_formula_sum "Si O2"
_cell_formula_units_Z 44
_cell_length_a 26.341647
_cell_length_b 10.429661
_cell_length_c 7.835487
_cell_angle_alpha 90.000000
_cell_angle_beta 90.000000
_cell_angle_gamma 90.000000
_cell_volume 2152.678199
_symmetry_space_group_name_H-M "C 2 2 21"
_symmetry_group_IT_number 20
_symmetry_cell_setting 'orthorhombic'
loop_
_space_group_symop_operation_xyz
x,y,z
-x,-y,1/2+z
x,-y,-z
-x,y,1/2-z
1/2+x,1/2+y,z
1/2-x,1/2-y,1/2+z
1/2+x,1/2-y,-z
1/2-x,1/2+y,1/2-z
loop_
_atom_site_type_symbol
_atom_site_label
_atom_site_fract_x
_atom_site_fract_y
_atom_site_fract_z
Si Si1 0.897243 0.906583 0.258603
Si Si2 0.000000 0.769171 0.250000
Si Si3 0.964017 0.628462 0.586630
Si Si4 0.772563 0.873288 0.771617
Si Si5 0.292148 0.351288 0.154883
Si Si6 0.120972 0.176301 0.137245
O O1 0.853315 0.856667 0.131789
O O2 0.877546 0.859278 0.440286
O O3 0.951598 0.854807 0.206653
O O4 0.902439 0.060094 0.252305
O O5 0.992687 0.695010 0.427836
O O6 0.943052 0.500000 0.500000
O O7 0.000000 0.602887 0.750000
O O8 0.915373 0.702020 0.661874
O O9 0.723678 0.790999 0.715679
O O10 0.821648 0.797499 0.698567
O O11 0.773950 0.027051 0.722543
O O12 0.768521 0.871123 0.972590
#
# Coordination Sequence:
#
# PCOD8159210 Si02
#       6
#     8   4   8   8   8   8
#     4   9  19  38  62  89 120 153 195 258 301 357
#     4  10  22  40  62  92 124 156 208 254 306 360
#     4  11  23  41  61  86 124 168 203 251 304 363
#     4  10  21  39  59  91 119 157 198 250 301 366
#     4  10  21  38  62  87 122 154 199 250 305 360
#     4   9  20  38  60  89 117 155 200 244 309 358
#
# _framework density 20.439654999999998
#
# number of rings (size 3 to 8) (size 9 to 14) (size 15 to 20)
#    0.000    2.182    0.909    1.091    3.818    2.182 
#    9.818    0.000    0.000    0.000    0.000    0.000 
#    0.000    0.000    0.000    0.000    0.000    0.000 
#
# Total GULP energy -272569.323800 kJ/mol
# GULP energy per Si atom -12389.514718 kJ/mol
# Density = 2.039313 g / cm^3
# Si number density = 20.439655 Si / 1000 Ang^3
#
#
#
# Elastic Constant Matrix: (Units=GPa)
#
#
# Indices 1 2 3 4 5 6 
#
# 1 91.8506 66.5703 17.8434 0.0000 0.0000 0.0000
# 2 66.5703 111.7503 9.3461 0.0000 0.0000 0.0000
# 3 17.8434 9.3461 44.2962 0.0000 0.0000 0.0000
# 4 0.0000 0.0000 0.0000 25.2570 0.0000 0.0000
# 5 0.0000 0.0000 0.0000 0.0000 25.3951 0.0000
# 6 0.0000 0.0000 0.0000 0.0000 0.0000 31.7066
#
#
#
# Elastic Compliance Matrix: (Units=1/GPa)
#
#
# Indices 1 2 3 4 5 6 
#
# 1 0.020521 -0.011740 -0.005789 0.000000 0.000000 0.000000
# 2 -0.011740 0.015826 0.001390 0.000000 0.000000 0.000000
# 3 -0.005789 0.001390 0.024614 0.000000 0.000000 0.000000
# 4 0.000000 0.000000 0.000000 0.039593 0.000000 0.000000
# 5 0.000000 0.000000 0.000000 0.000000 0.039378 0.000000
# 6 0.000000 0.000000 0.000000 0.000000 0.000000 0.031539
#
#
# Mechanical properties :
#
#
# Convention : Reuss Voigt Hill
#
# Bulk Modulus (GPa) = 34.86478 48.37964 41.62221
# Shear Modulus (GPa) = 23.44008 26.74756 25.09382
#
# Velocity S-wave (km/s) = 3.39011 3.62140 3.50766
# Velocity P-wave (km/s) = 5.69370 6.41926 6.06734
#
# Compressibility (1/GPa) = 0.02868224
#
# Stress axis : x y z
#
# Youngs Moduli (GPa) = 48.73103 63.18726 40.62728
#
# Poissons Ratio (x) = 0.74183 0.23520
# Poissons Ratio (y) = 0.57211 -0.05647
# Poissons Ratio (z) = 0.28211 -0.08783
#
# Static dielectric constant tensor:
#      x y z
#    x 3.568500 0.000000 0.000000 
#    y 0.000000 4.289620 0.000000 
#    z 0.000000 0.000000 3.673450 
# 
# 
# High freq. dielectric constant tensor:
#      x y z
#    x 1.788420 0.000000 0.000000 
#    y 0.000000 1.796750 0.000000 
#    z 0.000000 0.000000 1.802070 
# 
# From -- ./inp_files/11371.got.cif
#   From: 2010.03.12/outbox.cif.g09.slc.cpg/sg20_6_cif.got.tgz:11371.got - 2010.04.14 01:38:04.
