data_PCOD8159664
_publ_section_title
;
Structure prediction by ZEFSAII (Michael W. Deem and Ramdas Pophale) SiO2 
 PCOD8159664
Probable space group: C 2 2 21
;
_chemical_formula_sum "Si O2"
_cell_formula_units_Z 40
_cell_length_a 7.749837
_cell_length_b 26.566682
_cell_length_c 8.858790
_cell_angle_alpha 90.000000
_cell_angle_beta 90.000000
_cell_angle_gamma 90.000000
_cell_volume 1823.913729
_symmetry_space_group_name_H-M "C 2 2 21"
_symmetry_group_IT_number 20
_symmetry_cell_setting 'orthorhombic'
loop_
_space_group_symop_operation_xyz
x,y,z
-x,-y,1/2+z
x,-y,-z
-x,y,1/2-z
1/2+x,1/2+y,z
1/2-x,1/2-y,1/2+z
1/2+x,1/2-y,-z
1/2-x,1/2+y,1/2-z
loop_
_atom_site_type_symbol
_atom_site_label
_atom_site_fract_x
_atom_site_fract_y
_atom_site_fract_z
Si Si1 0.261883 0.289644 0.794919
Si Si2 0.356203 0.555878 0.442099
Si Si3 0.467542 0.893268 0.080071
Si Si4 0.936375 0.720449 0.007417
Si Si5 0.789481 0.905034 0.873591
O O1 0.230507 0.275917 0.619481
O O2 0.287274 0.349152 0.805531
O O3 0.101657 0.269219 0.891165
O O4 0.424688 0.261223 0.871360
O O5 0.385463 0.500000 0.500000
O O6 0.212708 0.582279 0.540723
O O7 0.535518 0.586249 0.468178
O O8 0.294651 0.556295 0.267132
O O9 0.500000 0.909691 0.250000
O O10 0.451691 0.833699 0.068653
O O11 0.620745 0.914797 0.974301
#
# Coordination Sequence:
#
# PCOD8159664 Si02
#       5
#     8   8   8   8   8
#     4  10  22  40  65  97 139 180 223 280 339 413
#     4  11  25  45  75 101 127 187 242 287 355 414
#     4  11  25  44  67 104 147 180 230 289 342 424
#     4  10  23  39  63 100 133 185 230 267 343 414
#     4  10  24  47  71  97 145 183 223 299 355 407
#
# _framework density 21.930862000000001
#
# number of rings (size 3 to 8) (size 9 to 14) (size 15 to 20)
#    0.000    1.600    2.000    0.600    8.400    6.400 
#    0.000    0.000    0.000    0.000    0.000    0.000 
#    0.000    0.000    0.000    0.000    0.000    0.000 
#
# Total GULP energy -247999.276241 kJ/mol
# GULP energy per Si atom -12399.963812 kJ/mol
# Density = 2.188095 g / cm^3
# Si number density = 21.930862 Si / 1000 Ang^3
#
#
#
# Elastic Constant Matrix: (Units=GPa)
#
#
# Indices 1 2 3 4 5 6 
#
# 1 76.4900 5.7610 38.5712 0.0000 0.0000 0.0000
# 2 5.7610 56.1378 40.7598 0.0000 0.0000 0.0000
# 3 38.5712 40.7598 121.7446 0.0000 0.0000 0.0000
# 4 0.0000 0.0000 0.0000 44.8831 0.0000 0.0000
# 5 0.0000 0.0000 0.0000 0.0000 34.9357 0.0000
# 6 0.0000 0.0000 0.0000 0.0000 0.0000 80.5014
#
#
#
# Elastic Compliance Matrix: (Units=1/GPa)
#
#
# Indices 1 2 3 4 5 6 
#
# 1 0.015856 0.002669 -0.005917 0.000000 0.000000 0.000000
# 2 0.002669 0.023983 -0.008875 0.000000 0.000000 0.000000
# 3 -0.005917 -0.008875 0.013060 0.000000 0.000000 0.000000
# 4 0.000000 0.000000 0.000000 0.022280 0.000000 0.000000
# 5 0.000000 0.000000 0.000000 0.000000 0.028624 0.000000
# 6 0.000000 0.000000 0.000000 0.000000 0.000000 0.012422
#
#
# Mechanical properties :
#
#
# Convention : Reuss Voigt Hill
#
# Bulk Modulus (GPa) = 34.90020 47.17291 41.03655
# Shear Modulus (GPa) = 33.32804 43.34941 38.33872
#
# Velocity S-wave (km/s) = 3.90254 4.45076 4.18564
# Velocity P-wave (km/s) = 6.02119 6.92596 6.48936
#
# Compressibility (1/GPa) = 0.02865313
#
# Stress axis : x y z
#
# Youngs Moduli (GPa) = 63.06589 41.69555 76.56959
#
# Poissons Ratio (x) = -0.11129 0.45308
# Poissons Ratio (y) = -0.16833 0.67957
# Poissons Ratio (z) = 0.37318 0.37006
#
# Static dielectric constant tensor:
#      x y z
#    x 4.247740 0.000000 0.000000 
#    y 0.000000 3.862450 0.000000 
#    z 0.000000 0.000000 4.085590 
# 
# 
# High freq. dielectric constant tensor:
#      x y z
#    x 1.884710 0.000000 0.000000 
#    y 0.000000 1.844130 0.000000 
#    z 0.000000 0.000000 1.872080 
# 
# From -- ./inp_files/6249.got.cif
#   From: 2010.03.12/outbox.cif.g09.slc.cpg/sg20_4_cif.got.tgz:6249.got - 2010.04.14 01:38:04.
