data_PCOD8159867
_publ_section_title
;
Structure prediction by ZEFSAII (Michael W. Deem and Ramdas Pophale) SiO2 
 PCOD8159867
Probable space group: C 2 2 21
;
_chemical_formula_sum "Si O2"
_cell_formula_units_Z 56
_cell_length_a 22.670403
_cell_length_b 14.794251
_cell_length_c 8.082007
_cell_angle_alpha 90.000000
_cell_angle_beta 90.000000
_cell_angle_gamma 90.000000
_cell_volume 2710.637520
_symmetry_space_group_name_H-M "C 2 2 21"
_symmetry_group_IT_number 20
_symmetry_cell_setting 'orthorhombic'
loop_
_space_group_symop_operation_xyz
x,y,z
-x,-y,1/2+z
x,-y,-z
-x,y,1/2-z
1/2+x,1/2+y,z
1/2-x,1/2-y,1/2+z
1/2+x,1/2-y,-z
1/2-x,1/2+y,1/2-z
loop_
_atom_site_type_symbol
_atom_site_label
_atom_site_fract_x
_atom_site_fract_y
_atom_site_fract_z
Si Si1 0.229058 0.025541 0.816923
Si Si2 0.338812 0.944100 0.351255
Si Si3 0.222844 0.832603 0.703557
Si Si4 0.166952 0.739030 0.016957
Si Si5 0.359144 0.400451 0.067276
Si Si6 0.569296 0.743166 0.724933
Si Si7 0.063577 0.446416 0.670085
O O1 0.242852 0.935474 0.716166
O O2 0.292271 0.076069 0.798540
O O3 0.178580 0.087006 0.735736
O O4 0.209972 0.000000 0.000000
O O5 0.357674 0.848079 0.422405
O O6 0.307882 0.000000 0.500000
O O7 0.395120 0.999702 0.294522
O O8 0.280591 0.775546 0.651658
O O9 0.175307 0.834212 0.557111
O O10 0.193315 0.805589 0.878099
O O11 0.108510 0.775074 0.110074
O O12 0.416887 0.340740 0.103443
O O13 0.376847 0.500000 0.000000
O O14 0.500000 0.737794 0.750000
O O15 0.585703 0.842370 0.649177
O O16 0.063358 0.500000 0.500000
O O17 0.000000 0.445732 0.750000
#
# Coordination Sequence:
#
# PCOD8159867 Si02
#       7
#     8   8   8   8   8   8   8
#     4  11  21  38  64  93 130 169 213 270 341 407
#     4  12  21  40  60  94 134 171 217 273 333 396
#     4  11  23  38  64  96 128 169 212 276 338 405
#     4  12  24  39  65  96 135 174 219 279 341 404
#     4  10  22  45  66  95 130 168 217 282 343 399
#     4  11  25  45  66  95 131 177 227 279 329 404
#     4  11  25  42  66  91 130 182 230 275 332 398
#
# _framework density 20.659345999999999
#
# number of rings (size 3 to 8) (size 9 to 14) (size 15 to 20)
#    0.000    0.857    4.286    3.000    6.000    0.000 
#    0.000    4.286    0.000    0.000    0.000    0.000 
#    0.000    0.000    0.000    0.000    0.000    0.000 
#
# Total GULP energy -347001.385068 kJ/mol
# GULP energy per Si atom -12392.906610 kJ/mol
# Density = 2.061232 g / cm^3
# Si number density = 20.659346 Si / 1000 Ang^3
#
#
#
# Elastic Constant Matrix: (Units=GPa)
#
#
# Indices 1 2 3 4 5 6 
#
# 1 118.7452 58.7184 51.2348 0.0000 0.0000 0.0000
# 2 58.7184 92.8330 26.9537 0.0000 0.0000 0.0000
# 3 51.2348 26.9537 99.6109 0.0000 0.0000 0.0000
# 4 0.0000 0.0000 0.0000 38.6037 0.0000 0.0000
# 5 0.0000 0.0000 0.0000 0.0000 22.1595 0.0000
# 6 0.0000 0.0000 0.0000 0.0000 0.0000 -16.0610
#
#
#
# Elastic Compliance Matrix: (Units=1/GPa)
#
#
# Indices 1 2 3 4 5 6 
#
# 1 0.014520 -0.007614 -0.005408 0.000000 0.000000 0.000000
# 2 -0.007614 0.015683 -0.000328 0.000000 0.000000 0.000000
# 3 -0.005408 -0.000328 0.012909 0.000000 0.000000 0.000000
# 4 0.000000 0.000000 0.000000 0.025904 0.000000 0.000000
# 5 0.000000 0.000000 0.000000 0.000000 0.045127 0.000000
# 6 0.000000 0.000000 0.000000 0.000000 0.000000 -0.062263
#
#
# Mechanical properties :
#
#
# Convention : Reuss Voigt Hill
#
# Bulk Modulus (GPa) = 60.92582 65.00033 62.96307
# Shear Modulus (GPa) = 59.48805 20.55927 40.02366
#
# Velocity S-wave (km/s) = 5.37189 3.15803 4.40627
# Velocity P-wave (km/s) = 8.24809 6.69543 7.51198
#
# Compressibility (1/GPa) = 0.01641340
#
# Stress axis : x y z
#
# Youngs Moduli (GPa) = 68.87192 63.76350 77.46362
#
# Poissons Ratio (x) = 0.48548 0.41892
# Poissons Ratio (y) = 0.52437 0.02537
# Poissons Ratio (z) = 0.37246 0.02088
#
# Static dielectric constant tensor:
#      x y z
#    x 3.462310 0.000000 0.000000 
#    y 0.000000 4.051300 0.000000 
#    z 0.000000 0.000000 4.538370 
# 
# 
# High freq. dielectric constant tensor:
#      x y z
#    x 1.790060 0.000000 0.000000 
#    y 0.000000 1.823870 0.000000 
#    z 0.000000 0.000000 1.812210 
# 
# From -- ./inp_files/10188.got.cif
#   From: 2010.03.12/outbox.cif.g09.slc.cpg/sg20_6_cif.got.tgz:10188.got - 2010.04.14 01:38:04.
