data_PCOD8159652
_publ_section_title
;
Structure prediction by ZEFSAII (Michael W. Deem and Ramdas Pophale) SiO2 
 PCOD8159652
Probable space group: C 2 2 21
;
_chemical_formula_sum "Si O2"
_cell_formula_units_Z 48
_cell_length_a 9.533422
_cell_length_b 26.753727
_cell_length_c 8.738924
_cell_angle_alpha 90.000000
_cell_angle_beta 90.000000
_cell_angle_gamma 90.000000
_cell_volume 2228.902499
_symmetry_space_group_name_H-M "C 2 2 21"
_symmetry_group_IT_number 20
_symmetry_cell_setting 'orthorhombic'
loop_
_space_group_symop_operation_xyz
x,y,z
-x,-y,1/2+z
x,-y,-z
-x,y,1/2-z
1/2+x,1/2+y,z
1/2-x,1/2-y,1/2+z
1/2+x,1/2-y,-z
1/2-x,1/2+y,1/2-z
loop_
_atom_site_type_symbol
_atom_site_label
_atom_site_fract_x
_atom_site_fract_y
_atom_site_fract_z
Si Si1 0.847694 0.281439 0.819692
Si Si2 0.811698 0.055119 0.035999
Si Si3 0.151876 0.129389 0.202732
Si Si4 0.915995 0.910916 0.391929
Si Si5 0.154691 0.408610 0.229745
Si Si6 0.355918 0.205768 0.821538
O O1 0.765798 0.329506 0.753287
O O2 0.774064 0.230947 0.764051
O O3 0.000000 0.284211 0.750000
O O4 0.854702 0.280570 0.001391
O O5 0.813466 0.076346 0.210217
O O6 0.704205 0.091900 0.946799
O O7 0.971985 0.053021 0.973416
O O8 0.750650 0.000000 0.000000
O O9 0.000000 0.149582 0.250000
O O10 0.147186 0.126061 0.018733
O O11 0.777947 0.939224 0.321876
O O12 0.000000 0.883836 0.250000
O O13 0.154893 0.353246 0.296519
O O14 0.000000 0.433075 0.250000
O O15 0.500000 0.226485 0.750000
#
# Coordination Sequence:
#
# PCOD8159652 Si02
#       6
#     8   8   8   8   8   8
#     4  12  26  42  69 102 133 178 224 275 336 403
#     4  10  23  41  66  97 131 175 229 282 335 400
#     4  10  22  40  64  94 133 170 224 276 333 402
#     4   9  19  39  63  93 123 173 217 273 331 394
#     4  10  22  41  67  92 135 175 217 272 346 400
#     4  11  25  45  66  98 137 177 221 276 337 407
#
# _framework density 21.535261999999999
#
# number of rings (size 3 to 8) (size 9 to 14) (size 15 to 20)
#    0.000    1.667    1.667    1.500    7.000    8.000 
#    3.000    3.333    0.000    0.000    0.000    0.000 
#    0.000    0.000    0.000    0.000    0.000    0.000 
#
# Total GULP energy -297330.628914 kJ/mol
# GULP energy per Si atom -12388.776205 kJ/mol
# Density = 2.148625 g / cm^3
# Si number density = 21.535262 Si / 1000 Ang^3
#
#
#
# Elastic Constant Matrix: (Units=GPa)
#
#
# Indices 1 2 3 4 5 6 
#
# 1 154.2567 17.4663 46.9646 0.0000 0.0000 0.0000
# 2 17.4663 39.0634 19.5518 0.0000 0.0000 0.0000
# 3 46.9646 19.5518 143.5763 0.0000 0.0000 0.0000
# 4 0.0000 0.0000 0.0000 19.9721 0.0000 0.0000
# 5 0.0000 0.0000 0.0000 0.0000 32.2725 0.0000
# 6 0.0000 0.0000 0.0000 0.0000 0.0000 19.8114
#
#
#
# Elastic Compliance Matrix: (Units=1/GPa)
#
#
# Indices 1 2 3 4 5 6 
#
# 1 0.007379 -0.002244 -0.002108 0.000000 0.000000 0.000000
# 2 -0.002244 0.028154 -0.003100 0.000000 0.000000 0.000000
# 3 -0.002108 -0.003100 0.008077 0.000000 0.000000 0.000000
# 4 0.000000 0.000000 0.000000 0.050070 0.000000 0.000000
# 5 0.000000 0.000000 0.000000 0.000000 0.030986 0.000000
# 6 0.000000 0.000000 0.000000 0.000000 0.000000 0.050476
#
#
# Mechanical properties :
#
#
# Convention : Reuss Voigt Hill
#
# Bulk Modulus (GPa) = 34.83645 56.09576 45.46611
# Shear Modulus (GPa) = 25.04834 31.27211 28.16023
#
# Velocity S-wave (km/s) = 3.41417 3.81482 3.62004
# Velocity P-wave (km/s) = 5.63504 6.74601 6.21540
#
# Compressibility (1/GPa) = 0.02870556
#
# Stress axis : x y z
#
# Youngs Moduli (GPa) = 135.52726 35.51846 123.81425
#
# Poissons Ratio (x) = 0.07971 0.26100
# Poissons Ratio (y) = 0.30413 0.38382
# Poissons Ratio (z) = 0.28569 0.11011
#
# Static dielectric constant tensor:
#      x y z
#    x 4.354620 0.000000 0.000000 
#    y 0.000000 3.418080 0.000000 
#    z 0.000000 0.000000 4.248590 
# 
# 
# High freq. dielectric constant tensor:
#      x y z
#    x 1.862310 0.000000 0.000000 
#    y 0.000000 1.802990 0.000000 
#    z 0.000000 0.000000 1.861980 
# 
# From -- ./inp_files/6491.got.cif
#   From: 2010.03.12/outbox.cif.g09.slc.cpg/sg20_4_cif.got.tgz:6491.got - 2010.04.14 01:38:04.
