data_PCOD8159584
_publ_section_title
;
Structure prediction by ZEFSAII (Michael W. Deem and Ramdas Pophale) SiO2 
 PCOD8159584
Probable space group: C 2 2 21
;
_chemical_formula_sum "Si O2"
_cell_formula_units_Z 52
_cell_length_a 12.424987
_cell_length_b 7.442229
_cell_length_c 27.367141
_cell_angle_alpha 90.000000
_cell_angle_beta 90.000000
_cell_angle_gamma 90.000000
_cell_volume 2530.628542
_symmetry_space_group_name_H-M "C 2 2 21"
_symmetry_group_IT_number 20
_symmetry_cell_setting 'orthorhombic'
loop_
_space_group_symop_operation_xyz
x,y,z
-x,-y,1/2+z
x,-y,-z
-x,y,1/2-z
1/2+x,1/2+y,z
1/2-x,1/2-y,1/2+z
1/2+x,1/2-y,-z
1/2-x,1/2+y,1/2-z
loop_
_atom_site_type_symbol
_atom_site_label
_atom_site_fract_x
_atom_site_fract_y
_atom_site_fract_z
Si Si1 0.861810 0.000000 0.500000
Si Si2 0.378349 0.707786 0.111933
Si Si3 0.387617 0.288861 0.225847
Si Si4 0.660808 0.802418 0.498058
Si Si5 0.998467 0.550695 0.351848
Si Si6 0.021108 0.128048 0.578035
Si Si7 0.273438 0.088180 0.310510
O O1 0.787473 0.825355 0.510468
O O2 0.926376 0.969685 0.450725
O O3 0.349382 0.718466 0.055194
O O4 0.436329 0.513874 0.118246
O O5 0.272667 0.714233 0.146022
O O6 0.456038 0.868474 0.126541
O O7 0.500000 0.359484 0.250000
O O8 0.418161 0.132672 0.187459
O O9 0.302908 0.210620 0.264567
O O10 0.321999 0.449831 0.201324
O O11 0.612793 0.673630 0.538754
O O12 0.603993 0.000000 0.500000
O O13 0.979604 0.695304 0.394603
O O14 0.884109 0.495910 0.328268
#
# Coordination Sequence:
#
# PCOD8159584 Si02
#       7
#     4   8   8   8   8   8   8
#     4  10  22  38  66  88 124 182 214 272 334 378
#     4  12  23  42  67  98 132 177 220 274 331 395
#     4  10  23  45  67  97 135 167 218 281 330 403
#     4  10  22  42  64  93 134 175 223 273 321 389
#     4  11  24  43  65  96 135 166 223 273 326 403
#     4  12  22  42  66  94 134 174 223 275 328 391
#     4  11  24  43  70 100 128 178 216 272 344 393
#
# _framework density 20.548255000000001
#
# number of rings (size 3 to 8) (size 9 to 14) (size 15 to 20)
#    0.462    0.615    4.615    1.846    0.000    2.462 
#    5.538    1.538    0.000    0.000    0.000    0.000 
#    0.000    0.000    0.000    0.000    0.000    0.000 
#
# Total GULP energy -322309.356641 kJ/mol
# GULP energy per Si atom -12396.513717 kJ/mol
# Density = 2.050149 g / cm^3
# Si number density = 20.548255 Si / 1000 Ang^3
#
#
#
# Elastic Constant Matrix: (Units=GPa)
#
#
# Indices 1 2 3 4 5 6 
#
# 1 119.3433 49.5719 45.8722 0.0000 0.0000 0.0000
# 2 49.5719 103.1875 39.2657 0.0000 0.0000 0.0000
# 3 45.8722 39.2657 108.0784 0.0000 0.0000 0.0000
# 4 0.0000 0.0000 0.0000 31.2504 0.0000 0.0000
# 5 0.0000 0.0000 0.0000 0.0000 1.5151 0.0000
# 6 0.0000 0.0000 0.0000 0.0000 0.0000 -42.6913
#
#
#
# Elastic Compliance Matrix: (Units=1/GPa)
#
#
# Indices 1 2 3 4 5 6 
#
# 1 0.011403 -0.004220 -0.003307 0.000000 0.000000 0.000000
# 2 -0.004220 0.012807 -0.002862 0.000000 0.000000 0.000000
# 3 -0.003307 -0.002862 0.011696 0.000000 0.000000 0.000000
# 4 0.000000 0.000000 0.000000 0.032000 0.000000 0.000000
# 5 0.000000 0.000000 0.000000 0.000000 0.660040 0.000000
# 6 0.000000 0.000000 0.000000 0.000000 0.000000 -0.023424
#
#
# Mechanical properties :
#
#
# Convention : Reuss Voigt Hill
#
# Bulk Modulus (GPa) = 66.09752 66.66987 66.38370
# Shear Modulus (GPa) = 6.84611 11.07480 8.96045
#
# Velocity S-wave (km/s) = 1.82728 2.32408 2.09049
# Velocity P-wave (km/s) = 6.05712 6.30220 6.18088
#
# Compressibility (1/GPa) = 0.01512916
#
# Stress axis : x y z
#
# Youngs Moduli (GPa) = 87.69638 78.08007 85.50064
#
# Poissons Ratio (x) = 0.32948 0.28273
# Poissons Ratio (y) = 0.37006 0.24470
# Poissons Ratio (z) = 0.28999 0.22347
#
# Static dielectric constant tensor:
#      x y z
#    x 3.727370 0.000000 0.000000 
#    y 0.000000 3.604260 0.000000 
#    z 0.000000 0.000000 3.978780 
# 
# 
# High freq. dielectric constant tensor:
#      x y z
#    x 1.803990 0.000000 0.000000 
#    y 0.000000 1.796500 0.000000 
#    z 0.000000 0.000000 1.819260 
# 
# From -- ./inp_files/30284.got.cif
#   From: 2010.03.12/outbox.cif.g09.slc.cpg/sg20_16_cif.got.tgz:30284.got - 2010.04.14 01:38:04.
