data_PCOD8159321
_publ_section_title
;
Structure prediction by ZEFSAII (Michael W. Deem and Ramdas Pophale) SiO2 
 PCOD8159321
Probable space group: C 2 2 21
;
_chemical_formula_sum "Si O2"
_cell_formula_units_Z 52
_cell_length_a 19.022973
_cell_length_b 14.751284
_cell_length_c 9.056652
_cell_angle_alpha 90.000000
_cell_angle_beta 90.000000
_cell_angle_gamma 90.000000
_cell_volume 2541.416799
_symmetry_space_group_name_H-M "C 2 2 21"
_symmetry_group_IT_number 20
_symmetry_cell_setting 'orthorhombic'
loop_
_space_group_symop_operation_xyz
x,y,z
-x,-y,1/2+z
x,-y,-z
-x,y,1/2-z
1/2+x,1/2+y,z
1/2-x,1/2-y,1/2+z
1/2+x,1/2-y,-z
1/2-x,1/2+y,1/2-z
loop_
_atom_site_type_symbol
_atom_site_label
_atom_site_fract_x
_atom_site_fract_y
_atom_site_fract_z
Si Si1 0.000000 0.559807 0.750000
Si Si2 0.095103 0.251665 0.990411
Si Si3 0.761648 0.934834 0.699887
Si Si4 0.829457 0.762332 0.799623
Si Si5 0.893398 0.411953 0.716943
Si Si6 0.290605 0.628066 0.622749
Si Si7 0.444965 0.807082 0.002467
O O1 0.940473 0.497872 0.675674
O O2 0.964230 0.617863 0.877342
O O3 0.113773 0.350043 0.926859
O O4 0.132782 0.174433 0.891792
O O5 0.121688 0.251432 0.157709
O O6 0.010723 0.237631 0.985134
O O7 0.800852 0.865287 0.809203
O O8 0.681784 0.951825 0.742538
O O9 0.759603 0.890731 0.538380
O O10 0.800343 0.032437 0.707191
O O11 0.763107 0.694308 0.792342
O O12 0.876208 0.747821 0.945583
O O13 0.929198 0.354744 0.848123
#
# Coordination Sequence:
#
# PCOD8159321 Si02
#       7
#     4   8   8   8   8   8   8
#     4  12  24  36  60  98 128 164 210 250 326 394
#     4  11  23  40  60  90 127 172 203 258 322 381
#     4  10  22  38  65  94 121 170 214 259 316 379
#     4  11  21  40  66  92 127 165 211 268 315 377
#     4  12  23  37  61  90 132 163 202 259 320 388
#     4  10  21  40  63  91 127 168 217 258 315 382
#     4  12  23  40  62  93 131 166 204 261 323 380
#
# _framework density 20.461029
#
# number of rings (size 3 to 8) (size 9 to 14) (size 15 to 20)
#    0.000    0.923    6.154    1.385    2.154    0.000 
#    0.000    0.000    0.000   14.769    0.000    0.000 
#    0.000    0.000    0.000    0.000    0.000    0.000 
#
# Total GULP energy -322460.723041 kJ/mol
# GULP energy per Si atom -12402.335502 kJ/mol
# Density = 2.041446 g / cm^3
# Si number density = 20.461029 Si / 1000 Ang^3
#
#
#
# Elastic Constant Matrix: (Units=GPa)
#
#
# Indices 1 2 3 4 5 6 
#
# 1 115.9452 59.7139 13.3739 0.0000 0.0000 0.0000
# 2 59.7139 123.1502 7.3608 0.0000 0.0000 0.0000
# 3 13.3739 7.3608 24.1020 0.0000 0.0000 0.0000
# 4 0.0000 0.0000 0.0000 23.2415 0.0000 0.0000
# 5 0.0000 0.0000 0.0000 0.0000 19.0898 0.0000
# 6 0.0000 0.0000 0.0000 0.0000 0.0000 34.6721
#
#
#
# Elastic Compliance Matrix: (Units=1/GPa)
#
#
# Indices 1 2 3 4 5 6 
#
# 1 0.012059 -0.005548 -0.004997 0.000000 0.000000 0.000000
# 2 -0.005548 0.010824 -0.000227 0.000000 0.000000 0.000000
# 3 -0.004997 -0.000227 0.044332 0.000000 0.000000 0.000000
# 4 0.000000 0.000000 0.000000 0.043026 0.000000 0.000000
# 5 0.000000 0.000000 0.000000 0.000000 0.052384 0.000000
# 6 0.000000 0.000000 0.000000 0.000000 0.000000 0.028842
#
#
# Mechanical properties :
#
#
# Convention : Reuss Voigt Hill
#
# Bulk Modulus (GPa) = 21.89582 47.12162 34.50872
# Shear Modulus (GPa) = 21.90728 27.58395 24.74562
#
# Velocity S-wave (km/s) = 3.27568 3.67566 3.48142
# Velocity P-wave (km/s) = 5.00312 6.41045 5.75001
#
# Compressibility (1/GPa) = 0.04567081
#
# Stress axis : x y z
#
# Youngs Moduli (GPa) = 82.92807 92.38652 22.55697
#
# Poissons Ratio (x) = 0.51260 0.11271
# Poissons Ratio (y) = 0.46012 0.00512
# Poissons Ratio (z) = 0.41436 0.02097
#
# Static dielectric constant tensor:
#      x y z
#    x 3.986110 0.000000 0.000000 
#    y 0.000000 3.855530 0.000000 
#    z 0.000000 0.000000 3.717740 
# 
# 
# High freq. dielectric constant tensor:
#      x y z
#    x 1.807190 0.000000 0.000000 
#    y 0.000000 1.789240 0.000000 
#    z 0.000000 0.000000 1.794540 
# 
# From -- ./inp_files/10112.got.cif
#   From: 2010.03.12/outbox.cif.g09.slc.cpg/sg20_6_cif.got.tgz:10112.got - 2010.04.14 01:38:04.
