data_PCOD8159093
_publ_section_title
;
Structure prediction by ZEFSAII (Michael W. Deem and Ramdas Pophale) SiO2 
 PCOD8159093
Probable space group: C 2 2 21
;
_chemical_formula_sum "Si O2"
_cell_formula_units_Z 56
_cell_length_a 27.411595
_cell_length_b 22.764144
_cell_length_c 5.088018
_cell_angle_alpha 90.000000
_cell_angle_beta 90.000000
_cell_angle_gamma 90.000000
_cell_volume 3174.930843
_symmetry_space_group_name_H-M "C 2 2 21"
_symmetry_group_IT_number 20
_symmetry_cell_setting 'orthorhombic'
loop_
_space_group_symop_operation_xyz
x,y,z
-x,-y,1/2+z
x,-y,-z
-x,y,1/2-z
1/2+x,1/2+y,z
1/2-x,1/2-y,1/2+z
1/2+x,1/2-y,-z
1/2-x,1/2+y,1/2-z
loop_
_atom_site_type_symbol
_atom_site_label
_atom_site_fract_x
_atom_site_fract_y
_atom_site_fract_z
Si Si1 0.328149 0.906584 0.048293
Si Si2 0.892595 0.671371 0.650133
Si Si3 0.734662 0.933327 0.962422
Si Si4 0.000000 0.425142 0.750000
Si Si5 0.897739 0.449513 0.672340
Si Si6 0.718264 0.682297 0.470223
Si Si7 0.184721 0.755487 0.030072
Si Si8 0.500000 0.153922 0.750000
O O1 0.286889 0.911180 0.820081
O O2 0.371532 0.949159 0.954735
O O3 0.355517 0.843439 0.102069
O O4 0.307652 0.928445 0.323352
O O5 0.894529 0.614068 0.465381
O O6 0.868326 0.725916 0.498058
O O7 0.948588 0.690248 0.722546
O O8 0.778930 0.888159 0.017748
O O9 0.754608 0.000000 0.000000
O O10 0.953793 0.467437 0.716202
O O11 0.010160 0.384722 0.502117
O O12 0.872136 0.500000 0.500000
O O13 0.773709 0.705739 0.487591
O O14 0.693621 0.695805 0.192842
O O15 0.685120 0.711202 0.693626
#
# Coordination Sequence:
#
# PCOD8159093 Si02
#       8
#     8   8   8   4   8   8   8   4
#     4  12  22  36  52  75  98 135 175 217 267 305
#     4  11  23  37  56  75 104 138 184 226 275 313
#     4  12  25  37  56  78 109 135 175 219 271 322
#     4  10  22  39  48  66  90 132 176 233 280 316
#     4  11  24  37  52  69  96 133 181 231 277 314
#     4  10  21  36  53  79  99 134 168 218 264 314
#     4  10  21  33  56  74 104 131 174 219 260 313
#     4  10  22  39  56  72  98 136 184 227 278 320
#
# _framework density 17.638178
#
# number of rings (size 3 to 8) (size 9 to 14) (size 15 to 20)
#    0.000    1.143    4.286    1.714    8.000    2.286 
#    0.000    0.000    0.000    0.000    0.000    0.000 
#    0.000    0.000    0.000    2.571    0.000    1.429 
#
# Total GULP energy -346912.514367 kJ/mol
# GULP energy per Si atom -12389.732656 kJ/mol
# Density = 1.759803 g / cm^3
# Si number density = 17.638178 Si / 1000 Ang^3
#
#
#
# Elastic Constant Matrix: (Units=GPa)
#
#
# Indices 1 2 3 4 5 6 
#
# 1 53.6315 31.3697 2.4328 0.0000 0.0000 0.0000
# 2 31.3697 82.1498 8.0905 0.0000 0.0000 0.0000
# 3 2.4328 8.0905 65.4613 0.0000 0.0000 0.0000
# 4 0.0000 0.0000 0.0000 18.4524 0.0000 0.0000
# 5 0.0000 0.0000 0.0000 0.0000 15.3294 0.0000
# 6 0.0000 0.0000 0.0000 0.0000 0.0000 4.4517
#
#
#
# Elastic Compliance Matrix: (Units=1/GPa)
#
#
# Indices 1 2 3 4 5 6 
#
# 1 0.024012 -0.009193 0.000244 0.000000 0.000000 0.000000
# 2 -0.009193 0.015843 -0.001616 0.000000 0.000000 0.000000
# 3 0.000244 -0.001616 0.015467 0.000000 0.000000 0.000000
# 4 0.000000 0.000000 0.000000 0.054193 0.000000 0.000000
# 5 0.000000 0.000000 0.000000 0.000000 0.065234 0.000000
# 6 0.000000 0.000000 0.000000 0.000000 0.000000 0.224635
#
#
# Mechanical properties :
#
#
# Convention : Reuss Voigt Hill
#
# Bulk Modulus (GPa) = 29.24836 31.66983 30.45909
# Shear Modulus (GPa) = 11.57644 18.27001 14.92323
#
# Velocity S-wave (km/s) = 2.56467 3.22191 2.91189
# Velocity P-wave (km/s) = 5.03870 5.64227 5.34900
#
# Compressibility (1/GPa) = 0.03418996
#
# Stress axis : x y z
#
# Youngs Moduli (GPa) = 41.64606 63.12107 64.65413
#
# Poissons Ratio (x) = 0.58028 -0.01576
# Poissons Ratio (y) = 0.38286 0.10450
# Poissons Ratio (z) = -0.01015 0.10203
#
# Static dielectric constant tensor:
#      x y z
#    x 3.239750 0.000000 0.000000 
#    y 0.000000 3.040350 0.000000 
#    z 0.000000 0.000000 3.583590 
# 
# 
# High freq. dielectric constant tensor:
#      x y z
#    x 1.645770 0.000000 0.000000 
#    y 0.000000 1.640450 0.000000 
#    z 0.000000 0.000000 1.711630 
# 
# From -- ./inp_files/4371.got.cif
#   From: 2010.03.12/outbox.cif.g09.slc.cpg/sg20_3_cif.got.tgz:4371.got - 2010.04.14 01:38:04.
