data_PCOD8159861
_publ_section_title
;
Structure prediction by ZEFSAII (Michael W. Deem and Ramdas Pophale) SiO2 
 PCOD8159861
Probable space group: C 2 2 21
;
_chemical_formula_sum "Si O2"
_cell_formula_units_Z 48
_cell_length_a 13.067815
_cell_length_b 5.285620
_cell_length_c 30.567648
_cell_angle_alpha 90.000000
_cell_angle_beta 90.000000
_cell_angle_gamma 90.000000
_cell_volume 2111.353431
_symmetry_space_group_name_H-M "C 2 2 21"
_symmetry_group_IT_number 20
_symmetry_cell_setting 'orthorhombic'
loop_
_space_group_symop_operation_xyz
x,y,z
-x,-y,1/2+z
x,-y,-z
-x,y,1/2-z
1/2+x,1/2+y,z
1/2-x,1/2-y,1/2+z
1/2+x,1/2-y,-z
1/2-x,1/2+y,1/2-z
loop_
_atom_site_type_symbol
_atom_site_label
_atom_site_fract_x
_atom_site_fract_y
_atom_site_fract_z
Si Si1 0.500000 0.802553 0.250000
Si Si2 0.537053 0.653808 0.459623
Si Si3 0.883085 0.502535 0.331001
Si Si4 0.369476 0.000000 0.500000
Si Si5 0.744340 0.130984 0.546406
Si Si6 0.289198 0.591742 0.227960
Si Si7 0.902488 0.001582 0.613892
O O1 0.448207 0.982600 0.286228
O O2 0.412162 0.627666 0.227237
O O3 0.587462 0.500000 0.500000
O O4 0.437714 0.786491 0.478423
O O5 0.624272 0.844403 0.442650
O O6 0.498591 0.481568 0.419555
O O7 0.761511 0.519045 0.319021
O O8 0.916239 0.754259 0.355988
O O9 0.906721 0.254187 0.358721
O O10 0.300591 0.901344 0.540477
O O11 0.795430 0.992325 0.587485
O O12 0.762209 0.000000 0.500000
O O13 0.235828 0.859639 0.239805
#
# Coordination Sequence:
#
# PCOD8159861 Si02
#       7
#     4   8   8   4   8   8   8
#     4  10  24  50  78 104 136 190 238 290 358 440
#     4  12  25  42  72 101 137 195 247 281 350 424
#     4  11  26  46  74 104 143 187 230 294 365 422
#     4  12  20  44  66  98 134 180 246 292 336 410
#     4  12  25  42  70  96 135 195 233 292 351 415
#     4  10  22  44  73 105 134 176 233 279 341 425
#     4  12  26  47  68 106 152 180 231 307 349 413
#
# _framework density 22.73423
#
# number of rings (size 3 to 8) (size 9 to 14) (size 15 to 20)
#    0.000    0.667    5.000    3.000    0.000    7.333 
#    0.000   11.667    0.000    0.000    0.000    0.000 
#    0.000    0.000    0.000    0.000    0.000    0.000 
#
# Total GULP energy -297525.529398 kJ/mol
# GULP energy per Si atom -12396.897058 kJ/mol
# Density = 2.268249 g / cm^3
# Si number density = 22.734230 Si / 1000 Ang^3
#
#
#
# Elastic Constant Matrix: (Units=GPa)
#
#
# Indices 1 2 3 4 5 6 
#
# 1 133.0909 31.8830 47.2108 0.0000 0.0000 0.0000
# 2 31.8830 113.1895 43.2637 0.0000 0.0000 0.0000
# 3 47.2108 43.2637 125.6887 0.0000 0.0000 0.0000
# 4 0.0000 0.0000 0.0000 35.3231 0.0000 0.0000
# 5 0.0000 0.0000 0.0000 0.0000 12.0318 0.0000
# 6 0.0000 0.0000 0.0000 0.0000 0.0000 20.9871
#
#
#
# Elastic Compliance Matrix: (Units=1/GPa)
#
#
# Indices 1 2 3 4 5 6 
#
# 1 0.008860 -0.001409 -0.002843 0.000000 0.000000 0.000000
# 2 -0.001409 0.010397 -0.003050 0.000000 0.000000 0.000000
# 3 -0.002843 -0.003050 0.010074 0.000000 0.000000 0.000000
# 4 0.000000 0.000000 0.000000 0.028310 0.000000 0.000000
# 5 0.000000 0.000000 0.000000 0.000000 0.083113 0.000000
# 6 0.000000 0.000000 0.000000 0.000000 0.000000 0.047648
#
#
# Mechanical properties :
#
#
# Convention : Reuss Voigt Hill
#
# Bulk Modulus (GPa) = 67.89926 68.52046 68.20986
# Shear Modulus (GPa) = 24.04839 30.30918 27.17879
#
# Velocity S-wave (km/s) = 3.25592 3.65526 3.46135
# Velocity P-wave (km/s) = 6.63823 6.92963 6.78549
#
# Compressibility (1/GPa) = 0.01472770
#
# Stress axis : x y z
#
# Youngs Moduli (GPa) = 112.87171 96.17918 99.26829
#
# Poissons Ratio (x) = 0.13551 0.28220
# Poissons Ratio (y) = 0.15903 0.30273
# Poissons Ratio (z) = 0.32088 0.29331
#
# Static dielectric constant tensor:
#      x y z
#    x 4.223720 0.000000 0.000000 
#    y 0.000000 4.262040 0.000000 
#    z 0.000000 0.000000 4.365390 
# 
# 
# High freq. dielectric constant tensor:
#      x y z
#    x 1.903620 0.000000 0.000000 
#    y 0.000000 1.904270 0.000000 
#    z 0.000000 0.000000 1.887960 
# 
# From -- ./inp_files/31268.got.cif
#   From: 2010.03.12/outbox.cif.g09.slc.cpg/sg20_16_cif.got.tgz:31268.got - 2010.04.14 01:38:04.
