data_PCOD8159083
_publ_section_title
;
Structure prediction by ZEFSAII (Michael W. Deem and Ramdas Pophale) SiO2 
 PCOD8159083
Probable space group: C 2 2 21
;
_chemical_formula_sum "Si O2"
_cell_formula_units_Z 48
_cell_length_a 11.631436
_cell_length_b 9.891308
_cell_length_c 18.313710
_cell_angle_alpha 90.000000
_cell_angle_beta 90.000000
_cell_angle_gamma 90.000000
_cell_volume 2106.994459
_symmetry_space_group_name_H-M "C 2 2 21"
_symmetry_group_IT_number 20
_symmetry_cell_setting 'orthorhombic'
loop_
_space_group_symop_operation_xyz
x,y,z
-x,-y,1/2+z
x,-y,-z
-x,y,1/2-z
1/2+x,1/2+y,z
1/2-x,1/2-y,1/2+z
1/2+x,1/2-y,-z
1/2-x,1/2+y,1/2-z
loop_
_atom_site_type_symbol
_atom_site_label
_atom_site_fract_x
_atom_site_fract_y
_atom_site_fract_z
Si Si1 0.941431 0.770564 0.403052
Si Si2 0.037582 0.000000 0.500000
Si Si3 0.000000 0.253250 0.750000
Si Si4 0.155324 0.618464 0.443121
Si Si5 0.311387 0.300505 0.928799
Si Si6 0.722468 0.080168 0.286967
Si Si7 0.375040 0.799311 0.218120
O O1 0.969695 0.834911 0.322538
O O2 0.818878 0.695181 0.400475
O O3 0.026145 0.644676 0.415898
O O4 0.953431 0.886906 0.464464
O O5 0.120631 0.057536 0.435706
O O6 0.106318 0.349064 0.735186
O O7 0.159313 0.500000 0.500000
O O8 0.194676 0.749703 0.487762
O O9 0.239589 0.588370 0.375067
O O10 0.382749 0.209324 0.870494
O O11 0.829226 0.155796 0.248928
O O12 0.712567 0.922676 0.262028
O O13 0.500000 0.830249 0.250000
#
# Coordination Sequence:
#
# PCOD8159083 Si02
#       7
#     8   4   4   8   8   8   8
#     4  10  23  42  72  99 140 182 231 292 350 423
#     4  10  26  46  68 108 140 174 240 290 354 436
#     4  10  20  46  68 102 138 190 234 288 352 418
#     4  10  22  42  69  98 134 182 230 286 354 415
#     4  11  24  46  69 104 138 184 234 289 357 422
#     4  11  24  46  72 104 145 187 241 296 357 426
#     4  12  27  46  73 106 145 191 240 296 356 431
#
# _framework density 22.781265000000001
#
# number of rings (size 3 to 8) (size 9 to 14) (size 15 to 20)
#    0.000    1.333    4.167    0.000    2.333    8.000 
#    3.000    0.000    0.000    0.000    0.000    0.000 
#    0.000    0.000    0.000    0.000    0.000    0.000 
#
# Total GULP energy -297439.187878 kJ/mol
# GULP energy per Si atom -12393.299495 kJ/mol
# Density = 2.272941 g / cm^3
# Si number density = 22.781265 Si / 1000 Ang^3
#
#
#
# Elastic Constant Matrix: (Units=GPa)
#
#
# Indices 1 2 3 4 5 6 
#
# 1 66.0808 9.3573 27.7454 0.0000 0.0000 0.0000
# 2 9.3573 86.1880 18.3959 0.0000 0.0000 0.0000
# 3 27.7454 18.3959 126.4235 0.0000 0.0000 0.0000
# 4 0.0000 0.0000 0.0000 37.2725 0.0000 0.0000
# 5 0.0000 0.0000 0.0000 0.0000 31.5920 0.0000
# 6 0.0000 0.0000 0.0000 0.0000 0.0000 2.7610
#
#
#
# Elastic Compliance Matrix: (Units=1/GPa)
#
#
# Indices 1 2 3 4 5 6 
#
# 1 0.016764 -0.001068 -0.003524 0.000000 0.000000 0.000000
# 2 -0.001068 0.012042 -0.001518 0.000000 0.000000 0.000000
# 3 -0.003524 -0.001518 0.008904 0.000000 0.000000 0.000000
# 4 0.000000 0.000000 0.000000 0.026829 0.000000 0.000000
# 5 0.000000 0.000000 0.000000 0.000000 0.031654 0.000000
# 6 0.000000 0.000000 0.000000 0.000000 0.000000 0.362183
#
#
# Mechanical properties :
#
#
# Convention : Reuss Voigt Hill
#
# Bulk Modulus (GPa) = 39.22911 43.29885 41.26398
# Shear Modulus (GPa) = 10.43641 29.20468 19.82055
#
# Velocity S-wave (km/s) = 2.14268 3.58433 2.95284
# Velocity P-wave (km/s) = 4.83516 6.01477 5.45693
#
# Compressibility (1/GPa) = 0.02549127
#
# Stress axis : x y z
#
# Youngs Moduli (GPa) = 59.65277 83.03942 112.30772
#
# Poissons Ratio (x) = 0.08868 0.39573
# Poissons Ratio (y) = 0.06371 0.17047
# Poissons Ratio (z) = 0.21019 0.12605
#
# Static dielectric constant tensor:
#      x y z
#    x 3.957760 0.000000 0.000000 
#    y 0.000000 4.198490 0.000000 
#    z 0.000000 0.000000 4.984100 
# 
# 
# High freq. dielectric constant tensor:
#      x y z
#    x 1.889640 0.000000 0.000000 
#    y 0.000000 1.882280 0.000000 
#    z 0.000000 0.000000 1.918730 
# 
# From -- ./inp_files/24287.got.cif
#   From: 2010.03.12/outbox.cif.g09.slc.cpg/sg20_13_cif.got.tgz:24287.got - 2010.04.14 01:38:04.
