data_PCOD8159174
_publ_section_title
;
Structure prediction by ZEFSAII (Michael W. Deem and Ramdas Pophale) SiO2 
 PCOD8159174
Probable space group: C 2 2 21
;
_chemical_formula_sum "Si O2"
_cell_formula_units_Z 32
_cell_length_a 12.112213
_cell_length_b 7.986242
_cell_length_c 14.436606
_cell_angle_alpha 90.000000
_cell_angle_beta 90.000000
_cell_angle_gamma 90.000000
_cell_volume 1396.468261
_symmetry_space_group_name_H-M "C 2 2 21"
_symmetry_group_IT_number 20
_symmetry_cell_setting 'orthorhombic'
loop_
_space_group_symop_operation_xyz
x,y,z
-x,-y,1/2+z
x,-y,-z
-x,y,1/2-z
1/2+x,1/2+y,z
1/2-x,1/2-y,1/2+z
1/2+x,1/2-y,-z
1/2-x,1/2+y,1/2-z
loop_
_atom_site_type_symbol
_atom_site_label
_atom_site_fract_x
_atom_site_fract_y
_atom_site_fract_z
Si Si1 0.229888 0.515116 0.197537
Si Si2 0.850999 0.816283 0.646899
Si Si3 0.468484 0.410040 0.153101
Si Si4 0.391275 0.820642 0.540602
O O1 0.141849 0.362498 0.200850
O O2 0.253889 0.578231 0.301894
O O3 0.339327 0.446026 0.146283
O O4 0.184753 0.663810 0.131948
O O5 0.823823 0.780755 0.538731
O O6 0.966669 0.912428 0.652828
O O7 0.500000 0.318438 0.250000
O O8 0.501920 0.289316 0.068383
O O9 0.429445 0.000000 0.500000
#
# Coordination Sequence:
#
# PCOD8159174 Si02
#       4
#     8   8   8   8
#     4  10  21  41  62  88 125 164 202 250 311 358
#     4  10  21  37  63  91 119 158 204 250 295 361
#     4  10  21  40  63  85 119 163 201 249 305 357
#     4  10  22  40  62  92 125 157 205 255 297 364
#
# _framework density 22.914949
#
# number of rings (size 3 to 8) (size 9 to 14) (size 15 to 20)
#    0.000    2.000    0.000    3.750    0.000    6.000 
#    0.000   40.000    0.000    0.000    0.000    0.000 
#    0.000    0.000    0.000    0.000    0.000    0.000 
#
# Total GULP energy -198275.962849 kJ/mol
# GULP energy per Si atom -12392.247678 kJ/mol
# Density = 2.286279 g / cm^3
# Si number density = 22.914949 Si / 1000 Ang^3
#
#
#
# Elastic Constant Matrix: (Units=GPa)
#
#
# Indices 1 2 3 4 5 6 
#
# 1 63.3229 37.5896 31.9141 0.0000 0.0000 0.0000
# 2 37.5896 117.1752 75.4033 0.0000 0.0000 0.0000
# 3 31.9141 75.4033 116.1063 0.0000 0.0000 0.0000
# 4 0.0000 0.0000 0.0000 50.4011 0.0000 0.0000
# 5 0.0000 0.0000 0.0000 0.0000 33.7763 0.0000
# 6 0.0000 0.0000 0.0000 0.0000 0.0000 22.9382
#
#
#
# Elastic Compliance Matrix: (Units=1/GPa)
#
#
# Indices 1 2 3 4 5 6 
#
# 1 0.019849 -0.004907 -0.002269 0.000000 0.000000 0.000000
# 2 -0.004907 0.015875 -0.008961 0.000000 0.000000 0.000000
# 3 -0.002269 -0.008961 0.015056 0.000000 0.000000 0.000000
# 4 0.000000 0.000000 0.000000 0.019841 0.000000 0.000000
# 5 0.000000 0.000000 0.000000 0.000000 0.029607 0.000000
# 6 0.000000 0.000000 0.000000 0.000000 0.000000 0.043595
#
#
# Mechanical properties :
#
#
# Convention : Reuss Voigt Hill
#
# Bulk Modulus (GPa) = 54.03813 65.15760 59.59786
# Shear Modulus (GPa) = 27.43267 31.53629 29.48448
#
# Velocity S-wave (km/s) = 3.46374 3.71379 3.59094
# Velocity P-wave (km/s) = 6.29523 6.84733 6.57707
#
# Compressibility (1/GPa) = 0.01850545
#
# Stress axis : x y z
#
# Youngs Moduli (GPa) = 50.38121 62.99265 66.41952
#
# Poissons Ratio (x) = 0.30914 0.15069
# Poissons Ratio (y) = 0.24725 0.59517
# Poissons Ratio (z) = 0.11430 0.56446
#
# Static dielectric constant tensor:
#      x y z
#    x 3.716640 0.000000 0.000000 
#    y 0.000000 4.378780 0.000000 
#    z 0.000000 0.000000 4.456500 
# 
# 
# High freq. dielectric constant tensor:
#      x y z
#    x 1.865090 0.000000 0.000000 
#    y 0.000000 1.913280 0.000000 
#    z 0.000000 0.000000 1.914430 
# 
# From -- ./inp_files/18172.got.cif
#   From: 2010.03.12/outbox.cif.g09.slc.cpg/sg20_10_cif.got.tgz:18172.got - 2010.04.14 01:38:04.
