data_PCOD8159995
_publ_section_title
;
Structure prediction by ZEFSAII (Michael W. Deem and Ramdas Pophale) SiO2 
 PCOD8159995
Probable space group: C 2 2 21
;
_chemical_formula_sum "Si O2"
_cell_formula_units_Z 40
_cell_length_a 26.357172
_cell_length_b 13.600163
_cell_length_c 5.027650
_cell_angle_alpha 90.000000
_cell_angle_beta 90.000000
_cell_angle_gamma 90.000000
_cell_volume 1802.220647
_symmetry_space_group_name_H-M "C 2 2 21"
_symmetry_group_IT_number 20
_symmetry_cell_setting 'orthorhombic'
loop_
_space_group_symop_operation_xyz
x,y,z
-x,-y,1/2+z
x,-y,-z
-x,y,1/2-z
1/2+x,1/2+y,z
1/2-x,1/2-y,1/2+z
1/2+x,1/2-y,-z
1/2-x,1/2+y,1/2-z
loop_
_atom_site_type_symbol
_atom_site_label
_atom_site_fract_x
_atom_site_fract_y
_atom_site_fract_z
Si Si1 0.376633 0.868249 0.823815
Si Si2 0.295608 0.000000 0.000000
Si Si3 0.440460 0.562416 0.250309
Si Si4 0.965869 0.500000 0.000000
Si Si5 0.235845 0.191059 0.972078
Si Si6 0.130780 0.239235 0.178720
O O1 0.387065 0.813552 0.549493
O O2 0.334121 0.953953 0.778095
O O3 0.431021 0.908339 0.916490
O O4 0.353950 0.799096 0.057462
O O5 0.259518 0.913881 0.114430
O O6 0.422358 0.500000 0.500000
O O7 0.500000 0.581903 0.250000
O O8 0.415037 0.668248 0.247855
O O9 0.422238 0.500000 0.000000
O O10 0.000000 0.467355 0.250000
O O11 0.232266 0.259638 0.712156
O O12 0.178889 0.176185 0.080375
#
# Coordination Sequence:
#
# PCOD8159995 Si02
#       6
#     8   4   8   4   8   8
#     4  11  25  42  69  94 136 180 219 281 353 407
#     4  11  24  46  66  96 142 182 216 287 358 394
#     4  10  23  43  66  95 133 174 220 279 348 406
#     4  11  24  44  66 102 134 172 230 281 344 422
#     4  12  25  44  67 101 136 178 230 276 339 426
#     4  12  23  44  66 101 131 174 234 279 333 426
#
# _framework density 22.194841
#
# number of rings (size 3 to 8) (size 9 to 14) (size 15 to 20)
#    0.000    0.800    4.000    2.400    1.400    7.200 
#    0.000    0.000    0.000    0.000    0.000    0.000 
#    0.000    0.000    0.000    0.000    0.000    0.000 
#
# Total GULP energy -248051.533307 kJ/mol
# GULP energy per Si atom -12402.576665 kJ/mol
# Density = 2.214432 g / cm^3
# Si number density = 22.194841 Si / 1000 Ang^3
#
#
#
# Elastic Constant Matrix: (Units=GPa)
#
#
# Indices 1 2 3 4 5 6 
#
# 1 88.3530 45.9559 22.4949 0.0000 0.0000 0.0000
# 2 45.9559 130.6824 49.7501 0.0000 0.0000 0.0000
# 3 22.4949 49.7501 139.6683 0.0000 0.0000 0.0000
# 4 0.0000 0.0000 0.0000 31.8360 0.0000 0.0000
# 5 0.0000 0.0000 0.0000 0.0000 38.1161 0.0000
# 6 0.0000 0.0000 0.0000 0.0000 0.0000 32.8929
#
#
#
# Elastic Compliance Matrix: (Units=1/GPa)
#
#
# Indices 1 2 3 4 5 6 
#
# 1 0.013892 -0.004666 -0.000575 0.000000 0.000000 0.000000
# 2 -0.004666 0.010420 -0.002960 0.000000 0.000000 0.000000
# 3 -0.000575 -0.002960 0.008307 0.000000 0.000000 0.000000
# 4 0.000000 0.000000 0.000000 0.031411 0.000000 0.000000
# 5 0.000000 0.000000 0.000000 0.000000 0.026236 0.000000
# 6 0.000000 0.000000 0.000000 0.000000 0.000000 0.030402
#
#
# Mechanical properties :
#
#
# Convention : Reuss Voigt Hill
#
# Bulk Modulus (GPa) = 61.66948 66.12284 63.89616
# Shear Modulus (GPa) = 35.09383 36.60251 35.84817
#
# Velocity S-wave (km/s) = 3.98071 4.06537 4.02326
# Velocity P-wave (km/s) = 6.99813 7.20368 7.10165
#
# Compressibility (1/GPa) = 0.01621548
#
# Stress axis : x y z
#
# Youngs Moduli (GPa) = 71.98502 95.96993 120.38244
#
# Poissons Ratio (x) = 0.44781 0.06926
# Poissons Ratio (y) = 0.33589 0.35634
# Poissons Ratio (z) = 0.04141 0.28408
#
# Static dielectric constant tensor:
#      x y z
#    x 4.035900 0.000000 0.000000 
#    y 0.000000 3.945080 0.000000 
#    z 0.000000 0.000000 3.991270 
# 
# 
# High freq. dielectric constant tensor:
#      x y z
#    x 1.888550 0.000000 0.000000 
#    y 0.000000 1.869080 0.000000 
#    z 0.000000 0.000000 1.875450 
# 
# From -- ./inp_files/4114.got.cif
#   From: 2010.03.12/outbox.cif.g09.slc.cpg/sg20_3_cif.got.tgz:4114.got - 2010.04.14 01:38:04.
