data_PCOD8159458
_publ_section_title
;
Structure prediction by ZEFSAII (Michael W. Deem and Ramdas Pophale) SiO2 
 PCOD8159458
Probable space group: C 2 2 21
;
_chemical_formula_sum "Si O2"
_cell_formula_units_Z 64
_cell_length_a 31.328611
_cell_length_b 7.939887
_cell_length_c 11.587756
_cell_angle_alpha 90.000000
_cell_angle_beta 90.000000
_cell_angle_gamma 90.000000
_cell_volume 2882.403680
_symmetry_space_group_name_H-M "C 2 2 21"
_symmetry_group_IT_number 20
_symmetry_cell_setting 'orthorhombic'
loop_
_space_group_symop_operation_xyz
x,y,z
-x,-y,1/2+z
x,-y,-z
-x,y,1/2-z
1/2+x,1/2+y,z
1/2-x,1/2-y,1/2+z
1/2+x,1/2-y,-z
1/2-x,1/2+y,1/2-z
loop_
_atom_site_type_symbol
_atom_site_label
_atom_site_fract_x
_atom_site_fract_y
_atom_site_fract_z
Si Si1 0.368670 0.193847 0.372095
Si Si2 0.048277 0.170519 0.286263
Si Si3 0.085619 0.821718 0.338123
Si Si4 0.879965 0.702948 0.633801
Si Si5 0.305586 0.789809 0.205339
Si Si6 0.174529 0.813413 0.464427
Si Si7 0.715228 0.165004 0.249760
Si Si8 0.974373 0.509457 0.127669
O O1 0.402059 0.299824 0.296140
O O2 0.373693 0.254019 0.502097
O O3 0.319977 0.240503 0.337714
O O4 0.380290 0.998463 0.351255
O O5 0.075678 0.213666 0.172500
O O6 0.052352 0.334587 0.368966
O O7 0.000000 0.132012 0.250000
O O8 0.065390 0.006898 0.354584
O O9 0.127415 0.803643 0.414624
O O10 0.053678 0.676291 0.377436
O O11 0.841849 0.785434 0.709863
O O12 0.263241 0.677364 0.204478
O O13 0.292909 0.969700 0.248984
O O14 0.324739 0.803220 0.077335
O O15 0.209962 0.748767 0.374929
O O16 0.187811 0.000000 0.500000
O O17 0.000000 0.513519 0.250000
O O18 0.998740 0.500000 0.000000
#
# Coordination Sequence:
#
# PCOD8159458 Si02
#       8
#     8   8   8   8   8   8   8   8
#     4   9  21  42  70  98 142 186 238 286 362 429
#     4  11  25  46  71 109 140 183 245 299 366 437
#     4  11  24  44  73 103 141 189 236 295 364 429
#     4  10  21  42  70  99 137 192 232 296 358 437
#     4  11  23  40  67  98 143 178 236 284 355 426
#     4  11  24  41  66  97 137 181 236 292 348 427
#     4  10  23  41  64 103 136 186 230 291 350 421
#     4  11  27  47  74 105 145 189 238 302 370 442
#
# _framework density 22.203690999999999
#
# number of rings (size 3 to 8) (size 9 to 14) (size 15 to 20)
#    0.000    1.500    1.250    2.250    5.250    3.500 
#    0.000    2.500    0.000    0.000    0.000    0.000 
#    0.000    0.000    0.000    0.000    0.000    0.000 
#
# Total GULP energy -396702.950031 kJ/mol
# GULP energy per Si atom -12396.967188 kJ/mol
# Density = 2.215315 g / cm^3
# Si number density = 22.203691 Si / 1000 Ang^3
#
#
#
# Elastic Constant Matrix: (Units=GPa)
#
#
# Indices 1 2 3 4 5 6 
#
# 1 119.8193 25.7035 61.3202 0.0000 0.0000 0.0000
# 2 25.7035 79.8111 23.7572 0.0000 0.0000 0.0000
# 3 61.3202 23.7572 165.8358 0.0000 0.0000 0.0000
# 4 0.0000 0.0000 0.0000 9.2496 0.0000 0.0000
# 5 0.0000 0.0000 0.0000 0.0000 24.2457 0.0000
# 6 0.0000 0.0000 0.0000 0.0000 0.0000 35.2392
#
#
#
# Elastic Compliance Matrix: (Units=1/GPa)
#
#
# Indices 1 2 3 4 5 6 
#
# 1 0.010707 -0.002371 -0.003619 0.000000 0.000000 0.000000
# 2 -0.002371 0.013613 -0.001073 0.000000 0.000000 0.000000
# 3 -0.003619 -0.001073 0.007522 0.000000 0.000000 0.000000
# 4 0.000000 0.000000 0.000000 0.108112 0.000000 0.000000
# 5 0.000000 0.000000 0.000000 0.000000 0.041244 0.000000
# 6 0.000000 0.000000 0.000000 0.000000 0.000000 0.028377
#
#
# Mechanical properties :
#
#
# Convention : Reuss Voigt Hill
#
# Bulk Modulus (GPa) = 56.45149 65.22534 60.83842
# Shear Modulus (GPa) = 21.77627 30.72593 26.25110
#
# Velocity S-wave (km/s) = 3.13509 3.72401 3.44217
# Velocity P-wave (km/s) = 6.21165 6.92320 6.57705
#
# Compressibility (1/GPa) = 0.01771432
#
# Stress axis : x y z
#
# Youngs Moduli (GPa) = 93.39889 73.46111 132.94068
#
# Poissons Ratio (x) = 0.17416 0.48116
# Poissons Ratio (y) = 0.22143 0.14271
# Poissons Ratio (z) = 0.33804 0.07886
#
# Static dielectric constant tensor:
#      x y z
#    x 4.389670 0.000000 0.000000 
#    y 0.000000 4.115090 0.000000 
#    z 0.000000 0.000000 4.359640 
# 
# 
# High freq. dielectric constant tensor:
#      x y z
#    x 1.869270 0.000000 0.000000 
#    y 0.000000 1.877740 0.000000 
#    z 0.000000 0.000000 1.883010 
# 
# From -- ./inp_files/17264.got.cif
#   From: 2010.03.12/outbox.cif.g09.slc.cpg/sg20_9_cif.got.tgz:17264.got - 2010.04.14 01:38:04.
