data_PCOD8159840
_publ_section_title
;
Structure prediction by ZEFSAII (Michael W. Deem and Ramdas Pophale) SiO2 
 PCOD8159840
Probable space group: C 2 2 21
;
_chemical_formula_sum "Si O2"
_cell_formula_units_Z 48
_cell_length_a 18.343198
_cell_length_b 14.483178
_cell_length_c 8.830788
_cell_angle_alpha 90.000000
_cell_angle_beta 90.000000
_cell_angle_gamma 90.000000
_cell_volume 2346.056035
_symmetry_space_group_name_H-M "C 2 2 21"
_symmetry_group_IT_number 20
_symmetry_cell_setting 'orthorhombic'
loop_
_space_group_symop_operation_xyz
x,y,z
-x,-y,1/2+z
x,-y,-z
-x,y,1/2-z
1/2+x,1/2+y,z
1/2-x,1/2-y,1/2+z
1/2+x,1/2-y,-z
1/2-x,1/2+y,1/2-z
loop_
_atom_site_type_symbol
_atom_site_label
_atom_site_fract_x
_atom_site_fract_y
_atom_site_fract_z
Si Si1 0.286122 0.977646 0.669885
Si Si2 0.553441 0.411634 0.110117
Si Si3 0.775767 0.193382 0.328433
Si Si4 0.560134 0.939769 0.127989
Si Si5 0.715580 0.636008 0.834468
Si Si6 0.062065 0.766025 0.873577
O O1 0.265838 0.872731 0.709955
O O2 0.258097 0.000000 0.500000
O O3 0.372014 0.998364 0.682563
O O4 0.248122 0.036531 0.799826
O O5 0.500000 0.433621 0.250000
O O6 0.629650 0.378449 0.178801
O O7 0.560717 0.500000 0.000000
O O8 0.526982 0.324377 0.011040
O O9 0.744809 0.294684 0.293908
O O10 0.756643 0.168954 0.501526
O O11 0.863738 0.187447 0.308726
O O12 0.500000 0.922480 0.250000
O O13 0.584279 0.837571 0.071556
O O14 0.520548 0.000000 0.000000
O O15 0.000000 0.763919 0.750000
#
# Coordination Sequence:
#
# PCOD8159840 Si02
#       6
#     8   8   8   8   8   8
#     4  11  23  41  65  94 128 171 210 268 327 385
#     4  11  25  43  66  95 132 172 219 269 327 393
#     4  11  23  40  66  93 133 168 218 268 321 396
#     4  10  23  42  64  90 128 168 214 265 324 384
#     4  11  23  42  62  98 128 171 217 271 326 385
#     4  10  22  44  66  94 133 170 211 273 325 381
#
# _framework density 20.459871
#
# number of rings (size 3 to 8) (size 9 to 14) (size 15 to 20)
#    0.000    1.333    1.667    4.000    7.000    5.333 
#    0.000    0.000    0.000    0.000    0.000    0.000 
#    0.000    0.000    0.000    0.000    0.000    0.000 
#
# Total GULP energy -297535.664292 kJ/mol
# GULP energy per Si atom -12397.319346 kJ/mol
# Density = 2.041330 g / cm^3
# Si number density = 20.459871 Si / 1000 Ang^3
#
#
#
# Elastic Constant Matrix: (Units=GPa)
#
#
# Indices 1 2 3 4 5 6 
#
# 1 66.9882 25.8332 41.8752 0.0000 0.0000 0.0000
# 2 25.8332 94.4311 25.3359 0.0000 0.0000 0.0000
# 3 41.8752 25.3359 93.1528 0.0000 0.0000 0.0000
# 4 0.0000 0.0000 0.0000 45.3479 0.0000 0.0000
# 5 0.0000 0.0000 0.0000 0.0000 27.1831 0.0000
# 6 0.0000 0.0000 0.0000 0.0000 0.0000 30.4939
#
#
#
# Elastic Compliance Matrix: (Units=1/GPa)
#
#
# Indices 1 2 3 4 5 6 
#
# 1 0.021843 -0.003604 -0.008839 0.000000 0.000000 0.000000
# 2 -0.003604 0.012018 -0.001649 0.000000 0.000000 0.000000
# 3 -0.008839 -0.001649 0.015157 0.000000 0.000000 0.000000
# 4 0.000000 0.000000 0.000000 0.022052 0.000000 0.000000
# 5 0.000000 0.000000 0.000000 0.000000 0.036788 0.000000
# 6 0.000000 0.000000 0.000000 0.000000 0.000000 0.032793
#
#
# Mechanical properties :
#
#
# Convention : Reuss Voigt Hill
#
# Bulk Modulus (GPa) = 47.99647 48.96228 48.47938
# Shear Modulus (GPa) = 28.44479 31.37349 29.90914
#
# Velocity S-wave (km/s) = 3.73268 3.92013 3.82755
# Velocity P-wave (km/s) = 6.48745 6.66879 6.57874
#
# Compressibility (1/GPa) = 0.02083487
#
# Stress axis : x y z
#
# Youngs Moduli (GPa) = 45.78071 83.20860 65.97675
#
# Poissons Ratio (x) = 0.29989 0.58317
# Poissons Ratio (y) = 0.16500 0.10876
# Poissons Ratio (z) = 0.40466 0.13717
#
# Static dielectric constant tensor:
#      x y z
#    x 3.547870 0.000000 0.000000 
#    y 0.000000 4.221490 0.000000 
#    z 0.000000 0.000000 3.830720 
# 
# 
# High freq. dielectric constant tensor:
#      x y z
#    x 1.795560 0.000000 0.000000 
#    y 0.000000 1.822390 0.000000 
#    z 0.000000 0.000000 1.796680 
# 
# From -- ./inp_files/9333.got.cif
#   From: 2010.03.12/outbox.cif.g09.slc.cpg/sg20_5_cif.got.tgz:9333.got - 2010.04.14 01:38:04.
