data_PCOD8159189
_publ_section_title
;
Structure prediction by ZEFSAII (Michael W. Deem and Ramdas Pophale) SiO2 
 PCOD8159189
Probable space group: C 2 2 21
;
_chemical_formula_sum "Si O2"
_cell_formula_units_Z 32
_cell_length_a 8.686754
_cell_length_b 35.331047
_cell_length_c 5.007988
_cell_angle_alpha 90.000000
_cell_angle_beta 90.000000
_cell_angle_gamma 90.000000
_cell_volume 1537.012183
_symmetry_space_group_name_H-M "C 2 2 21"
_symmetry_group_IT_number 20
_symmetry_cell_setting 'orthorhombic'
loop_
_space_group_symop_operation_xyz
x,y,z
-x,-y,1/2+z
x,-y,-z
-x,y,1/2-z
1/2+x,1/2+y,z
1/2-x,1/2-y,1/2+z
1/2+x,1/2-y,-z
1/2-x,1/2+y,1/2-z
loop_
_atom_site_type_symbol
_atom_site_label
_atom_site_fract_x
_atom_site_fract_y
_atom_site_fract_z
Si Si1 0.318262 0.849003 0.231831
Si Si2 0.818077 0.230810 0.737731
Si Si3 0.604616 0.456503 0.505267
Si Si4 0.179537 0.395079 0.775968
O O1 0.500000 0.841478 0.250000
O O2 0.229873 0.811195 0.148322
O O3 0.270288 0.861057 0.528838
O O4 0.267544 0.882057 0.020390
O O5 0.753953 0.260757 0.525683
O O6 0.000000 0.234673 0.750000
O O7 0.658550 0.500000 0.500000
O O8 0.500000 0.447031 0.750000
O O9 0.754884 0.432170 0.574877
O O10 0.500000 0.445454 0.250000
O O11 0.000000 0.402945 0.750000
#
# Coordination Sequence:
#
# PCOD8159189 Si02
#       4
#     8   8   8   8
#     4  10  21  38  60  87 120 155 196 248 301 353
#     4  12  25  42  64  91 122 160 203 248 301 358
#     4  10  21  38  59  85 119 158 198 244 297 352
#     4  10  21  38  60  87 118 155 198 246 298 351
#
# _framework density 20.819613
#
# number of rings (size 3 to 8) (size 9 to 14) (size 15 to 20)
#    0.000    1.500    0.000    5.250    0.000    5.000 
#    0.000    7.500    0.000    0.000    0.000    0.000 
#    0.000    0.000    0.000    0.000    0.000    0.000 
#
# Total GULP energy -198264.085333 kJ/mol
# GULP energy per Si atom -12391.505333 kJ/mol
# Density = 2.077223 g / cm^3
# Si number density = 20.819613 Si / 1000 Ang^3
#
#
#
# Elastic Constant Matrix: (Units=GPa)
#
#
# Indices 1 2 3 4 5 6 
#
# 1 95.3560 56.2969 52.8987 0.0000 0.0000 0.0000
# 2 56.2969 100.7095 35.6812 0.0000 0.0000 0.0000
# 3 52.8987 35.6812 139.3268 0.0000 0.0000 0.0000
# 4 0.0000 0.0000 0.0000 34.0746 0.0000 0.0000
# 5 0.0000 0.0000 0.0000 0.0000 33.1149 0.0000
# 6 0.0000 0.0000 0.0000 0.0000 0.0000 32.2743
#
#
#
# Elastic Compliance Matrix: (Units=1/GPa)
#
#
# Indices 1 2 3 4 5 6 
#
# 1 0.018079 -0.008440 -0.004702 0.000000 0.000000 0.000000
# 2 -0.008440 0.014861 -0.000601 0.000000 0.000000 0.000000
# 3 -0.004702 -0.000601 0.009117 0.000000 0.000000 0.000000
# 4 0.000000 0.000000 0.000000 0.029347 0.000000 0.000000
# 5 0.000000 0.000000 0.000000 0.000000 0.030198 0.000000
# 6 0.000000 0.000000 0.000000 0.000000 0.000000 0.030984
#
#
# Mechanical properties :
#
#
# Convention : Reuss Voigt Hill
#
# Bulk Modulus (GPa) = 68.64173 69.46065 69.05119
# Shear Modulus (GPa) = 30.31607 32.59378 31.45492
#
# Velocity S-wave (km/s) = 3.82007 3.96097 3.89116
# Velocity P-wave (km/s) = 7.24559 7.37256 7.30935
#
# Compressibility (1/GPa) = 0.01456840
#
# Stress axis : x y z
#
# Youngs Moduli (GPa) = 55.31432 67.29239 109.68772
#
# Poissons Ratio (x) = 0.56794 0.51581
# Poissons Ratio (y) = 0.46684 0.06596
# Poissons Ratio (z) = 0.26012 0.04047
#
# Static dielectric constant tensor:
#      x y z
#    x 3.592150 0.000000 0.000000 
#    y 0.000000 3.336820 0.000000 
#    z 0.000000 0.000000 4.122870 
# 
# 
# High freq. dielectric constant tensor:
#      x y z
#    x 1.804960 0.000000 0.000000 
#    y 0.000000 1.812690 0.000000 
#    z 0.000000 0.000000 1.839420 
# 
# From -- ./inp_files/572.got.cif
#   From: 2010.03.12/outbox.cif.g09.slc.cpg/sg20_1_cif.got.tgz:572.got - 2010.04.14 01:38:04.
