data_PCOD8159654
_publ_section_title
;
Structure prediction by ZEFSAII (Michael W. Deem and Ramdas Pophale) SiO2 
 PCOD8159654
Probable space group: C 2 2 21
;
_chemical_formula_sum "Si O2"
_cell_formula_units_Z 48
_cell_length_a 10.397846
_cell_length_b 15.296204
_cell_length_c 14.595602
_cell_angle_alpha 90.000000
_cell_angle_beta 90.000000
_cell_angle_gamma 90.000000
_cell_volume 2321.395083
_symmetry_space_group_name_H-M "C 2 2 21"
_symmetry_group_IT_number 20
_symmetry_cell_setting 'orthorhombic'
loop_
_space_group_symop_operation_xyz
x,y,z
-x,-y,1/2+z
x,-y,-z
-x,y,1/2-z
1/2+x,1/2+y,z
1/2-x,1/2-y,1/2+z
1/2+x,1/2-y,-z
1/2-x,1/2+y,1/2-z
loop_
_atom_site_type_symbol
_atom_site_label
_atom_site_fract_x
_atom_site_fract_y
_atom_site_fract_z
Si Si1 0.163865 0.813721 0.377739
Si Si2 0.859151 0.290535 0.213021
Si Si3 0.883543 0.001763 0.813148
Si Si4 0.514815 0.144148 0.357414
Si Si5 0.766359 0.857627 0.921989
Si Si6 0.132230 0.516640 0.695117
O O1 0.267120 0.787916 0.301126
O O2 0.085527 0.899675 0.345454
O O3 0.235130 0.836107 0.471367
O O4 0.067241 0.734466 0.399399
O O5 0.811684 0.223449 0.138261
O O6 0.853892 0.384171 0.159476
O O7 0.000000 0.267218 0.250000
O O8 0.752499 0.992996 0.757244
O O9 0.000000 0.968012 0.750000
O O10 0.863057 0.938225 0.900399
O O11 0.500000 0.162133 0.250000
O O12 0.380120 0.118005 0.401416
O O13 0.614036 0.062547 0.378450
O O14 0.000000 0.512395 0.750000
#
# Coordination Sequence:
#
# PCOD8159654 Si02
#       6
#     8   8   8   8   8   8
#     4  11  25  40  64 100 134 173 221 279 337 396
#     4  10  22  40  64  96 128 167 218 279 329 391
#     4  11  22  40  68  98 129 173 219 277 337 401
#     4  11  20  43  68  90 127 178 219 270 334 400
#     4  12  24  41  67  96 132 177 225 274 331 398
#     4   9  18  39  67  91 121 167 220 262 330 389
#
# _framework density 20.677220999999999
#
# number of rings (size 3 to 8) (size 9 to 14) (size 15 to 20)
#    0.000    1.333    5.000    1.500    4.667    0.000 
#    0.000    0.833    0.000    0.000    0.000    0.000 
#    0.000    0.000    0.000    0.000    0.000    0.000 
#
# Total GULP energy -297469.949417 kJ/mol
# GULP energy per Si atom -12394.581226 kJ/mol
# Density = 2.063016 g / cm^3
# Si number density = 20.677221 Si / 1000 Ang^3
#
#
#
# Elastic Constant Matrix: (Units=GPa)
#
#
# Indices 1 2 3 4 5 6 
#
# 1 86.0085 28.7068 21.1284 0.0000 0.0000 0.0000
# 2 28.7068 141.8369 24.5563 0.0000 0.0000 0.0000
# 3 21.1284 24.5563 65.3022 0.0000 0.0000 0.0000
# 4 0.0000 0.0000 0.0000 19.2506 0.0000 0.0000
# 5 0.0000 0.0000 0.0000 0.0000 17.2050 0.0000
# 6 0.0000 0.0000 0.0000 0.0000 0.0000 31.0006
#
#
#
# Elastic Compliance Matrix: (Units=1/GPa)
#
#
# Indices 1 2 3 4 5 6 
#
# 1 0.013171 -0.002062 -0.003486 0.000000 0.000000 0.000000
# 2 -0.002062 0.007864 -0.002290 0.000000 0.000000 0.000000
# 3 -0.003486 -0.002290 0.017302 0.000000 0.000000 0.000000
# 4 0.000000 0.000000 0.000000 0.051947 0.000000 0.000000
# 5 0.000000 0.000000 0.000000 0.000000 0.058123 0.000000
# 6 0.000000 0.000000 0.000000 0.000000 0.000000 0.032257
#
#
# Mechanical properties :
#
#
# Convention : Reuss Voigt Hill
#
# Bulk Modulus (GPa) = 44.12798 49.10342 46.61570
# Shear Modulus (GPa) = 24.52238 28.07496 26.29867
#
# Velocity S-wave (km/s) = 3.44751 3.68879 3.57019
# Velocity P-wave (km/s) = 6.10203 6.47627 6.29194
#
# Compressibility (1/GPa) = 0.02266136
#
# Stress axis : x y z
#
# Youngs Moduli (GPa) = 75.92178 127.15838 57.79519
#
# Poissons Ratio (x) = 0.26223 0.20148
# Poissons Ratio (y) = 0.15657 0.13235
# Poissons Ratio (z) = 0.26467 0.29120
#
# Static dielectric constant tensor:
#      x y z
#    x 3.665800 0.000000 0.000000 
#    y 0.000000 4.824140 0.000000 
#    z 0.000000 0.000000 3.483340 
# 
# 
# High freq. dielectric constant tensor:
#      x y z
#    x 1.808820 0.000000 0.000000 
#    y 0.000000 1.838440 0.000000 
#    z 0.000000 0.000000 1.774220 
# 
# From -- ./inp_files/23423.got.cif
#   From: 2010.03.12/outbox.cif.g09.slc.cpg/sg20_12_cif.got.tgz:23423.got - 2010.04.14 01:38:04.
