data_PCOD8159822
_publ_section_title
;
Structure prediction by ZEFSAII (Michael W. Deem and Ramdas Pophale) SiO2 
 PCOD8159822
Probable space group: C 2 2 21
;
_chemical_formula_sum "Si O2"
_cell_formula_units_Z 48
_cell_length_a 8.088797
_cell_length_b 12.462233
_cell_length_c 23.714526
_cell_angle_alpha 90.000000
_cell_angle_beta 90.000000
_cell_angle_gamma 90.000000
_cell_volume 2390.530294
_symmetry_space_group_name_H-M "C 2 2 21"
_symmetry_group_IT_number 20
_symmetry_cell_setting 'orthorhombic'
loop_
_space_group_symop_operation_xyz
x,y,z
-x,-y,1/2+z
x,-y,-z
-x,y,1/2-z
1/2+x,1/2+y,z
1/2-x,1/2-y,1/2+z
1/2+x,1/2-y,-z
1/2-x,1/2+y,1/2-z
loop_
_atom_site_type_symbol
_atom_site_label
_atom_site_fract_x
_atom_site_fract_y
_atom_site_fract_z
Si Si1 0.779028 0.000000 0.000000
Si Si2 0.121450 0.216509 0.848833
Si Si3 0.500000 0.169190 0.250000
Si Si4 0.507325 0.508231 0.387556
Si Si5 0.433711 0.197848 0.466603
Si Si6 0.794626 0.887485 0.531345
Si Si7 0.342889 0.640331 0.210048
O O1 0.665006 0.104559 0.002159
O O2 0.888378 0.983846 0.055983
O O3 0.129785 0.292479 0.903213
O O4 0.298499 0.242893 0.817907
O O5 0.977455 0.255732 0.805773
O O6 0.092924 0.094374 0.865038
O O7 0.673134 0.101601 0.242959
O O8 0.367008 0.593904 0.405760
O O9 0.620854 0.551897 0.337546
O O10 0.625412 0.174045 0.464932
O O11 0.421747 0.311601 0.498122
O O12 0.772781 0.000000 0.500000
O O13 0.500000 0.653417 0.250000
#
# Coordination Sequence:
#
# PCOD8159822 Si02
#       7
#     4   8   4   8   8   8   8
#     4  12  22  44  68 110 136 186 234 278 370 424
#     4  10  22  43  69  96 140 175 235 291 342 412
#     4   8  22  44  64  96 134 172 236 292 332 412
#     4  12  23  42  73 102 137 184 228 290 356 419
#     4  12  24  43  68  99 149 180 227 294 344 429
#     4  12  25  41  66 102 140 183 227 275 352 421
#     4  10  24  43  73  96 138 187 231 288 360 408
#
# _framework density 20.079225999999998
#
# number of rings (size 3 to 8) (size 9 to 14) (size 15 to 20)
#    1.000    0.000    5.000    2.000    3.500    0.000 
#    0.000    0.000    7.333    0.000    0.000    0.000 
#    0.000    0.000    0.000    0.000    0.000    0.000 
#
# Total GULP energy -297346.498164 kJ/mol
# GULP energy per Si atom -12389.437424 kJ/mol
# Density = 2.003353 g / cm^3
# Si number density = 20.079226 Si / 1000 Ang^3
#
#
#
# Elastic Constant Matrix: (Units=GPa)
#
#
# Indices 1 2 3 4 5 6 
#
# 1 154.9498 50.1800 62.8772 0.0000 0.0000 0.0000
# 2 50.1800 101.4165 57.3292 0.0000 0.0000 0.0000
# 3 62.8772 57.3292 135.3883 0.0000 0.0000 0.0000
# 4 0.0000 0.0000 0.0000 24.9222 0.0000 0.0000
# 5 0.0000 0.0000 0.0000 0.0000 33.9006 0.0000
# 6 0.0000 0.0000 0.0000 0.0000 0.0000 39.5730
#
#
#
# Elastic Compliance Matrix: (Units=1/GPa)
#
#
# Indices 1 2 3 4 5 6 
#
# 1 0.008435 -0.002576 -0.002827 0.000000 0.000000 0.000000
# 2 -0.002576 0.013750 -0.004626 0.000000 0.000000 0.000000
# 3 -0.002827 -0.004626 0.010658 0.000000 0.000000 0.000000
# 4 0.000000 0.000000 0.000000 0.040125 0.000000 0.000000
# 5 0.000000 0.000000 0.000000 0.000000 0.029498 0.000000
# 6 0.000000 0.000000 0.000000 0.000000 0.000000 0.025270
#
#
# Mechanical properties :
#
#
# Convention : Reuss Voigt Hill
#
# Bulk Modulus (GPa) = 78.21249 81.39192 79.80221
# Shear Modulus (GPa) = 32.88311 34.43703 33.66007
#
# Velocity S-wave (km/s) = 4.05120 4.14582 4.09878
# Velocity P-wave (km/s) = 7.80509 7.97123 7.88860
#
# Compressibility (1/GPa) = 0.01278568
#
# Stress axis : x y z
#
# Youngs Moduli (GPa) = 118.55568 72.72851 93.82772
#
# Poissons Ratio (x) = 0.18732 0.26522
# Poissons Ratio (y) = 0.30535 0.43405
# Poissons Ratio (z) = 0.33512 0.33645
#
# Static dielectric constant tensor:
#      x y z
#    x 3.707470 0.000000 0.000000 
#    y 0.000000 3.638820 0.000000 
#    z 0.000000 0.000000 3.396150 
# 
# 
# High freq. dielectric constant tensor:
#      x y z
#    x 1.786530 0.000000 0.000000 
#    y 0.000000 1.772090 0.000000 
#    z 0.000000 0.000000 1.794490 
# 
# From -- ./inp_files/28761.got.cif
#   From: 2010.03.12/outbox.cif.g09.slc.cpg/sg20_15_cif.got.tgz:28761.got - 2010.04.14 01:38:04.
