data_PCOD8159593
_publ_section_title
;
Structure prediction by ZEFSAII (Michael W. Deem and Ramdas Pophale) SiO2 
 PCOD8159593
Probable space group: C 2 2 21
;
_chemical_formula_sum "Si O2"
_cell_formula_units_Z 48
_cell_length_a 12.405367
_cell_length_b 12.459660
_cell_length_c 15.533798
_cell_angle_alpha 90.000000
_cell_angle_beta 90.000000
_cell_angle_gamma 90.000000
_cell_volume 2401.007196
_symmetry_space_group_name_H-M "C 2 2 21"
_symmetry_group_IT_number 20
_symmetry_cell_setting 'orthorhombic'
loop_
_space_group_symop_operation_xyz
x,y,z
-x,-y,1/2+z
x,-y,-z
-x,y,1/2-z
1/2+x,1/2+y,z
1/2-x,1/2-y,1/2+z
1/2+x,1/2-y,-z
1/2-x,1/2+y,1/2-z
loop_
_atom_site_type_symbol
_atom_site_label
_atom_site_fract_x
_atom_site_fract_y
_atom_site_fract_z
Si Si1 0.004095 0.675380 0.996690
Si Si2 0.335462 0.490003 0.157799
Si Si3 0.745320 0.580546 0.167838
Si Si4 0.427058 0.257748 0.167278
Si Si5 0.015779 0.833028 0.843813
Si Si6 0.683168 0.000000 0.000000
Si Si7 0.828488 0.500000 0.000000
O O1 0.897447 0.606287 0.999641
O O2 0.980089 0.753903 0.918162
O O3 0.008457 0.738310 0.087256
O O4 0.110456 0.604617 0.981882
O O5 0.273248 0.510804 0.246848
O O6 0.359367 0.364610 0.148856
O O7 0.446209 0.557375 0.152517
O O8 0.256589 0.525867 0.081718
O O9 0.847160 0.658080 0.182671
O O10 0.641457 0.648483 0.142595
O O11 0.759618 0.499598 0.087659
O O12 0.500000 0.275359 0.250000
O O13 0.000000 0.778456 0.750000
#
# Coordination Sequence:
#
# PCOD8159593 Si02
#       7
#     8   8   8   8   8   4   4
#     4  10  22  39  59  84 116 150 192 240 291 348
#     4  11  23  39  59  87 119 153 196 243 291 349
#     4  10  22  39  59  85 116 153 194 238 292 348
#     4  11  22  39  60  86 117 153 193 242 293 348
#     4  10  22  39  57  84 117 151 191 238 288 344
#     4  11  22  39  60  86 114 153 194 239 292 348
#     4   9  22  39  58  84 114 149 192 239 290 346
#
# _framework density 19.991610999999999
#
# number of rings (size 3 to 8) (size 9 to 14) (size 15 to 20)
#    0.000    1.667    0.000    4.500    0.000    8.667 
#    0.000    1.667    0.000    0.000    0.000    0.000 
#    0.000    0.000    0.000    0.000    0.000    0.000 
#
# Total GULP energy -297647.105758 kJ/mol
# GULP energy per Si atom -12401.962740 kJ/mol
# Density = 1.994611 g / cm^3
# Si number density = 19.991611 Si / 1000 Ang^3
#
#
#
# Elastic Constant Matrix: (Units=GPa)
#
#
# Indices 1 2 3 4 5 6 
#
# 1 73.1595 2.1296 34.8739 0.0000 0.0000 0.0000
# 2 2.1296 65.7156 35.8296 0.0000 0.0000 0.0000
# 3 34.8739 35.8296 156.5655 0.0000 0.0000 0.0000
# 4 0.0000 0.0000 0.0000 37.7288 0.0000 0.0000
# 5 0.0000 0.0000 0.0000 0.0000 38.1208 0.0000
# 6 0.0000 0.0000 0.0000 0.0000 0.0000 0.3269
#
#
#
# Elastic Compliance Matrix: (Units=1/GPa)
#
#
# Indices 1 2 3 4 5 6 
#
# 1 0.015433 0.001570 -0.003797 0.000000 0.000000 0.000000
# 2 0.001570 0.017546 -0.004365 0.000000 0.000000 0.000000
# 3 -0.003797 -0.004365 0.008232 0.000000 0.000000 0.000000
# 4 0.000000 0.000000 0.000000 0.026505 0.000000 0.000000
# 5 0.000000 0.000000 0.000000 0.000000 0.026232 0.000000
# 6 0.000000 0.000000 0.000000 0.000000 0.000000 3.058586
#
#
# Mechanical properties :
#
#
# Convention : Reuss Voigt Hill
#
# Bulk Modulus (GPa) = 35.67992 49.01188 42.34590
# Shear Modulus (GPa) = 1.57477 30.07580 15.82528
#
# Velocity S-wave (km/s) = 0.88850 3.88289 2.81658
# Velocity P-wave (km/s) = 4.35187 6.68371 5.63962
#
# Compressibility (1/GPa) = 0.02802697
#
# Stress axis : x y z
#
# Youngs Moduli (GPa) = 64.79633 56.99251 121.48037
#
# Poissons Ratio (x) = -0.08948 0.46125
# Poissons Ratio (y) = -0.10173 0.53028
# Poissons Ratio (z) = 0.24602 0.24878
#
# Static dielectric constant tensor:
#      x y z
#    x 3.624300 0.000000 0.000000 
#    y 0.000000 3.489570 0.000000 
#    z 0.000000 0.000000 4.125740 
# 
# 
# High freq. dielectric constant tensor:
#      x y z
#    x 1.787100 0.000000 0.000000 
#    y 0.000000 1.774700 0.000000 
#    z 0.000000 0.000000 1.802050 
# 
# From -- ./inp_files/19968.got.cif
#   From: 2010.03.12/outbox.cif.g09.slc.cpg/sg20_10_cif.got.tgz:19968.got - 2010.04.14 01:38:04.
