data_PCOD8159310
_publ_section_title
;
Structure prediction by ZEFSAII (Michael W. Deem and Ramdas Pophale) SiO2 
 PCOD8159310
Probable space group: C 2 2 21
;
_chemical_formula_sum "Si O2"
_cell_formula_units_Z 60
_cell_length_a 10.211336
_cell_length_b 8.823544
_cell_length_c 30.598350
_cell_angle_alpha 90.000000
_cell_angle_beta 90.000000
_cell_angle_gamma 90.000000
_cell_volume 2756.916613
_symmetry_space_group_name_H-M "C 2 2 21"
_symmetry_group_IT_number 20
_symmetry_cell_setting 'orthorhombic'
loop_
_space_group_symop_operation_xyz
x,y,z
-x,-y,1/2+z
x,-y,-z
-x,y,1/2-z
1/2+x,1/2+y,z
1/2-x,1/2-y,1/2+z
1/2+x,1/2-y,-z
1/2-x,1/2+y,1/2-z
loop_
_atom_site_type_symbol
_atom_site_label
_atom_site_fract_x
_atom_site_fract_y
_atom_site_fract_z
Si Si1 0.500000 0.423522 0.750000
Si Si2 0.824184 0.199312 0.744150
Si Si3 0.989554 0.765662 0.409217
Si Si4 0.304313 0.074557 0.046074
Si Si5 0.488323 0.572390 0.453296
Si Si6 0.421362 0.195094 0.812751
Si Si7 0.192285 0.727443 0.593665
Si Si8 0.965871 0.349698 0.816087
O O1 0.372299 0.529294 0.754974
O O2 0.520829 0.322520 0.794454
O O3 0.676874 0.187884 0.728497
O O4 0.838469 0.305154 0.787246
O O5 0.907844 0.272915 0.705118
O O6 0.839310 0.705894 0.412414
O O7 0.081693 0.696750 0.446961
O O8 0.054647 0.721404 0.363561
O O9 0.991314 0.945711 0.415438
O O10 0.157585 0.147207 0.045501
O O11 0.310167 0.951258 0.084688
O O12 0.334224 0.000000 0.000000
O O13 0.522136 0.500000 0.500000
O O14 0.596531 0.696053 0.441515
O O15 0.355438 0.254358 0.857054
O O16 0.486784 0.030941 0.819083
#
# Coordination Sequence:
#
# PCOD8159310 Si02
#       8
#     4   8   8   8   8   8   8   8
#     4  10  24  36  62  88 112 166 208 250 302 376
#     4  10  23  42  61  84 123 162 206 257 314 366
#     4  11  22  42  64  95 127 168 208 262 320 380
#     4  10  22  43  67  92 126 167 210 260 325 384
#     4  10  24  43  64  94 130 167 211 267 320 382
#     4  12  22  41  60  91 124 161 211 258 309 368
#     4  11  24  38  66  94 130 161 211 266 309 381
#     4  10  21  40  62  86 125 165 202 256 315 371
#
# _framework density 21.763442999999999
#
# number of rings (size 3 to 8) (size 9 to 14) (size 15 to 20)
#    0.000    1.600    2.667    2.400    3.733    1.600 
#    2.400    0.000    0.000    0.000    0.000    0.000 
#    0.000    0.000    0.000    0.000    0.000    0.000 
#
# Total GULP energy -371958.347078 kJ/mol
# GULP energy per Si atom -12398.611569 kJ/mol
# Density = 2.171391 g / cm^3
# Si number density = 21.763443 Si / 1000 Ang^3
#
#
#
# Elastic Constant Matrix: (Units=GPa)
#
#
# Indices 1 2 3 4 5 6 
#
# 1 65.6921 15.2805 17.4522 0.0000 0.0000 0.0000
# 2 15.2805 77.3306 10.2518 0.0000 0.0000 0.0000
# 3 17.4522 10.2518 80.7272 0.0000 0.0000 0.0000
# 4 0.0000 0.0000 0.0000 35.6450 0.0000 0.0000
# 5 0.0000 0.0000 0.0000 0.0000 33.4296 0.0000
# 6 0.0000 0.0000 0.0000 0.0000 0.0000 22.6433
#
#
#
# Elastic Compliance Matrix: (Units=1/GPa)
#
#
# Indices 1 2 3 4 5 6 
#
# 1 0.016758 -0.002879 -0.003257 0.000000 0.000000 0.000000
# 2 -0.002879 0.013648 -0.001111 0.000000 0.000000 0.000000
# 3 -0.003257 -0.001111 0.013233 0.000000 0.000000 0.000000
# 4 0.000000 0.000000 0.000000 0.028054 0.000000 0.000000
# 5 0.000000 0.000000 0.000000 0.000000 0.029914 0.000000
# 6 0.000000 0.000000 0.000000 0.000000 0.000000 0.044163
#
#
# Mechanical properties :
#
#
# Convention : Reuss Voigt Hill
#
# Bulk Modulus (GPa) = 34.31308 34.41321 34.36315
# Shear Modulus (GPa) = 29.41557 30.39463 29.90510
#
# Velocity S-wave (km/s) = 3.68041 3.74115 3.71090
# Velocity P-wave (km/s) = 5.81903 5.87438 5.84677
#
# Compressibility (1/GPa) = 0.02914340
#
# Stress axis : x y z
#
# Youngs Moduli (GPa) = 59.67435 73.27235 75.57102
#
# Poissons Ratio (x) = 0.21099 0.24614
# Poissons Ratio (y) = 0.17183 0.08393
# Poissons Ratio (z) = 0.19437 0.08138
#
# Static dielectric constant tensor:
#      x y z
#    x 3.871040 0.000000 0.000000 
#    y 0.000000 3.902560 0.000000 
#    z 0.000000 0.000000 3.918690 
# 
# 
# High freq. dielectric constant tensor:
#      x y z
#    x 1.848650 0.000000 0.000000 
#    y 0.000000 1.848610 0.000000 
#    z 0.000000 0.000000 1.863280 
# 
# From -- ./inp_files/31173.got.cif
#   From: 2010.03.12/outbox.cif.g09.slc.cpg/sg20_16_cif.got.tgz:31173.got - 2010.04.14 01:38:04.
