data_PCOD8159873
_publ_section_title
;
Structure prediction by ZEFSAII (Michael W. Deem and Ramdas Pophale) SiO2 
 PCOD8159873
Probable space group: C 2 2 21
;
_chemical_formula_sum "Si O2"
_cell_formula_units_Z 40
_cell_length_a 11.816867
_cell_length_b 8.007437
_cell_length_c 17.667175
_cell_angle_alpha 90.000000
_cell_angle_beta 90.000000
_cell_angle_gamma 90.000000
_cell_volume 1671.717885
_symmetry_space_group_name_H-M "C 2 2 21"
_symmetry_group_IT_number 20
_symmetry_cell_setting 'orthorhombic'
loop_
_space_group_symop_operation_xyz
x,y,z
-x,-y,1/2+z
x,-y,-z
-x,y,1/2-z
1/2+x,1/2+y,z
1/2-x,1/2-y,1/2+z
1/2+x,1/2-y,-z
1/2-x,1/2+y,1/2-z
loop_
_atom_site_type_symbol
_atom_site_label
_atom_site_fract_x
_atom_site_fract_y
_atom_site_fract_z
Si Si1 0.068475 0.714113 0.826090
Si Si2 0.399688 0.598245 0.078588
Si Si3 0.296168 0.712273 0.873024
Si Si4 0.203618 0.806636 0.022667
Si Si5 0.509140 0.910311 0.920346
O O1 0.201730 0.757478 0.809258
O O2 0.063203 0.524102 0.855476
O O3 0.000000 0.740448 0.750000
O O4 0.019484 0.835255 0.891565
O O5 0.351867 0.468233 0.140881
O O6 0.315616 0.757889 0.071727
O O7 0.420984 0.500000 0.000000
O O8 0.389119 0.853889 0.885464
O O9 0.215440 0.693341 0.947558
O O10 0.089667 0.751044 0.066569
O O11 0.201674 0.000000 0.000000
O O12 0.484996 0.000000 0.000000
#
# Coordination Sequence:
#
# PCOD8159873 Si02
#       5
#     8   8   8   8   8
#     4  12  27  47  70 103 151 188 234 296 363 428
#     4  10  22  45  70 103 144 183 242 301 344 427
#     4  11  24  41  69 103 136 183 232 291 356 414
#     4  11  22  38  73 110 137 178 238 299 349 406
#     4  12  23  45  71 103 142 182 240 295 347 420
#
# _framework density 23.927484
#
# number of rings (size 3 to 8) (size 9 to 14) (size 15 to 20)
#    0.000    0.800    4.000    4.800    2.800    2.400 
#    0.000    1.000    0.000    0.000    0.000    0.000 
#    0.000    0.000    0.000    0.000    0.000    0.000 
#
# Total GULP energy -247915.861747 kJ/mol
# GULP energy per Si atom -12395.793087 kJ/mol
# Density = 2.387302 g / cm^3
# Si number density = 23.927484 Si / 1000 Ang^3
#
#
#
# Elastic Constant Matrix: (Units=GPa)
#
#
# Indices 1 2 3 4 5 6 
#
# 1 145.8500 57.6898 7.5831 0.0000 0.0000 0.0000
# 2 57.6898 142.2602 20.5484 0.0000 0.0000 0.0000
# 3 7.5831 20.5484 36.2791 0.0000 0.0000 0.0000
# 4 0.0000 0.0000 0.0000 17.0936 0.0000 0.0000
# 5 0.0000 0.0000 0.0000 0.0000 27.1248 0.0000
# 6 0.0000 0.0000 0.0000 0.0000 0.0000 33.0045
#
#
#
# Elastic Compliance Matrix: (Units=1/GPa)
#
#
# Indices 1 2 3 4 5 6 
#
# 1 0.008167 -0.003339 0.000184 0.000000 0.000000 0.000000
# 2 -0.003339 0.009020 -0.004411 0.000000 0.000000 0.000000
# 3 0.000184 -0.004411 0.030024 0.000000 0.000000 0.000000
# 4 0.000000 0.000000 0.000000 0.058502 0.000000 0.000000
# 5 0.000000 0.000000 0.000000 0.000000 0.036867 0.000000
# 6 0.000000 0.000000 0.000000 0.000000 0.000000 0.030299
#
#
# Mechanical properties :
#
#
# Convention : Reuss Voigt Hill
#
# Bulk Modulus (GPa) = 31.17221 55.11465 43.14343
# Shear Modulus (GPa) = 25.16298 31.34910 28.25604
#
# Velocity S-wave (km/s) = 3.24641 3.62356 3.44016
# Velocity P-wave (km/s) = 5.20656 6.37110 5.81804
#
# Compressibility (1/GPa) = 0.03207985
#
# Stress axis : x y z
#
# Youngs Moduli (GPa) = 122.43854 110.85943 33.30643
#
# Poissons Ratio (x) = 0.37012 -0.00612
# Poissons Ratio (y) = 0.40877 0.14693
# Poissons Ratio (z) = -0.02251 0.48904
#
# Static dielectric constant tensor:
#      x y z
#    x 4.794190 0.000000 0.000000 
#    y 0.000000 4.325330 0.000000 
#    z 0.000000 0.000000 3.828960 
# 
# 
# High freq. dielectric constant tensor:
#      x y z
#    x 1.983160 0.000000 0.000000 
#    y 0.000000 1.954960 0.000000 
#    z 0.000000 0.000000 1.884590 
# 
# From -- ./inp_files/24086.got.cif
#   From: 2010.03.12/outbox.cif.g09.slc.cpg/sg20_13_cif.got.tgz:24086.got - 2010.04.14 01:38:04.
