data_PCOD8159537
_publ_section_title
;
Structure prediction by ZEFSAII (Michael W. Deem and Ramdas Pophale) SiO2 
 PCOD8159537
Probable space group: C 2 2 21
;
_chemical_formula_sum "Si O2"
_cell_formula_units_Z 48
_cell_length_a 9.782331
_cell_length_b 10.391891
_cell_length_c 22.599876
_cell_angle_alpha 90.000000
_cell_angle_beta 90.000000
_cell_angle_gamma 90.000000
_cell_volume 2297.433730
_symmetry_space_group_name_H-M "C 2 2 21"
_symmetry_group_IT_number 20
_symmetry_cell_setting 'orthorhombic'
loop_
_space_group_symop_operation_xyz
x,y,z
-x,-y,1/2+z
x,-y,-z
-x,y,1/2-z
1/2+x,1/2+y,z
1/2-x,1/2-y,1/2+z
1/2+x,1/2-y,-z
1/2-x,1/2+y,1/2-z
loop_
_atom_site_type_symbol
_atom_site_label
_atom_site_fract_x
_atom_site_fract_y
_atom_site_fract_z
Si Si1 0.362670 0.370147 0.390037
Si Si2 0.909161 0.730849 0.666119
Si Si3 0.211628 0.028987 0.217811
Si Si4 0.999257 0.000000 0.000000
Si Si5 0.643110 0.401478 0.336082
Si Si6 0.359246 0.342084 0.909174
Si Si7 0.000000 0.486629 0.250000
O O1 0.275905 0.460932 0.346262
O O2 0.402244 0.446892 0.449026
O O3 0.500776 0.334463 0.354170
O O4 0.276409 0.245029 0.408482
O O5 0.758936 0.696663 0.641477
O O6 0.006893 0.767185 0.612627
O O7 0.973170 0.605407 0.694867
O O8 0.888042 0.847768 0.713248
O O9 0.151112 0.927907 0.265498
O O10 0.365717 0.072758 0.236720
O O11 0.897467 0.889206 0.975193
O O12 0.667609 0.538023 0.366888
#
# Coordination Sequence:
#
# PCOD8159537 Si02
#       7
#     8   8   8   4   8   8   4
#     4  11  23  44  69  92 128 172 217 275 325 376
#     4  11  21  39  63  91 134 164 203 256 313 383
#     4  11  21  39  65  97 135 168 206 256 327 395
#     4  10  24  44  64  96 120 174 226 272 328 374
#     4  10  24  38  65 100 129 168 208 252 331 398
#     4  11  23  45  68  91 129 167 218 271 320 382
#     4  10  22  36  58 102 130 170 198 248 322 390
#
# _framework density 20.892876999999999
#
# number of rings (size 3 to 8) (size 9 to 14) (size 15 to 20)
#    0.000    1.333    5.000    1.500    2.333    5.333 
#    0.000    0.000    0.000    0.000    0.000    0.000 
#    0.000    0.000    0.000    0.000    0.000    0.000 
#
# Total GULP energy -297519.184817 kJ/mol
# GULP energy per Si atom -12396.632701 kJ/mol
# Density = 2.084532 g / cm^3
# Si number density = 20.892877 Si / 1000 Ang^3
#
#
#
# Elastic Constant Matrix: (Units=GPa)
#
#
# Indices 1 2 3 4 5 6 
#
# 1 149.3017 34.9426 43.2166 0.0000 0.0000 0.0000
# 2 34.9426 61.1489 19.3886 0.0000 0.0000 0.0000
# 3 43.2166 19.3886 111.2845 0.0000 0.0000 0.0000
# 4 0.0000 0.0000 0.0000 11.9661 0.0000 0.0000
# 5 0.0000 0.0000 0.0000 0.0000 15.0985 0.0000
# 6 0.0000 0.0000 0.0000 0.0000 0.0000 20.5272
#
#
#
# Elastic Compliance Matrix: (Units=1/GPa)
#
#
# Indices 1 2 3 4 5 6 
#
# 1 0.008367 -0.003970 -0.002558 0.000000 0.000000 0.000000
# 2 -0.003970 0.019194 -0.001802 0.000000 0.000000 0.000000
# 3 -0.002558 -0.001802 0.010293 0.000000 0.000000 0.000000
# 4 0.000000 0.000000 0.000000 0.083569 0.000000 0.000000
# 5 0.000000 0.000000 0.000000 0.000000 0.066232 0.000000
# 6 0.000000 0.000000 0.000000 0.000000 0.000000 0.048716
#
#
# Mechanical properties :
#
#
# Convention : Reuss Voigt Hill
#
# Bulk Modulus (GPa) = 47.18349 57.42564 52.30456
# Shear Modulus (GPa) = 19.22363 24.46419 21.84391
#
# Velocity S-wave (km/s) = 3.03661 3.42560 3.23696
# Velocity P-wave (km/s) = 5.90993 6.57204 6.24976
#
# Compressibility (1/GPa) = 0.02119385
#
# Stress axis : x y z
#
# Youngs Moduli (GPa) = 119.51088 52.10017 97.15138
#
# Poissons Ratio (x) = 0.20686 0.24848
# Poissons Ratio (y) = 0.47451 0.17508
# Poissons Ratio (z) = 0.30567 0.09389
#
# Static dielectric constant tensor:
#      x y z
#    x 4.129430 0.000000 0.000000 
#    y 0.000000 3.717020 0.000000 
#    z 0.000000 0.000000 3.796720 
# 
# 
# High freq. dielectric constant tensor:
#      x y z
#    x 1.834410 0.000000 0.000000 
#    y 0.000000 1.804520 0.000000 
#    z 0.000000 0.000000 1.804510 
# 
# From -- ./inp_files/28746.got.cif
#   From: 2010.03.12/outbox.cif.g09.slc.cpg/sg20_15_cif.got.tgz:28746.got - 2010.04.14 01:38:04.
