data_PCOD8159037
_publ_section_title
;
Structure prediction by ZEFSAII (Michael W. Deem and Ramdas Pophale) SiO2 
 PCOD8159037
Probable space group: C 2 2 21
;
_chemical_formula_sum "Si O2"
_cell_formula_units_Z 48
_cell_length_a 8.989819
_cell_length_b 17.789206
_cell_length_c 13.711503
_cell_angle_alpha 90.000000
_cell_angle_beta 90.000000
_cell_angle_gamma 90.000000
_cell_volume 2192.767446
_symmetry_space_group_name_H-M "C 2 2 21"
_symmetry_group_IT_number 20
_symmetry_cell_setting 'orthorhombic'
loop_
_space_group_symop_operation_xyz
x,y,z
-x,-y,1/2+z
x,-y,-z
-x,y,1/2-z
1/2+x,1/2+y,z
1/2-x,1/2-y,1/2+z
1/2+x,1/2-y,-z
1/2-x,1/2+y,1/2-z
loop_
_atom_site_type_symbol
_atom_site_label
_atom_site_fract_x
_atom_site_fract_y
_atom_site_fract_z
Si Si1 0.645798 0.562462 0.302088
Si Si2 0.633450 0.150433 0.315470
Si Si3 0.363791 0.323562 0.187386
Si Si4 0.651428 0.314787 0.536376
Si Si5 0.124594 0.434972 0.175638
Si Si6 0.016075 0.668230 0.989150
O O1 0.500000 0.526957 0.250000
O O2 0.720973 0.604477 0.211084
O O3 0.604701 0.620292 0.388413
O O4 0.755453 0.499962 0.348114
O O5 0.500000 0.119025 0.250000
O O6 0.665384 0.236871 0.290989
O O7 0.594879 0.138050 0.428185
O O8 0.500000 0.355144 0.250000
O O9 0.215260 0.365797 0.222937
O O10 0.395943 0.338947 0.072992
O O11 0.564297 0.238077 0.565770
O O12 0.830332 0.302007 0.538460
O O13 0.000000 0.464655 0.250000
O O14 0.045367 0.403943 0.078445
#
# Coordination Sequence:
#
# PCOD8159037 Si02
#       6
#     8   8   8   8   8   8
#     4  12  27  44  68  98 149 189 240 289 373 431
#     4  10  20  42  70 100 133 186 231 296 345 430
#     4   9  21  41  69  97 137 176 231 292 353 409
#     4  10  23  41  69 105 135 183 234 295 350 421
#     4  11  26  44  66  99 140 187 234 289 357 419
#     4  10  23  42  72 103 140 177 244 294 354 418
#
# _framework density 21.890146000000001
#
# number of rings (size 3 to 8) (size 9 to 14) (size 15 to 20)
#    0.000    1.667    1.667    1.000    9.333    2.667 
#    0.000    0.000    0.000    0.000    0.000    0.000 
#    0.000    0.000    0.000    0.000    0.000    0.000 
#
# Total GULP energy -297571.798538 kJ/mol
# GULP energy per Si atom -12398.824939 kJ/mol
# Density = 2.184032 g / cm^3
# Si number density = 21.890146 Si / 1000 Ang^3
#
#
#
# Elastic Constant Matrix: (Units=GPa)
#
#
# Indices 1 2 3 4 5 6 
#
# 1 86.4867 40.2306 42.4049 0.0000 0.0000 0.0000
# 2 40.2306 102.7868 50.5932 0.0000 0.0000 0.0000
# 3 42.4049 50.5932 85.7310 0.0000 0.0000 0.0000
# 4 0.0000 0.0000 0.0000 21.6407 0.0000 0.0000
# 5 0.0000 0.0000 0.0000 0.0000 41.6018 0.0000
# 6 0.0000 0.0000 0.0000 0.0000 0.0000 46.6328
#
#
#
# Elastic Compliance Matrix: (Units=1/GPa)
#
#
# Indices 1 2 3 4 5 6 
#
# 1 0.016041 -0.003344 -0.005960 0.000000 0.000000 0.000000
# 2 -0.003344 0.014409 -0.006849 0.000000 0.000000 0.000000
# 3 -0.005960 -0.006849 0.018655 0.000000 0.000000 0.000000
# 4 0.000000 0.000000 0.000000 0.046209 0.000000 0.000000
# 5 0.000000 0.000000 0.000000 0.000000 0.024037 0.000000
# 6 0.000000 0.000000 0.000000 0.000000 0.000000 0.021444
#
#
# Mechanical properties :
#
#
# Convention : Reuss Voigt Hill
#
# Bulk Modulus (GPa) = 59.53714 60.16242 59.84978
# Shear Modulus (GPa) = 27.97957 31.42678 29.70318
#
# Velocity S-wave (km/s) = 3.57904 3.79312 3.68764
# Velocity P-wave (km/s) = 6.65857 6.83572 6.74773
#
# Compressibility (1/GPa) = 0.01679624
#
# Stress axis : x y z
#
# Youngs Moduli (GPa) = 62.34170 69.40040 53.60631
#
# Poissons Ratio (x) = 0.23211 0.31952
# Poissons Ratio (y) = 0.20850 0.36716
# Poissons Ratio (z) = 0.37158 0.47533
#
# Static dielectric constant tensor:
#      x y z
#    x 4.137670 0.000000 0.000000 
#    y 0.000000 3.905340 0.000000 
#    z 0.000000 0.000000 3.858110 
# 
# 
# High freq. dielectric constant tensor:
#      x y z
#    x 1.864600 0.000000 0.000000 
#    y 0.000000 1.855880 0.000000 
#    z 0.000000 0.000000 1.852350 
# 
# From -- ./inp_files/18901.got.cif
#   From: 2010.03.12/outbox.cif.g09.slc.cpg/sg20_10_cif.got.tgz:18901.got - 2010.04.14 01:38:04.
