data_PCOD8159130
_publ_section_title
;
Structure prediction by ZEFSAII (Michael W. Deem and Ramdas Pophale) SiO2 
 PCOD8159130
Probable space group: C 2 2 21
;
_chemical_formula_sum "Si O2"
_cell_formula_units_Z 64
_cell_length_a 19.348428
_cell_length_b 11.568443
_cell_length_c 13.732308
_cell_angle_alpha 90.000000
_cell_angle_beta 90.000000
_cell_angle_gamma 90.000000
_cell_volume 3073.718792
_symmetry_space_group_name_H-M "C 2 2 21"
_symmetry_group_IT_number 20
_symmetry_cell_setting 'orthorhombic'
loop_
_space_group_symop_operation_xyz
x,y,z
-x,-y,1/2+z
x,-y,-z
-x,y,1/2-z
1/2+x,1/2+y,z
1/2-x,1/2-y,1/2+z
1/2+x,1/2-y,-z
1/2-x,1/2+y,1/2-z
loop_
_atom_site_type_symbol
_atom_site_label
_atom_site_fract_x
_atom_site_fract_y
_atom_site_fract_z
Si Si1 0.557456 0.718464 0.811028
Si Si2 0.339135 0.872200 0.476510
Si Si3 0.936147 0.695402 0.811677
Si Si4 0.308662 0.278851 0.703255
Si Si5 0.504730 0.164289 0.011670
Si Si6 0.795898 0.209868 0.654384
Si Si7 0.738268 0.976659 0.611299
Si Si8 0.912627 0.435225 0.827049
O O1 0.500000 0.647265 0.750000
O O2 0.525776 0.729129 0.918797
O O3 0.630575 0.654662 0.813189
O O4 0.569478 0.844528 0.758552
O O5 0.312631 0.828913 0.371658
O O6 0.422544 0.883128 0.470760
O O7 0.309207 0.784502 0.557433
O O8 0.309488 0.000000 0.500000
O O9 0.871393 0.775310 0.780786
O O10 0.921168 0.562587 0.782716
O O11 0.000000 0.742833 0.750000
O O12 0.953712 0.708369 0.926399
O O13 0.236249 0.288196 0.761453
O O14 0.304192 0.398926 0.643727
O O15 0.464011 0.072221 0.079492
O O16 0.740991 0.105969 0.653476
O O17 0.665309 0.916932 0.635105
O O18 0.749037 0.000000 0.500000
#
# Coordination Sequence:
#
# PCOD8159130 Si02
#       8
#     8   8   8   8   8   8   8   8
#     4   9  20  39  63  91 120 165 215 269 330 393
#     4  11  24  41  66  99 132 167 212 269 341 399
#     4  12  22  35  58  94 129 164 208 265 338 387
#     4  12  26  41  63  94 134 176 213 274 322 401
#     4  10  21  36  61  96 133 162 201 275 346 395
#     4  11  24  42  66  91 131 174 217 269 331 396
#     4  12  24  43  61  92 135 179 226 263 326 400
#     4  11  21  35  62  97 131 160 210 276 337 403
#
# _framework density 20.821681999999999
#
# number of rings (size 3 to 8) (size 9 to 14) (size 15 to 20)
#    0.000    1.000    5.000    3.000    5.250    0.000 
#    0.000    0.625    0.000    0.000    0.000    0.000 
#    0.000    0.000    0.000    0.000    0.000    0.000 
#
# Total GULP energy -396526.346954 kJ/mol
# GULP energy per Si atom -12391.448342 kJ/mol
# Density = 2.077429 g / cm^3
# Si number density = 20.821682 Si / 1000 Ang^3
#
#
#
# Elastic Constant Matrix: (Units=GPa)
#
#
# Indices 1 2 3 4 5 6 
#
# 1 110.0172 25.4252 51.2090 0.0000 0.0000 0.0000
# 2 25.4252 55.6936 21.8832 0.0000 0.0000 0.0000
# 3 51.2090 21.8832 121.5461 0.0000 0.0000 0.0000
# 4 0.0000 0.0000 0.0000 15.5607 0.0000 0.0000
# 5 0.0000 0.0000 0.0000 0.0000 48.0219 0.0000
# 6 0.0000 0.0000 0.0000 0.0000 0.0000 28.7825
#
#
#
# Elastic Compliance Matrix: (Units=1/GPa)
#
#
# Indices 1 2 3 4 5 6 
#
# 1 0.011995 -0.003756 -0.004377 0.000000 0.000000 0.000000
# 2 -0.003756 0.020498 -0.002108 0.000000 0.000000 0.000000
# 3 -0.004377 -0.002108 0.010451 0.000000 0.000000 0.000000
# 4 0.000000 0.000000 0.000000 0.064264 0.000000 0.000000
# 5 0.000000 0.000000 0.000000 0.000000 0.020824 0.000000
# 6 0.000000 0.000000 0.000000 0.000000 0.000000 0.034743
#
#
# Mechanical properties :
#
#
# Convention : Reuss Voigt Hill
#
# Bulk Modulus (GPa) = 44.52055 53.81019 49.16537
# Shear Modulus (GPa) = 26.21284 31.05566 28.63425
#
# Velocity S-wave (km/s) = 3.55198 3.86619 3.71241
# Velocity P-wave (km/s) = 6.18468 6.76974 6.48381
#
# Compressibility (1/GPa) = 0.02246154
#
# Stress axis : x y z
#
# Youngs Moduli (GPa) = 83.36776 48.78437 95.68328
#
# Poissons Ratio (x) = 0.18323 0.41885
# Poissons Ratio (y) = 0.31313 0.20171
# Poissons Ratio (z) = 0.36494 0.10284
#
# Static dielectric constant tensor:
#      x y z
#    x 4.052690 0.000000 0.000000 
#    y 0.000000 3.003510 0.000000 
#    z 0.000000 0.000000 3.935920 
# 
# 
# High freq. dielectric constant tensor:
#      x y z
#    x 1.828320 0.000000 0.000000 
#    y 0.000000 1.764770 0.000000 
#    z 0.000000 0.000000 1.833040 
# 
# From -- ./inp_files/21520.got.cif
#   From: 2010.03.12/outbox.cif.g09.slc.cpg/sg20_11_cif.got.tgz:21520.got - 2010.04.14 01:38:04.
