data_PCOD8159228
_publ_section_title
;
Structure prediction by ZEFSAII (Michael W. Deem and Ramdas Pophale) SiO2 
 PCOD8159228
Probable space group: C 2 2 21
;
_chemical_formula_sum "Si O2"
_cell_formula_units_Z 40
_cell_length_a 18.535519
_cell_length_b 10.129025
_cell_length_c 10.086800
_cell_angle_alpha 90.000000
_cell_angle_beta 90.000000
_cell_angle_gamma 90.000000
_cell_volume 1893.763770
_symmetry_space_group_name_H-M "C 2 2 21"
_symmetry_group_IT_number 20
_symmetry_cell_setting 'orthorhombic'
loop_
_space_group_symop_operation_xyz
x,y,z
-x,-y,1/2+z
x,-y,-z
-x,y,1/2-z
1/2+x,1/2+y,z
1/2-x,1/2-y,1/2+z
1/2+x,1/2-y,-z
1/2-x,1/2+y,1/2-z
loop_
_atom_site_type_symbol
_atom_site_label
_atom_site_fract_x
_atom_site_fract_y
_atom_site_fract_z
Si Si1 0.577788 0.440828 0.793819
Si Si2 0.915403 0.204564 0.545895
Si Si3 0.961712 0.394260 0.886007
Si Si4 0.317990 0.195760 0.243651
Si Si5 0.213985 0.982862 0.347578
O O1 0.500000 0.388509 0.750000
O O2 0.567318 0.579041 0.865208
O O3 0.632996 0.460191 0.672481
O O4 0.608314 0.332706 0.897240
O O5 0.848943 0.285129 0.607825
O O6 0.989646 0.283517 0.546472
O O7 0.883163 0.335109 0.856327
O O8 0.000000 0.447628 0.750000
O O9 0.951347 0.500000 0.000000
O O10 0.264909 0.070567 0.251667
O O11 0.278237 0.329700 0.195298
O O12 0.235649 0.000000 0.500000
#
# Coordination Sequence:
#
# PCOD8159228 Si02
#       5
#     8   8   8   8   8
#     4  10  21  38  67  95 122 168 219 273 335 404
#     4   9  20  41  64  92 131 164 215 275 336 396
#     4  10  22  43  68  99 136 177 225 287 347 412
#     4  10  24  45  66  93 137 178 221 283 339 407
#     4  11  26  44  66  97 135 179 228 283 345 410
#
# _framework density 21.121959
#
# number of rings (size 3 to 8) (size 9 to 14) (size 15 to 20)
#    0.000    2.000    0.000    3.000    8.400    5.600 
#    3.600    0.000    0.000    0.000    0.000    0.000 
#    0.000    0.000    0.000    0.000    0.000    0.000 
#
# Total GULP energy -247950.551851 kJ/mol
# GULP energy per Si atom -12397.527593 kJ/mol
# Density = 2.107388 g / cm^3
# Si number density = 21.121959 Si / 1000 Ang^3
#
#
#
# Elastic Constant Matrix: (Units=GPa)
#
#
# Indices 1 2 3 4 5 6 
#
# 1 71.6031 57.0873 5.7491 0.0000 0.0000 0.0000
# 2 57.0873 127.9318 48.7709 0.0000 0.0000 0.0000
# 3 5.7491 48.7709 72.9286 0.0000 0.0000 0.0000
# 4 0.0000 0.0000 0.0000 9.6826 0.0000 0.0000
# 5 0.0000 0.0000 0.0000 0.0000 21.2552 0.0000
# 6 0.0000 0.0000 0.0000 0.0000 0.0000 30.6698
#
#
#
# Elastic Compliance Matrix: (Units=1/GPa)
#
#
# Indices 1 2 3 4 5 6 
#
# 1 0.024149 -0.013489 0.007117 0.000000 0.000000 0.000000
# 2 -0.013489 0.018026 -0.010992 0.000000 0.000000 0.000000
# 3 0.007117 -0.010992 0.020502 0.000000 0.000000 0.000000
# 4 0.000000 0.000000 0.000000 0.103278 0.000000 0.000000
# 5 0.000000 0.000000 0.000000 0.000000 0.047047 0.000000
# 6 0.000000 0.000000 0.000000 0.000000 0.000000 0.032605
#
#
# Mechanical properties :
#
#
# Convention : Reuss Voigt Hill
#
# Bulk Modulus (GPa) = 35.77877 55.07537 45.42707
# Shear Modulus (GPa) = 17.26208 23.04527 20.15367
#
# Velocity S-wave (km/s) = 2.86187 3.30670 3.09229
# Velocity P-wave (km/s) = 5.28170 6.38048 5.85691
#
# Compressibility (1/GPa) = 0.02794954
#
# Stress axis : x y z
#
# Youngs Moduli (GPa) = 41.40925 55.47412 48.77649
#
# Poissons Ratio (x) = 0.74832 -0.34716
# Poissons Ratio (y) = 0.55859 0.53614
# Poissons Ratio (z) = -0.29472 0.60976
#
# Static dielectric constant tensor:
#      x y z
#    x 3.778900 0.000000 0.000000 
#    y 0.000000 3.857690 0.000000 
#    z 0.000000 0.000000 3.963450 
# 
# 
# High freq. dielectric constant tensor:
#      x y z
#    x 1.825970 0.000000 0.000000 
#    y 0.000000 1.825040 0.000000 
#    z 0.000000 0.000000 1.825530 
# 
# From -- ./inp_files/15551.got.cif
#   From: 2010.03.12/outbox.cif.g09.slc.cpg/sg20_8_cif.got.tgz:15551.got - 2010.04.14 01:38:04.
