data_PCOD8159146
_publ_section_title
;
Structure prediction by ZEFSAII (Michael W. Deem and Ramdas Pophale) SiO2 
 PCOD8159146
Probable space group: C 2 2 21
;
_chemical_formula_sum "Si O2"
_cell_formula_units_Z 32
_cell_length_a 4.961822
_cell_length_b 34.843322
_cell_length_c 8.661816
_cell_angle_alpha 90.000000
_cell_angle_beta 90.000000
_cell_angle_gamma 90.000000
_cell_volume 1497.509854
_symmetry_space_group_name_H-M "C 2 2 21"
_symmetry_group_IT_number 20
_symmetry_cell_setting 'orthorhombic'
loop_
_space_group_symop_operation_xyz
x,y,z
-x,-y,1/2+z
x,-y,-z
-x,y,1/2-z
1/2+x,1/2+y,z
1/2-x,1/2-y,1/2+z
1/2+x,1/2-y,-z
1/2-x,1/2+y,1/2-z
loop_
_atom_site_type_symbol
_atom_site_label
_atom_site_fract_x
_atom_site_fract_y
_atom_site_fract_z
Si Si1 0.530971 0.413305 0.068586
Si Si2 0.611416 0.736078 0.083790
Si Si3 0.976375 0.540623 0.567667
Si Si4 0.255928 0.650457 0.356941
O O1 0.500000 0.406974 0.250000
O O2 0.235435 0.426421 0.009881
O O3 0.726346 0.447694 0.012930
O O4 0.680395 0.375270 0.006074
O O5 0.500000 0.749512 0.250000
O O6 0.748647 0.694391 0.087767
O O7 0.353584 0.735809 0.968856
O O8 0.887150 0.500000 0.500000
O O9 0.000000 0.537420 0.750000
O O10 0.500000 0.640947 0.250000
O O11 0.000000 0.640570 0.250000
#
# Coordination Sequence:
#
# PCOD8159146 Si02
#       4
#     8   8   8   8
#     4  10  22  39  59  86 120 157 202 250 302 364
#     4  11  23  41  63  91 125 162 205 254 307 367
#     4  10  21  37  57  84 118 156 200 251 301 359
#     4  11  23  41  62  89 122 157 200 253 303 360
#
# _framework density 21.368808999999999
#
# number of rings (size 3 to 8) (size 9 to 14) (size 15 to 20)
#    0.000    1.500    0.000    6.000    0.000    5.000 
#    0.000    2.500    0.000    0.000    0.000    0.000 
#    0.000    0.000    0.000    0.000    0.000    0.000 
#
# Total GULP energy -198215.196672 kJ/mol
# GULP energy per Si atom -12388.449792 kJ/mol
# Density = 2.132017 g / cm^3
# Si number density = 21.368809 Si / 1000 Ang^3
#
#
#
# Elastic Constant Matrix: (Units=GPa)
#
#
# Indices 1 2 3 4 5 6 
#
# 1 152.3233 44.9514 46.9223 0.0000 0.0000 0.0000
# 2 44.9514 74.9583 53.8549 0.0000 0.0000 0.0000
# 3 46.9223 53.8549 60.1664 0.0000 0.0000 0.0000
# 4 0.0000 0.0000 0.0000 32.1969 0.0000 0.0000
# 5 0.0000 0.0000 0.0000 0.0000 37.4274 0.0000
# 6 0.0000 0.0000 0.0000 0.0000 0.0000 34.4819
#
#
#
# Elastic Compliance Matrix: (Units=1/GPa)
#
#
# Indices 1 2 3 4 5 6 
#
# 1 0.008665 -0.000956 -0.005902 0.000000 0.000000 0.000000
# 2 -0.000956 0.037485 -0.032807 0.000000 0.000000 0.000000
# 3 -0.005902 -0.032807 0.050589 0.000000 0.000000 0.000000
# 4 0.000000 0.000000 0.000000 0.031059 0.000000 0.000000
# 5 0.000000 0.000000 0.000000 0.000000 0.026718 0.000000
# 6 0.000000 0.000000 0.000000 0.000000 0.000000 0.029001
#
#
# Mechanical properties :
#
#
# Convention : Reuss Voigt Hill
#
# Bulk Modulus (GPa) = 57.44225 64.32278 60.88252
# Shear Modulus (GPa) = 18.61160 30.26921 24.44041
#
# Velocity S-wave (km/s) = 2.95442 3.76774 3.38559
# Velocity P-wave (km/s) = 6.21111 7.00674 6.62089
#
# Compressibility (1/GPa) = 0.01740879
#
# Stress axis : x y z
#
# Youngs Moduli (GPa) = 115.40420 26.67762 19.76717
#
# Poissons Ratio (x) = 0.02550 0.11667
# Poissons Ratio (y) = 0.11032 0.64850
# Poissons Ratio (z) = 0.68113 0.87521
#
# Static dielectric constant tensor:
#      x y z
#    x 4.224630 0.000000 0.000000 
#    y 0.000000 3.905510 0.000000 
#    z 0.000000 0.000000 3.815210 
# 
# 
# High freq. dielectric constant tensor:
#      x y z
#    x 1.866090 0.000000 0.000000 
#    y 0.000000 1.826360 0.000000 
#    z 0.000000 0.000000 1.830370 
# 
# From -- ./inp_files/5243.got.cif
#   From: 2010.03.12/outbox.cif.g09.slc.cpg/sg20_3_cif.got.tgz:5243.got - 2010.04.14 01:38:04.
