data_PCOD8159366
_publ_section_title
;
Structure prediction by ZEFSAII (Michael W. Deem and Ramdas Pophale) SiO2 
 PCOD8159366
Probable space group: C 2 2 21
;
_chemical_formula_sum "Si O2"
_cell_formula_units_Z 60
_cell_length_a 31.550425
_cell_length_b 11.588393
_cell_length_c 8.425522
_cell_angle_alpha 90.000000
_cell_angle_beta 90.000000
_cell_angle_gamma 90.000000
_cell_volume 3080.528605
_symmetry_space_group_name_H-M "C 2 2 21"
_symmetry_group_IT_number 20
_symmetry_cell_setting 'orthorhombic'
loop_
_space_group_symop_operation_xyz
x,y,z
-x,-y,1/2+z
x,-y,-z
-x,y,1/2-z
1/2+x,1/2+y,z
1/2-x,1/2-y,1/2+z
1/2+x,1/2-y,-z
1/2-x,1/2+y,1/2-z
loop_
_atom_site_type_symbol
_atom_site_label
_atom_site_fract_x
_atom_site_fract_y
_atom_site_fract_z
Si Si1 0.384262 0.636318 0.988764
Si Si2 0.786257 0.686834 0.750836
Si Si3 0.202427 0.763101 0.404140
Si Si4 0.407673 0.500000 0.500000
Si Si5 0.133863 0.207700 0.162851
Si Si6 0.338107 0.035307 0.178150
Si Si7 0.591872 0.115594 0.073388
Si Si8 0.950743 0.821445 0.272712
O O1 0.383434 0.705736 0.155258
O O2 0.388655 0.500000 0.000000
O O3 0.340762 0.662846 0.894857
O O4 0.424763 0.682290 0.891667
O O5 0.739689 0.666574 0.681548
O O6 0.815165 0.779234 0.655412
O O7 0.812742 0.569062 0.743964
O O8 0.780147 0.739755 0.922550
O O9 0.194848 0.640264 0.322497
O O10 0.376503 0.414667 0.589467
O O11 0.436461 0.430316 0.377356
O O12 0.114504 0.315155 0.068355
O O13 0.377134 0.074688 0.286207
O O14 0.353777 0.000000 0.000000
O O15 0.555600 0.198728 0.141295
O O16 0.570891 0.000000 0.000000
O O17 0.000000 0.840093 0.250000
#
# Coordination Sequence:
#
# PCOD8159366 Si02
#       8
#     8   8   8   4   8   8   8   8
#     4  11  22  43  65  91 132 173 215 267 338 394
#     4  10  22  37  59  91 126 166 226 259 321 381
#     4  10  23  38  58  91 126 167 220 270 316 389
#     4  10  22  40  64  94 132 164 214 266 330 390
#     4  10  22  39  61  97 124 176 216 258 322 392
#     4  10  21  41  61  87 123 180 214 263 328 387
#     4  11  22  41  69  92 129 167 222 265 328 394
#     4  11  25  43  69  99 129 168 215 273 339 403
#
# _framework density 19.477177999999999
#
# number of rings (size 3 to 8) (size 9 to 14) (size 15 to 20)
#    0.000    1.600    4.000    0.000    2.800    2.133 
#    3.600    4.000    0.000    0.000    0.000    0.000 
#    0.000    0.000    0.000    0.000    0.000    0.000 
#
# Total GULP energy -371897.798010 kJ/mol
# GULP energy per Si atom -12396.593267 kJ/mol
# Density = 1.943285 g / cm^3
# Si number density = 19.477178 Si / 1000 Ang^3
#
#
#
# Elastic Constant Matrix: (Units=GPa)
#
#
# Indices 1 2 3 4 5 6 
#
# 1 97.3586 32.2653 48.0790 0.0000 0.0000 0.0000
# 2 32.2653 114.2099 40.4181 0.0000 0.0000 0.0000
# 3 48.0790 40.4181 86.9181 0.0000 0.0000 0.0000
# 4 0.0000 0.0000 0.0000 25.0363 0.0000 0.0000
# 5 0.0000 0.0000 0.0000 0.0000 21.8963 0.0000
# 6 0.0000 0.0000 0.0000 0.0000 0.0000 31.2150
#
#
#
# Elastic Compliance Matrix: (Units=1/GPa)
#
#
# Indices 1 2 3 4 5 6 
#
# 1 0.014340 -0.001489 -0.007240 0.000000 0.000000 0.000000
# 2 -0.001489 0.010635 -0.004122 0.000000 0.000000 0.000000
# 3 -0.007240 -0.004122 0.017426 0.000000 0.000000 0.000000
# 4 0.000000 0.000000 0.000000 0.039942 0.000000 0.000000
# 5 0.000000 0.000000 0.000000 0.000000 0.045670 0.000000
# 6 0.000000 0.000000 0.000000 0.000000 0.000000 0.032036
#
#
# Mechanical properties :
#
#
# Convention : Reuss Voigt Hill
#
# Bulk Modulus (GPa) = 59.87898 60.00124 59.94011
# Shear Modulus (GPa) = 26.13455 27.47779 26.80617
#
# Velocity S-wave (km/s) = 3.66704 3.76009 3.71386
# Velocity P-wave (km/s) = 6.98136 7.05152 7.01653
#
# Compressibility (1/GPa) = 0.01670035
#
# Stress axis : x y z
#
# Youngs Moduli (GPa) = 69.73470 94.02774 57.38387
#
# Poissons Ratio (x) = 0.14001 0.41545
# Poissons Ratio (y) = 0.10384 0.23653
# Poissons Ratio (z) = 0.50487 0.38756
#
# Static dielectric constant tensor:
#      x y z
#    x 3.285630 0.000000 0.000000 
#    y 0.000000 4.070150 0.000000 
#    z 0.000000 0.000000 3.683210 
# 
# 
# High freq. dielectric constant tensor:
#      x y z
#    x 1.733520 0.000000 0.000000 
#    y 0.000000 1.774310 0.000000 
#    z 0.000000 0.000000 1.770590 
# 
# From -- ./inp_files/11142.got.cif
#   From: 2010.03.12/outbox.cif.g09.slc.cpg/sg20_6_cif.got.tgz:11142.got - 2010.04.14 01:38:04.
