data_PCOD8159801
_publ_section_title
;
Structure prediction by ZEFSAII (Michael W. Deem and Ramdas Pophale) SiO2 
 PCOD8159801
Probable space group: C 2 2 21
;
_chemical_formula_sum "Si O2"
_cell_formula_units_Z 48
_cell_length_a 9.932788
_cell_length_b 9.518652
_cell_length_c 24.826310
_cell_angle_alpha 90.000000
_cell_angle_beta 90.000000
_cell_angle_gamma 90.000000
_cell_volume 2347.246984
_symmetry_space_group_name_H-M "C 2 2 21"
_symmetry_group_IT_number 20
_symmetry_cell_setting 'orthorhombic'
loop_
_space_group_symop_operation_xyz
x,y,z
-x,-y,1/2+z
x,-y,-z
-x,y,1/2-z
1/2+x,1/2+y,z
1/2-x,1/2-y,1/2+z
1/2+x,1/2-y,-z
1/2-x,1/2+y,1/2-z
loop_
_atom_site_type_symbol
_atom_site_label
_atom_site_fract_x
_atom_site_fract_y
_atom_site_fract_z
Si Si1 0.628794 0.688382 0.723348
Si Si2 0.030256 0.797285 0.395717
Si Si3 0.288618 0.801742 0.454797
Si Si4 0.715324 0.118235 0.077010
Si Si5 0.626674 0.391563 0.779937
Si Si6 0.513803 0.601989 0.101727
O O1 0.500000 0.763308 0.750000
O O2 0.595851 0.659442 0.661255
O O3 0.341438 0.543797 0.745113
O O4 0.750255 0.791893 0.731517
O O5 0.148670 0.733833 0.433231
O O6 0.907895 0.687283 0.389704
O O7 0.979240 0.943638 0.421998
O O8 0.279793 0.811724 0.518594
O O9 0.414209 0.703641 0.440615
O O10 0.311648 0.952441 0.426747
O O11 0.856781 0.148534 0.107377
O O12 0.500000 0.322772 0.750000
O O13 0.595498 0.396848 0.842866
#
# Coordination Sequence:
#
# PCOD8159801 Si02
#       6
#     8   8   8   8   8   8
#     4  11  24  43  64  94 129 165 214 263 314 380
#     4  11  22  42  65  93 130 167 210 263 318 373
#     4  10  22  43  63  93 130 167 212 262 312 378
#     4  10  24  40  66  94 127 167 213 260 318 377
#     4  11  24  44  64  93 129 165 214 261 314 381
#     4  11  22  42  66  93 129 167 209 263 318 373
#
# _framework density 20.449487999999999
#
# number of rings (size 3 to 8) (size 9 to 14) (size 15 to 20)
#    0.000    1.333    5.000    1.000    2.333    4.000 
#    3.000    0.000    0.000    0.000    0.000    0.000 
#    0.000    0.000    0.000    0.000    0.000    0.000 
#
# Total GULP energy -297595.336394 kJ/mol
# GULP energy per Si atom -12399.805683 kJ/mol
# Density = 2.040294 g / cm^3
# Si number density = 20.449488 Si / 1000 Ang^3
#
#
#
# Elastic Constant Matrix: (Units=GPa)
#
#
# Indices 1 2 3 4 5 6 
#
# 1 155.4205 79.3352 20.1654 0.0000 0.0000 0.0000
# 2 79.3352 87.6075 25.9984 0.0000 0.0000 0.0000
# 3 20.1654 25.9984 70.0914 0.0000 0.0000 0.0000
# 4 0.0000 0.0000 0.0000 24.1502 0.0000 0.0000
# 5 0.0000 0.0000 0.0000 0.0000 31.6381 0.0000
# 6 0.0000 0.0000 0.0000 0.0000 0.0000 42.8761
#
#
#
# Elastic Compliance Matrix: (Units=1/GPa)
#
#
# Indices 1 2 3 4 5 6 
#
# 1 0.011991 -0.011052 0.000649 0.000000 0.000000 0.000000
# 2 -0.011052 0.023012 -0.005356 0.000000 0.000000 0.000000
# 3 0.000649 -0.005356 0.016067 0.000000 0.000000 0.000000
# 4 0.000000 0.000000 0.000000 0.041408 0.000000 0.000000
# 5 0.000000 0.000000 0.000000 0.000000 0.031607 0.000000
# 6 0.000000 0.000000 0.000000 0.000000 0.000000 0.023323
#
#
# Mechanical properties :
#
#
# Convention : Reuss Voigt Hill
#
# Bulk Modulus (GPa) = 51.14157 62.67971 56.91064
# Shear Modulus (GPa) = 26.96240 32.24089 29.60165
#
# Velocity S-wave (km/s) = 3.63504 3.97496 3.80880
# Velocity P-wave (km/s) = 6.53307 7.19616 6.87262
#
# Compressibility (1/GPa) = 0.01955356
#
# Stress axis : x y z
#
# Youngs Moduli (GPa) = 83.39363 43.45518 62.23955
#
# Poissons Ratio (x) = 0.48026 -0.04042
# Poissons Ratio (y) = 0.92165 0.33336
# Poissons Ratio (z) = -0.05416 0.23275
#
# Static dielectric constant tensor:
#      x y z
#    x 3.911230 0.000000 0.000000 
#    y 0.000000 3.665310 0.000000 
#    z 0.000000 0.000000 3.704810 
# 
# 
# High freq. dielectric constant tensor:
#      x y z
#    x 1.810690 0.000000 0.000000 
#    y 0.000000 1.787250 0.000000 
#    z 0.000000 0.000000 1.805080 
# 
# From -- ./inp_files/30937.got.cif
#   From: 2010.03.12/outbox.cif.g09.slc.cpg/sg20_16_cif.got.tgz:30937.got - 2010.04.14 01:38:04.
