data_PCOD8159022
_publ_section_title
;
Structure prediction by ZEFSAII (Michael W. Deem and Ramdas Pophale) SiO2 
 PCOD8159022
Probable space group: C 2 2 21
;
_chemical_formula_sum "Si O2"
_cell_formula_units_Z 32
_cell_length_a 12.139770
_cell_length_b 7.323496
_cell_length_c 15.315561
_cell_angle_alpha 90.000000
_cell_angle_beta 90.000000
_cell_angle_gamma 90.000000
_cell_volume 1361.638482
_symmetry_space_group_name_H-M "C 2 2 21"
_symmetry_group_IT_number 20
_symmetry_cell_setting 'orthorhombic'
loop_
_space_group_symop_operation_xyz
x,y,z
-x,-y,1/2+z
x,-y,-z
-x,y,1/2-z
1/2+x,1/2+y,z
1/2-x,1/2-y,1/2+z
1/2+x,1/2-y,-z
1/2-x,1/2+y,1/2-z
loop_
_atom_site_type_symbol
_atom_site_label
_atom_site_fract_x
_atom_site_fract_y
_atom_site_fract_z
Si Si1 0.292159 0.520400 0.634197
Si Si2 0.366020 0.730351 0.904341
Si Si3 0.222672 0.563867 0.179238
Si Si4 0.477304 0.500000 0.500000
Si Si5 0.000000 0.370248 0.750000
O O1 0.192533 0.425276 0.579564
O O2 0.293786 0.434635 0.731343
O O3 0.272557 0.736804 0.635191
O O4 0.405310 0.466979 0.586284
O O5 0.270684 0.578591 0.889776
O O6 0.443262 0.675924 0.985893
O O7 0.441272 0.735560 0.817985
O O8 0.095216 0.509865 0.202441
#
# Coordination Sequence:
#
# PCOD8159022 Si02
#       5
#     8   8   8   4   4
#     4  11  24  45  72 104 137 181 242 287 344 426
#     4  11  24  44  67  98 140 181 225 294 347 415
#     4  11  21  46  72  99 135 184 240 286 339 425
#     4  12  26  46  68 102 154 180 226 306 364 398
#     4  10  20  42  66 100 130 168 238 280 326 420
#
# _framework density 23.501099
#
# number of rings (size 3 to 8) (size 9 to 14) (size 15 to 20)
#    0.000    1.000    7.500    0.000    3.500    0.000 
#    9.000    5.000    0.000    0.000    0.000    0.000 
#    0.000    0.000    0.000    0.000    0.000    0.000 
#
# Total GULP energy -198317.676969 kJ/mol
# GULP energy per Si atom -12394.854811 kJ/mol
# Density = 2.344761 g / cm^3
# Si number density = 23.501099 Si / 1000 Ang^3
#
#
#
# Elastic Constant Matrix: (Units=GPa)
#
#
# Indices 1 2 3 4 5 6 
#
# 1 153.0649 49.1610 51.4568 0.0000 0.0000 0.0000
# 2 49.1610 76.7823 31.7205 0.0000 0.0000 0.0000
# 3 51.4568 31.7205 43.4040 0.0000 0.0000 0.0000
# 4 0.0000 0.0000 0.0000 34.2648 0.0000 0.0000
# 5 0.0000 0.0000 0.0000 0.0000 53.3057 0.0000
# 6 0.0000 0.0000 0.0000 0.0000 0.0000 33.5765
#
#
#
# Elastic Compliance Matrix: (Units=1/GPa)
#
#
# Indices 1 2 3 4 5 6 
#
# 1 0.011164 -0.002407 -0.011477 0.000000 0.000000 0.000000
# 2 -0.002407 0.019175 -0.011160 0.000000 0.000000 0.000000
# 3 -0.011477 -0.011160 0.044802 0.000000 0.000000 0.000000
# 4 0.000000 0.000000 0.000000 0.029184 0.000000 0.000000
# 5 0.000000 0.000000 0.000000 0.000000 0.018760 0.000000
# 6 0.000000 0.000000 0.000000 0.000000 0.000000 0.029783
#
#
# Mechanical properties :
#
#
# Convention : Reuss Voigt Hill
#
# Bulk Modulus (GPa) = 39.91462 59.76976 49.84219
# Shear Modulus (GPa) = 23.66215 33.62358 28.64287
#
# Velocity S-wave (km/s) = 3.17654 3.78659 3.49490
# Velocity P-wave (km/s) = 5.52040 6.67875 6.12701
#
# Compressibility (1/GPa) = 0.02505348
#
# Stress axis : x y z
#
# Youngs Moduli (GPa) = 89.57016 52.14992 22.32057
#
# Poissons Ratio (x) = 0.12552 0.25617
# Poissons Ratio (y) = 0.21558 0.24911
# Poissons Ratio (z) = 1.02798 0.58201
#
# Static dielectric constant tensor:
#      x y z
#    x 4.716270 0.000000 0.000000 
#    y 0.000000 4.024880 0.000000 
#    z 0.000000 0.000000 4.122130 
# 
# 
# High freq. dielectric constant tensor:
#      x y z
#    x 1.942140 0.000000 0.000000 
#    y 0.000000 1.909860 0.000000 
#    z 0.000000 0.000000 1.920710 
# 
# From -- ./inp_files/19500.got.cif
#   From: 2010.03.12/outbox.cif.g09.slc.cpg/sg20_10_cif.got.tgz:19500.got - 2010.04.14 01:38:04.
