data_PCOD8159529
_publ_section_title
;
Structure prediction by ZEFSAII (Michael W. Deem and Ramdas Pophale) SiO2 
 PCOD8159529
Probable space group: C 2 2 21
;
_chemical_formula_sum "Si O2"
_cell_formula_units_Z 36
_cell_length_a 17.071078
_cell_length_b 19.532799
_cell_length_c 5.199633
_cell_angle_alpha 90.000000
_cell_angle_beta 90.000000
_cell_angle_gamma 90.000000
_cell_volume 1733.796489
_symmetry_space_group_name_H-M "C 2 2 21"
_symmetry_group_IT_number 20
_symmetry_cell_setting 'orthorhombic'
loop_
_space_group_symop_operation_xyz
x,y,z
-x,-y,1/2+z
x,-y,-z
-x,y,1/2-z
1/2+x,1/2+y,z
1/2-x,1/2-y,1/2+z
1/2+x,1/2-y,-z
1/2-x,1/2+y,1/2-z
loop_
_atom_site_type_symbol
_atom_site_label
_atom_site_fract_x
_atom_site_fract_y
_atom_site_fract_z
Si Si1 0.500000 0.271673 0.250000
Si Si2 0.500000 0.956053 0.750000
Si Si3 0.801657 0.747424 0.786884
Si Si4 0.084287 0.856616 0.881425
Si Si5 0.433273 0.846598 0.063198
Si Si6 0.447666 0.500000 0.500000
O O1 0.426823 0.316096 0.350777
O O2 0.533491 0.225939 0.476205
O O3 0.572225 0.905066 0.661221
O O4 0.472948 0.000000 0.500000
O O5 0.759753 0.744088 0.513489
O O6 0.853801 0.816527 0.793551
O O7 0.849918 0.675055 0.813474
O O8 0.000000 0.860268 0.750000
O O9 0.109041 0.935097 0.939971
O O10 0.500000 0.877874 0.250000
O O11 0.500000 0.481725 0.250000
#
# Coordination Sequence:
#
# PCOD8159529 Si02
#       6
#     4   4   8   8   8   4
#     4  11  16  34  66  94 127 158 212 272 325 352
#     4  11  24  40  70 104 125 162 220 290 337 394
#     4  12  26  39  63 100 136 173 214 270 331 384
#     4  11  21  38  63  95 130 169 214 268 317 380
#     4  11  22  39  68  97 131 167 223 277 328 380
#     4  10  22  34  62  98 124 164 212 262 310 380
#
# _framework density 20.763684999999999
#
# number of rings (size 3 to 8) (size 9 to 14) (size 15 to 20)
#    0.000    0.889    6.667    1.333    3.111    0.000 
#    0.000    0.000    2.444    0.000   11.556    0.000 
#    0.000    0.000    0.000    0.000    0.000    0.000 
#
# Total GULP energy -222995.274529 kJ/mol
# GULP energy per Si atom -12388.626363 kJ/mol
# Density = 2.071643 g / cm^3
# Si number density = 20.763685 Si / 1000 Ang^3
#
#
#
# Elastic Constant Matrix: (Units=GPa)
#
#
# Indices 1 2 3 4 5 6 
#
# 1 63.1098 31.9504 11.7810 0.0000 0.0000 0.0000
# 2 31.9504 152.5444 31.7757 0.0000 0.0000 0.0000
# 3 11.7810 31.7757 80.5577 0.0000 0.0000 0.0000
# 4 0.0000 0.0000 0.0000 43.5183 0.0000 0.0000
# 5 0.0000 0.0000 0.0000 0.0000 38.0769 0.0000
# 6 0.0000 0.0000 0.0000 0.0000 0.0000 -1.2250
#
#
#
# Elastic Compliance Matrix: (Units=1/GPa)
#
#
# Indices 1 2 3 4 5 6 
#
# 1 0.017837 -0.003478 -0.001237 0.000000 0.000000 0.000000
# 2 -0.003478 0.007821 -0.002576 0.000000 0.000000 0.000000
# 3 -0.001237 -0.002576 0.013610 0.000000 0.000000 0.000000
# 4 0.000000 0.000000 0.000000 0.022979 0.000000 0.000000
# 5 0.000000 0.000000 0.000000 0.000000 0.026263 0.000000
# 6 0.000000 0.000000 0.000000 0.000000 0.000000 -0.816297
#
#
# Mechanical properties :
#
#
# Convention : Reuss Voigt Hill
#
# Bulk Modulus (GPa) = 40.50851 49.69180 45.10015
# Shear Modulus (GPa) = -7.09243 30.78769 11.84763
#
# Velocity S-wave (km/s) = -1.85019 3.85485 2.39130
# Velocity P-wave (km/s) = 3.87135 6.61794 5.42146
#
# Compressibility (1/GPa) = 0.02468617
#
# Stress axis : x y z
#
# Youngs Moduli (GPa) = 56.06247 127.86666 73.47299
#
# Poissons Ratio (x) = 0.44478 0.09085
# Poissons Ratio (y) = 0.19501 0.18928
# Poissons Ratio (z) = 0.06932 0.32940
#
# Static dielectric constant tensor:
#      x y z
#    x 3.604780 0.000000 0.000000 
#    y 0.000000 4.186110 0.000000 
#    z 0.000000 0.000000 4.241630 
# 
# 
# High freq. dielectric constant tensor:
#      x y z
#    x 1.753360 0.000000 0.000000 
#    y 0.000000 1.825350 0.000000 
#    z 0.000000 0.000000 1.836850 
# 
# From -- ./inp_files/1782.got.cif
#   From: 2010.03.12/outbox.cif.g09.slc.cpg/sg20_1_cif.got.tgz:1782.got - 2010.04.14 01:38:04.
