data_PCOD8159373
_publ_section_title
;
Structure prediction by ZEFSAII (Michael W. Deem and Ramdas Pophale) SiO2 
 PCOD8159373
Probable space group: C 2 2 21
;
_chemical_formula_sum "Si O2"
_cell_formula_units_Z 48
_cell_length_a 9.352230
_cell_length_b 28.961410
_cell_length_c 8.825916
_cell_angle_alpha 90.000000
_cell_angle_beta 90.000000
_cell_angle_gamma 90.000000
_cell_volume 2390.532600
_symmetry_space_group_name_H-M "C 2 2 21"
_symmetry_group_IT_number 20
_symmetry_cell_setting 'orthorhombic'
loop_
_space_group_symop_operation_xyz
x,y,z
-x,-y,1/2+z
x,-y,-z
-x,y,1/2-z
1/2+x,1/2+y,z
1/2-x,1/2-y,1/2+z
1/2+x,1/2-y,-z
1/2-x,1/2+y,1/2-z
loop_
_atom_site_type_symbol
_atom_site_label
_atom_site_fract_x
_atom_site_fract_y
_atom_site_fract_z
Si Si1 0.363221 0.213813 0.348596
Si Si2 0.860446 0.876006 0.569731
Si Si3 0.815633 0.877072 0.905490
Si Si4 0.131920 0.774394 0.863580
Si Si5 0.854574 0.546440 0.570707
Si Si6 0.322356 0.953328 0.075551
O O1 0.500000 0.198196 0.250000
O O2 0.268820 0.170979 0.404208
O O3 0.262225 0.245621 0.239578
O O4 0.412140 0.240902 0.499625
O O5 0.830934 0.897295 0.736106
O O6 0.808637 0.822744 0.567582
O O7 0.774511 0.908387 0.454492
O O8 0.026570 0.873057 0.523679
O O9 0.732074 0.910271 0.015001
O O10 0.000000 0.784266 0.750000
O O11 0.790809 0.500000 0.500000
O O12 0.834056 0.540194 0.747220
O O13 0.017223 0.554522 0.513997
O O14 0.257094 0.000000 0.000000
#
# Coordination Sequence:
#
# PCOD8159373 Si02
#       6
#     8   8   8   8   8   8
#     4  11  24  39  67  95 123 174 211 263 322 375
#     4  10  21  41  63  84 125 166 205 254 310 374
#     4  10  22  40  60  90 122 163 209 251 311 373
#     4  11  22  45  62  93 131 165 214 264 316 382
#     4  10  22  40  62  94 126 157 208 260 304 370
#     4  10  22  40  63  93 123 164 206 253 312 370
#
# _framework density 20.079207
#
# number of rings (size 3 to 8) (size 9 to 14) (size 15 to 20)
#    0.000    1.667    3.333    2.000    4.667    4.000 
#    3.000    0.000    0.000    0.000    0.000    0.000 
#    0.000    0.000    0.000    0.000    0.000    0.000 
#
# Total GULP energy -297510.033732 kJ/mol
# GULP energy per Si atom -12396.251406 kJ/mol
# Density = 2.003351 g / cm^3
# Si number density = 20.079207 Si / 1000 Ang^3
#
#
#
# Elastic Constant Matrix: (Units=GPa)
#
#
# Indices 1 2 3 4 5 6 
#
# 1 93.0257 44.4247 39.2480 0.0000 0.0000 0.0000
# 2 44.4247 101.6175 53.3828 0.0000 0.0000 0.0000
# 3 39.2480 53.3828 79.5132 0.0000 0.0000 0.0000
# 4 0.0000 0.0000 0.0000 39.3560 0.0000 0.0000
# 5 0.0000 0.0000 0.0000 0.0000 37.6061 0.0000
# 6 0.0000 0.0000 0.0000 0.0000 0.0000 22.3047
#
#
#
# Elastic Compliance Matrix: (Units=1/GPa)
#
#
# Indices 1 2 3 4 5 6 
#
# 1 0.014559 -0.004001 -0.004500 0.000000 0.000000 0.000000
# 2 -0.004001 0.016302 -0.008970 0.000000 0.000000 0.000000
# 3 -0.004500 -0.008970 0.020820 0.000000 0.000000 0.000000
# 4 0.000000 0.000000 0.000000 0.025409 0.000000 0.000000
# 5 0.000000 0.000000 0.000000 0.000000 0.026591 0.000000
# 6 0.000000 0.000000 0.000000 0.000000 0.000000 0.044834
#
#
# Mechanical properties :
#
#
# Convention : Reuss Voigt Hill
#
# Bulk Modulus (GPa) = 59.74057 60.91859 60.32958
# Shear Modulus (GPa) = 26.44984 28.99341 27.72163
#
# Velocity S-wave (km/s) = 3.63337 3.80406 3.71969
# Velocity P-wave (km/s) = 6.88613 7.04979 6.96844
#
# Compressibility (1/GPa) = 0.01673904
#
# Stress axis : x y z
#
# Youngs Moduli (GPa) = 68.68608 61.34223 48.03040
#
# Poissons Ratio (x) = 0.24541 0.21616
# Poissons Ratio (y) = 0.27479 0.43083
# Poissons Ratio (z) = 0.30912 0.55024
#
# Static dielectric constant tensor:
#      x y z
#    x 3.789620 0.000000 0.000000 
#    y 0.000000 3.473900 0.000000 
#    z 0.000000 0.000000 3.690630 
# 
# 
# High freq. dielectric constant tensor:
#      x y z
#    x 1.790240 0.000000 0.000000 
#    y 0.000000 1.772250 0.000000 
#    z 0.000000 0.000000 1.783180 
# 
# From -- ./inp_files/6544.got.cif
#   From: 2010.03.12/outbox.cif.g09.slc.cpg/sg20_4_cif.got.tgz:6544.got - 2010.04.14 01:38:04.
