data_PCOD8159042
_publ_section_title
;
Structure prediction by ZEFSAII (Michael W. Deem and Ramdas Pophale) SiO2 
 PCOD8159042
Probable space group: C 2 2 21
;
_chemical_formula_sum "Si O2"
_cell_formula_units_Z 48
_cell_length_a 14.712239
_cell_length_b 23.737290
_cell_length_c 6.646036
_cell_angle_alpha 90.000000
_cell_angle_beta 90.000000
_cell_angle_gamma 90.000000
_cell_volume 2320.986404
_symmetry_space_group_name_H-M "C 2 2 21"
_symmetry_group_IT_number 20
_symmetry_cell_setting 'orthorhombic'
loop_
_space_group_symop_operation_xyz
x,y,z
-x,-y,1/2+z
x,-y,-z
-x,y,1/2-z
1/2+x,1/2+y,z
1/2-x,1/2-y,1/2+z
1/2+x,1/2-y,-z
1/2-x,1/2+y,1/2-z
loop_
_atom_site_type_symbol
_atom_site_label
_atom_site_fract_x
_atom_site_fract_y
_atom_site_fract_z
Si Si1 0.395196 0.647908 0.779402
Si Si2 0.158472 0.407519 0.691969
Si Si3 0.000000 0.674157 0.250000
Si Si4 0.803206 0.177993 0.164957
Si Si5 0.193475 0.500000 0.000000
Si Si6 0.219890 0.949936 0.125480
Si Si7 0.862596 0.251700 0.526224
O O1 0.500000 0.636518 0.750000
O O2 0.345074 0.603313 0.637912
O O3 0.363158 0.709052 0.710378
O O4 0.372927 0.646811 0.015866
O O5 0.075279 0.365924 0.649830
O O6 0.250393 0.371930 0.725128
O O7 0.136305 0.452806 0.872180
O O8 0.182725 0.438856 0.484422
O O9 0.953109 0.709833 0.432533
O O10 0.862056 0.218501 0.313430
O O11 0.729453 0.212677 0.035787
O O12 0.259577 0.533016 0.852258
O O13 0.170196 0.000000 0.000000
#
# Coordination Sequence:
#
# PCOD8159042 Si02
#       7
#     8   8   4   8   4   8   8
#     4  12  24  42  62  98 133 165 223 271 321 400
#     4  10  21  42  68  93 131 173 227 268 334 391
#     4  10  24  44  62 106 138 168 224 282 320 406
#     4  11  22  40  68  89 130 186 208 265 333 395
#     4  10  20  42  70  94 126 178 222 272 330 408
#     4  10  22  43  68  93 126 176 220 268 336 396
#     4  11  22  41  65  96 135 173 222 258 328 407
#
# _framework density 20.680862999999999
#
# number of rings (size 3 to 8) (size 9 to 14) (size 15 to 20)
#    0.000    1.333    5.833    0.000    0.000    0.667 
#    6.000    1.667    0.000    0.000    0.000    0.000 
#    0.000    0.000    0.000    0.000    0.000    0.000 
#
# Total GULP energy -297437.869624 kJ/mol
# GULP energy per Si atom -12393.244568 kJ/mol
# Density = 2.063379 g / cm^3
# Si number density = 20.680863 Si / 1000 Ang^3
#
#
#
# Elastic Constant Matrix: (Units=GPa)
#
#
# Indices 1 2 3 4 5 6 
#
# 1 113.5276 46.9935 54.1951 0.0000 0.0000 0.0000
# 2 46.9935 114.6258 36.7777 0.0000 0.0000 0.0000
# 3 54.1951 36.7777 110.4223 0.0000 0.0000 0.0000
# 4 0.0000 0.0000 0.0000 42.6567 0.0000 0.0000
# 5 0.0000 0.0000 0.0000 0.0000 21.3058 0.0000
# 6 0.0000 0.0000 0.0000 0.0000 0.0000 24.9487
#
#
#
# Elastic Compliance Matrix: (Units=1/GPa)
#
#
# Indices 1 2 3 4 5 6 
#
# 1 0.012699 -0.003590 -0.005037 0.000000 0.000000 0.000000
# 2 -0.003590 0.010783 -0.001829 0.000000 0.000000 0.000000
# 3 -0.005037 -0.001829 0.012138 0.000000 0.000000 0.000000
# 4 0.000000 0.000000 0.000000 0.023443 0.000000 0.000000
# 5 0.000000 0.000000 0.000000 0.000000 0.046936 0.000000
# 6 0.000000 0.000000 0.000000 0.000000 0.000000 0.040082
#
#
# Mechanical properties :
#
#
# Convention : Reuss Voigt Hill
#
# Bulk Modulus (GPa) = 67.99668 68.27869 68.13768
# Shear Modulus (GPa) = 29.08750 31.15622 30.12186
#
# Velocity S-wave (km/s) = 3.75439 3.88561 3.82056
# Velocity P-wave (km/s) = 7.19336 7.29504 7.24438
#
# Compressibility (1/GPa) = 0.01470660
#
# Stress axis : x y z
#
# Youngs Moduli (GPa) = 78.74614 92.73988 82.38903
#
# Poissons Ratio (x) = 0.33295 0.41499
# Poissons Ratio (y) = 0.28271 0.15072
# Poissons Ratio (z) = 0.39664 0.16965
#
# Static dielectric constant tensor:
#      x y z
#    x 3.452540 0.000000 0.000000 
#    y 0.000000 4.123110 0.000000 
#    z 0.000000 0.000000 3.701400 
# 
# 
# High freq. dielectric constant tensor:
#      x y z
#    x 1.779930 0.000000 0.000000 
#    y 0.000000 1.831550 0.000000 
#    z 0.000000 0.000000 1.808260 
# 
# From -- ./inp_files/2050.got.cif
#   From: 2010.03.12/outbox.cif.g09.slc.cpg/sg20_2_cif.got.tgz:2050.got - 2010.04.14 01:38:04.
