data_PCOD8159434
_publ_section_title
;
Structure prediction by ZEFSAII (Michael W. Deem and Ramdas Pophale) SiO2 
 PCOD8159434
Probable space group: C 2 2 21
;
_chemical_formula_sum "Si O2"
_cell_formula_units_Z 40
_cell_length_a 8.076065
_cell_length_b 24.113648
_cell_length_c 9.185329
_cell_angle_alpha 90.000000
_cell_angle_beta 90.000000
_cell_angle_gamma 90.000000
_cell_volume 1788.782095
_symmetry_space_group_name_H-M "C 2 2 21"
_symmetry_group_IT_number 20
_symmetry_cell_setting 'orthorhombic'
loop_
_space_group_symop_operation_xyz
x,y,z
-x,-y,1/2+z
x,-y,-z
-x,y,1/2-z
1/2+x,1/2+y,z
1/2-x,1/2-y,1/2+z
1/2+x,1/2-y,-z
1/2-x,1/2+y,1/2-z
loop_
_atom_site_type_symbol
_atom_site_label
_atom_site_fract_x
_atom_site_fract_y
_atom_site_fract_z
Si Si1 0.601028 0.285650 0.968474
Si Si2 0.056852 0.098972 0.904350
Si Si3 0.165412 0.914956 0.662079
Si Si4 0.343563 0.012982 0.839020
Si Si5 0.246904 0.205700 0.324853
O O1 0.418928 0.278853 0.908749
O O2 0.735071 0.274248 0.841754
O O3 0.636842 0.348732 0.015991
O O4 0.610299 0.240896 0.097882
O O5 0.195105 0.054169 0.869639
O O6 0.000000 0.121947 0.750000
O O7 0.903827 0.071494 0.998165
O O8 0.281460 0.860312 0.659846
O O9 0.000000 0.899466 0.750000
O O10 0.269327 0.962664 0.742181
O O11 0.500000 0.038026 0.750000
O O12 0.413925 0.000000 0.000000
#
# Coordination Sequence:
#
# PCOD8159434 Si02
#       5
#     8   8   8   8   8
#     4  10  22  42  65  98 131 173 223 282 334 404
#     4  11  25  44  74  99 132 187 245 284 336 426
#     4  11  21  48  73  93 133 189 236 282 339 413
#     4  12  27  46  68 103 144 179 231 296 360 407
#     4  10  21  42  66  97 133 170 228 278 337 401
#
# _framework density 22.361584000000001
#
# number of rings (size 3 to 8) (size 9 to 14) (size 15 to 20)
#    0.000    1.200    6.000    0.600    8.400    0.000 
#   10.800    0.000    0.000    0.000    0.000    0.000 
#    0.000    0.000    0.000    0.000    0.000    0.000 
#
# Total GULP energy -247852.856544 kJ/mol
# GULP energy per Si atom -12392.642827 kJ/mol
# Density = 2.231069 g / cm^3
# Si number density = 22.361584 Si / 1000 Ang^3
#
#
#
# Elastic Constant Matrix: (Units=GPa)
#
#
# Indices 1 2 3 4 5 6 
#
# 1 44.0644 13.1706 24.6752 0.0000 0.0000 0.0000
# 2 13.1706 73.4002 20.4928 0.0000 0.0000 0.0000
# 3 24.6752 20.4928 147.2252 0.0000 0.0000 0.0000
# 4 0.0000 0.0000 0.0000 37.3630 0.0000 0.0000
# 5 0.0000 0.0000 0.0000 0.0000 46.2675 0.0000
# 6 0.0000 0.0000 0.0000 0.0000 0.0000 27.8206
#
#
#
# Elastic Compliance Matrix: (Units=1/GPa)
#
#
# Indices 1 2 3 4 5 6 
#
# 1 0.025917 -0.003577 -0.003846 0.000000 0.000000 0.000000
# 2 -0.003577 0.014668 -0.001442 0.000000 0.000000 0.000000
# 3 -0.003846 -0.001442 0.007638 0.000000 0.000000 0.000000
# 4 0.000000 0.000000 0.000000 0.026764 0.000000 0.000000
# 5 0.000000 0.000000 0.000000 0.000000 0.021613 0.000000
# 6 0.000000 0.000000 0.000000 0.000000 0.000000 0.035945
#
#
# Mechanical properties :
#
#
# Convention : Reuss Voigt Hill
#
# Bulk Modulus (GPa) = 32.79419 42.37409 37.58414
# Shear Modulus (GPa) = 31.16448 36.04699 33.60574
#
# Velocity S-wave (km/s) = 3.73723 4.01933 3.88085
# Velocity P-wave (km/s) = 5.77233 6.36637 6.07661
#
# Compressibility (1/GPa) = 0.03049321
#
# Stress axis : x y z
#
# Youngs Moduli (GPa) = 38.58517 68.17377 130.93049
#
# Poissons Ratio (x) = 0.24383 0.50354
# Poissons Ratio (y) = 0.13800 0.18884
# Poissons Ratio (z) = 0.14839 0.09833
#
# Static dielectric constant tensor:
#      x y z
#    x 3.869740 0.000000 0.000000 
#    y 0.000000 3.934030 0.000000 
#    z 0.000000 0.000000 13.059670 
# 
# 
# High freq. dielectric constant tensor:
#      x y z
#    x 1.857360 0.000000 0.000000 
#    y 0.000000 1.871770 0.000000 
#    z 0.000000 0.000000 1.914020 
# 
# From -- ./inp_files/6127.got.cif
#   From: 2010.03.12/outbox.cif.g09.slc.cpg/sg20_4_cif.got.tgz:6127.got - 2010.04.14 01:38:04.
