data_PCOD8159938
_publ_section_title
;
Structure prediction by ZEFSAII (Michael W. Deem and Ramdas Pophale) SiO2 
 PCOD8159938
Probable space group: C 2 2 21
;
_chemical_formula_sum "Si O2"
_cell_formula_units_Z 48
_cell_length_a 7.107784
_cell_length_b 20.044123
_cell_length_c 14.884889
_cell_angle_alpha 90.000000
_cell_angle_beta 90.000000
_cell_angle_gamma 90.000000
_cell_volume 2120.639668
_symmetry_space_group_name_H-M "C 2 2 21"
_symmetry_group_IT_number 20
_symmetry_cell_setting 'orthorhombic'
loop_
_space_group_symop_operation_xyz
x,y,z
-x,-y,1/2+z
x,-y,-z
-x,y,1/2-z
1/2+x,1/2+y,z
1/2-x,1/2-y,1/2+z
1/2+x,1/2-y,-z
1/2-x,1/2+y,1/2-z
loop_
_atom_site_type_symbol
_atom_site_label
_atom_site_fract_x
_atom_site_fract_y
_atom_site_fract_z
Si Si1 0.287199 0.302222 0.771932
Si Si2 0.654071 0.057861 0.178242
Si Si3 0.352908 0.204092 0.927220
Si Si4 0.225851 0.000000 0.500000
Si Si5 0.958603 0.103490 0.592984
Si Si6 0.776163 0.219183 0.895331
Si Si7 0.500000 0.515405 0.750000
O O1 0.500000 0.324722 0.750000
O O2 0.165148 0.362001 0.815056
O O3 0.268633 0.241118 0.840667
O O4 0.202891 0.278344 0.676981
O O5 0.500000 0.031291 0.250000
O O6 0.856877 0.031738 0.201621
O O7 0.629577 0.027767 0.077246
O O8 0.228839 0.137835 0.949666
O O9 0.568462 0.187284 0.904700
O O10 0.352235 0.253880 0.010548
O O11 0.084272 0.061072 0.523187
O O12 0.092181 0.159460 0.635367
O O13 0.890106 0.058772 0.675880
#
# Coordination Sequence:
#
# PCOD8159938 Si02
#       7
#     8   8   8   4   8   8   4
#     4  10  23  41  67  99 139 170 226 291 345 409
#     4  11  24  44  72 100 137 184 240 285 351 419
#     4  11  23  40  63  99 132 175 219 283 356 407
#     4  10  26  46  68 100 146 188 232 296 328 428
#     4  11  23  42  66  92 139 176 229 273 351 407
#     4  11  23  39  64  98 133 172 224 287 345 417
#     4  10  24  44  62  94 134 184 222 284 338 414
#
# _framework density 22.634681
#
# number of rings (size 3 to 8) (size 9 to 14) (size 15 to 20)
#    0.000    1.333    2.500    2.000    4.667    4.000 
#    0.000    5.000    0.000    0.000    0.000    0.000 
#    0.000    0.000    0.000    0.000    0.000    0.000 
#
# Total GULP energy -297508.686254 kJ/mol
# GULP energy per Si atom -12396.195261 kJ/mol
# Density = 2.258316 g / cm^3
# Si number density = 22.634681 Si / 1000 Ang^3
#
#
#
# Elastic Constant Matrix: (Units=GPa)
#
#
# Indices 1 2 3 4 5 6 
#
# 1 40.7796 34.6613 21.1558 0.0000 0.0000 0.0000
# 2 34.6613 79.5244 14.4251 0.0000 0.0000 0.0000
# 3 21.1558 14.4251 111.7399 0.0000 0.0000 0.0000
# 4 0.0000 0.0000 0.0000 17.6282 0.0000 0.0000
# 5 0.0000 0.0000 0.0000 0.0000 33.9899 0.0000
# 6 0.0000 0.0000 0.0000 0.0000 0.0000 -11.3437
#
#
#
# Elastic Compliance Matrix: (Units=1/GPa)
#
#
# Indices 1 2 3 4 5 6 
#
# 1 0.042290 -0.017387 -0.005762 0.000000 0.000000 0.000000
# 2 -0.017387 0.020025 0.000707 0.000000 0.000000 0.000000
# 3 -0.005762 0.000707 0.009949 0.000000 0.000000 0.000000
# 4 0.000000 0.000000 0.000000 0.056727 0.000000 0.000000
# 5 0.000000 0.000000 0.000000 0.000000 0.029420 0.000000
# 6 0.000000 0.000000 0.000000 0.000000 0.000000 -0.088155
#
#
# Mechanical properties :
#
#
# Convention : Reuss Voigt Hill
#
# Bulk Modulus (GPa) = 36.52463 41.39203 38.95833
# Shear Modulus (GPa) = 40.23556 18.84166 29.53861
#
# Velocity S-wave (km/s) = 4.22074 2.88831 3.61642
# Velocity P-wave (km/s) = 6.31858 5.42677 5.88958
#
# Compressibility (1/GPa) = 0.02737879
#
# Stress axis : x y z
#
# Youngs Moduli (GPa) = 23.64636 49.93800 100.51201
#
# Poissons Ratio (x) = 0.86828 0.57916
# Poissons Ratio (y) = 0.41114 -0.07104
# Poissons Ratio (z) = 0.13625 -0.03530
#
# Static dielectric constant tensor:
#      x y z
#    x 4.033970 0.000000 0.000000 
#    y 0.000000 4.091730 0.000000 
#    z 0.000000 0.000000 6.536600 
# 
# 
# High freq. dielectric constant tensor:
#      x y z
#    x 1.888830 0.000000 0.000000 
#    y 0.000000 1.890790 0.000000 
#    z 0.000000 0.000000 1.899100 
# 
# From -- ./inp_files/18944.got.cif
#   From: 2010.03.12/outbox.cif.g09.slc.cpg/sg20_10_cif.got.tgz:18944.got - 2010.04.14 01:38:04.
