data_PCOD8159578
_publ_section_title
;
Structure prediction by ZEFSAII (Michael W. Deem and Ramdas Pophale) SiO2 
 PCOD8159578
Probable space group: C 2 2 21
;
_chemical_formula_sum "Si O2"
_cell_formula_units_Z 40
_cell_length_a 26.341627
_cell_length_b 8.209013
_cell_length_c 9.707749
_cell_angle_alpha 90.000000
_cell_angle_beta 90.000000
_cell_angle_gamma 90.000000
_cell_volume 2099.191591
_symmetry_space_group_name_H-M "C 2 2 21"
_symmetry_group_IT_number 20
_symmetry_cell_setting 'orthorhombic'
loop_
_space_group_symop_operation_xyz
x,y,z
-x,-y,1/2+z
x,-y,-z
-x,y,1/2-z
1/2+x,1/2+y,z
1/2-x,1/2-y,1/2+z
1/2+x,1/2-y,-z
1/2-x,1/2+y,1/2-z
loop_
_atom_site_type_symbol
_atom_site_label
_atom_site_fract_x
_atom_site_fract_y
_atom_site_fract_z
Si Si1 0.500000 0.697061 0.750000
Si Si2 0.221966 0.630403 0.621261
Si Si3 0.197671 0.593527 0.137843
Si Si4 0.889095 0.722502 0.909135
Si Si5 0.044115 0.000000 0.500000
Si Si6 0.095130 0.600746 0.284612
O O1 0.509043 0.594724 0.609983
O O2 0.452864 0.814325 0.714213
O O3 0.219823 0.500000 0.500000
O O4 0.227528 0.529048 0.761783
O O5 0.269796 0.746708 0.605487
O O6 0.171003 0.741153 0.620281
O O7 0.144426 0.652236 0.199362
O O8 0.185083 0.500000 0.000000
O O9 0.911550 0.595599 0.795651
O O10 0.919757 0.891185 0.900514
O O11 0.897092 0.661503 0.062276
#
# Coordination Sequence:
#
# PCOD8159578 Si02
#       6
#     4   8   8   8   4   8
#     4  10  22  42  62  86 120 158 204 250 300 348
#     4  11  21  40  61  85 123 162 202 230 297 374
#     4  11  23  36  58  94 121 153 197 250 298 342
#     4   9  18  38  64  82 112 163 200 230 285 381
#     4  10  22  38  64  96 114 148 210 254 294 342
#     4   9  19  41  58  81 120 158 199 237 296 362
#
# _framework density 19.054956000000001
#
# number of rings (size 3 to 8) (size 9 to 14) (size 15 to 20)
#    0.000    2.000    4.000    1.200    1.400    2.400 
#   16.200    0.000    0.000    0.000    0.000    0.000 
#    0.000    0.000    0.000    0.000    0.000    0.000 
#
# Total GULP energy -247932.278244 kJ/mol
# GULP energy per Si atom -12396.613912 kJ/mol
# Density = 1.901159 g / cm^3
# Si number density = 19.054956 Si / 1000 Ang^3
#
#
#
# Elastic Constant Matrix: (Units=GPa)
#
#
# Indices 1 2 3 4 5 6 
#
# 1 141.9570 76.6646 35.7439 0.0000 0.0000 0.0000
# 2 76.6646 94.1820 21.3528 0.0000 0.0000 0.0000
# 3 35.7439 21.3528 59.6391 0.0000 0.0000 0.0000
# 4 0.0000 0.0000 0.0000 29.2857 0.0000 0.0000
# 5 0.0000 0.0000 0.0000 0.0000 30.5314 0.0000
# 6 0.0000 0.0000 0.0000 0.0000 0.0000 47.5030
#
#
#
# Elastic Compliance Matrix: (Units=1/GPa)
#
#
# Indices 1 2 3 4 5 6 
#
# 1 0.013624 -0.010055 -0.004565 0.000000 0.000000 0.000000
# 2 -0.010055 0.018977 -0.000768 0.000000 0.000000 0.000000
# 3 -0.004565 -0.000768 0.019779 0.000000 0.000000 0.000000
# 4 0.000000 0.000000 0.000000 0.034146 0.000000 0.000000
# 5 0.000000 0.000000 0.000000 0.000000 0.032753 0.000000
# 6 0.000000 0.000000 0.000000 0.000000 0.000000 0.021051
#
#
# Mechanical properties :
#
#
# Convention : Reuss Voigt Hill
#
# Bulk Modulus (GPa) = 46.29042 62.58896 54.43969
# Shear Modulus (GPa) = 28.04130 32.26516 30.15323
#
# Velocity S-wave (km/s) = 3.84031 4.11940 3.98230
# Velocity P-wave (km/s) = 6.63399 7.45277 7.05527
#
# Compressibility (1/GPa) = 0.02160274
#
# Stress axis : x y z
#
# Youngs Moduli (GPa) = 73.39845 52.69601 50.55947
#
# Poissons Ratio (x) = 0.52987 0.23083
# Poissons Ratio (y) = 0.73803 0.03883
# Poissons Ratio (z) = 0.33510 0.04047
#
# Static dielectric constant tensor:
#      x y z
#    x 3.635830 0.000000 0.000000 
#    y 0.000000 4.237670 0.000000 
#    z 0.000000 0.000000 3.774420 
# 
# 
# High freq. dielectric constant tensor:
#      x y z
#    x 1.741190 0.000000 0.000000 
#    y 0.000000 1.741330 0.000000 
#    z 0.000000 0.000000 1.735740 
# 
# From -- ./inp_files/6292.got.cif
#   From: 2010.03.12/outbox.cif.g09.slc.cpg/sg20_4_cif.got.tgz:6292.got - 2010.04.14 01:38:04.
