data_PCOD8159713
_publ_section_title
;
Structure prediction by ZEFSAII (Michael W. Deem and Ramdas Pophale) SiO2 
 PCOD8159713
Probable space group: C 2 2 21
;
_chemical_formula_sum "Si O2"
_cell_formula_units_Z 48
_cell_length_a 16.246183
_cell_length_b 13.820217
_cell_length_c 9.861745
_cell_angle_alpha 90.000000
_cell_angle_beta 90.000000
_cell_angle_gamma 90.000000
_cell_volume 2214.215934
_symmetry_space_group_name_H-M "C 2 2 21"
_symmetry_group_IT_number 20
_symmetry_cell_setting 'orthorhombic'
loop_
_space_group_symop_operation_xyz
x,y,z
-x,-y,1/2+z
x,-y,-z
-x,y,1/2-z
1/2+x,1/2+y,z
1/2-x,1/2-y,1/2+z
1/2+x,1/2-y,-z
1/2-x,1/2+y,1/2-z
loop_
_atom_site_type_symbol
_atom_site_label
_atom_site_fract_x
_atom_site_fract_y
_atom_site_fract_z
Si Si1 0.903054 0.100507 0.726845
Si Si2 0.405222 0.920812 0.899820
Si Si3 0.595533 0.079714 0.098671
Si Si4 0.843692 0.223975 0.489649
Si Si5 0.404162 0.377488 0.765762
Si Si6 0.157637 0.780978 0.471527
O O1 0.875234 0.133438 0.577840
O O2 0.000000 0.120251 0.750000
O O3 0.880895 0.988296 0.738680
O O4 0.847824 0.162329 0.830189
O O5 0.363378 0.923949 0.749355
O O6 0.500431 0.946069 0.884264
O O7 0.396191 0.815736 0.965236
O O8 0.363290 0.000000 0.000000
O O9 0.602282 0.184042 0.030674
O O10 0.638003 0.000000 0.000000
O O11 0.855947 0.194571 0.333887
O O12 0.749371 0.251323 0.511425
O O13 0.500000 0.359118 0.750000
O O14 0.378886 0.353027 0.917792
#
# Coordination Sequence:
#
# PCOD8159713 Si02
#       6
#     8   8   8   8   8   8
#     4  11  23  46  73  95 129 177 224 271 326 390
#     4  10  22  41  66  93 125 170 217 262 315 382
#     4  10  22  41  66  93 125 170 217 262 315 382
#     4  12  25  43  64 100 135 170 213 269 340 391
#     4  11  25  42  69 101 129 173 228 275 320 392
#     4  12  25  43  64 100 135 170 213 269 340 391
#
# _framework density 21.678103
#
# number of rings (size 3 to 8) (size 9 to 14) (size 15 to 20)
#    0.000    1.000    1.667    5.000    2.333    5.333 
#    0.000    0.000    0.000    0.000    0.000    0.000 
#    0.000    0.000    0.000    0.000    0.000    0.000 
#
# Total GULP energy -297702.819798 kJ/mol
# GULP energy per Si atom -12404.284158 kJ/mol
# Density = 2.162876 g / cm^3
# Si number density = 21.678103 Si / 1000 Ang^3
#
#
#
# Elastic Constant Matrix: (Units=GPa)
#
#
# Indices 1 2 3 4 5 6 
#
# 1 64.5424 13.8493 5.0016 0.0000 0.0000 0.0000
# 2 13.8493 142.2840 53.5680 0.0000 0.0000 0.0000
# 3 5.0016 53.5680 96.6657 0.0000 0.0000 0.0000
# 4 0.0000 0.0000 0.0000 50.8610 0.0000 0.0000
# 5 0.0000 0.0000 0.0000 0.0000 29.0327 0.0000
# 6 0.0000 0.0000 0.0000 0.0000 0.0000 11.4766
#
#
#
# Elastic Compliance Matrix: (Units=1/GPa)
#
#
# Indices 1 2 3 4 5 6 
#
# 1 0.015824 -0.001557 0.000044 0.000000 0.000000 0.000000
# 2 -0.001557 0.009034 -0.004926 0.000000 0.000000 0.000000
# 3 0.000044 -0.004926 0.013072 0.000000 0.000000 0.000000
# 4 0.000000 0.000000 0.000000 0.019661 0.000000 0.000000
# 5 0.000000 0.000000 0.000000 0.000000 0.034444 0.000000
# 6 0.000000 0.000000 0.000000 0.000000 0.000000 0.087134
#
#
# Mechanical properties :
#
#
# Convention : Reuss Voigt Hill
#
# Bulk Modulus (GPa) = 39.91456 49.81444 44.86450
# Shear Modulus (GPa) = 24.95022 33.67893 29.31457
#
# Velocity S-wave (km/s) = 3.39623 3.94584 3.68131
# Velocity P-wave (km/s) = 5.81649 6.61729 6.22977
#
# Compressibility (1/GPa) = 0.02505352
#
# Stress axis : x y z
#
# Youngs Moduli (GPa) = 63.19375 110.68997 76.49735
#
# Poissons Ratio (x) = 0.17232 -0.00336
# Poissons Ratio (y) = 0.09838 0.37681
# Poissons Ratio (z) = -0.00278 0.54524
#
# Static dielectric constant tensor:
#      x y z
#    x 3.659760 0.000000 0.000000 
#    y 0.000000 3.960460 0.000000 
#    z 0.000000 0.000000 4.252680 
# 
# 
# High freq. dielectric constant tensor:
#      x y z
#    x 1.834200 0.000000 0.000000 
#    y 0.000000 1.864000 0.000000 
#    z 0.000000 0.000000 1.868580 
# 
# From -- ./inp_files/9357.got.cif
#   From: 2010.03.12/outbox.cif.g09.slc.cpg/sg20_5_cif.got.tgz:9357.got - 2010.04.14 01:38:04.
