data_PCOD8159800
_publ_section_title
;
Structure prediction by ZEFSAII (Michael W. Deem and Ramdas Pophale) SiO2 
 PCOD8159800
Probable space group: C 2 2 21
;
_chemical_formula_sum "Si O2"
_cell_formula_units_Z 52
_cell_length_a 13.517150
_cell_length_b 6.486753
_cell_length_c 29.763145
_cell_angle_alpha 90.000000
_cell_angle_beta 90.000000
_cell_angle_gamma 90.000000
_cell_volume 2609.704381
_symmetry_space_group_name_H-M "C 2 2 21"
_symmetry_group_IT_number 20
_symmetry_cell_setting 'orthorhombic'
loop_
_space_group_symop_operation_xyz
x,y,z
-x,-y,1/2+z
x,-y,-z
-x,y,1/2-z
1/2+x,1/2+y,z
1/2-x,1/2-y,1/2+z
1/2+x,1/2-y,-z
1/2-x,1/2+y,1/2-z
loop_
_atom_site_type_symbol
_atom_site_label
_atom_site_fract_x
_atom_site_fract_y
_atom_site_fract_z
Si Si1 0.055309 0.500000 0.500000
Si Si2 0.892909 0.335974 0.769370
Si Si3 0.748067 0.504532 0.695485
Si Si4 0.709492 0.722136 0.114453
Si Si5 0.349716 0.116137 0.850738
Si Si6 0.002758 0.790988 0.576490
Si Si7 0.849361 0.120341 0.957223
O O1 0.124738 0.646715 0.470303
O O2 0.989840 0.636339 0.534138
O O3 0.827263 0.453904 0.733212
O O4 0.903099 0.477649 0.813271
O O5 0.000000 0.286388 0.750000
O O6 0.845238 0.116974 0.781831
O O7 0.803484 0.657010 0.661113
O O8 0.709022 0.302515 0.671326
O O9 0.770383 0.513640 0.121192
O O10 0.604555 0.653818 0.094975
O O11 0.765810 0.876663 0.080731
O O12 0.434161 0.189574 0.884160
O O13 0.053053 0.003428 0.560727
O O14 0.804967 0.000000 0.000000
#
# Coordination Sequence:
#
# PCOD8159800 Si02
#       7
#     4   8   8   8   8   8   8
#     4  10  22  44  64  88 132 158 208 268 306 378
#     4  11  24  42  66  94 127 170 212 263 316 371
#     4  11  23  43  64  96 128 166 217 260 312 385
#     4  11  24  41  67  93 125 167 207 259 321 370
#     4  11  23  43  64  93 133 162 211 265 310 380
#     4  11  23  42  65  94 122 166 210 257 319 380
#     4  10  22  43  62  91 126 158 209 261 306 377
#
# _framework density 19.925629000000001
#
# number of rings (size 3 to 8) (size 9 to 14) (size 15 to 20)
#    0.000    1.231    4.615    0.923    1.077    3.077 
#    4.154    0.000    0.000    0.000    0.000    0.000 
#    0.000    0.000    0.000    0.000    0.000    0.000 
#
# Total GULP energy -322525.981363 kJ/mol
# GULP energy per Si atom -12404.845437 kJ/mol
# Density = 1.988028 g / cm^3
# Si number density = 19.925629 Si / 1000 Ang^3
#
#
#
# Elastic Constant Matrix: (Units=GPa)
#
#
# Indices 1 2 3 4 5 6 
#
# 1 109.7980 47.7023 61.4907 0.0000 0.0000 0.0000
# 2 47.7023 101.6173 42.9677 0.0000 0.0000 0.0000
# 3 61.4907 42.9677 121.0368 0.0000 0.0000 0.0000
# 4 0.0000 0.0000 0.0000 14.0065 0.0000 0.0000
# 5 0.0000 0.0000 0.0000 0.0000 25.8024 0.0000
# 6 0.0000 0.0000 0.0000 0.0000 0.0000 23.4082
#
#
#
# Elastic Compliance Matrix: (Units=1/GPa)
#
#
# Indices 1 2 3 4 5 6 
#
# 1 0.014123 -0.004231 -0.005673 0.000000 0.000000 0.000000
# 2 -0.004231 0.012846 -0.002411 0.000000 0.000000 0.000000
# 3 -0.005673 -0.002411 0.012000 0.000000 0.000000 0.000000
# 4 0.000000 0.000000 0.000000 0.071395 0.000000 0.000000
# 5 0.000000 0.000000 0.000000 0.000000 0.038756 0.000000
# 6 0.000000 0.000000 0.000000 0.000000 0.000000 0.042720
#
#
# Mechanical properties :
#
#
# Convention : Reuss Voigt Hill
#
# Bulk Modulus (GPa) = 69.73766 70.75264 70.24515
# Shear Modulus (GPa) = 22.59886 24.66285 23.63086
#
# Velocity S-wave (km/s) = 3.37138 3.52198 3.44750
# Velocity P-wave (km/s) = 7.08731 7.21973 7.15383
#
# Compressibility (1/GPa) = 0.01433945
#
# Stress axis : x y z
#
# Youngs Moduli (GPa) = 70.80746 77.84254 83.33439
#
# Poissons Ratio (x) = 0.32935 0.47275
# Poissons Ratio (y) = 0.29958 0.20092
# Poissons Ratio (z) = 0.40168 0.18768
#
# Static dielectric constant tensor:
#      x y z
#    x 3.403540 0.000000 0.000000 
#    y 0.000000 3.699170 0.000000 
#    z 0.000000 0.000000 4.017240 
# 
# 
# High freq. dielectric constant tensor:
#      x y z
#    x 1.759630 0.000000 0.000000 
#    y 0.000000 1.787550 0.000000 
#    z 0.000000 0.000000 1.804160 
# 
# From -- ./inp_files/31293.got.cif
#   From: 2010.03.12/outbox.cif.g09.slc.cpg/sg20_16_cif.got.tgz:31293.got - 2010.04.14 01:38:04.
