data_PCOD8159908
_publ_section_title
;
Structure prediction by ZEFSAII (Michael W. Deem and Ramdas Pophale) SiO2 
 PCOD8159908
Probable space group: C 2 2 21
;
_chemical_formula_sum "Si O2"
_cell_formula_units_Z 40
_cell_length_a 26.053073
_cell_length_b 9.005341
_cell_length_c 7.940692
_cell_angle_alpha 90.000000
_cell_angle_beta 90.000000
_cell_angle_gamma 90.000000
_cell_volume 1863.019798
_symmetry_space_group_name_H-M "C 2 2 21"
_symmetry_group_IT_number 20
_symmetry_cell_setting 'orthorhombic'
loop_
_space_group_symop_operation_xyz
x,y,z
-x,-y,1/2+z
x,-y,-z
-x,y,1/2-z
1/2+x,1/2+y,z
1/2-x,1/2-y,1/2+z
1/2+x,1/2-y,-z
1/2-x,1/2+y,1/2-z
loop_
_atom_site_type_symbol
_atom_site_label
_atom_site_fract_x
_atom_site_fract_y
_atom_site_fract_z
Si Si1 0.093532 0.675812 0.847884
Si Si2 0.394488 0.327272 0.996600
Si Si3 0.221949 0.846915 0.574636
Si Si4 0.557481 0.853418 0.800396
Si Si5 0.307980 0.343489 0.560088
O O1 0.080177 0.764332 0.676230
O O2 0.091654 0.502155 0.802153
O O3 0.149629 0.717233 0.915930
O O4 0.056385 0.713596 0.008097
O O5 0.418422 0.257524 0.164607
O O6 0.407378 0.500000 0.000000
O O7 0.333315 0.298676 0.001939
O O8 0.263204 0.715580 0.560393
O O9 0.218780 0.883112 0.767978
O O10 0.243043 0.000000 0.500000
O O11 0.500000 0.895270 0.750000
O O12 0.332442 0.500000 0.500000
#
# Coordination Sequence:
#
# PCOD8159908 Si02
#       5
#     8   8   8   8   8
#     4  10  26  43  72 100 136 180 232 291 343 422
#     4  10  24  45  69 104 143 180 227 293 352 416
#     4  10  23  39  65  97 136 186 224 274 342 418
#     4  11  26  46  73  99 133 187 236 293 352 422
#     4  11  24  41  66 100 139 183 228 286 345 413
#
# _framework density 21.470517000000001
#
# number of rings (size 3 to 8) (size 9 to 14) (size 15 to 20)
#    0.000    1.600    0.000    1.800   19.600    3.200 
#    3.600    0.000    0.000    0.000    0.000    0.000 
#    0.000    0.000    0.000    0.000    0.000    0.000 
#
# Total GULP energy -247917.455191 kJ/mol
# GULP energy per Si atom -12395.872760 kJ/mol
# Density = 2.142165 g / cm^3
# Si number density = 21.470517 Si / 1000 Ang^3
#
#
#
# Elastic Constant Matrix: (Units=GPa)
#
#
# Indices 1 2 3 4 5 6 
#
# 1 75.7834 59.9042 31.9266 0.0000 0.0000 0.0000
# 2 59.9042 141.1759 59.3443 0.0000 0.0000 0.0000
# 3 31.9266 59.3443 137.6508 0.0000 0.0000 0.0000
# 4 0.0000 0.0000 0.0000 40.0702 0.0000 0.0000
# 5 0.0000 0.0000 0.0000 0.0000 41.2800 0.0000
# 6 0.0000 0.0000 0.0000 0.0000 0.0000 17.4169
#
#
#
# Elastic Compliance Matrix: (Units=1/GPa)
#
#
# Indices 1 2 3 4 5 6 
#
# 1 0.020016 -0.007990 -0.001198 0.000000 0.000000 0.000000
# 2 -0.007990 0.011840 -0.003252 0.000000 0.000000 0.000000
# 3 -0.001198 -0.003252 0.008944 0.000000 0.000000 0.000000
# 4 0.000000 0.000000 0.000000 0.024956 0.000000 0.000000
# 5 0.000000 0.000000 0.000000 0.000000 0.024225 0.000000
# 6 0.000000 0.000000 0.000000 0.000000 0.000000 0.057416
#
#
# Mechanical properties :
#
#
# Convention : Reuss Voigt Hill
#
# Bulk Modulus (GPa) = 62.80481 72.99559 67.90020
# Shear Modulus (GPa) = 28.15594 33.31574 30.73584
#
# Velocity S-wave (km/s) = 3.62522 3.94343 3.78767
# Velocity P-wave (km/s) = 6.84384 7.40311 7.12896
#
# Compressibility (1/GPa) = 0.01592235
#
# Stress axis : x y z
#
# Youngs Moduli (GPa) = 49.96092 84.45722 111.80152
#
# Poissons Ratio (x) = 0.67477 0.13393
# Poissons Ratio (y) = 0.39916 0.36353
# Poissons Ratio (z) = 0.05985 0.27462
#
# Static dielectric constant tensor:
#      x y z
#    x 3.783970 0.000000 0.000000 
#    y 0.000000 3.542090 0.000000 
#    z 0.000000 0.000000 4.384780 
# 
# 
# High freq. dielectric constant tensor:
#      x y z
#    x 1.825010 0.000000 0.000000 
#    y 0.000000 1.842370 0.000000 
#    z 0.000000 0.000000 1.869170 
# 
# From -- ./inp_files/6270.got.cif
#   From: 2010.03.12/outbox.cif.g09.slc.cpg/sg20_4_cif.got.tgz:6270.got - 2010.04.14 01:38:04.
