data_PCOD8159572
_publ_section_title
;
Structure prediction by ZEFSAII (Michael W. Deem and Ramdas Pophale) SiO2 
 PCOD8159572
Probable space group: C 2 2 21
;
_chemical_formula_sum "Si O2"
_cell_formula_units_Z 36
_cell_length_a 12.230400
_cell_length_b 21.752604
_cell_length_c 6.346020
_cell_angle_alpha 90.000000
_cell_angle_beta 90.000000
_cell_angle_gamma 90.000000
_cell_volume 1688.314503
_symmetry_space_group_name_H-M "C 2 2 21"
_symmetry_group_IT_number 20
_symmetry_cell_setting 'orthorhombic'
loop_
_space_group_symop_operation_xyz
x,y,z
-x,-y,1/2+z
x,-y,-z
-x,y,1/2-z
1/2+x,1/2+y,z
1/2-x,1/2-y,1/2+z
1/2+x,1/2-y,-z
1/2-x,1/2+y,1/2-z
loop_
_atom_site_type_symbol
_atom_site_label
_atom_site_fract_x
_atom_site_fract_y
_atom_site_fract_z
Si Si1 0.000000 0.365536 0.250000
Si Si2 0.164077 0.000000 0.000000
Si Si3 0.190773 0.608955 0.474945
Si Si4 0.163766 0.819064 0.301525
Si Si5 0.500000 0.583913 0.750000
Si Si6 0.640377 0.194042 0.099735
O O1 0.092113 0.407996 0.361632
O O2 0.948939 0.320011 0.423168
O O3 0.245416 0.951246 0.889296
O O4 0.085879 0.038164 0.850981
O O5 0.273220 0.652898 0.600822
O O6 0.139482 0.640259 0.271162
O O7 0.239500 0.801745 0.497815
O O8 0.107923 0.757209 0.214532
O O9 0.073412 0.868423 0.389037
#
# Coordination Sequence:
#
# PCOD8159572 Si02
#       6
#     4   4   8   8   4   8
#     4  10  24  40  63  99 126 170 230 270 354 388
#     4  10  24  46  66  92 134 174 232 264 344 392
#     4  10  22  44  61  94 129 174 221 285 325 404
#     4  10  22  38  62  98 134 171 220 263 342 399
#     4  10  24  40  65  97 128 178 220 272 322 410
#     4  11  21  39  66  95 138 172 217 285 334 409
#
# _framework density 21.323041
#
# number of rings (size 3 to 8) (size 9 to 14) (size 15 to 20)
#    0.000    1.778    2.222    0.667    6.222    0.000 
#    4.000    0.000    0.000    0.000    0.000    0.000 
#    0.000    0.000    0.000    0.000    0.000    0.000 
#
# Total GULP energy -223018.448387 kJ/mol
# GULP energy per Si atom -12389.913799 kJ/mol
# Density = 2.127451 g / cm^3
# Si number density = 21.323041 Si / 1000 Ang^3
#
#
#
# Elastic Constant Matrix: (Units=GPa)
#
#
# Indices 1 2 3 4 5 6 
#
# 1 126.6899 70.6746 41.3957 0.0000 0.0000 0.0000
# 2 70.6746 152.8932 49.1047 0.0000 0.0000 0.0000
# 3 41.3957 49.1047 88.8359 0.0000 0.0000 0.0000
# 4 0.0000 0.0000 0.0000 21.4001 0.0000 0.0000
# 5 0.0000 0.0000 0.0000 0.0000 30.4167 0.0000
# 6 0.0000 0.0000 0.0000 0.0000 0.0000 20.7602
#
#
#
# Elastic Compliance Matrix: (Units=1/GPa)
#
#
# Indices 1 2 3 4 5 6 
#
# 1 0.011206 -0.004259 -0.002868 0.000000 0.000000 0.000000
# 2 -0.004259 0.009571 -0.003306 0.000000 0.000000 0.000000
# 3 -0.002868 -0.003306 0.014420 0.000000 0.000000 0.000000
# 4 0.000000 0.000000 0.000000 0.046729 0.000000 0.000000
# 5 0.000000 0.000000 0.000000 0.000000 0.032877 0.000000
# 6 0.000000 0.000000 0.000000 0.000000 0.000000 0.048169
#
#
# Mechanical properties :
#
#
# Convention : Reuss Voigt Hill
#
# Bulk Modulus (GPa) = 69.77160 76.75213 73.26186
# Shear Modulus (GPa) = 26.50912 28.33168 27.42040
#
# Velocity S-wave (km/s) = 3.52975 3.64907 3.58991
# Velocity P-wave (km/s) = 7.02883 7.33671 7.18442
#
# Compressibility (1/GPa) = 0.01433248
#
# Stress axis : x y z
#
# Youngs Moduli (GPa) = 89.23614 104.48262 69.34680
#
# Poissons Ratio (x) = 0.44500 0.19886
# Poissons Ratio (y) = 0.38006 0.22925
# Poissons Ratio (z) = 0.25590 0.34540
#
# Static dielectric constant tensor:
#      x y z
#    x 4.403060 0.000000 0.000000 
#    y 0.000000 4.232230 0.000000 
#    z 0.000000 0.000000 3.709150 
# 
# 
# High freq. dielectric constant tensor:
#      x y z
#    x 1.863360 0.000000 0.000000 
#    y 0.000000 1.833550 0.000000 
#    z 0.000000 0.000000 1.809550 
# 
# From -- ./inp_files/1246.got.cif
#   From: 2010.03.12/outbox.cif.g09.slc.cpg/sg20_1_cif.got.tgz:1246.got - 2010.04.14 01:38:04.
