data_PCOD8159298
_publ_section_title
;
Structure prediction by ZEFSAII (Michael W. Deem and Ramdas Pophale) SiO2 
 PCOD8159298
Probable space group: C 2 2 21
;
_chemical_formula_sum "Si O2"
_cell_formula_units_Z 60
_cell_length_a 11.612714
_cell_length_b 8.040051
_cell_length_c 32.178991
_cell_angle_alpha 90.000000
_cell_angle_beta 90.000000
_cell_angle_gamma 90.000000
_cell_volume 3004.449829
_symmetry_space_group_name_H-M "C 2 2 21"
_symmetry_group_IT_number 20
_symmetry_cell_setting 'orthorhombic'
loop_
_space_group_symop_operation_xyz
x,y,z
-x,-y,1/2+z
x,-y,-z
-x,y,1/2-z
1/2+x,1/2+y,z
1/2-x,1/2-y,1/2+z
1/2+x,1/2-y,-z
1/2-x,1/2+y,1/2-z
loop_
_atom_site_type_symbol
_atom_site_label
_atom_site_fract_x
_atom_site_fract_y
_atom_site_fract_z
Si Si1 0.745204 0.500000 0.500000
Si Si2 0.223240 0.638586 0.805572
Si Si3 0.312557 0.867198 0.873869
Si Si4 0.418070 0.657017 0.941641
Si Si5 0.564652 0.602598 0.099665
Si Si6 0.599425 0.310972 0.991523
Si Si7 0.877127 0.144613 0.234774
Si Si8 0.524230 0.141208 0.663939
O O1 0.671262 0.481812 0.457891
O O2 0.813913 0.329562 0.507052
O O3 0.300513 0.712069 0.842680
O O4 0.196594 0.784296 0.772882
O O5 0.298255 0.493884 0.785810
O O6 0.101021 0.569356 0.822801
O O7 0.354552 0.807824 0.919148
O O8 0.187152 0.947648 0.880414
O O9 0.404146 0.995725 0.856771
O O10 0.503518 0.572360 0.908746
O O11 0.483388 0.723448 0.982533
O O12 0.489874 0.707555 0.131969
O O13 0.576373 0.710625 0.057479
O O14 0.645182 0.500000 0.000000
O O15 0.000000 0.068120 0.250000
O O16 0.904020 0.295079 0.203412
#
# Coordination Sequence:
#
# PCOD8159298 Si02
#       8
#     4   8   8   8   8   8   8   8
#     4  12  22  42  64  82 124 160 202 268 316 368
#     4  10  22  39  62  90 126 152 209 246 298 380
#     4  11  23  38  60  90 120 160 201 253 309 371
#     4  11  23  41  59  88 120 156 209 261 310 377
#     4  10  21  40  55  84 120 148 205 255 294 375
#     4  10  23  41  59  90 118 157 213 258 316 387
#     4  10  21  40  62  89 121 162 193 249 305 357
#     4  10  23  38  59  89 120 160 199 247 309 365
#
# _framework density 19.970376999999999
#
# number of rings (size 3 to 8) (size 9 to 14) (size 15 to 20)
#    0.000    1.600    3.333    1.600    1.867    4.267 
#    1.200    0.000    0.000    0.000    0.000    0.000 
#    0.000    0.000    0.000    0.000    0.000    0.000 
#
# Total GULP energy -372011.846399 kJ/mol
# GULP energy per Si atom -12400.394880 kJ/mol
# Density = 1.992492 g / cm^3
# Si number density = 19.970377 Si / 1000 Ang^3
#
#
#
# Elastic Constant Matrix: (Units=GPa)
#
#
# Indices 1 2 3 4 5 6 
#
# 1 93.6571 39.1743 25.1046 0.0000 0.0000 0.0000
# 2 39.1743 57.0831 10.6731 0.0000 0.0000 0.0000
# 3 25.1046 10.6731 82.0463 0.0000 0.0000 0.0000
# 4 0.0000 0.0000 0.0000 34.1932 0.0000 0.0000
# 5 0.0000 0.0000 0.0000 0.0000 36.3076 0.0000
# 6 0.0000 0.0000 0.0000 0.0000 0.0000 23.4589
#
#
#
# Elastic Compliance Matrix: (Units=1/GPa)
#
#
# Indices 1 2 3 4 5 6 
#
# 1 0.015918 -0.010263 -0.003535 0.000000 0.000000 0.000000
# 2 -0.010263 0.024572 -0.000056 0.000000 0.000000 0.000000
# 3 -0.003535 -0.000056 0.013277 0.000000 0.000000 0.000000
# 4 0.000000 0.000000 0.000000 0.029246 0.000000 0.000000
# 5 0.000000 0.000000 0.000000 0.000000 0.027542 0.000000
# 6 0.000000 0.000000 0.000000 0.000000 0.000000 0.042628
#
#
# Mechanical properties :
#
#
# Convention : Reuss Voigt Hill
#
# Bulk Modulus (GPa) = 38.37604 42.52116 40.44860
# Shear Modulus (GPa) = 26.37451 29.31424 27.84437
#
# Velocity S-wave (km/s) = 3.63806 3.83546 3.73806
# Velocity P-wave (km/s) = 6.07499 6.39943 6.23932
#
# Compressibility (1/GPa) = 0.02605792
#
# Stress axis : x y z
#
# Youngs Moduli (GPa) = 62.82392 40.69713 75.31628
#
# Poissons Ratio (x) = 0.41766 0.26628
# Poissons Ratio (y) = 0.64474 0.00424
# Poissons Ratio (z) = 0.22211 0.00229
#
# Static dielectric constant tensor:
#      x y z
#    x 3.880950 0.000000 0.000000 
#    y 0.000000 3.265980 0.000000 
#    z 0.000000 0.000000 3.909200 
# 
# 
# High freq. dielectric constant tensor:
#      x y z
#    x 1.791350 0.000000 0.000000 
#    y 0.000000 1.753840 0.000000 
#    z 0.000000 0.000000 1.797700 
# 
# From -- ./inp_files/31176.got.cif
#   From: 2010.03.12/outbox.cif.g09.slc.cpg/sg20_16_cif.got.tgz:31176.got - 2010.04.14 01:38:04.
