data_PCOD8159245
_publ_section_title
;
Structure prediction by ZEFSAII (Michael W. Deem and Ramdas Pophale) SiO2 
 PCOD8159245
Probable space group: C 2 2 21
;
_chemical_formula_sum "Si O2"
_cell_formula_units_Z 44
_cell_length_a 15.116919
_cell_length_b 8.541957
_cell_length_c 17.511269
_cell_angle_alpha 90.000000
_cell_angle_beta 90.000000
_cell_angle_gamma 90.000000
_cell_volume 2261.196405
_symmetry_space_group_name_H-M "C 2 2 21"
_symmetry_group_IT_number 20
_symmetry_cell_setting 'orthorhombic'
loop_
_space_group_symop_operation_xyz
x,y,z
-x,-y,1/2+z
x,-y,-z
-x,y,1/2-z
1/2+x,1/2+y,z
1/2-x,1/2-y,1/2+z
1/2+x,1/2-y,-z
1/2-x,1/2+y,1/2-z
loop_
_atom_site_type_symbol
_atom_site_label
_atom_site_fract_x
_atom_site_fract_y
_atom_site_fract_z
Si Si1 0.000000 0.297358 0.250000
Si Si2 0.708430 0.745564 0.074127
Si Si3 0.954123 0.538514 0.125700
Si Si4 0.315263 0.000000 0.000000
Si Si5 0.662896 0.589758 0.218415
Si Si6 0.414361 0.000000 0.500000
Si Si7 0.169374 0.233203 0.704614
O O1 0.000654 0.403038 0.174373
O O2 0.912679 0.192925 0.242380
O O3 0.755544 0.655313 0.005005
O O4 0.656444 0.616960 0.126663
O O5 0.782935 0.830688 0.127317
O O6 0.643632 0.872348 0.041335
O O7 0.869706 0.476047 0.078282
O O8 0.921824 0.677881 0.181959
O O9 0.026135 0.592266 0.062696
O O10 0.761155 0.647149 0.246220
O O11 0.646894 0.408939 0.239023
#
# Coordination Sequence:
#
# PCOD8159245 Si02
#       7
#     4   8   8   4   8   4   8
#     4  12  22  38  58  96 126 156 210 256 318 342
#     4   9  21  39  61  92 116 164 205 254 306 366
#     4  10  21  39  63  87 120 169 197 260 304 379
#     4   9  20  40  62  83 122 160 214 245 312 368
#     4  10  21  39  60  93 120 159 204 260 298 369
#     4  11  20  42  62  91 128 158 204 249 320 366
#     4   9  20  40  61  90 117 162 210 242 317 352
#
# _framework density 19.458725999999999
#
# number of rings (size 3 to 8) (size 9 to 14) (size 15 to 20)
#    1.091    1.091    1.818    1.091    0.000    2.182 
#    6.545    0.000    0.000    0.000    0.000    0.000 
#    0.000    0.000    0.000    0.000    0.000    0.000 
#
# Total GULP energy -272604.413956 kJ/mol
# GULP energy per Si atom -12391.109725 kJ/mol
# Density = 1.941444 g / cm^3
# Si number density = 19.458726 Si / 1000 Ang^3
#
#
#
# Elastic Constant Matrix: (Units=GPa)
#
#
# Indices 1 2 3 4 5 6 
#
# 1 78.9257 43.0071 21.0947 0.0000 0.0000 0.0000
# 2 43.0071 108.1273 46.1417 0.0000 0.0000 0.0000
# 3 21.0947 46.1417 65.4018 0.0000 0.0000 0.0000
# 4 0.0000 0.0000 0.0000 41.5574 0.0000 0.0000
# 5 0.0000 0.0000 0.0000 0.0000 -9.4976 0.0000
# 6 0.0000 0.0000 0.0000 0.0000 0.0000 33.0974
#
#
#
# Elastic Compliance Matrix: (Units=1/GPa)
#
#
# Indices 1 2 3 4 5 6 
#
# 1 0.016219 -0.006036 -0.000973 0.000000 0.000000 0.000000
# 2 -0.006036 0.015478 -0.008973 0.000000 0.000000 0.000000
# 3 -0.000973 -0.008973 0.021935 0.000000 0.000000 0.000000
# 4 0.000000 0.000000 0.000000 0.024063 0.000000 0.000000
# 5 0.000000 0.000000 0.000000 0.000000 -0.105290 0.000000
# 6 0.000000 0.000000 0.000000 0.000000 0.000000 0.030214
#
#
# Mechanical properties :
#
#
# Convention : Reuss Voigt Hill
#
# Bulk Modulus (GPa) = 46.15122 52.54908 49.35015
# Shear Modulus (GPa) = 119.59897 22.51218 71.05558
#
# Velocity S-wave (km/s) = 7.84833 3.40504 6.04941
# Velocity P-wave (km/s) = 10.29065 6.52098 8.61454
#
# Compressibility (1/GPa) = 0.02166790
#
# Stress axis : x y z
#
# Youngs Moduli (GPa) = 61.65528 64.60627 45.58985
#
# Poissons Ratio (x) = 0.38996 0.04435
# Poissons Ratio (y) = 0.37215 0.40909
# Poissons Ratio (z) = 0.05998 0.57973
#
# Static dielectric constant tensor:
#      x y z
#    x 3.608090 0.000000 0.000000 
#    y 0.000000 3.227640 0.000000 
#    z 0.000000 0.000000 3.551950 
# 
# 
# High freq. dielectric constant tensor:
#      x y z
#    x 1.763640 0.000000 0.000000 
#    y 0.000000 1.729580 0.000000 
#    z 0.000000 0.000000 1.753820 
# 
# From -- ./inp_files/24778.got.cif
#   From: 2010.03.12/outbox.cif.g09.slc.cpg/sg20_13_cif.got.tgz:24778.got - 2010.04.14 01:38:04.
