data_PCOD8159835
_publ_section_title
;
Structure prediction by ZEFSAII (Michael W. Deem and Ramdas Pophale) SiO2 
 PCOD8159835
Probable space group: C 2 2 21
;
_chemical_formula_sum "Si O2"
_cell_formula_units_Z 60
_cell_length_a 25.041351
_cell_length_b 9.127443
_cell_length_c 14.059748
_cell_angle_alpha 90.000000
_cell_angle_beta 90.000000
_cell_angle_gamma 90.000000
_cell_volume 3213.545267
_symmetry_space_group_name_H-M "C 2 2 21"
_symmetry_group_IT_number 20
_symmetry_cell_setting 'orthorhombic'
loop_
_space_group_symop_operation_xyz
x,y,z
-x,-y,1/2+z
x,-y,-z
-x,y,1/2-z
1/2+x,1/2+y,z
1/2-x,1/2-y,1/2+z
1/2+x,1/2-y,-z
1/2-x,1/2+y,1/2-z
loop_
_atom_site_type_symbol
_atom_site_label
_atom_site_fract_x
_atom_site_fract_y
_atom_site_fract_z
Si Si1 0.557667 0.173030 0.493525
Si Si2 0.442377 0.340117 0.199124
Si Si3 0.043583 0.157262 0.027681
Si Si4 0.864200 0.841732 0.659140
Si Si5 0.132315 0.832918 0.130943
Si Si6 0.804403 0.340603 0.494511
Si Si7 0.616921 0.617083 0.365891
Si Si8 0.701842 0.500000 0.500000
O O1 0.560211 0.221864 0.384335
O O2 0.499022 0.212990 0.531845
O O3 0.600188 0.260536 0.557685
O O4 0.568077 0.000000 0.500000
O O5 0.500000 0.340334 0.250000
O O6 0.395531 0.287556 0.270411
O O7 0.431206 0.504377 0.159526
O O8 0.073118 0.158701 0.129182
O O9 0.088798 0.187463 0.950802
O O10 0.016398 0.000000 0.000000
O O11 0.826071 0.736022 0.600267
O O12 0.862676 0.801250 0.770615
O O13 0.843433 0.005311 0.639608
O O14 0.182289 0.736419 0.095645
O O15 0.832010 0.500000 0.500000
O O16 0.739986 0.357271 0.484924
O O17 0.665389 0.521368 0.407409
#
# Coordination Sequence:
#
# PCOD8159835 Si02
#       8
#     8   8   8   8   8   8   8   4
#     4  12  25  38  54  91 134 166 197 256 318 365
#     4  11  21  40  67  93 120 173 214 247 302 381
#     4   9  17  34  58  87 121 157 203 245 296 369
#     4   9  20  37  64  93 114 157 216 256 300 367
#     4   9  18  35  63  92 118 153 214 260 288 368
#     4   9  20  38  62  89 124 155 197 257 334 358
#     4  11  23  43  66  85 125 165 222 254 299 389
#     4  10  22  44  64  84 124 172 204 266 320 366
#
# _framework density 18.670966
#
# number of rings (size 3 to 8) (size 9 to 14) (size 15 to 20)
#    0.400    1.600    2.667    2.000    3.733    3.200 
#    7.200    1.333    0.000    0.000    0.000    0.000 
#    0.000    0.000    0.000    0.000    0.000    0.000 
#
# Total GULP energy -371803.822428 kJ/mol
# GULP energy per Si atom -12393.460748 kJ/mol
# Density = 1.862847 g / cm^3
# Si number density = 18.670966 Si / 1000 Ang^3
#
#
#
# Elastic Constant Matrix: (Units=GPa)
#
#
# Indices 1 2 3 4 5 6 
#
# 1 90.2714 46.2719 58.8234 0.0000 0.0000 0.0000
# 2 46.2719 110.4130 59.7873 0.0000 0.0000 0.0000
# 3 58.8234 59.7873 142.1618 0.0000 0.0000 0.0000
# 4 0.0000 0.0000 0.0000 26.6227 0.0000 0.0000
# 5 0.0000 0.0000 0.0000 0.0000 16.4729 0.0000
# 6 0.0000 0.0000 0.0000 0.0000 0.0000 28.8296
#
#
#
# Elastic Compliance Matrix: (Units=1/GPa)
#
#
# Indices 1 2 3 4 5 6 
#
# 1 0.016531 -0.004175 -0.005084 0.000000 0.000000 0.000000
# 2 -0.004175 0.012782 -0.003648 0.000000 0.000000 0.000000
# 3 -0.005084 -0.003648 0.010672 0.000000 0.000000 0.000000
# 4 0.000000 0.000000 0.000000 0.037562 0.000000 0.000000
# 5 0.000000 0.000000 0.000000 0.000000 0.060706 0.000000
# 6 0.000000 0.000000 0.000000 0.000000 0.000000 0.034687
#
#
# Mechanical properties :
#
#
# Convention : Reuss Voigt Hill
#
# Bulk Modulus (GPa) = 70.56863 74.73459 72.65161
# Shear Modulus (GPa) = 24.57283 26.24927 25.41105
#
# Velocity S-wave (km/s) = 3.63174 3.75358 3.69317
# Velocity P-wave (km/s) = 7.44742 7.67463 7.56188
#
# Compressibility (1/GPa) = 0.01417060
#
# Stress axis : x y z
#
# Youngs Moduli (GPa) = 60.49368 78.23619 93.70053
#
# Poissons Ratio (x) = 0.32660 0.47641
# Poissons Ratio (y) = 0.25253 0.34183
# Poissons Ratio (z) = 0.30757 0.28542
#
# Static dielectric constant tensor:
#      x y z
#    x 3.293430 0.000000 0.000000 
#    y 0.000000 3.327920 0.000000 
#    z 0.000000 0.000000 3.665170 
# 
# 
# High freq. dielectric constant tensor:
#      x y z
#    x 1.708420 0.000000 0.000000 
#    y 0.000000 1.703880 0.000000 
#    z 0.000000 0.000000 1.737720 
# 
# From -- ./inp_files/22210.got.cif
#   From: 2010.03.12/outbox.cif.g09.slc.cpg/sg20_12_cif.got.tgz:22210.got - 2010.04.14 01:38:04.
