data_PCOD8159491
_publ_section_title
;
Structure prediction by ZEFSAII (Michael W. Deem and Ramdas Pophale) SiO2 
 PCOD8159491
Probable space group: C 2 2 21
;
_chemical_formula_sum "Si O2"
_cell_formula_units_Z 64
_cell_length_a 7.960812
_cell_length_b 31.268322
_cell_length_c 11.434196
_cell_angle_alpha 90.000000
_cell_angle_beta 90.000000
_cell_angle_gamma 90.000000
_cell_volume 2846.214167
_symmetry_space_group_name_H-M "C 2 2 21"
_symmetry_group_IT_number 20
_symmetry_cell_setting 'orthorhombic'
loop_
_space_group_symop_operation_xyz
x,y,z
-x,-y,1/2+z
x,-y,-z
-x,y,1/2-z
1/2+x,1/2+y,z
1/2-x,1/2-y,1/2+z
1/2+x,1/2-y,-z
1/2-x,1/2+y,1/2-z
loop_
_atom_site_type_symbol
_atom_site_label
_atom_site_fract_x
_atom_site_fract_y
_atom_site_fract_z
Si Si1 0.793484 0.376066 0.859057
Si Si2 0.332864 0.144234 0.396510
Si Si3 0.824555 0.415049 0.388862
Si Si4 0.201216 0.841005 0.249631
Si Si5 0.180651 0.193772 0.990234
Si Si6 0.508549 0.526146 0.620419
Si Si7 0.807838 0.216022 0.959896
Si Si8 0.673636 0.049355 0.532627
O O1 0.755473 0.376636 0.721285
O O2 0.967731 0.351991 0.885734
O O3 0.656053 0.345132 0.918363
O O4 0.798512 0.423840 0.912372
O O5 0.276417 0.112112 0.497107
O O6 0.265464 0.191979 0.425015
O O7 0.800922 0.384794 0.276385
O O8 0.687434 0.451910 0.384466
O O9 0.011954 0.434468 0.394692
O O10 0.270672 0.825809 0.124358
O O11 0.263342 0.805239 0.341944
O O12 0.000000 0.849396 0.250000
O O13 0.004610 0.211641 0.952490
O O14 0.282171 0.233406 0.041878
O O15 0.491943 0.500000 0.500000
O O16 0.500000 0.502830 0.750000
O O17 0.340272 0.555970 0.613556
O O18 0.641915 0.000000 0.500000
#
# Coordination Sequence:
#
# PCOD8159491 Si02
#       8
#     8   8   8   8   8   8   8   8
#     4  10  22  40  67  92 132 179 216 286 340 407
#     4   9  21  42  63  93 130 173 227 270 338 406
#     4  10  21  43  73  98 135 183 227 277 347 411
#     4   9  21  40  66  92 131 180 223 278 336 412
#     4  11  23  39  64  93 134 169 226 273 339 404
#     4  11  26  45  70 102 141 179 228 291 350 417
#     4  10  22  40  61  95 128 178 219 275 330 407
#     4  10  24  45  69 106 136 177 234 285 347 416
#
# _framework density 22.486011000000001
#
# number of rings (size 3 to 8) (size 9 to 14) (size 15 to 20)
#    0.000    2.000    0.000    1.500    8.750    3.000 
#    2.250   10.625    0.000    0.000    0.000    0.000 
#    0.000    0.000    0.000    0.000    0.000    0.000 
#
# Total GULP energy -396618.048900 kJ/mol
# GULP energy per Si atom -12394.314028 kJ/mol
# Density = 2.243483 g / cm^3
# Si number density = 22.486011 Si / 1000 Ang^3
#
#
#
# Elastic Constant Matrix: (Units=GPa)
#
#
# Indices 1 2 3 4 5 6 
#
# 1 67.9752 9.0820 11.4860 0.0000 0.0000 0.0000
# 2 9.0820 95.8832 22.2093 0.0000 0.0000 0.0000
# 3 11.4860 22.2093 110.4230 0.0000 0.0000 0.0000
# 4 0.0000 0.0000 0.0000 32.8315 0.0000 0.0000
# 5 0.0000 0.0000 0.0000 0.0000 25.7792 0.0000
# 6 0.0000 0.0000 0.0000 0.0000 0.0000 34.8690
#
#
#
# Elastic Compliance Matrix: (Units=1/GPa)
#
#
# Indices 1 2 3 4 5 6 
#
# 1 0.015088 -0.001118 -0.001345 0.000000 0.000000 0.000000
# 2 -0.001118 0.011022 -0.002101 0.000000 0.000000 0.000000
# 3 -0.001345 -0.002101 0.009618 0.000000 0.000000 0.000000
# 4 0.000000 0.000000 0.000000 0.030459 0.000000 0.000000
# 5 0.000000 0.000000 0.000000 0.000000 0.038791 0.000000
# 6 0.000000 0.000000 0.000000 0.000000 0.000000 0.028679
#
#
# Mechanical properties :
#
#
# Convention : Reuss Voigt Hill
#
# Bulk Modulus (GPa) = 37.59065 39.98177 38.78621
# Shear Modulus (GPa) = 32.97079 34.12954 33.55016
#
# Velocity S-wave (km/s) = 3.83336 3.90014 3.86689
# Velocity P-wave (km/s) = 6.02880 6.17258 6.10112
#
# Compressibility (1/GPa) = 0.02660236
#
# Stress axis : x y z
#
# Youngs Moduli (GPa) = 66.27884 90.72956 103.96708
#
# Poissons Ratio (x) = 0.10140 0.13979
# Poissons Ratio (y) = 0.07408 0.21839
# Poissons Ratio (z) = 0.08912 0.19058
#
# Static dielectric constant tensor:
#      x y z
#    x 4.136980 0.000000 0.000000 
#    y 0.000000 4.152640 0.000000 
#    z 0.000000 0.000000 4.553700 
# 
# 
# High freq. dielectric constant tensor:
#      x y z
#    x 1.888140 0.000000 0.000000 
#    y 0.000000 1.876550 0.000000 
#    z 0.000000 0.000000 1.895940 
# 
# From -- ./inp_files/13388.got.cif
#   From: 2010.03.12/outbox.cif.g09.slc.cpg/sg20_7_cif.got.tgz:13388.got - 2010.04.14 01:38:04.
