data_PCOD8159898
_publ_section_title
;
Structure prediction by ZEFSAII (Michael W. Deem and Ramdas Pophale) SiO2 
 PCOD8159898
Probable space group: C 2 2 21
;
_chemical_formula_sum "Si O2"
_cell_formula_units_Z 56
_cell_length_a 12.616395
_cell_length_b 14.587849
_cell_length_c 13.316874
_cell_angle_alpha 90.000000
_cell_angle_beta 90.000000
_cell_angle_gamma 90.000000
_cell_volume 2450.918260
_symmetry_space_group_name_H-M "C 2 2 21"
_symmetry_group_IT_number 20
_symmetry_cell_setting 'orthorhombic'
loop_
_space_group_symop_operation_xyz
x,y,z
-x,-y,1/2+z
x,-y,-z
-x,y,1/2-z
1/2+x,1/2+y,z
1/2-x,1/2-y,1/2+z
1/2+x,1/2-y,-z
1/2-x,1/2+y,1/2-z
loop_
_atom_site_type_symbol
_atom_site_label
_atom_site_fract_x
_atom_site_fract_y
_atom_site_fract_z
Si Si1 0.186796 0.338027 0.627024
Si Si2 0.409142 0.596173 0.048389
Si Si3 0.980801 0.751218 0.442026
Si Si4 0.626675 0.000000 0.500000
Si Si5 0.000000 0.151093 0.250000
Si Si6 0.128400 0.712389 0.861360
Si Si7 0.194267 0.353783 0.857537
Si Si8 0.052087 0.480434 0.148586
O O1 0.204038 0.424425 0.552009
O O2 0.259451 0.250447 0.596406
O O3 0.214962 0.368737 0.739976
O O4 0.064638 0.310135 0.618190
O O5 0.477492 0.588237 0.151968
O O6 0.301058 0.648794 0.077105
O O7 0.380482 0.500000 0.000000
O O8 0.475081 0.646413 0.959311
O O9 0.962122 0.714621 0.554226
O O10 0.870705 0.741319 0.378997
O O11 0.547747 0.952653 0.420186
O O12 0.098778 0.219522 0.229955
O O13 0.129856 0.606369 0.827252
O O14 0.122960 0.438401 0.899593
O O15 0.000000 0.518480 0.250000
#
# Coordination Sequence:
#
# PCOD8159898 Si02
#       8
#     8   8   8   4   4   8   8   8
#     4  12  24  44  70 107 146 192 238 313 365 433
#     4  11  27  48  77 104 148 202 248 296 374 439
#     4  11  24  44  70  99 144 189 235 298 369 430
#     4  12  24  44  70 104 150 180 250 300 370 426
#     4  10  22  50  70  98 144 196 242 304 356 454
#     4  11  23  42  69 101 143 185 239 296 375 428
#     4  12  24  45  73 112 146 184 252 311 358 430
#     4  12  22  41  73 106 136 191 242 311 365 429
#
# _framework density 22.848579999999998
#
# number of rings (size 3 to 8) (size 9 to 14) (size 15 to 20)
#    0.000    0.571    6.429    1.286    5.000    0.000 
#   10.286    0.000    0.000    0.000    0.000    0.000 
#    0.000    0.000    0.000    0.000    0.000    0.000 
#
# Total GULP energy -347025.481553 kJ/mol
# GULP energy per Si atom -12393.767198 kJ/mol
# Density = 2.279658 g / cm^3
# Si number density = 22.848580 Si / 1000 Ang^3
#
#
#
# Elastic Constant Matrix: (Units=GPa)
#
#
# Indices 1 2 3 4 5 6 
#
# 1 107.5183 47.8060 21.5078 0.0000 0.0000 0.0000
# 2 47.8060 78.8130 36.2590 0.0000 0.0000 0.0000
# 3 21.5078 36.2590 98.9030 0.0000 0.0000 0.0000
# 4 0.0000 0.0000 0.0000 37.2384 0.0000 0.0000
# 5 0.0000 0.0000 0.0000 0.0000 26.9024 0.0000
# 6 0.0000 0.0000 0.0000 0.0000 0.0000 34.2092
#
#
#
# Elastic Compliance Matrix: (Units=1/GPa)
#
#
# Indices 1 2 3 4 5 6 
#
# 1 0.012736 -0.007760 0.000075 0.000000 0.000000 0.000000
# 2 -0.007760 0.019991 -0.005641 0.000000 0.000000 0.000000
# 3 0.000075 -0.005641 0.012163 0.000000 0.000000 0.000000
# 4 0.000000 0.000000 0.000000 0.026854 0.000000 0.000000
# 5 0.000000 0.000000 0.000000 0.000000 0.037171 0.000000
# 6 0.000000 0.000000 0.000000 0.000000 0.000000 0.029232
#
#
# Mechanical properties :
#
#
# Convention : Reuss Voigt Hill
#
# Bulk Modulus (GPa) = 54.83246 55.15333 54.99290
# Shear Modulus (GPa) = 29.26068 31.64742 30.45405
#
# Velocity S-wave (km/s) = 3.58248 3.72572 3.65480
# Velocity P-wave (km/s) = 6.41580 6.53445 6.47540
#
# Compressibility (1/GPa) = 0.01823737
#
# Stress axis : x y z
#
# Youngs Moduli (GPa) = 78.51758 50.02347 82.21851
#
# Poissons Ratio (x) = 0.38818 -0.00619
# Poissons Ratio (y) = 0.60929 0.46382
# Poissons Ratio (z) = -0.00591 0.28220
#
# Static dielectric constant tensor:
#      x y z
#    x 4.183950 0.000000 0.000000 
#    y 0.000000 4.010320 0.000000 
#    z 0.000000 0.000000 4.169300 
# 
# 
# High freq. dielectric constant tensor:
#      x y z
#    x 1.897510 0.000000 0.000000 
#    y 0.000000 1.881310 0.000000 
#    z 0.000000 0.000000 1.907050 
# 
# From -- ./inp_files/20108.got.cif
#   From: 2010.03.12/outbox.cif.g09.slc.cpg/sg20_11_cif.got.tgz:20108.got - 2010.04.14 01:38:04.
