data_PCOD8159452
_publ_section_title
;
Structure prediction by ZEFSAII (Michael W. Deem and Ramdas Pophale) SiO2 
 PCOD8159452
Probable space group: C 2 2 21
;
_chemical_formula_sum "Si O2"
_cell_formula_units_Z 64
_cell_length_a 5.145262
_cell_length_b 16.942529
_cell_length_c 30.712613
_cell_angle_alpha 90.000000
_cell_angle_beta 90.000000
_cell_angle_gamma 90.000000
_cell_volume 2677.333667
_symmetry_space_group_name_H-M "C 2 2 21"
_symmetry_group_IT_number 20
_symmetry_cell_setting 'orthorhombic'
loop_
_space_group_symop_operation_xyz
x,y,z
-x,-y,1/2+z
x,-y,-z
-x,y,1/2-z
1/2+x,1/2+y,z
1/2-x,1/2-y,1/2+z
1/2+x,1/2-y,-z
1/2-x,1/2+y,1/2-z
loop_
_atom_site_type_symbol
_atom_site_label
_atom_site_fract_x
_atom_site_fract_y
_atom_site_fract_z
Si Si1 0.611970 0.190877 0.562549
Si Si2 0.522384 0.852071 0.819851
Si Si3 0.358457 0.779809 0.205103
Si Si4 0.515010 0.425212 0.844657
Si Si5 0.621138 0.606016 0.857336
Si Si6 0.837680 0.138826 0.064330
Si Si7 0.751149 0.235637 0.868765
Si Si8 0.853452 0.586437 0.018636
O O1 0.739051 0.133396 0.598287
O O2 0.769154 0.272044 0.554592
O O3 0.346028 0.229144 0.582007
O O4 0.545025 0.144017 0.519415
O O5 0.244251 0.894327 0.812081
O O6 0.482481 0.801744 0.865600
O O7 0.618941 0.782638 0.786690
O O8 0.737962 0.921251 0.820204
O O9 0.500000 0.796642 0.250000
O O10 0.270971 0.864718 0.186080
O O11 0.539749 0.738317 0.168292
O O12 0.585574 0.513064 0.858823
O O13 0.469674 0.372271 0.887903
O O14 0.341976 0.647864 0.855354
O O15 0.066695 0.113923 0.031644
O O16 0.577855 0.085911 0.056179
O O17 0.823988 0.500000 0.000000
#
# Coordination Sequence:
#
# PCOD8159452 Si02
#       8
#     8   8   8   8   8   8   8   8
#     4  11  24  43  66  96 134 175 240 276 341 421
#     4  11  22  43  68 100 130 176 225 276 331 409
#     4  10  22  45  72 103 139 180 231 283 342 418
#     4  12  24  43  70 101 140 174 236 283 345 415
#     4  10  25  39  71 101 137 183 224 285 349 410
#     4  12  25  43  67  94 131 185 227 291 347 402
#     4  10  21  42  69  99 126 184 225 281 333 411
#     4  12  28  43  62  97 137 179 229 292 359 407
#
# _framework density 23.904378999999999
#
# number of rings (size 3 to 8) (size 9 to 14) (size 15 to 20)
#    0.000    1.000    2.500    4.125    8.750    2.000 
#    0.000    1.250    0.000    0.000    0.000    0.000 
#    0.000    0.000    0.000    0.000    0.000    0.000 
#
# Total GULP energy -396419.280236 kJ/mol
# GULP energy per Si atom -12388.102507 kJ/mol
# Density = 2.384997 g / cm^3
# Si number density = 23.904379 Si / 1000 Ang^3
#
#
#
# Elastic Constant Matrix: (Units=GPa)
#
#
# Indices 1 2 3 4 5 6 
#
# 1 106.9323 21.5479 -2.3918 0.0000 0.0000 0.0000
# 2 21.5479 120.6453 -4.6426 0.0000 0.0000 0.0000
# 3 -2.3918 -4.6426 55.6505 0.0000 0.0000 0.0000
# 4 0.0000 0.0000 0.0000 14.9775 0.0000 0.0000
# 5 0.0000 0.0000 0.0000 0.0000 18.2305 0.0000
# 6 0.0000 0.0000 0.0000 0.0000 0.0000 37.2654
#
#
#
# Elastic Compliance Matrix: (Units=1/GPa)
#
#
# Indices 1 2 3 4 5 6 
#
# 1 0.009705 -0.001723 0.000273 0.000000 0.000000 0.000000
# 2 -0.001723 0.008621 0.000645 0.000000 0.000000 0.000000
# 3 0.000273 0.000645 0.018035 0.000000 0.000000 0.000000
# 4 0.000000 0.000000 0.000000 0.066767 0.000000 0.000000
# 5 0.000000 0.000000 0.000000 0.000000 0.054853 0.000000
# 6 0.000000 0.000000 0.000000 0.000000 0.000000 0.026835
#
#
# Mechanical properties :
#
#
# Convention : Reuss Voigt Hill
#
# Bulk Modulus (GPa) = 28.77484 34.69503 31.73493
# Shear Modulus (GPa) = 25.25144 32.00898 28.63021
#
# Velocity S-wave (km/s) = 3.25368 3.66326 3.46453
# Velocity P-wave (km/s) = 5.11653 5.69546 5.41374
#
# Compressibility (1/GPa) = 0.03475259
#
# Stress axis : x y z
#
# Youngs Moduli (GPa) = 103.03968 115.99184 55.44811
#
# Poissons Ratio (x) = 0.19984 -0.01516
# Poissons Ratio (y) = 0.17752 -0.03577
# Poissons Ratio (z) = -0.02817 -0.07484
#
# Static dielectric constant tensor:
#      x y z
#    x 4.577760 0.000000 0.000000 
#    y 0.000000 4.249880 0.000000 
#    z 0.000000 0.000000 3.906090 
# 
# 
# High freq. dielectric constant tensor:
#      x y z
#    x 1.964380 0.000000 0.000000 
#    y 0.000000 1.950070 0.000000 
#    z 0.000000 0.000000 1.918850 
# 
# From -- ./inp_files/30853.got.cif
#   From: 2010.03.12/outbox.cif.g09.slc.cpg/sg20_16_cif.got.tgz:30853.got - 2010.04.14 01:38:04.
