data_PCOD8159002
_publ_section_title
;
Structure prediction by ZEFSAII (Michael W. Deem and Ramdas Pophale) SiO2 
 PCOD8159002
Probable space group: C 2 2 21
;
_chemical_formula_sum "Si O2"
_cell_formula_units_Z 48
_cell_length_a 7.875905
_cell_length_b 14.160702
_cell_length_c 17.608079
_cell_angle_alpha 90.000000
_cell_angle_beta 90.000000
_cell_angle_gamma 90.000000
_cell_volume 1963.799886
_symmetry_space_group_name_H-M "C 2 2 21"
_symmetry_group_IT_number 20
_symmetry_cell_setting 'orthorhombic'
loop_
_space_group_symop_operation_xyz
x,y,z
-x,-y,1/2+z
x,-y,-z
-x,y,1/2-z
1/2+x,1/2+y,z
1/2-x,1/2-y,1/2+z
1/2+x,1/2-y,-z
1/2-x,1/2+y,1/2-z
loop_
_atom_site_type_symbol
_atom_site_label
_atom_site_fract_x
_atom_site_fract_y
_atom_site_fract_z
Si Si1 0.021185 0.601541 0.538402
Si Si2 0.854886 0.776049 0.486707
Si Si3 0.221987 0.527511 0.666069
Si Si4 0.865478 0.782042 0.311395
Si Si5 0.819059 0.898053 0.786477
Si Si6 0.015088 0.939565 0.568863
O O1 0.004278 0.500000 0.500000
O O2 0.175987 0.668440 0.508040
O O3 0.054605 0.574296 0.627132
O O4 0.855626 0.668044 0.521438
O O5 0.922992 0.773095 0.399527
O O6 0.985643 0.832652 0.540745
O O7 0.319180 0.611296 0.709245
O O8 0.180890 0.450037 0.731617
O O9 0.338275 0.484033 0.599165
O O10 0.708799 0.712595 0.295994
O O11 0.000000 0.746654 0.250000
O O12 0.831096 0.942888 0.870463
O O13 0.000000 0.915675 0.750000
O O14 0.085696 0.000000 0.500000
#
# Coordination Sequence:
#
# PCOD8159002 Si02
#       6
#     8   8   8   8   8   8
#     4  11  22  43  69 102 140 183 231 296 362 423
#     4  11  23  39  71 102 135 187 237 296 361 433
#     4  10  20  41  68  94 130 185 223 287 360 420
#     4  11  23  41  62  97 135 178 231 293 362 418
#     4  10  24  40  69  94 131 180 236 290 348 438
#     4  11  17  37  67 100 125 173 239 280 345 427
#
# _framework density 24.442409999999999
#
# number of rings (size 3 to 8) (size 9 to 14) (size 15 to 20)
#    0.000    1.333    5.000    3.500    2.333    0.000 
#    0.000    5.000    7.333    0.000    0.000    0.000 
#    0.000    0.000    0.000    0.000    0.000    0.000 
#
# Total GULP energy -297350.017851 kJ/mol
# GULP energy per Si atom -12389.584077 kJ/mol
# Density = 2.438678 g / cm^3
# Si number density = 24.442410 Si / 1000 Ang^3
#
#
#
# Elastic Constant Matrix: (Units=GPa)
#
#
# Indices 1 2 3 4 5 6 
#
# 1 19.3976 26.7988 8.0340 0.0000 0.0000 0.0000
# 2 26.7988 193.0077 62.7080 0.0000 0.0000 0.0000
# 3 8.0340 62.7080 120.8754 0.0000 0.0000 0.0000
# 4 0.0000 0.0000 0.0000 43.6399 0.0000 0.0000
# 5 0.0000 0.0000 0.0000 0.0000 14.2893 0.0000
# 6 0.0000 0.0000 0.0000 0.0000 0.0000 27.1945
#
#
#
# Elastic Compliance Matrix: (Units=1/GPa)
#
#
# Indices 1 2 3 4 5 6 
#
# 1 0.063807 -0.008998 0.000427 0.000000 0.000000 0.000000
# 2 -0.008998 0.007500 -0.003293 0.000000 0.000000 0.000000
# 3 0.000427 -0.003293 0.009953 0.000000 0.000000 0.000000
# 4 0.000000 0.000000 0.000000 0.022915 0.000000 0.000000
# 5 0.000000 0.000000 0.000000 0.000000 0.069982 0.000000
# 6 0.000000 0.000000 0.000000 0.000000 0.000000 0.036772
#
#
# Mechanical properties :
#
#
# Convention : Reuss Voigt Hill
#
# Bulk Modulus (GPa) = 17.38147 58.70693 38.04420
# Shear Modulus (GPa) = 19.69777 32.74074 26.21925
#
# Velocity S-wave (km/s) = 2.84189 3.66390 3.27876
# Velocity P-wave (km/s) = 4.23026 6.47838 5.47104
#
# Compressibility (1/GPa) = 0.05753254
#
# Stress axis : x y z
#
# Youngs Moduli (GPa) = 15.67215 133.32537 100.47276
#
# Poissons Ratio (x) = 1.19971 -0.04293
# Poissons Ratio (y) = 0.14102 0.33086
# Poissons Ratio (z) = -0.00670 0.43904
#
# Static dielectric constant tensor:
#      x y z
#    x 3.898430 0.000000 0.000000 
#    y 0.000000 4.628600 0.000000 
#    z 0.000000 0.000000 4.807700 
# 
# 
# High freq. dielectric constant tensor:
#      x y z
#    x 1.925510 0.000000 0.000000 
#    y 0.000000 1.995610 0.000000 
#    z 0.000000 0.000000 1.976550 
# 
# From -- ./inp_files/24264.got.cif
#   From: 2010.03.12/outbox.cif.g09.slc.cpg/sg20_13_cif.got.tgz:24264.got - 2010.04.14 01:38:04.
