data_PCOD8159384
_publ_section_title
;
Structure prediction by ZEFSAII (Michael W. Deem and Ramdas Pophale) SiO2 
 PCOD8159384
Probable space group: C 2 2 21
;
_chemical_formula_sum "Si O2"
_cell_formula_units_Z 40
_cell_length_a 13.060794
_cell_length_b 13.933773
_cell_length_c 10.862985
_cell_angle_alpha 90.000000
_cell_angle_beta 90.000000
_cell_angle_gamma 90.000000
_cell_volume 1976.912696
_symmetry_space_group_name_H-M "C 2 2 21"
_symmetry_group_IT_number 20
_symmetry_cell_setting 'orthorhombic'
loop_
_space_group_symop_operation_xyz
x,y,z
-x,-y,1/2+z
x,-y,-z
-x,y,1/2-z
1/2+x,1/2+y,z
1/2-x,1/2-y,1/2+z
1/2+x,1/2-y,-z
1/2-x,1/2+y,1/2-z
loop_
_atom_site_type_symbol
_atom_site_label
_atom_site_fract_x
_atom_site_fract_y
_atom_site_fract_z
Si Si1 0.387600 0.850118 0.107881
Si Si2 0.781335 0.898963 0.566582
Si Si3 0.861069 0.000000 0.000000
Si Si4 0.541548 0.000000 0.000000
Si Si5 0.698258 0.002589 0.796101
Si Si6 0.502716 0.348689 0.617872
O O1 0.343872 0.901478 0.230089
O O2 0.440960 0.751603 0.143480
O O3 0.294961 0.833034 0.012540
O O4 0.471366 0.913106 0.039742
O O5 0.885851 0.838308 0.572663
O O6 0.802246 0.000000 0.500000
O O7 0.730495 0.919928 0.699717
O O8 0.932581 0.908364 0.979507
O O9 0.795432 0.028258 0.880323
O O10 0.609487 0.962419 0.885439
O O11 0.500000 0.402839 0.750000
#
# Coordination Sequence:
#
# PCOD8159384 Si02
#       6
#     8   8   4   4   8   8
#     4  11  24  40  68  99 131 175 218 280 335 398
#     4  10  21  42  67  90 132 172 217 271 331 394
#     4  11  24  41  70  96 132 179 220 275 332 402
#     4  11  20  37  70  92 132 171 220 271 336 398
#     4  10  21  41  65  96 128 170 222 269 333 397
#     4  12  24  41  68  94 135 177 223 275 338 397
#
# _framework density 20.23357
#
# number of rings (size 3 to 8) (size 9 to 14) (size 15 to 20)
#    0.000    1.200    6.000    1.800    0.000    4.800 
#    0.000    0.000   13.200    0.000    0.000    0.000 
#    0.000    0.000    0.000    0.000    0.000    0.000 
#
# Total GULP energy -247999.300696 kJ/mol
# GULP energy per Si atom -12399.965035 kJ/mol
# Density = 2.018752 g / cm^3
# Si number density = 20.233570 Si / 1000 Ang^3
#
#
#
# Elastic Constant Matrix: (Units=GPa)
#
#
# Indices 1 2 3 4 5 6 
#
# 1 163.3904 40.6487 69.0027 0.0000 0.0000 0.0000
# 2 40.6487 71.3288 24.9074 0.0000 0.0000 0.0000
# 3 69.0027 24.9074 131.4086 0.0000 0.0000 0.0000
# 4 0.0000 0.0000 0.0000 19.0305 0.0000 0.0000
# 5 0.0000 0.0000 0.0000 0.0000 41.4350 0.0000
# 6 0.0000 0.0000 0.0000 0.0000 0.0000 36.4263
#
#
#
# Elastic Compliance Matrix: (Units=1/GPa)
#
#
# Indices 1 2 3 4 5 6 
#
# 1 0.008640 -0.003576 -0.003859 0.000000 0.000000 0.000000
# 2 -0.003576 0.016493 -0.001248 0.000000 0.000000 0.000000
# 3 -0.003859 -0.001248 0.009873 0.000000 0.000000 0.000000
# 4 0.000000 0.000000 0.000000 0.052547 0.000000 0.000000
# 5 0.000000 0.000000 0.000000 0.000000 0.024134 0.000000
# 6 0.000000 0.000000 0.000000 0.000000 0.000000 0.027453
#
#
# Mechanical properties :
#
#
# Convention : Reuss Voigt Hill
#
# Bulk Modulus (GPa) = 56.69196 70.58280 63.63738
# Shear Modulus (GPa) = 30.79079 34.81630 32.80355
#
# Velocity S-wave (km/s) = 3.90522 4.15266 4.03084
# Velocity P-wave (km/s) = 6.95801 7.61265 7.29268
#
# Compressibility (1/GPa) = 0.01763919
#
# Stress axis : x y z
#
# Youngs Moduli (GPa) = 115.74555 60.63023 101.28868
#
# Poissons Ratio (x) = 0.21682 0.39086
# Poissons Ratio (y) = 0.41391 0.12645
# Poissons Ratio (z) = 0.44665 0.07569
#
# Static dielectric constant tensor:
#      x y z
#    x 4.065930 0.000000 0.000000 
#    y 0.000000 2.876900 0.000000 
#    z 0.000000 0.000000 3.823170 
# 
# 
# High freq. dielectric constant tensor:
#      x y z
#    x 1.817800 0.000000 0.000000 
#    y 0.000000 1.749380 0.000000 
#    z 0.000000 0.000000 1.808970 
# 
# From -- ./inp_files/13913.got.cif
#   From: 2010.03.12/outbox.cif.g09.slc.cpg/sg20_7_cif.got.tgz:13913.got - 2010.04.14 01:38:04.
