data_PCOD8159223
_publ_section_title
;
Structure prediction by ZEFSAII (Michael W. Deem and Ramdas Pophale) SiO2 
 PCOD8159223
Probable space group: C 2 2 21
;
_chemical_formula_sum "Si O2"
_cell_formula_units_Z 40
_cell_length_a 10.942645
_cell_length_b 35.764312
_cell_length_c 4.994615
_cell_angle_alpha 90.000000
_cell_angle_beta 90.000000
_cell_angle_gamma 90.000000
_cell_volume 1954.673396
_symmetry_space_group_name_H-M "C 2 2 21"
_symmetry_group_IT_number 20
_symmetry_cell_setting 'orthorhombic'
loop_
_space_group_symop_operation_xyz
x,y,z
-x,-y,1/2+z
x,-y,-z
-x,y,1/2-z
1/2+x,1/2+y,z
1/2-x,1/2-y,1/2+z
1/2+x,1/2-y,-z
1/2-x,1/2+y,1/2-z
loop_
_atom_site_type_symbol
_atom_site_label
_atom_site_fract_x
_atom_site_fract_y
_atom_site_fract_z
Si Si1 0.637491 0.650371 0.651865
Si Si2 0.415395 0.542173 0.498316
Si Si3 0.260614 0.610587 0.362577
Si Si4 0.260652 0.773974 0.331075
Si Si5 0.500000 0.132941 0.250000
Si Si6 0.500000 0.815592 0.250000
O O1 0.500000 0.643504 0.750000
O O2 0.660809 0.624815 0.391042
O O3 0.663407 0.693764 0.588379
O O4 0.727786 0.639808 0.894524
O O5 0.362514 0.500000 0.500000
O O6 0.500000 0.548672 0.250000
O O7 0.302568 0.570355 0.473447
O O8 0.500000 0.551473 0.750000
O O9 0.117554 0.606719 0.295245
O O10 0.296709 0.752592 0.603742
O O11 0.383408 0.789771 0.197038
O O12 0.467859 0.159003 0.497984
#
# Coordination Sequence:
#
# PCOD8159223 Si02
#       6
#     8   8   8   8   4   4
#     4  12  25  41  62  92 122 156 209 264 314 364
#     4  10  21  38  64  97 129 163 202 253 316 371
#     4  12  22  41  64  93 124 165 208 254 304 370
#     4  12  26  42  61  87 118 163 206 264 317 368
#     4  12  22  42  64  91 124 170 216 252 298 379
#     4  12  24  46  62  85 126 168 216 258 312 385
#
# _framework density 20.463778999999999
#
# number of rings (size 3 to 8) (size 9 to 14) (size 15 to 20)
#    0.000    0.400    4.000    6.000    2.800    0.000 
#    0.000    0.000    0.000    7.200    0.000    0.000 
#    0.000    0.000    0.000    0.000    0.000    0.000 
#
# Total GULP energy -248104.672351 kJ/mol
# GULP energy per Si atom -12405.233618 kJ/mol
# Density = 2.041720 g / cm^3
# Si number density = 20.463779 Si / 1000 Ang^3
#
#
#
# Elastic Constant Matrix: (Units=GPa)
#
#
# Indices 1 2 3 4 5 6 
#
# 1 107.2558 63.3706 27.6068 0.0000 0.0000 0.0000
# 2 63.3706 126.5820 46.0313 0.0000 0.0000 0.0000
# 3 27.6068 46.0313 138.4546 0.0000 0.0000 0.0000
# 4 0.0000 0.0000 0.0000 34.9929 0.0000 0.0000
# 5 0.0000 0.0000 0.0000 0.0000 33.0953 0.0000
# 6 0.0000 0.0000 0.0000 0.0000 0.0000 34.8552
#
#
#
# Elastic Compliance Matrix: (Units=1/GPa)
#
#
# Indices 1 2 3 4 5 6 
#
# 1 0.013270 -0.006462 -0.000497 0.000000 0.000000 0.000000
# 2 -0.006462 0.012134 -0.002745 0.000000 0.000000 0.000000
# 3 -0.000497 -0.002745 0.008235 0.000000 0.000000 0.000000
# 4 0.000000 0.000000 0.000000 0.028577 0.000000 0.000000
# 5 0.000000 0.000000 0.000000 0.000000 0.030216 0.000000
# 6 0.000000 0.000000 0.000000 0.000000 0.000000 0.028690
#
#
# Mechanical properties :
#
#
# Convention : Reuss Voigt Hill
#
# Bulk Modulus (GPa) = 70.28636 71.81220 71.04928
# Shear Modulus (GPa) = 34.41777 36.27426 35.34601
#
# Velocity S-wave (km/s) = 4.10553 4.21480 4.16053
# Velocity P-wave (km/s) = 7.54289 7.67168 7.60755
#
# Compressibility (1/GPa) = 0.01422751
#
# Stress axis : x y z
#
# Youngs Moduli (GPa) = 75.35962 82.41562 121.43981
#
# Poissons Ratio (x) = 0.53260 0.06040
# Poissons Ratio (y) = 0.48700 0.33341
# Poissons Ratio (z) = 0.03748 0.22627
#
# Static dielectric constant tensor:
#      x y z
#    x 3.553880 0.000000 0.000000 
#    y 0.000000 3.441880 0.000000 
#    z 0.000000 0.000000 3.856780 
# 
# 
# High freq. dielectric constant tensor:
#      x y z
#    x 1.792770 0.000000 0.000000 
#    y 0.000000 1.793460 0.000000 
#    z 0.000000 0.000000 1.823290 
# 
# From -- ./inp_files/1428.got.cif
#   From: 2010.03.12/outbox.cif.g09.slc.cpg/sg20_1_cif.got.tgz:1428.got - 2010.04.14 01:38:04.
