data_PCOD8159580
_publ_section_title
;
Structure prediction by ZEFSAII (Michael W. Deem and Ramdas Pophale) SiO2 
 PCOD8159580
Probable space group: C 2 2 21
;
_chemical_formula_sum "Si O2"
_cell_formula_units_Z 32
_cell_length_a 10.355476
_cell_length_b 8.605207
_cell_length_c 16.508415
_cell_angle_alpha 90.000000
_cell_angle_beta 90.000000
_cell_angle_gamma 90.000000
_cell_volume 1471.081609
_symmetry_space_group_name_H-M "C 2 2 21"
_symmetry_group_IT_number 20
_symmetry_cell_setting 'orthorhombic'
loop_
_space_group_symop_operation_xyz
x,y,z
-x,-y,1/2+z
x,-y,-z
-x,y,1/2-z
1/2+x,1/2+y,z
1/2-x,1/2-y,1/2+z
1/2+x,1/2-y,-z
1/2-x,1/2+y,1/2-z
loop_
_atom_site_type_symbol
_atom_site_label
_atom_site_fract_x
_atom_site_fract_y
_atom_site_fract_z
Si Si1 0.852743 0.082123 0.584749
Si Si2 0.344639 0.275072 0.675109
Si Si3 0.441199 0.771795 0.833786
Si Si4 0.904924 0.365302 0.152073
O O1 0.852495 0.960081 0.659484
O O2 0.875942 0.000000 0.500000
O O3 0.709178 0.159648 0.586263
O O4 0.964346 0.210775 0.595506
O O5 0.203853 0.207282 0.650566
O O6 0.457620 0.199348 0.619419
O O7 0.367517 0.235051 0.768874
O O8 0.500000 0.708677 0.750000
O O9 0.431341 0.956208 0.828542
#
# Coordination Sequence:
#
# PCOD8159580 Si02
#       4
#     8   8   8   8
#     4  11  26  42  62  95 135 168 208 272 330 374
#     4  10  22  38  65  96 119 166 218 259 316 381
#     4  11  21  38  67  92 124 162 216 267 313 381
#     4  10  22  41  66  94 124 163 221 265 314 379
#
# _framework density 21.752700999999998
#
# number of rings (size 3 to 8) (size 9 to 14) (size 15 to 20)
#    0.000    1.500    5.000    0.000    3.500    6.000 
#    0.000    1.250    0.000    0.000    0.000    0.000 
#    0.000    0.000    0.000    0.000    0.000    0.000 
#
# Total GULP energy -198272.403480 kJ/mol
# GULP energy per Si atom -12392.025218 kJ/mol
# Density = 2.170319 g / cm^3
# Si number density = 21.752701 Si / 1000 Ang^3
#
#
#
# Elastic Constant Matrix: (Units=GPa)
#
#
# Indices 1 2 3 4 5 6 
#
# 1 219.1195 38.5077 8.5650 0.0000 0.0000 0.0000
# 2 38.5077 61.1585 21.3685 0.0000 0.0000 0.0000
# 3 8.5650 21.3685 31.1413 0.0000 0.0000 0.0000
# 4 0.0000 0.0000 0.0000 17.9541 0.0000 0.0000
# 5 0.0000 0.0000 0.0000 0.0000 23.2399 0.0000
# 6 0.0000 0.0000 0.0000 0.0000 0.0000 33.8235
#
#
#
# Elastic Compliance Matrix: (Units=1/GPa)
#
#
# Indices 1 2 3 4 5 6 
#
# 1 0.005158 -0.003620 0.001065 0.000000 0.000000 0.000000
# 2 -0.003620 0.024048 -0.015505 0.000000 0.000000 0.000000
# 3 0.001065 -0.015505 0.042458 0.000000 0.000000 0.000000
# 4 0.000000 0.000000 0.000000 0.055697 0.000000 0.000000
# 5 0.000000 0.000000 0.000000 0.000000 0.043029 0.000000
# 6 0.000000 0.000000 0.000000 0.000000 0.000000 0.029565
#
#
# Mechanical properties :
#
#
# Convention : Reuss Voigt Hill
#
# Bulk Modulus (GPa) = 28.13423 49.81131 38.97277
# Shear Modulus (GPa) = 20.16738 31.20204 25.68471
#
# Velocity S-wave (km/s) = 3.04817 3.79145 3.43995
# Velocity P-wave (km/s) = 5.03490 6.48964 5.80800
#
# Compressibility (1/GPa) = 0.03554389
#
# Stress axis : x y z
#
# Youngs Moduli (GPa) = 193.86388 41.58378 23.55251
#
# Poissons Ratio (x) = 0.15053 -0.02509
# Poissons Ratio (y) = 0.70179 0.36519
# Poissons Ratio (z) = -0.20652 0.64478
#
# Static dielectric constant tensor:
#      x y z
#    x 4.953670 0.000000 0.000000 
#    y 0.000000 3.743820 0.000000 
#    z 0.000000 0.000000 3.405960 
# 
# 
# High freq. dielectric constant tensor:
#      x y z
#    x 1.892370 0.000000 0.000000 
#    y 0.000000 1.841220 0.000000 
#    z 0.000000 0.000000 1.809380 
# 
# From -- ./inp_files/18284.got.cif
#   From: 2010.03.12/outbox.cif.g09.slc.cpg/sg20_10_cif.got.tgz:18284.got - 2010.04.14 01:38:04.
