data_PCOD8159160
_publ_section_title
;
Structure prediction by ZEFSAII (Michael W. Deem and Ramdas Pophale) SiO2 
 PCOD8159160
Probable space group: C 2 2 21
;
_chemical_formula_sum "Si O2"
_cell_formula_units_Z 40
_cell_length_a 17.625545
_cell_length_b 11.949111
_cell_length_c 9.471491
_cell_angle_alpha 90.000000
_cell_angle_beta 90.000000
_cell_angle_gamma 90.000000
_cell_volume 1994.786871
_symmetry_space_group_name_H-M "C 2 2 21"
_symmetry_group_IT_number 20
_symmetry_cell_setting 'orthorhombic'
loop_
_space_group_symop_operation_xyz
x,y,z
-x,-y,1/2+z
x,-y,-z
-x,y,1/2-z
1/2+x,1/2+y,z
1/2-x,1/2-y,1/2+z
1/2+x,1/2-y,-z
1/2-x,1/2+y,1/2-z
loop_
_atom_site_type_symbol
_atom_site_label
_atom_site_fract_x
_atom_site_fract_y
_atom_site_fract_z
Si Si1 0.844220 0.778258 0.688138
Si Si2 0.140979 0.175567 0.507473
Si Si3 0.982890 0.904768 0.594932
Si Si4 0.706140 0.896461 0.600583
Si Si5 0.279281 0.048222 0.639270
O O1 0.927591 0.800122 0.625248
O O2 0.786233 0.833170 0.575080
O O3 0.831243 0.646412 0.699858
O O4 0.830055 0.825200 0.845780
O O5 0.142219 0.300720 0.576384
O O6 0.192935 0.091375 0.602287
O O7 0.054368 0.133805 0.500389
O O8 0.000000 0.955916 0.750000
O O9 0.941961 0.000000 0.500000
O O10 0.691771 0.000000 0.500000
O O11 0.714418 0.944018 0.756695
O O12 0.318284 0.000000 0.500000
#
# Coordination Sequence:
#
# PCOD8159160 Si02
#       5
#     8   8   8   8   8
#     4  10  21  37  60  91 117 161 205 250 300 371
#     4  10  21  37  61  90 121 157 206 250 304 366
#     4  10  22  41  62  87 126 162 199 255 313 365
#     4  11  21  36  61  89 119 158 204 254 307 357
#     4  11  21  37  61  88 123 158 206 256 306 354
#
# _framework density 20.052267000000001
#
# number of rings (size 3 to 8) (size 9 to 14) (size 15 to 20)
#    0.000    1.600    4.000    1.200    2.800    0.000 
#    3.600    1.000    0.000    0.000    0.000    0.000 
#    0.000    0.000    0.000    0.000    0.000    0.000 
#
# Total GULP energy -247785.218762 kJ/mol
# GULP energy per Si atom -12389.260938 kJ/mol
# Density = 2.000663 g / cm^3
# Si number density = 20.052267 Si / 1000 Ang^3
#
#
#
# Elastic Constant Matrix: (Units=GPa)
#
#
# Indices 1 2 3 4 5 6 
#
# 1 70.7873 24.0962 34.1924 0.0000 0.0000 0.0000
# 2 24.0962 87.6991 32.5658 0.0000 0.0000 0.0000
# 3 34.1924 32.5658 83.0768 0.0000 0.0000 0.0000
# 4 0.0000 0.0000 0.0000 50.0557 0.0000 0.0000
# 5 0.0000 0.0000 0.0000 0.0000 27.8790 0.0000
# 6 0.0000 0.0000 0.0000 0.0000 0.0000 16.8548
#
#
#
# Elastic Compliance Matrix: (Units=1/GPa)
#
#
# Indices 1 2 3 4 5 6 
#
# 1 0.018120 -0.002586 -0.006444 0.000000 0.000000 0.000000
# 2 -0.002586 0.013714 -0.004312 0.000000 0.000000 0.000000
# 3 -0.006444 -0.004312 0.016379 0.000000 0.000000 0.000000
# 4 0.000000 0.000000 0.000000 0.019978 0.000000 0.000000
# 5 0.000000 0.000000 0.000000 0.000000 0.035869 0.000000
# 6 0.000000 0.000000 0.000000 0.000000 0.000000 0.059330
#
#
# Mechanical properties :
#
#
# Convention : Reuss Voigt Hill
#
# Bulk Modulus (GPa) = 46.44587 47.03023 46.73805
# Shear Modulus (GPa) = 25.34852 29.00514 27.17683
#
# Velocity S-wave (km/s) = 3.55931 3.80738 3.68543
# Velocity P-wave (km/s) = 6.33279 6.54469 6.43961
#
# Compressibility (1/GPa) = 0.02153044
#
# Stress axis : x y z
#
# Youngs Moduli (GPa) = 55.18867 72.91736 61.05211
#
# Poissons Ratio (x) = 0.18854 0.39342
# Poissons Ratio (y) = 0.14270 0.26324
# Poissons Ratio (z) = 0.35564 0.31440
#
# Static dielectric constant tensor:
#      x y z
#    x 3.358980 0.000000 0.000000 
#    y 0.000000 3.970480 0.000000 
#    z 0.000000 0.000000 3.851220 
# 
# 
# High freq. dielectric constant tensor:
#      x y z
#    x 1.747600 0.000000 0.000000 
#    y 0.000000 1.795490 0.000000 
#    z 0.000000 0.000000 1.786850 
# 
# From -- ./inp_files/7043.got.cif
#   From: 2010.03.12/outbox.cif.g09.slc.cpg/sg20_4_cif.got.tgz:7043.got - 2010.04.14 01:38:04.
