data_PCOD8159954
_publ_section_title
;
Structure prediction by ZEFSAII (Michael W. Deem and Ramdas Pophale) SiO2 
 PCOD8159954
Probable space group: C 2 2 21
;
_chemical_formula_sum "Si O2"
_cell_formula_units_Z 40
_cell_length_a 7.140739
_cell_length_b 20.070222
_cell_length_c 13.785016
_cell_angle_alpha 90.000000
_cell_angle_beta 90.000000
_cell_angle_gamma 90.000000
_cell_volume 1975.616344
_symmetry_space_group_name_H-M "C 2 2 21"
_symmetry_group_IT_number 20
_symmetry_cell_setting 'orthorhombic'
loop_
_space_group_symop_operation_xyz
x,y,z
-x,-y,1/2+z
x,-y,-z
-x,y,1/2-z
1/2+x,1/2+y,z
1/2-x,1/2-y,1/2+z
1/2+x,1/2-y,-z
1/2-x,1/2+y,1/2-z
loop_
_atom_site_type_symbol
_atom_site_label
_atom_site_fract_x
_atom_site_fract_y
_atom_site_fract_z
Si Si1 0.281067 0.126213 0.774495
Si Si2 0.839166 0.307262 0.567579
Si Si3 0.000000 0.235411 0.750000
Si Si4 0.001661 0.114063 0.141977
Si Si5 0.500000 0.486415 0.250000
Si Si6 0.288093 0.166339 0.989354
O O1 0.500000 0.127330 0.750000
O O2 0.232687 0.131997 0.888632
O O3 0.178392 0.188528 0.721907
O O4 0.188063 0.057349 0.740202
O O5 0.989830 0.344377 0.500372
O O6 0.950322 0.283416 0.662170
O O7 0.683576 0.362431 0.587541
O O8 0.747636 0.245431 0.511842
O O9 0.000000 0.147919 0.250000
O O10 0.004937 0.033718 0.154358
O O11 0.181750 0.134306 0.080128
#
# Coordination Sequence:
#
# PCOD8159954 Si02
#       6
#     8   8   4   8   4   8
#     4  10  23  42  65  91 129 173 217 272 321 379
#     4  11  21  36  61  95 131 157 205 265 330 396
#     4   9  22  36  62  94 126 165 208 260 336 399
#     4  10  23  42  63  88 132 174 211 271 322 378
#     4   9  24  46  64  86 130 177 228 256 324 381
#     4  11  23  36  63  99 126 162 215 261 332 397
#
# _framework density 20.246846000000001
#
# number of rings (size 3 to 8) (size 9 to 14) (size 15 to 20)
#    0.600    1.200    2.000    1.200    2.800    7.200 
#    0.000    0.000    0.000    0.000    0.000    0.000 
#    0.000    0.000    0.000    0.000    0.000    0.000 
#
# Total GULP energy -247965.869335 kJ/mol
# GULP energy per Si atom -12398.293467 kJ/mol
# Density = 2.020076 g / cm^3
# Si number density = 20.246846 Si / 1000 Ang^3
#
#
#
# Elastic Constant Matrix: (Units=GPa)
#
#
# Indices 1 2 3 4 5 6 
#
# 1 133.8516 20.5834 2.7654 0.0000 0.0000 0.0000
# 2 20.5834 65.5649 0.1681 0.0000 0.0000 0.0000
# 3 2.7654 0.1681 42.2051 0.0000 0.0000 0.0000
# 4 0.0000 0.0000 0.0000 26.9370 0.0000 0.0000
# 5 0.0000 0.0000 0.0000 0.0000 40.0924 0.0000
# 6 0.0000 0.0000 0.0000 0.0000 0.0000 24.5732
#
#
#
# Elastic Compliance Matrix: (Units=1/GPa)
#
#
# Indices 1 2 3 4 5 6 
#
# 1 0.007861 -0.002466 -0.000505 0.000000 0.000000 0.000000
# 2 -0.002466 0.016026 0.000098 0.000000 0.000000 0.000000
# 3 -0.000505 0.000098 0.023727 0.000000 0.000000 0.000000
# 4 0.000000 0.000000 0.000000 0.037124 0.000000 0.000000
# 5 0.000000 0.000000 0.000000 0.000000 0.024942 0.000000
# 6 0.000000 0.000000 0.000000 0.000000 0.000000 0.040695
#
#
# Mechanical properties :
#
#
# Convention : Reuss Voigt Hill
#
# Bulk Modulus (GPa) = 23.88604 32.07284 27.97944
# Shear Modulus (GPa) = 29.39842 32.86083 31.12963
#
# Velocity S-wave (km/s) = 3.81465 4.03303 3.92536
# Velocity P-wave (km/s) = 5.58794 6.12882 5.86462
#
# Compressibility (1/GPa) = 0.04186547
#
# Stress axis : x y z
#
# Youngs Moduli (GPa) = 127.21533 62.39803 42.14693
#
# Poissons Ratio (x) = 0.15390 0.02129
# Poissons Ratio (y) = 0.31377 -0.00412
# Poissons Ratio (z) = 0.06427 -0.00610
#
# Static dielectric constant tensor:
#      x y z
#    x 3.720210 0.000000 0.000000 
#    y 0.000000 3.455620 0.000000 
#    z 0.000000 0.000000 3.624500 
# 
# 
# High freq. dielectric constant tensor:
#      x y z
#    x 1.803180 0.000000 0.000000 
#    y 0.000000 1.771880 0.000000 
#    z 0.000000 0.000000 1.789370 
# 
# From -- ./inp_files/22747.got.cif
#   From: 2010.03.12/outbox.cif.g09.slc.cpg/sg20_12_cif.got.tgz:22747.got - 2010.04.14 01:38:04.
