data_PCOD8159299
_publ_section_title
;
Structure prediction by ZEFSAII (Michael W. Deem and Ramdas Pophale) SiO2 
 PCOD8159299
Probable space group: C 2 2 21
;
_chemical_formula_sum "Si O2"
_cell_formula_units_Z 56
_cell_length_a 23.950407
_cell_length_b 4.985831
_cell_length_c 24.713156
_cell_angle_alpha 90.000000
_cell_angle_beta 90.000000
_cell_angle_gamma 90.000000
_cell_volume 2951.064231
_symmetry_space_group_name_H-M "C 2 2 21"
_symmetry_group_IT_number 20
_symmetry_cell_setting 'orthorhombic'
loop_
_space_group_symop_operation_xyz
x,y,z
-x,-y,1/2+z
x,-y,-z
-x,y,1/2-z
1/2+x,1/2+y,z
1/2-x,1/2-y,1/2+z
1/2+x,1/2-y,-z
1/2-x,1/2+y,1/2-z
loop_
_atom_site_type_symbol
_atom_site_label
_atom_site_fract_x
_atom_site_fract_y
_atom_site_fract_z
Si Si1 0.400688 0.881807 0.377903
Si Si2 0.923777 0.153628 0.846538
Si Si3 0.550995 0.265769 0.464754
Si Si4 0.317029 0.358482 0.220697
Si Si5 0.577585 0.376553 0.055088
Si Si6 0.510201 0.854179 0.311278
Si Si7 0.809097 0.358734 0.291788
O O1 0.407144 0.577407 0.396851
O O2 0.453004 0.949067 0.339429
O O3 0.343155 0.916043 0.345991
O O4 0.398347 0.084494 0.429102
O O5 0.917090 0.261851 0.907882
O O6 0.862412 0.082296 0.825171
O O7 0.949879 0.387563 0.809824
O O8 0.962037 0.888445 0.844574
O O9 0.579493 0.500000 0.500000
O O10 0.488153 0.346265 0.451181
O O11 0.554214 0.000000 0.500000
O O12 0.256177 0.389797 0.193502
O O13 0.324063 0.564168 0.270285
O O14 0.325773 0.062978 0.244360
O O15 0.603776 0.500000 0.000000
O O16 0.500000 0.757642 0.250000
#
# Coordination Sequence:
#
# PCOD8159299 Si02
#       7
#     8   8   8   8   8   8   8
#     4  12  20  37  55  85 114 148 186 229 287 336
#     4  12  22  37  56  83 114 150 184 232 283 335
#     4  11  21  36  55  79 110 148 189 230 274 334
#     4  10  21  40  58  84 112 152 196 227 273 337
#     4  11  22  36  56  80 115 148 190 233 277 341
#     4  12  23  34  52  85 121 147 174 226 290 345
#     4  10  22  38  61  82 113 153 193 231 269 340
#
# _framework density 18.976206000000001
#
# number of rings (size 3 to 8) (size 9 to 14) (size 15 to 20)
#    0.000    0.857    2.857    6.857    0.000    0.000 
#    0.000    0.000    0.000    2.571    0.000    0.000 
#    0.000    0.000    0.000    0.000    0.000    0.000 
#
# Total GULP energy -347319.067480 kJ/mol
# GULP energy per Si atom -12404.252410 kJ/mol
# Density = 1.893301 g / cm^3
# Si number density = 18.976206 Si / 1000 Ang^3
#
#
#
# Elastic Constant Matrix: (Units=GPa)
#
#
# Indices 1 2 3 4 5 6 
#
# 1 90.7756 26.8507 48.9169 0.0000 0.0000 0.0000
# 2 26.8507 93.9683 18.3504 0.0000 0.0000 0.0000
# 3 48.9169 18.3504 102.9829 0.0000 0.0000 0.0000
# 4 0.0000 0.0000 0.0000 35.5519 0.0000 0.0000
# 5 0.0000 0.0000 0.0000 0.0000 19.3196 0.0000
# 6 0.0000 0.0000 0.0000 0.0000 0.0000 10.9244
#
#
#
# Elastic Compliance Matrix: (Units=1/GPa)
#
#
# Indices 1 2 3 4 5 6 
#
# 1 0.015646 -0.003128 -0.006874 0.000000 0.000000 0.000000
# 2 -0.003128 0.011651 -0.000590 0.000000 0.000000 0.000000
# 3 -0.006874 -0.000590 0.013081 0.000000 0.000000 0.000000
# 4 0.000000 0.000000 0.000000 0.028128 0.000000 0.000000
# 5 0.000000 0.000000 0.000000 0.000000 0.051761 0.000000
# 6 0.000000 0.000000 0.000000 0.000000 0.000000 0.091538
#
#
# Mechanical properties :
#
#
# Convention : Reuss Voigt Hill
#
# Bulk Modulus (GPa) = 52.10458 52.88476 52.49467
# Shear Modulus (GPa) = 20.88664 26.06645 23.47655
#
# Velocity S-wave (km/s) = 3.32124 3.71028 3.52114
# Velocity P-wave (km/s) = 6.49808 6.80327 6.65242
#
# Compressibility (1/GPa) = 0.01919217
#
# Stress axis : x y z
#
# Youngs Moduli (GPa) = 63.91425 85.82948 76.44758
#
# Poissons Ratio (x) = 0.26850 0.52553
# Poissons Ratio (y) = 0.19994 0.04512
# Poissons Ratio (z) = 0.43937 0.05065
#
# Static dielectric constant tensor:
#      x y z
#    x 3.310170 0.000000 0.000000 
#    y 0.000000 3.654760 0.000000 
#    z 0.000000 0.000000 3.568070 
# 
# 
# High freq. dielectric constant tensor:
#      x y z
#    x 1.706620 0.000000 0.000000 
#    y 0.000000 1.760330 0.000000 
#    z 0.000000 0.000000 1.734110 
# 
# From -- ./inp_files/29518.got.cif
#   From: 2010.03.12/outbox.cif.g09.slc.cpg/sg20_15_cif.got.tgz:29518.got - 2010.04.14 01:38:04.
