data_PCOD8159414
_publ_section_title
;
Structure prediction by ZEFSAII (Michael W. Deem and Ramdas Pophale) SiO2 
 PCOD8159414
Probable space group: C 2 2 21
;
_chemical_formula_sum "Si O2"
_cell_formula_units_Z 64
_cell_length_a 8.793797
_cell_length_b 15.549517
_cell_length_c 22.301762
_cell_angle_alpha 90.000000
_cell_angle_beta 90.000000
_cell_angle_gamma 90.000000
_cell_volume 3049.527234
_symmetry_space_group_name_H-M "C 2 2 21"
_symmetry_group_IT_number 20
_symmetry_cell_setting 'orthorhombic'
loop_
_space_group_symop_operation_xyz
x,y,z
-x,-y,1/2+z
x,-y,-z
-x,y,1/2-z
1/2+x,1/2+y,z
1/2-x,1/2-y,1/2+z
1/2+x,1/2-y,-z
1/2-x,1/2+y,1/2-z
loop_
_atom_site_type_symbol
_atom_site_label
_atom_site_fract_x
_atom_site_fract_y
_atom_site_fract_z
Si Si1 0.664112 0.999576 0.381558
Si Si2 0.103427 0.323899 0.567088
Si Si3 0.207240 0.689597 0.125882
Si Si4 0.684636 0.001459 0.150413
Si Si5 0.903170 0.323037 0.068292
Si Si6 0.212118 0.683615 0.871920
Si Si7 0.175090 0.043468 0.230184
Si Si8 0.319327 0.222555 0.242495
O O1 0.687446 0.084870 0.422164
O O2 0.798788 0.992159 0.331884
O O3 0.497405 0.003966 0.351851
O O4 0.680305 0.914257 0.421691
O O5 0.036472 0.321921 0.499893
O O6 0.214607 0.243782 0.577777
O O7 0.972646 0.309187 0.615824
O O8 0.258887 0.589047 0.123490
O O9 0.286469 0.744158 0.074186
O O10 0.247500 0.732876 0.190218
O O11 0.751108 0.917427 0.116187
O O12 0.731090 0.993429 0.219502
O O13 0.032047 0.306863 0.118000
O O14 0.260514 0.704683 0.803313
O O15 0.253740 0.134561 0.215662
O O16 0.000000 0.051626 0.250000
O O17 0.500000 0.221284 0.250000
#
# Coordination Sequence:
#
# PCOD8159414 Si02
#       8
#     8   8   8   8   8   8   8   8
#     4  10  21  42  63  89 124 173 213 256 320 392
#     4  11  21  43  66  88 126 171 217 267 322 387
#     4  10  22  40  63  90 128 166 206 267 330 377
#     4   9  22  39  61  90 129 167 210 253 320 392
#     4  11  25  39  63  96 125 166 221 270 315 381
#     4  11  23  39  66  95 122 169 220 263 315 387
#     4  11  22  36  61  97 131 162 204 267 327 386
#     4  11  21  40  64  91 127 169 206 261 329 391
#
# _framework density 20.986861000000001
#
# number of rings (size 3 to 8) (size 9 to 14) (size 15 to 20)
#    0.000    1.500    2.500    3.000    5.250    1.500 
#    0.000    1.875    0.000    0.000    0.000    0.000 
#    0.000    0.000    0.000    0.000    0.000    0.000 
#
# Total GULP energy -396634.923600 kJ/mol
# GULP energy per Si atom -12394.841363 kJ/mol
# Density = 2.093909 g / cm^3
# Si number density = 20.986861 Si / 1000 Ang^3
#
#
#
# Elastic Constant Matrix: (Units=GPa)
#
#
# Indices 1 2 3 4 5 6 
#
# 1 60.9976 53.8775 27.0764 0.0000 0.0000 0.0000
# 2 53.8775 149.3883 53.6308 0.0000 0.0000 0.0000
# 3 27.0764 53.6308 101.2322 0.0000 0.0000 0.0000
# 4 0.0000 0.0000 0.0000 27.8554 0.0000 0.0000
# 5 0.0000 0.0000 0.0000 0.0000 26.6690 0.0000
# 6 0.0000 0.0000 0.0000 0.0000 0.0000 28.8309
#
#
#
# Elastic Compliance Matrix: (Units=1/GPa)
#
#
# Indices 1 2 3 4 5 6 
#
# 1 0.024488 -0.008002 -0.002310 0.000000 0.000000 0.000000
# 2 -0.008002 0.010881 -0.003624 0.000000 0.000000 0.000000
# 3 -0.002310 -0.003624 0.012416 0.000000 0.000000 0.000000
# 4 0.000000 0.000000 0.000000 0.035900 0.000000 0.000000
# 5 0.000000 0.000000 0.000000 0.000000 0.037497 0.000000
# 6 0.000000 0.000000 0.000000 0.000000 0.000000 0.034685
#
#
# Mechanical properties :
#
#
# Convention : Reuss Voigt Hill
#
# Bulk Modulus (GPa) = 50.22192 64.53195 57.37694
# Shear Modulus (GPa) = 26.26363 28.47327 27.36845
#
# Velocity S-wave (km/s) = 3.54140 3.68736 3.61512
# Velocity P-wave (km/s) = 6.37998 6.99602 6.69509
#
# Compressibility (1/GPa) = 0.01991162
#
# Stress axis : x y z
#
# Youngs Moduli (GPa) = 40.83673 91.90229 80.53943
#
# Poissons Ratio (x) = 0.73542 0.18607
# Poissons Ratio (y) = 0.32678 0.29190
# Poissons Ratio (z) = 0.09434 0.33308
#
# Static dielectric constant tensor:
#      x y z
#    x 3.494270 0.000000 0.000000 
#    y 0.000000 4.040990 0.000000 
#    z 0.000000 0.000000 3.672150 
# 
# 
# High freq. dielectric constant tensor:
#      x y z
#    x 1.799070 0.000000 0.000000 
#    y 0.000000 1.831940 0.000000 
#    z 0.000000 0.000000 1.816690 
# 
# From -- ./inp_files/28913.got.cif
#   From: 2010.03.12/outbox.cif.g09.slc.cpg/sg20_15_cif.got.tgz:28913.got - 2010.04.14 01:38:04.
