data_PCOD8159313
_publ_section_title
;
Structure prediction by ZEFSAII (Michael W. Deem and Ramdas Pophale) SiO2 
 PCOD8159313
Probable space group: C 2 2 21
;
_chemical_formula_sum "Si O2"
_cell_formula_units_Z 32
_cell_length_a 5.281646
_cell_length_b 8.898871
_cell_length_c 25.998762
_cell_angle_alpha 90.000000
_cell_angle_beta 90.000000
_cell_angle_gamma 90.000000
_cell_volume 1221.959660
_symmetry_space_group_name_H-M "C 2 2 21"
_symmetry_group_IT_number 20
_symmetry_cell_setting 'orthorhombic'
loop_
_space_group_symop_operation_xyz
x,y,z
-x,-y,1/2+z
x,-y,-z
-x,y,1/2-z
1/2+x,1/2+y,z
1/2-x,1/2-y,1/2+z
1/2+x,1/2-y,-z
1/2-x,1/2+y,1/2-z
loop_
_atom_site_type_symbol
_atom_site_label
_atom_site_fract_x
_atom_site_fract_y
_atom_site_fract_z
Si Si1 0.980806 0.625791 0.958069
Si Si2 0.480527 0.732408 0.940088
Si Si3 0.983575 0.762046 0.690045
Si Si4 0.516841 0.072210 0.153093
O O1 0.723454 0.631179 0.923968
O O2 0.224139 0.649285 0.920604
O O3 0.009507 0.500000 0.000000
O O4 0.963379 0.769380 0.997576
O O5 0.500463 0.894989 0.909636
O O6 0.214095 0.869859 0.673751
O O7 0.000000 0.727922 0.750000
O O8 0.713009 0.839047 0.679610
O O9 0.009740 0.603854 0.661204
#
# Coordination Sequence:
#
# PCOD8159313 Si02
#       4
#     8   8   8   8
#     4  10  21  40  62  87 135 173 217 278 328 402
#     4  10  23  38  61  97 124 177 225 271 338 391
#     4  12  26  49  73 104 140 183 229 294 362 413
#     4  12  27  45  76 105 140 182 236 290 339 433
#
# _framework density 26.187442000000001
#
# number of rings (size 3 to 8) (size 9 to 14) (size 15 to 20)
#    0.000    1.000    0.000    6.000    7.000    0.000 
#    0.000    0.000    0.000    0.000    0.000    0.000 
#    0.000    0.000    0.000    0.000    0.000    0.000 
#
# Total GULP energy -198303.077094 kJ/mol
# GULP energy per Si atom -12393.942318 kJ/mol
# Density = 2.612784 g / cm^3
# Si number density = 26.187442 Si / 1000 Ang^3
#
#
#
# Elastic Constant Matrix: (Units=GPa)
#
#
# Indices 1 2 3 4 5 6 
#
# 1 197.9562 28.2836 13.7382 0.0000 0.0000 0.0000
# 2 28.2836 89.3977 -4.7831 0.0000 0.0000 0.0000
# 3 13.7382 -4.7831 128.9836 0.0000 0.0000 0.0000
# 4 0.0000 0.0000 0.0000 30.7966 0.0000 0.0000
# 5 0.0000 0.0000 0.0000 0.0000 29.6109 0.0000
# 6 0.0000 0.0000 0.0000 0.0000 0.0000 35.4009
#
#
#
# Elastic Compliance Matrix: (Units=1/GPa)
#
#
# Indices 1 2 3 4 5 6 
#
# 1 0.005342 -0.001724 -0.000633 0.000000 0.000000 0.000000
# 2 -0.001724 0.011765 0.000620 0.000000 0.000000 0.000000
# 3 -0.000633 0.000620 0.007843 0.000000 0.000000 0.000000
# 4 0.000000 0.000000 0.000000 0.032471 0.000000 0.000000
# 5 0.000000 0.000000 0.000000 0.000000 0.033771 0.000000
# 6 0.000000 0.000000 0.000000 0.000000 0.000000 0.028248
#
#
# Mechanical properties :
#
#
# Convention : Reuss Voigt Hill
#
# Bulk Modulus (GPa) = 46.56394 54.53502 50.54948
# Shear Modulus (GPa) = 38.44007 44.43492 41.43749
#
# Velocity S-wave (km/s) = 3.83545 4.12370 3.98218
# Velocity P-wave (km/s) = 6.11832 6.59873 6.36306
#
# Compressibility (1/GPa) = 0.02147585
#
# Stress axis : x y z
#
# Youngs Moduli (GPa) = 187.20089 85.00119 127.49702
#
# Poissons Ratio (x) = 0.14653 0.08069
# Poissons Ratio (y) = 0.32272 -0.07903
# Poissons Ratio (z) = 0.11848 -0.05269
#
# Static dielectric constant tensor:
#      x y z
#    x 6.397950 0.000000 0.000000 
#    y 0.000000 4.724960 0.000000 
#    z 0.000000 0.000000 7.211640 
# 
# 
# High freq. dielectric constant tensor:
#      x y z
#    x 2.081950 0.000000 0.000000 
#    y 0.000000 2.054710 0.000000 
#    z 0.000000 0.000000 2.058140 
# 
# From -- ./inp_files/30603.got.cif
#   From: 2010.03.12/outbox.cif.g09.slc.cpg/sg20_16_cif.got.tgz:30603.got - 2010.04.14 01:38:04.
