data_PCOD8159573
_publ_section_title
;
Structure prediction by ZEFSAII (Michael W. Deem and Ramdas Pophale) SiO2 
 PCOD8159573
Probable space group: C 2 2 21
;
_chemical_formula_sum "Si O2"
_cell_formula_units_Z 56
_cell_length_a 8.727461
_cell_length_b 16.281637
_cell_length_c 20.049049
_cell_angle_alpha 90.000000
_cell_angle_beta 90.000000
_cell_angle_gamma 90.000000
_cell_volume 2848.916772
_symmetry_space_group_name_H-M "C 2 2 21"
_symmetry_group_IT_number 20
_symmetry_cell_setting 'orthorhombic'
loop_
_space_group_symop_operation_xyz
x,y,z
-x,-y,1/2+z
x,-y,-z
-x,y,1/2-z
1/2+x,1/2+y,z
1/2-x,1/2-y,1/2+z
1/2+x,1/2-y,-z
1/2-x,1/2+y,1/2-z
loop_
_atom_site_type_symbol
_atom_site_label
_atom_site_fract_x
_atom_site_fract_y
_atom_site_fract_z
Si Si1 0.435898 0.072381 0.820466
Si Si2 0.544412 0.628849 0.320224
Si Si3 0.307629 0.811728 0.522366
Si Si4 0.920800 0.954988 0.320111
Si Si5 0.339010 0.055019 0.374300
Si Si6 0.551397 0.223442 0.584201
Si Si7 0.111101 0.062723 0.554781
O O1 0.500000 0.103613 0.750000
O O2 0.255274 0.066430 0.814312
O O3 0.474328 0.139858 0.875919
O O4 0.512802 0.984253 0.838401
O O5 0.500000 0.669279 0.250000
O O6 0.434166 0.551869 0.332896
O O7 0.720780 0.596232 0.321422
O O8 0.506697 0.696377 0.374359
O O9 0.389054 0.874885 0.573582
O O10 0.439410 0.774765 0.478014
O O11 0.227297 0.735092 0.560448
O O12 0.170616 0.855525 0.481262
O O13 0.000000 0.928266 0.250000
O O14 0.994934 0.911377 0.385491
O O15 0.257496 0.981496 0.413223
O O16 0.035848 0.000000 0.500000
#
# Coordination Sequence:
#
# PCOD8159573 Si02
#       7
#     8   8   8   8   8   8   8
#     4  12  23  38  63  95 119 150 205 261 304 354
#     4   9  18  39  60  81 114 159 198 238 306 369
#     4  10  22  39  58  83 126 163 197 240 310 358
#     4  10  22  38  63  87 119 157 207 250 306 370
#     4   9  19  38  61  85 114 159 195 247 298 356
#     4  11  24  37  59  87 123 160 197 251 301 363
#     4   9  17  37  60  82 114 159 197 244 295 356
#
# _framework density 19.656593999999998
#
# number of rings (size 3 to 8) (size 9 to 14) (size 15 to 20)
#    0.000    2.000    1.429    3.857    2.000    1.143 
#    2.571    0.000    0.000    3.429    0.000    0.000 
#    0.000    0.000    0.000    0.000    0.000    0.000 
#
# Total GULP energy -347101.255952 kJ/mol
# GULP energy per Si atom -12396.473427 kJ/mol
# Density = 1.961185 g / cm^3
# Si number density = 19.656594 Si / 1000 Ang^3
#
#
#
# Elastic Constant Matrix: (Units=GPa)
#
#
# Indices 1 2 3 4 5 6 
#
# 1 57.0479 17.3424 25.6663 0.0000 0.0000 0.0000
# 2 17.3424 59.2599 21.7711 0.0000 0.0000 0.0000
# 3 25.6663 21.7711 103.4342 0.0000 0.0000 0.0000
# 4 0.0000 0.0000 0.0000 41.5604 0.0000 0.0000
# 5 0.0000 0.0000 0.0000 0.0000 36.6910 0.0000
# 6 0.0000 0.0000 0.0000 0.0000 0.0000 21.4341
#
#
#
# Elastic Compliance Matrix: (Units=1/GPa)
#
#
# Indices 1 2 3 4 5 6 
#
# 1 0.020802 -0.004543 -0.004206 0.000000 0.000000 0.000000
# 2 -0.004543 0.019281 -0.002931 0.000000 0.000000 0.000000
# 3 -0.004206 -0.002931 0.011329 0.000000 0.000000 0.000000
# 4 0.000000 0.000000 0.000000 0.024061 0.000000 0.000000
# 5 0.000000 0.000000 0.000000 0.000000 0.027255 0.000000
# 6 0.000000 0.000000 0.000000 0.000000 0.000000 0.046655
#
#
# Mechanical properties :
#
#
# Convention : Reuss Voigt Hill
#
# Bulk Modulus (GPa) = 35.64701 38.81130 37.22916
# Shear Modulus (GPa) = 27.45858 30.26792 28.86325
#
# Velocity S-wave (km/s) = 3.74159 3.92833 3.83610
# Velocity P-wave (km/s) = 6.06961 6.35321 6.21303
#
# Compressibility (1/GPa) = 0.02805284
#
# Stress axis : x y z
#
# Youngs Moduli (GPa) = 48.07166 51.86440 88.27253
#
# Poissons Ratio (x) = 0.23560 0.37125
# Poissons Ratio (y) = 0.21837 0.25874
# Poissons Ratio (z) = 0.20218 0.15202
#
# Static dielectric constant tensor:
#      x y z
#    x 3.257840 0.000000 0.000000 
#    y 0.000000 3.506210 0.000000 
#    z 0.000000 0.000000 4.015050 
# 
# 
# High freq. dielectric constant tensor:
#      x y z
#    x 1.746570 0.000000 0.000000 
#    y 0.000000 1.753380 0.000000 
#    z 0.000000 0.000000 1.783760 
# 
# From -- ./inp_files/26709.got.cif
#   From: 2010.03.12/outbox.cif.g09.slc.cpg/sg20_14_cif.got.tgz:26709.got - 2010.04.14 01:38:04.
