data_PCOD8159213
_publ_section_title
;
Structure prediction by ZEFSAII (Michael W. Deem and Ramdas Pophale) SiO2 
 PCOD8159213
Probable space group: C 2 2 21
;
_chemical_formula_sum "Si O2"
_cell_formula_units_Z 44
_cell_length_a 26.894526
_cell_length_b 8.510772
_cell_length_c 9.456686
_cell_angle_alpha 90.000000
_cell_angle_beta 90.000000
_cell_angle_gamma 90.000000
_cell_volume 2164.570920
_symmetry_space_group_name_H-M "C 2 2 21"
_symmetry_group_IT_number 20
_symmetry_cell_setting 'orthorhombic'
loop_
_space_group_symop_operation_xyz
x,y,z
-x,-y,1/2+z
x,-y,-z
-x,y,1/2-z
1/2+x,1/2+y,z
1/2-x,1/2-y,1/2+z
1/2+x,1/2-y,-z
1/2-x,1/2+y,1/2-z
loop_
_atom_site_type_symbol
_atom_site_label
_atom_site_fract_x
_atom_site_fract_y
_atom_site_fract_z
Si Si1 0.275323 0.500000 0.500000
Si Si2 0.412443 0.179325 0.536255
Si Si3 0.645240 0.362528 0.202002
Si Si4 0.819958 0.331816 0.959458
Si Si5 0.490521 0.652186 0.089999
Si Si6 0.385173 0.323559 0.825334
O O1 0.307790 0.548313 0.634552
O O2 0.240126 0.648705 0.458138
O O3 0.389268 0.290715 0.418032
O O4 0.471655 0.209823 0.544005
O O5 0.385576 0.218172 0.684201
O O6 0.402079 0.000000 0.500000
O O7 0.662910 0.224643 0.305712
O O8 0.613733 0.491865 0.287426
O O9 0.845074 0.500000 0.000000
O O10 0.836285 0.210951 0.082053
O O11 0.500000 0.601444 0.250000
O O12 0.433685 0.712391 0.077119
O O13 0.502126 0.500000 0.000000
#
# Coordination Sequence:
#
# PCOD8159213 Si02
#       6
#     4   8   8   8   8   8
#     4  10  26  40  66  98 128 174 228 272 344 396
#     4  11  23  40  66  94 133 173 215 274 339 397
#     4  12  22  45  68  93 133 176 225 272 335 412
#     4  10  25  41  63  98 128 165 222 273 336 375
#     4  10  21  38  62  95 126 167 220 263 326 406
#     4  11  22  43  66  96 131 174 220 273 329 400
#
# _framework density 20.327352999999999
#
# number of rings (size 3 to 8) (size 9 to 14) (size 15 to 20)
#    0.545    0.727    1.818    4.909    2.545    0.727 
#    0.000   10.000    0.000    0.000    0.000    0.000 
#    0.000    0.000    0.000    0.000    0.000    0.000 
#
# Total GULP energy -272805.038951 kJ/mol
# GULP energy per Si atom -12400.229043 kJ/mol
# Density = 2.028109 g / cm^3
# Si number density = 20.327353 Si / 1000 Ang^3
#
#
#
# Elastic Constant Matrix: (Units=GPa)
#
#
# Indices 1 2 3 4 5 6 
#
# 1 120.7357 37.0629 50.8913 0.0000 0.0000 0.0000
# 2 37.0629 92.8529 40.5399 0.0000 0.0000 0.0000
# 3 50.8913 40.5399 102.3797 0.0000 0.0000 0.0000
# 4 0.0000 0.0000 0.0000 47.0339 0.0000 0.0000
# 5 0.0000 0.0000 0.0000 0.0000 32.4849 0.0000
# 6 0.0000 0.0000 0.0000 0.0000 0.0000 30.5361
#
#
#
# Elastic Compliance Matrix: (Units=1/GPa)
#
#
# Indices 1 2 3 4 5 6 
#
# 1 0.010903 -0.002401 -0.004469 0.000000 0.000000 0.000000
# 2 -0.002401 0.013549 -0.004172 0.000000 0.000000 0.000000
# 3 -0.004469 -0.004172 0.013641 0.000000 0.000000 0.000000
# 4 0.000000 0.000000 0.000000 0.021261 0.000000 0.000000
# 5 0.000000 0.000000 0.000000 0.000000 0.030784 0.000000
# 6 0.000000 0.000000 0.000000 0.000000 0.000000 0.032748
#
#
# Mechanical properties :
#
#
# Convention : Reuss Voigt Hill
#
# Bulk Modulus (GPa) = 62.46056 63.66183 63.06119
# Shear Modulus (GPa) = 33.26517 34.50928 33.88722
#
# Velocity S-wave (km/s) = 4.04972 4.12476 4.08741
# Velocity P-wave (km/s) = 7.25679 7.35331 7.30521
#
# Compressibility (1/GPa) = 0.01601010
#
# Stress axis : x y z
#
# Youngs Moduli (GPa) = 91.71473 73.80355 73.30806
#
# Poissons Ratio (x) = 0.17719 0.32763
# Poissons Ratio (y) = 0.22020 0.30583
# Poissons Ratio (z) = 0.40989 0.30790
#
# Static dielectric constant tensor:
#      x y z
#    x 3.874780 0.000000 0.000000 
#    y 0.000000 3.551540 0.000000 
#    z 0.000000 0.000000 3.710630 
# 
# 
# High freq. dielectric constant tensor:
#      x y z
#    x 1.796490 0.000000 0.000000 
#    y 0.000000 1.783760 0.000000 
#    z 0.000000 0.000000 1.804190 
# 
# From -- ./inp_files/11360.got.cif
#   From: 2010.03.12/outbox.cif.g09.slc.cpg/sg20_6_cif.got.tgz:11360.got - 2010.04.14 01:38:04.
