data_PCOD8159062
_publ_section_title
;
Structure prediction by ZEFSAII (Michael W. Deem and Ramdas Pophale) SiO2 
 PCOD8159062
Probable space group: C 2 2 21
;
_chemical_formula_sum "Si O2"
_cell_formula_units_Z 44
_cell_length_a 9.597693
_cell_length_b 25.505838
_cell_length_c 8.243194
_cell_angle_alpha 90.000000
_cell_angle_beta 90.000000
_cell_angle_gamma 90.000000
_cell_volume 2017.910834
_symmetry_space_group_name_H-M "C 2 2 21"
_symmetry_group_IT_number 20
_symmetry_cell_setting 'orthorhombic'
loop_
_space_group_symop_operation_xyz
x,y,z
-x,-y,1/2+z
x,-y,-z
-x,y,1/2-z
1/2+x,1/2+y,z
1/2-x,1/2-y,1/2+z
1/2+x,1/2-y,-z
1/2-x,1/2+y,1/2-z
loop_
_atom_site_type_symbol
_atom_site_label
_atom_site_fract_x
_atom_site_fract_y
_atom_site_fract_z
Si Si1 0.905883 0.348754 0.982585
Si Si2 0.293378 0.144963 0.376454
Si Si3 0.500000 0.305172 0.250000
Si Si4 0.917041 0.764299 0.915846
Si Si5 0.395552 0.560945 0.973937
Si Si6 0.171749 0.102626 0.846488
O O1 0.842691 0.345448 0.804707
O O2 0.069584 0.361792 0.988516
O O3 0.871262 0.296083 0.083560
O O4 0.821876 0.395703 0.069378
O O5 0.214604 0.197576 0.429182
O O6 0.197803 0.092794 0.395149
O O7 0.497041 0.270678 0.414960
O O8 0.363387 0.341971 0.258767
O O9 0.000000 0.778152 0.750000
O O10 0.548432 0.588137 0.973559
O O11 0.321989 0.561019 0.798109
O O12 0.412954 0.500000 0.000000
#
# Coordination Sequence:
#
# PCOD8159062 Si02
#       6
#     8   8   4   8   8   8
#     4  11  28  41  64 104 144 187 227 284 362 421
#     4  11  25  45  64 102 145 176 241 294 342 430
#     4  10  20  44  62 102 138 176 250 280 318 420
#     4  12  26  41  71  99 142 202 230 282 345 422
#     4  10  23  45  74 101 130 181 241 302 351 425
#     4  10  22  44  68  99 143 174 232 301 349 418
#
# _framework density 21.804729999999999
#
# number of rings (size 3 to 8) (size 9 to 14) (size 15 to 20)
#    0.000    1.455    3.636    2.182   10.182    2.909 
#    0.000    4.545    0.000    0.000    0.000    0.000 
#    0.000    0.000    0.000    0.000    0.000    0.000 
#
# Total GULP energy -272676.775443 kJ/mol
# GULP energy per Si atom -12394.398884 kJ/mol
# Density = 2.175510 g / cm^3
# Si number density = 21.804730 Si / 1000 Ang^3
#
#
#
# Elastic Constant Matrix: (Units=GPa)
#
#
# Indices 1 2 3 4 5 6 
#
# 1 128.1885 42.9339 53.5735 0.0000 0.0000 0.0000
# 2 42.9339 94.0796 26.8479 0.0000 0.0000 0.0000
# 3 53.5735 26.8479 113.6899 0.0000 0.0000 0.0000
# 4 0.0000 0.0000 0.0000 33.4925 0.0000 0.0000
# 5 0.0000 0.0000 0.0000 0.0000 35.9834 0.0000
# 6 0.0000 0.0000 0.0000 0.0000 0.0000 14.7927
#
#
#
# Elastic Compliance Matrix: (Units=1/GPa)
#
#
# Indices 1 2 3 4 5 6 
#
# 1 0.010812 -0.003732 -0.004214 0.000000 0.000000 0.000000
# 2 -0.003732 0.012685 -0.001237 0.000000 0.000000 0.000000
# 3 -0.004214 -0.001237 0.011074 0.000000 0.000000 0.000000
# 4 0.000000 0.000000 0.000000 0.029857 0.000000 0.000000
# 5 0.000000 0.000000 0.000000 0.000000 0.027791 0.000000
# 6 0.000000 0.000000 0.000000 0.000000 0.000000 0.067601
#
#
# Mechanical properties :
#
#
# Convention : Reuss Voigt Hill
#
# Bulk Modulus (GPa) = 61.70594 64.74097 63.22346
# Shear Modulus (GPa) = 27.23515 31.02723 29.13119
#
# Velocity S-wave (km/s) = 3.53802 3.77631 3.65910
# Velocity P-wave (km/s) = 6.71200 6.98353 6.84911
#
# Compressibility (1/GPa) = 0.01620590
#
# Stress axis : x y z
#
# Youngs Moduli (GPa) = 92.49161 78.83135 90.30517
#
# Poissons Ratio (x) = 0.29417 0.38051
# Poissons Ratio (y) = 0.34514 0.11173
# Poissons Ratio (z) = 0.38972 0.09753
#
# Static dielectric constant tensor:
#      x y z
#    x 4.036860 0.000000 0.000000 
#    y 0.000000 3.715140 0.000000 
#    z 0.000000 0.000000 4.287710 
# 
# 
# High freq. dielectric constant tensor:
#      x y z
#    x 1.854660 0.000000 0.000000 
#    y 0.000000 1.831880 0.000000 
#    z 0.000000 0.000000 1.866730 
# 
# From -- ./inp_files/6365.got.cif
#   From: 2010.03.12/outbox.cif.g09.slc.cpg/sg20_4_cif.got.tgz:6365.got - 2010.04.14 01:38:04.
