data_PCOD8159374
_publ_section_title
;
Structure prediction by ZEFSAII (Michael W. Deem and Ramdas Pophale) SiO2 
 PCOD8159374
Probable space group: C 2 2 21
;
_chemical_formula_sum "Si O2"
_cell_formula_units_Z 48
_cell_length_a 9.489602
_cell_length_b 14.665302
_cell_length_c 17.960183
_cell_angle_alpha 90.000000
_cell_angle_beta 90.000000
_cell_angle_gamma 90.000000
_cell_volume 2499.480578
_symmetry_space_group_name_H-M "C 2 2 21"
_symmetry_group_IT_number 20
_symmetry_cell_setting 'orthorhombic'
loop_
_space_group_symop_operation_xyz
x,y,z
-x,-y,1/2+z
x,-y,-z
-x,y,1/2-z
1/2+x,1/2+y,z
1/2-x,1/2-y,1/2+z
1/2+x,1/2-y,-z
1/2-x,1/2+y,1/2-z
loop_
_atom_site_type_symbol
_atom_site_label
_atom_site_fract_x
_atom_site_fract_y
_atom_site_fract_z
Si Si1 0.076924 0.564316 0.330021
Si Si2 0.312328 0.590326 0.673911
Si Si3 0.629903 0.585398 0.658801
Si Si4 0.691206 0.256195 0.058992
Si Si5 0.192240 0.550890 0.077585
Si Si6 0.631970 0.765295 0.579622
O O1 0.200987 0.490872 0.333731
O O2 0.137732 0.663949 0.351142
O O3 0.000000 0.567722 0.250000
O O4 0.968267 0.540202 0.395684
O O5 0.466210 0.560893 0.644665
O O6 0.331544 0.618751 0.758924
O O7 0.264247 0.679530 0.627998
O O8 0.711629 0.493619 0.640672
O O9 0.684816 0.667406 0.607535
O O10 0.747718 0.154347 0.073503
O O11 0.524371 0.248008 0.046832
O O12 0.763544 0.298377 0.985481
O O13 0.211951 0.500000 0.000000
#
# Coordination Sequence:
#
# PCOD8159374 Si02
#       6
#     8   8   8   8   8   8
#     4  11  24  40  63  91 121 162 203 251 305 356
#     4  10  23  39  61  87 121 158 205 250 299 361
#     4  10  21  41  63  85 120 164 202 251 301 358
#     4  10  23  39  61  89 119 158 197 252 301 361
#     4  11  22  40  63  89 121 160 204 250 305 363
#     4  10  23  39  63  88 123 159 203 248 305 364
#
# _framework density 19.203990000000001
#
# number of rings (size 3 to 8) (size 9 to 14) (size 15 to 20)
#    0.000    1.667    3.333    0.000   11.667    1.333 
#    0.000    0.000    3.667    0.000    0.000    0.000 
#    0.000    0.000    0.000    0.000    0.000    0.000 
#
# Total GULP energy -297573.115901 kJ/mol
# GULP energy per Si atom -12398.879829 kJ/mol
# Density = 1.916028 g / cm^3
# Si number density = 19.203990 Si / 1000 Ang^3
#
#
#
# Elastic Constant Matrix: (Units=GPa)
#
#
# Indices 1 2 3 4 5 6 
#
# 1 63.5126 50.4574 34.6214 0.0000 0.0000 0.0000
# 2 50.4574 120.9102 42.2442 0.0000 0.0000 0.0000
# 3 34.6214 42.2442 88.8552 0.0000 0.0000 0.0000
# 4 0.0000 0.0000 0.0000 36.6038 0.0000 0.0000
# 5 0.0000 0.0000 0.0000 0.0000 35.7825 0.0000
# 6 0.0000 0.0000 0.0000 0.0000 0.0000 29.2824
#
#
#
# Elastic Compliance Matrix: (Units=1/GPa)
#
#
# Indices 1 2 3 4 5 6 
#
# 1 0.025934 -0.008745 -0.005947 0.000000 0.000000 0.000000
# 2 -0.008745 0.012867 -0.002710 0.000000 0.000000 0.000000
# 3 -0.005947 -0.002710 0.014860 0.000000 0.000000 0.000000
# 4 0.000000 0.000000 0.000000 0.027320 0.000000 0.000000
# 5 0.000000 0.000000 0.000000 0.000000 0.027947 0.000000
# 6 0.000000 0.000000 0.000000 0.000000 0.000000 0.034150
#
#
# Mechanical properties :
#
#
# Convention : Reuss Voigt Hill
#
# Bulk Modulus (GPa) = 53.03160 58.65821 55.84490
# Shear Modulus (GPa) = 27.14930 30.06409 28.60670
#
# Velocity S-wave (km/s) = 3.76404 3.96095 3.86375
# Velocity P-wave (km/s) = 6.82389 7.17843 7.00341
#
# Compressibility (1/GPa) = 0.01885668
#
# Stress axis : x y z
#
# Youngs Moduli (GPa) = 38.55923 77.72020 67.29481
#
# Poissons Ratio (x) = 0.67964 0.40023
# Poissons Ratio (y) = 0.33719 0.18236
# Poissons Ratio (z) = 0.22933 0.21061
#
# Static dielectric constant tensor:
#      x y z
#    x 3.481980 0.000000 0.000000 
#    y 0.000000 3.602210 0.000000 
#    z 0.000000 0.000000 3.552670 
# 
# 
# High freq. dielectric constant tensor:
#      x y z
#    x 1.740910 0.000000 0.000000 
#    y 0.000000 1.751320 0.000000 
#    z 0.000000 0.000000 1.754980 
# 
# From -- ./inp_files/23482.got.cif
#   From: 2010.03.12/outbox.cif.g09.slc.cpg/sg20_12_cif.got.tgz:23482.got - 2010.04.14 01:38:04.
