data_PCOD8159514
_publ_section_title
;
Structure prediction by ZEFSAII (Michael W. Deem and Ramdas Pophale) SiO2 
 PCOD8159514
Probable space group: C 2 2 21
;
_chemical_formula_sum "Si O2"
_cell_formula_units_Z 64
_cell_length_a 8.679753
_cell_length_b 11.931545
_cell_length_c 27.015537
_cell_angle_alpha 90.000000
_cell_angle_beta 90.000000
_cell_angle_gamma 90.000000
_cell_volume 2797.806371
_symmetry_space_group_name_H-M "C 2 2 21"
_symmetry_group_IT_number 20
_symmetry_cell_setting 'orthorhombic'
loop_
_space_group_symop_operation_xyz
x,y,z
-x,-y,1/2+z
x,-y,-z
-x,y,1/2-z
1/2+x,1/2+y,z
1/2-x,1/2-y,1/2+z
1/2+x,1/2-y,-z
1/2-x,1/2+y,1/2-z
loop_
_atom_site_type_symbol
_atom_site_label
_atom_site_fract_x
_atom_site_fract_y
_atom_site_fract_z
Si Si1 0.937234 0.705209 0.301993
Si Si2 0.446002 0.381981 0.123885
Si Si3 0.622194 0.192168 0.544803
Si Si4 0.967155 0.947366 0.694325
Si Si5 0.223216 0.985431 0.927215
Si Si6 0.722470 0.228817 0.953187
Si Si7 0.874362 0.498278 0.171187
Si Si8 0.118541 0.252425 0.342998
O O1 0.752443 0.702518 0.306987
O O2 0.000000 0.759298 0.250000
O O3 0.988818 0.770654 0.350937
O O4 0.005770 0.580119 0.302701
O O5 0.407995 0.466100 0.169821
O O6 0.569426 0.453002 0.092353
O O7 0.303442 0.342041 0.090552
O O8 0.706592 0.073123 0.532801
O O9 0.441012 0.170330 0.539272
O O10 0.677080 0.281584 0.503339
O O11 0.668328 0.238323 0.599303
O O12 0.796480 0.997484 0.693930
O O13 0.000000 0.918276 0.750000
O O14 0.974084 0.831642 0.662632
O O15 0.358251 0.973808 0.886590
O O16 0.187906 0.860085 0.944148
O O17 0.936292 0.372123 0.177754
#
# Coordination Sequence:
#
# PCOD8159514 Si02
#       8
#     8   8   8   8   8   8   8   8
#     4  12  23  42  69  98 136 181 226 287 348 404
#     4  11  23  43  70  97 138 182 228 289 338 418
#     4  11  24  43  71 103 132 184 232 281 350 424
#     4  11  23  45  67  97 139 187 233 286 349 415
#     4  10  21  45  65  94 138 180 221 286 342 406
#     4  12  25  44  71  99 139 181 231 288 357 413
#     4  10  22  41  64  93 134 176 226 280 345 401
#     4  11  25  45  66  99 142 174 232 291 337 422
#
# _framework density 22.875062
#
# number of rings (size 3 to 8) (size 9 to 14) (size 15 to 20)
#    0.000    1.000    5.000    3.750    0.000    2.500 
#    0.000    5.625    0.000    0.000    0.000    0.000 
#    0.000    0.000    0.000    0.000    0.000    0.000 
#
# Total GULP energy -396531.626207 kJ/mol
# GULP energy per Si atom -12391.613319 kJ/mol
# Density = 2.282300 g / cm^3
# Si number density = 22.875062 Si / 1000 Ang^3
#
#
#
# Elastic Constant Matrix: (Units=GPa)
#
#
# Indices 1 2 3 4 5 6 
#
# 1 83.4518 25.3847 29.2757 0.0000 0.0000 0.0000
# 2 25.3847 114.9763 40.1574 0.0000 0.0000 0.0000
# 3 29.2757 40.1574 88.4706 0.0000 0.0000 0.0000
# 4 0.0000 0.0000 0.0000 33.6479 0.0000 0.0000
# 5 0.0000 0.0000 0.0000 0.0000 32.2533 0.0000
# 6 0.0000 0.0000 0.0000 0.0000 0.0000 29.0195
#
#
#
# Elastic Compliance Matrix: (Units=1/GPa)
#
#
# Indices 1 2 3 4 5 6 
#
# 1 0.013840 -0.001730 -0.003794 0.000000 0.000000 0.000000
# 2 -0.001730 0.010552 -0.004217 0.000000 0.000000 0.000000
# 3 -0.003794 -0.004217 0.014473 0.000000 0.000000 0.000000
# 4 0.000000 0.000000 0.000000 0.029720 0.000000 0.000000
# 5 0.000000 0.000000 0.000000 0.000000 0.031005 0.000000
# 6 0.000000 0.000000 0.000000 0.000000 0.000000 0.034460
#
#
# Mechanical properties :
#
#
# Convention : Reuss Voigt Hill
#
# Bulk Modulus (GPa) = 51.59509 52.94828 52.27168
# Shear Modulus (GPa) = 31.25107 31.78952 31.52030
#
# Velocity S-wave (km/s) = 3.70017 3.73191 3.71608
# Velocity P-wave (km/s) = 6.39212 6.46271 6.42751
#
# Compressibility (1/GPa) = 0.01938169
#
# Stress axis : x y z
#
# Youngs Moduli (GPa) = 72.25188 94.76496 69.09403
#
# Poissons Ratio (x) = 0.16399 0.26218
# Poissons Ratio (y) = 0.12503 0.29138
# Poissons Ratio (z) = 0.27416 0.39964
#
# Static dielectric constant tensor:
#      x y z
#    x 3.869710 0.000000 0.000000 
#    y 0.000000 4.234880 0.000000 
#    z 0.000000 0.000000 4.315490 
# 
# 
# High freq. dielectric constant tensor:
#      x y z
#    x 1.881540 0.000000 0.000000 
#    y 0.000000 1.908930 0.000000 
#    z 0.000000 0.000000 1.912370 
# 
# From -- ./inp_files/31055.got.cif
#   From: 2010.03.12/outbox.cif.g09.slc.cpg/sg20_16_cif.got.tgz:31055.got - 2010.04.14 01:38:04.
