data_PCOD8159889
_publ_section_title
;
Structure prediction by ZEFSAII (Michael W. Deem and Ramdas Pophale) SiO2 
 PCOD8159889
Probable space group: C 2 2 21
;
_chemical_formula_sum "Si O2"
_cell_formula_units_Z 40
_cell_length_a 10.369916
_cell_length_b 9.320131
_cell_length_c 17.697621
_cell_angle_alpha 90.000000
_cell_angle_beta 90.000000
_cell_angle_gamma 90.000000
_cell_volume 1710.456940
_symmetry_space_group_name_H-M "C 2 2 21"
_symmetry_group_IT_number 20
_symmetry_cell_setting 'orthorhombic'
loop_
_space_group_symop_operation_xyz
x,y,z
-x,-y,1/2+z
x,-y,-z
-x,y,1/2-z
1/2+x,1/2+y,z
1/2-x,1/2-y,1/2+z
1/2+x,1/2-y,-z
1/2-x,1/2+y,1/2-z
loop_
_atom_site_type_symbol
_atom_site_label
_atom_site_fract_x
_atom_site_fract_y
_atom_site_fract_z
Si Si1 0.724654 0.498592 0.331597
Si Si2 0.822646 0.846548 0.467880
Si Si3 0.897104 0.791696 0.057975
Si Si4 0.209380 0.317934 0.311200
Si Si5 0.491028 0.050973 0.164900
O O1 0.630614 0.437984 0.396059
O O2 0.730424 0.382886 0.264580
O O3 0.673451 0.650577 0.299717
O O4 0.866302 0.525110 0.367873
O O5 0.721539 0.731791 0.500989
O O6 0.815411 0.839760 0.376939
O O7 0.970652 0.810032 0.489509
O O8 0.782515 0.000000 0.500000
O O9 0.907634 0.657062 0.114051
O O10 0.077921 0.397024 0.333862
O O11 0.500000 0.115126 0.250000
#
# Coordination Sequence:
#
# PCOD8159889 Si02
#       5
#     8   8   8   8   8
#     4  11  25  46  77 106 145 188 251 300 365 429
#     4  12  29  46  73 107 152 192 245 298 376 437
#     4  12  28  47  77 103 150 193 246 302 366 444
#     4  11  24  48  73 108 145 192 241 305 360 437
#     4  10  22  46  73 107 140 189 240 303 366 429
#
# _framework density 23.385563999999999
#
# number of rings (size 3 to 8) (size 9 to 14) (size 15 to 20)
#    0.000    0.800    4.000    2.400    5.600    0.000 
#    7.200    0.000    0.000    0.000    0.000    0.000 
#    0.000    0.000    0.000    0.000    0.000    0.000 
#
# Total GULP energy -248099.330970 kJ/mol
# GULP energy per Si atom -12404.966549 kJ/mol
# Density = 2.333234 g / cm^3
# Si number density = 23.385564 Si / 1000 Ang^3
#
#
#
# Elastic Constant Matrix: (Units=GPa)
#
#
# Indices 1 2 3 4 5 6 
#
# 1 119.5509 15.0318 18.8943 0.0000 0.0000 0.0000
# 2 15.0318 121.6873 13.1214 0.0000 0.0000 0.0000
# 3 18.8943 13.1214 56.4691 0.0000 0.0000 0.0000
# 4 0.0000 0.0000 0.0000 29.3299 0.0000 0.0000
# 5 0.0000 0.0000 0.0000 0.0000 37.4744 0.0000
# 6 0.0000 0.0000 0.0000 0.0000 0.0000 37.8429
#
#
#
# Elastic Compliance Matrix: (Units=1/GPa)
#
#
# Indices 1 2 3 4 5 6 
#
# 1 0.008907 -0.000799 -0.002795 0.000000 0.000000 0.000000
# 2 -0.000799 0.008501 -0.001708 0.000000 0.000000 0.000000
# 3 -0.002795 -0.001708 0.019041 0.000000 0.000000 0.000000
# 4 0.000000 0.000000 0.000000 0.034095 0.000000 0.000000
# 5 0.000000 0.000000 0.000000 0.000000 0.026685 0.000000
# 6 0.000000 0.000000 0.000000 0.000000 0.000000 0.026425
#
#
# Mechanical properties :
#
#
# Convention : Reuss Voigt Hill
#
# Bulk Modulus (GPa) = 38.69165 43.53359 41.11262
# Shear Modulus (GPa) = 34.99668 37.64010 36.31839
#
# Velocity S-wave (km/s) = 3.87267 4.01626 3.94512
# Velocity P-wave (km/s) = 6.04796 6.33744 6.19439
#
# Compressibility (1/GPa) = 0.02584537
#
# Stress axis : x y z
#
# Youngs Moduli (GPa) = 112.27449 117.63823 52.51906
#
# Poissons Ratio (x) = 0.09398 0.14677
# Poissons Ratio (y) = 0.08970 0.08970
# Poissons Ratio (z) = 0.31375 0.20092
#
# Static dielectric constant tensor:
#      x y z
#    x 4.229930 0.000000 0.000000 
#    y 0.000000 4.350430 0.000000 
#    z 0.000000 0.000000 4.145120 
# 
# 
# High freq. dielectric constant tensor:
#      x y z
#    x 1.926810 0.000000 0.000000 
#    y 0.000000 1.935320 0.000000 
#    z 0.000000 0.000000 1.916240 
# 
# From -- ./inp_files/24075.got.cif
#   From: 2010.03.12/outbox.cif.g09.slc.cpg/sg20_13_cif.got.tgz:24075.got - 2010.04.14 01:38:04.
