data_PCOD8159905
_publ_section_title
;
Structure prediction by ZEFSAII (Michael W. Deem and Ramdas Pophale) SiO2 
 PCOD8159905
Probable space group: C 2 2 21
;
_chemical_formula_sum "Si O2"
_cell_formula_units_Z 44
_cell_length_a 8.377069
_cell_length_b 23.937771
_cell_length_c 11.244305
_cell_angle_alpha 90.000000
_cell_angle_beta 90.000000
_cell_angle_gamma 90.000000
_cell_volume 2254.802034
_symmetry_space_group_name_H-M "C 2 2 21"
_symmetry_group_IT_number 20
_symmetry_cell_setting 'orthorhombic'
loop_
_space_group_symop_operation_xyz
x,y,z
-x,-y,1/2+z
x,-y,-z
-x,y,1/2-z
1/2+x,1/2+y,z
1/2-x,1/2-y,1/2+z
1/2+x,1/2-y,-z
1/2-x,1/2+y,1/2-z
loop_
_atom_site_type_symbol
_atom_site_label
_atom_site_fract_x
_atom_site_fract_y
_atom_site_fract_z
Si Si1 0.368566 0.500000 0.000000
Si Si2 0.190018 0.027785 0.250530
Si Si3 0.686711 0.687874 0.985421
Si Si4 0.597309 0.423391 0.133722
Si Si5 0.603165 0.721113 0.363060
Si Si6 0.818756 0.355096 0.779709
O O1 0.257863 0.482830 0.887874
O O2 0.478670 0.553197 0.967150
O O3 0.285333 0.079580 0.196191
O O4 0.000000 0.038891 0.250000
O O5 0.223083 0.972619 0.170660
O O6 0.689489 0.629791 0.915111
O O7 0.768018 0.732719 0.899607
O O8 0.508147 0.706381 0.023860
O O9 0.790679 0.681145 0.103281
O O10 0.500000 0.404536 0.250000
O O11 0.500000 0.742898 0.250000
O O12 0.701229 0.665669 0.325265
O O13 0.000000 0.344813 0.750000
#
# Coordination Sequence:
#
# PCOD8159905 Si02
#       6
#     4   8   8   8   8   8
#     4   8  14  30  52  78 108 142 186 234 282 340
#     4   9  17  33  55  81 108 143 191 234 282 346
#     4  11  21  39  60  82 115 151 191 243 289 335
#     4   9  18  30  55  85 108 144 187 232 285 346
#     4  10  23  39  59  85 112 151 196 239 287 346
#     4  11  22  37  57  83 114 152 192 234 285 350
#
# _framework density 19.513909999999999
#
# number of rings (size 3 to 8) (size 9 to 14) (size 15 to 20)
#    0.000    2.545    0.000    6.000    0.000    3.636 
#    0.000    6.364    0.000    0.000    0.000    0.000 
#    0.000    0.000    0.000    0.000    0.000    0.000 
#
# Total GULP energy -272741.050625 kJ/mol
# GULP energy per Si atom -12397.320483 kJ/mol
# Density = 1.946950 g / cm^3
# Si number density = 19.513910 Si / 1000 Ang^3
#
#
#
# Elastic Constant Matrix: (Units=GPa)
#
#
# Indices 1 2 3 4 5 6 
#
# 1 86.3045 41.9941 29.0902 0.0000 0.0000 0.0000
# 2 41.9941 122.3585 42.2393 0.0000 0.0000 0.0000
# 3 29.0902 42.2393 75.1295 0.0000 0.0000 0.0000
# 4 0.0000 0.0000 0.0000 31.5886 0.0000 0.0000
# 5 0.0000 0.0000 0.0000 0.0000 24.3980 0.0000
# 6 0.0000 0.0000 0.0000 0.0000 0.0000 15.0647
#
#
#
# Elastic Compliance Matrix: (Units=1/GPa)
#
#
# Indices 1 2 3 4 5 6 
#
# 1 0.014625 -0.003803 -0.003525 0.000000 0.000000 0.000000
# 2 -0.003803 0.011130 -0.004785 0.000000 0.000000 0.000000
# 3 -0.003525 -0.004785 0.017365 0.000000 0.000000 0.000000
# 4 0.000000 0.000000 0.000000 0.031657 0.000000 0.000000
# 5 0.000000 0.000000 0.000000 0.000000 0.040987 0.000000
# 6 0.000000 0.000000 0.000000 0.000000 0.000000 0.066380
#
#
# Mechanical properties :
#
#
# Convention : Reuss Voigt Hill
#
# Bulk Modulus (GPa) = 52.92341 56.71553 54.81947
# Shear Modulus (GPa) = 23.51081 25.57486 24.54284
#
# Velocity S-wave (km/s) = 3.47482 3.62414 3.55027
# Velocity P-wave (km/s) = 6.57867 6.82933 6.70517
#
# Compressibility (1/GPa) = 0.01889523
#
# Stress axis : x y z
#
# Youngs Moduli (GPa) = 68.37456 89.85070 57.58579
#
# Poissons Ratio (x) = 0.34167 0.20299
# Poissons Ratio (y) = 0.26000 0.27554
# Poissons Ratio (z) = 0.24102 0.42993
#
# Static dielectric constant tensor:
#      x y z
#    x 3.186930 0.000000 0.000000 
#    y 0.000000 3.534660 0.000000 
#    z 0.000000 0.000000 3.946150 
# 
# 
# High freq. dielectric constant tensor:
#      x y z
#    x 1.720310 0.000000 0.000000 
#    y 0.000000 1.761650 0.000000 
#    z 0.000000 0.000000 1.773210 
# 
# From -- ./inp_files/13018.got.cif
#   From: 2010.03.12/outbox.cif.g09.slc.cpg/sg20_7_cif.got.tgz:13018.got - 2010.04.14 01:38:04.
