data_PCOD8159071
_publ_section_title
;
Structure prediction by ZEFSAII (Michael W. Deem and Ramdas Pophale) SiO2 
 PCOD8159071
Probable space group: C 2 2 21
;
_chemical_formula_sum "Si O2"
_cell_formula_units_Z 56
_cell_length_a 14.865164
_cell_length_b 8.801040
_cell_length_c 20.204941
_cell_angle_alpha 90.000000
_cell_angle_beta 90.000000
_cell_angle_gamma 90.000000
_cell_volume 2643.390266
_symmetry_space_group_name_H-M "C 2 2 21"
_symmetry_group_IT_number 20
_symmetry_cell_setting 'orthorhombic'
loop_
_space_group_symop_operation_xyz
x,y,z
-x,-y,1/2+z
x,-y,-z
-x,y,1/2-z
1/2+x,1/2+y,z
1/2-x,1/2-y,1/2+z
1/2+x,1/2-y,-z
1/2-x,1/2+y,1/2-z
loop_
_atom_site_type_symbol
_atom_site_label
_atom_site_fract_x
_atom_site_fract_y
_atom_site_fract_z
Si Si1 0.288976 0.555729 0.187659
Si Si2 0.089709 0.668573 0.518473
Si Si3 0.556109 0.646808 0.952329
Si Si4 0.270156 0.146119 0.452624
Si Si5 0.979587 0.973970 0.177778
Si Si6 0.001169 0.676573 0.655230
Si Si7 0.353088 0.861806 0.251346
O O1 0.229269 0.599352 0.124145
O O2 0.373116 0.453205 0.161825
O O3 0.322638 0.695297 0.230785
O O4 0.233655 0.465581 0.242987
O O5 0.121703 0.500000 0.500000
O O6 0.176810 0.767445 0.534297
O O7 0.018187 0.658707 0.578171
O O8 0.031927 0.748527 0.461703
O O9 0.647234 0.739841 0.965478
O O10 0.546668 0.599054 0.875884
O O11 0.553817 0.500000 0.000000
O O12 0.279420 0.000000 0.500000
O O13 0.000000 0.902728 0.250000
O O14 0.996884 0.151831 0.179576
O O15 0.077865 0.580636 0.694599
O O16 0.901672 0.624208 0.676602
#
# Coordination Sequence:
#
# PCOD8159071 Si02
#       7
#     8   8   8   8   8   8   8
#     4  11  23  42  67  97 137 175 226 280 341 410
#     4  12  25  47  71  99 136 183 237 283 344 411
#     4  12  26  45  73 102 138 182 230 287 346 415
#     4  12  27  47  69 101 138 182 234 288 343 409
#     4  11  21  43  70  97 135 182 225 278 347 412
#     4  10  20  44  69  94 135 180 221 279 344 403
#     4  10  22  41  68  98 132 177 220 280 343 405
#
# _framework density 21.184916000000001
#
# number of rings (size 3 to 8) (size 9 to 14) (size 15 to 20)
#    0.000    0.857    7.143    2.143    6.000    0.000 
#    5.143    0.000    0.000    0.000    0.000    0.000 
#    0.000    0.000    0.000    0.000    0.000    0.000 
#
# Total GULP energy -347059.614498 kJ/mol
# GULP energy per Si atom -12394.986232 kJ/mol
# Density = 2.113670 g / cm^3
# Si number density = 21.184916 Si / 1000 Ang^3
#
#
#
# Elastic Constant Matrix: (Units=GPa)
#
#
# Indices 1 2 3 4 5 6 
#
# 1 93.4694 39.9499 27.5391 0.0000 0.0000 0.0000
# 2 39.9499 81.9263 36.7516 0.0000 0.0000 0.0000
# 3 27.5391 36.7516 113.6956 0.0000 0.0000 0.0000
# 4 0.0000 0.0000 0.0000 23.9212 0.0000 0.0000
# 5 0.0000 0.0000 0.0000 0.0000 31.9880 0.0000
# 6 0.0000 0.0000 0.0000 0.0000 0.0000 27.2637
#
#
#
# Elastic Compliance Matrix: (Units=1/GPa)
#
#
# Indices 1 2 3 4 5 6 
#
# 1 0.013692 -0.006069 -0.001355 0.000000 0.000000 0.000000
# 2 -0.006069 0.016966 -0.004014 0.000000 0.000000 0.000000
# 3 -0.001355 -0.004014 0.010421 0.000000 0.000000 0.000000
# 4 0.000000 0.000000 0.000000 0.041804 0.000000 0.000000
# 5 0.000000 0.000000 0.000000 0.000000 0.031262 0.000000
# 6 0.000000 0.000000 0.000000 0.000000 0.000000 0.036679
#
#
# Mechanical properties :
#
#
# Convention : Reuss Voigt Hill
#
# Bulk Modulus (GPa) = 54.93435 55.28583 55.11009
# Shear Modulus (GPa) = 27.81381 28.95797 28.38589
#
# Velocity S-wave (km/s) = 3.62734 3.70119 3.66445
# Velocity P-wave (km/s) = 6.59777 6.66472 6.63133
#
# Compressibility (1/GPa) = 0.01820355
#
# Stress axis : x y z
#
# Youngs Moduli (GPa) = 73.03694 58.94062 95.95886
#
# Poissons Ratio (x) = 0.35770 0.12999
# Poissons Ratio (y) = 0.44325 0.38521
# Poissons Ratio (z) = 0.09894 0.23660
#
# Static dielectric constant tensor:
#      x y z
#    x 4.165130 0.000000 0.000000 
#    y 0.000000 3.688700 0.000000 
#    z 0.000000 0.000000 3.939830 
# 
# 
# High freq. dielectric constant tensor:
#      x y z
#    x 1.845240 0.000000 0.000000 
#    y 0.000000 1.812610 0.000000 
#    z 0.000000 0.000000 1.836450 
# 
# From -- ./inp_files/27557.got.cif
#   From: 2010.03.12/outbox.cif.g09.slc.cpg/sg20_14_cif.got.tgz:27557.got - 2010.04.14 01:38:04.
