data_PCOD8159482
_publ_section_title
;
Structure prediction by ZEFSAII (Michael W. Deem and Ramdas Pophale) SiO2 
 PCOD8159482
Probable space group: C 2 2 21
;
_chemical_formula_sum "Si O2"
_cell_formula_units_Z 48
_cell_length_a 8.340004
_cell_length_b 28.949201
_cell_length_c 9.166546
_cell_angle_alpha 90.000000
_cell_angle_beta 90.000000
_cell_angle_gamma 90.000000
_cell_volume 2213.138345
_symmetry_space_group_name_H-M "C 2 2 21"
_symmetry_group_IT_number 20
_symmetry_cell_setting 'orthorhombic'
loop_
_space_group_symop_operation_xyz
x,y,z
-x,-y,1/2+z
x,-y,-z
-x,y,1/2-z
1/2+x,1/2+y,z
1/2-x,1/2-y,1/2+z
1/2+x,1/2-y,-z
1/2-x,1/2+y,1/2-z
loop_
_atom_site_type_symbol
_atom_site_label
_atom_site_fract_x
_atom_site_fract_y
_atom_site_fract_z
Si Si1 0.789386 0.855115 0.505176
Si Si2 0.621866 0.206562 0.881544
Si Si3 0.595826 0.230470 0.388064
Si Si4 0.000000 0.889286 0.250000
Si Si5 0.971557 0.606203 0.582106
Si Si6 0.500000 0.397477 0.750000
Si Si7 0.819499 0.054051 0.999266
O O1 0.712841 0.805360 0.531871
O O2 0.643604 0.891877 0.497523
O O3 0.883143 0.856937 0.349110
O O4 0.899462 0.864906 0.643298
O O5 0.500000 0.206090 0.750000
O O6 0.801151 0.224149 0.844739
O O7 0.630141 0.154002 0.940422
O O8 0.545341 0.242378 0.998077
O O9 0.500000 0.209952 0.250000
O O10 0.096774 0.922196 0.360023
O O11 0.000000 0.594635 0.750000
O O12 0.869558 0.565484 0.508130
O O13 0.615086 0.428945 0.653802
O O14 0.849304 0.000000 0.000000
#
# Coordination Sequence:
#
# PCOD8159482 Si02
#       7
#     8   8   8   4   8   4   8
#     4  10  23  42  66  95 132 179 214 275 319 392
#     4  10  23  42  63  93 130 176 218 268 321 380
#     4  11  24  41  65  97 135 172 224 277 316 381
#     4  10  21  44  68  94 136 174 222 260 337 404
#     4  10  21  43  67  93 129 170 222 264 324 389
#     4  10  25  40  64 100 132 166 210 270 345 384
#     4  11  23  43  68  98 128 168 216 275 331 401
#
# _framework density 21.688656999999999
#
# number of rings (size 3 to 8) (size 9 to 14) (size 15 to 20)
#    0.000    1.667    1.667    1.500    5.833    2.667 
#    6.000    0.833    0.000    0.000    0.000    0.000 
#    0.000    0.000    0.000    0.000    0.000    0.000 
#
# Total GULP energy -297503.821155 kJ/mol
# GULP energy per Si atom -12395.992548 kJ/mol
# Density = 2.163929 g / cm^3
# Si number density = 21.688657 Si / 1000 Ang^3
#
#
#
# Elastic Constant Matrix: (Units=GPa)
#
#
# Indices 1 2 3 4 5 6 
#
# 1 102.7215 29.1078 44.5275 0.0000 0.0000 0.0000
# 2 29.1078 53.1169 34.0681 0.0000 0.0000 0.0000
# 3 44.5275 34.0681 112.3944 0.0000 0.0000 0.0000
# 4 0.0000 0.0000 0.0000 14.4672 0.0000 0.0000
# 5 0.0000 0.0000 0.0000 0.0000 38.3978 0.0000
# 6 0.0000 0.0000 0.0000 0.0000 0.0000 -116.8062
#
#
#
# Elastic Compliance Matrix: (Units=1/GPa)
#
#
# Indices 1 2 3 4 5 6 
#
# 1 0.012597 -0.004596 -0.003597 0.000000 0.000000 0.000000
# 2 -0.004596 0.025046 -0.005771 0.000000 0.000000 0.000000
# 3 -0.003597 -0.005771 0.012072 0.000000 0.000000 0.000000
# 4 0.000000 0.000000 0.000000 0.069122 0.000000 0.000000
# 5 0.000000 0.000000 0.000000 0.000000 0.026043 0.000000
# 6 0.000000 0.000000 0.000000 0.000000 0.000000 -0.008561
#
#
# Mechanical properties :
#
#
# Convention : Reuss Voigt Hill
#
# Bulk Modulus (GPa) = 45.90047 53.73772 49.81910
# Shear Modulus (GPa) = 29.15291 -2.08629 13.53331
#
# Velocity S-wave (km/s) = 3.67025 -0.98184 2.50067
# Velocity P-wave (km/s) = 6.25862 4.85235 5.59980
#
# Compressibility (1/GPa) = 0.02178627
#
# Stress axis : x y z
#
# Youngs Moduli (GPa) = 79.38566 39.92606 82.83783
#
# Poissons Ratio (x) = 0.18348 0.29801
# Poissons Ratio (y) = 0.36482 0.47807
# Poissons Ratio (z) = 0.28559 0.23042
#
# Static dielectric constant tensor:
#      x y z
#    x 4.284860 0.000000 0.000000 
#    y 0.000000 3.628560 0.000000 
#    z 0.000000 0.000000 6.881090 
# 
# 
# High freq. dielectric constant tensor:
#      x y z
#    x 1.871260 0.000000 0.000000 
#    y 0.000000 1.821150 0.000000 
#    z 0.000000 0.000000 1.864540 
# 
# From -- ./inp_files/6577.got.cif
#   From: 2010.03.12/outbox.cif.g09.slc.cpg/sg20_4_cif.got.tgz:6577.got - 2010.04.14 01:38:04.
