data_PCOD8159030
_publ_section_title
;
Structure prediction by ZEFSAII (Michael W. Deem and Ramdas Pophale) SiO2 
 PCOD8159030
Probable space group: C 2 2 21
;
_chemical_formula_sum "Si O2"
_cell_formula_units_Z 48
_cell_length_a 15.955272
_cell_length_b 16.295267
_cell_length_c 8.070604
_cell_angle_alpha 90.000000
_cell_angle_beta 90.000000
_cell_angle_gamma 90.000000
_cell_volume 2098.320055
_symmetry_space_group_name_H-M "C 2 2 21"
_symmetry_group_IT_number 20
_symmetry_cell_setting 'orthorhombic'
loop_
_space_group_symop_operation_xyz
x,y,z
-x,-y,1/2+z
x,-y,-z
-x,y,1/2-z
1/2+x,1/2+y,z
1/2-x,1/2-y,1/2+z
1/2+x,1/2-y,-z
1/2-x,1/2+y,1/2-z
loop_
_atom_site_type_symbol
_atom_site_label
_atom_site_fract_x
_atom_site_fract_y
_atom_site_fract_z
Si Si1 0.500000 0.577486 0.250000
Si Si2 0.145861 0.903968 0.967920
Si Si3 0.790195 0.143768 0.814187
Si Si4 0.193700 0.668443 0.312279
Si Si5 0.462507 0.084737 0.068483
Si Si6 0.621248 0.500000 0.500000
Si Si7 0.362769 0.096708 0.528581
O O1 0.441590 0.628419 0.381208
O O2 0.565129 0.518655 0.341615
O O3 0.224238 0.885313 0.850473
O O4 0.160085 0.860251 0.142720
O O5 0.137880 0.000000 0.000000
O O6 0.793744 0.238015 0.866364
O O7 0.825679 0.081312 0.953851
O O8 0.690426 0.120793 0.806598
O O9 0.115199 0.645606 0.428218
O O10 0.174768 0.651577 0.120647
O O11 0.500000 0.068831 0.250000
O O12 0.538555 0.118362 0.951970
O O13 0.426122 0.000000 0.000000
O O14 0.353774 0.000000 0.500000
#
# Coordination Sequence:
#
# PCOD8159030 Si02
#       7
#     4   8   8   8   8   4   8
#     4  12  24  46  70 106 134 184 258 292 362 440
#     4  12  24  44  71 106 140 189 245 295 359 445
#     4  12  24  43  71 100 144 190 235 295 368 435
#     4  11  24  43  68 106 141 184 239 301 364 431
#     4   9  20  40  67  97 134 178 234 286 354 430
#     4  12  22  46  70  98 138 196 234 298 364 436
#     4  10  20  42  68  94 136 188 233 287 363 434
#
# _framework density 22.875442
#
# number of rings (size 3 to 8) (size 9 to 14) (size 15 to 20)
#    0.000    1.000    3.333    3.500    0.000    2.667 
#   16.500    0.000    1.833    0.000    0.000    0.000 
#    0.000    0.000    0.000    0.000    0.000    0.000 
#
# Total GULP energy -297425.980476 kJ/mol
# GULP energy per Si atom -12392.749187 kJ/mol
# Density = 2.282338 g / cm^3
# Si number density = 22.875442 Si / 1000 Ang^3
#
#
#
# Elastic Constant Matrix: (Units=GPa)
#
#
# Indices 1 2 3 4 5 6 
#
# 1 169.8234 48.8978 44.8032 0.0000 0.0000 0.0000
# 2 48.8978 84.0437 17.1502 0.0000 0.0000 0.0000
# 3 44.8032 17.1502 71.6405 0.0000 0.0000 0.0000
# 4 0.0000 0.0000 0.0000 31.9107 0.0000 0.0000
# 5 0.0000 0.0000 0.0000 0.0000 40.6431 0.0000
# 6 0.0000 0.0000 0.0000 0.0000 0.0000 15.0569
#
#
#
# Elastic Compliance Matrix: (Units=1/GPa)
#
#
# Indices 1 2 3 4 5 6 
#
# 1 0.008092 -0.003864 -0.004136 0.000000 0.000000 0.000000
# 2 -0.003864 0.014355 -0.001020 0.000000 0.000000 0.000000
# 3 -0.004136 -0.001020 0.016789 0.000000 0.000000 0.000000
# 4 0.000000 0.000000 0.000000 0.031337 0.000000 0.000000
# 5 0.000000 0.000000 0.000000 0.000000 0.024604 0.000000
# 6 0.000000 0.000000 0.000000 0.000000 0.000000 0.066415
#
#
# Mechanical properties :
#
#
# Convention : Reuss Voigt Hill
#
# Bulk Modulus (GPa) = 47.17697 60.80111 53.98904
# Shear Modulus (GPa) = 26.78124 31.83258 29.30691
#
# Velocity S-wave (km/s) = 3.42532 3.73441 3.58320
# Velocity P-wave (km/s) = 6.02594 6.72542 6.38527
#
# Compressibility (1/GPa) = 0.02119678
#
# Stress axis : x y z
#
# Youngs Moduli (GPa) = 123.57582 69.66251 59.56225
#
# Poissons Ratio (x) = 0.26919 0.24633
# Poissons Ratio (y) = 0.47752 0.06074
# Poissons Ratio (z) = 0.51107 0.07104
#
# Static dielectric constant tensor:
#      x y z
#    x 4.766430 0.000000 0.000000 
#    y 0.000000 3.883390 0.000000 
#    z 0.000000 0.000000 4.411380 
# 
# 
# High freq. dielectric constant tensor:
#      x y z
#    x 1.924680 0.000000 0.000000 
#    y 0.000000 1.879830 0.000000 
#    z 0.000000 0.000000 1.901550 
# 
# From -- ./inp_files/9367.got.cif
#   From: 2010.03.12/outbox.cif.g09.slc.cpg/sg20_5_cif.got.tgz:9367.got - 2010.04.14 01:38:04.
