data_PCOD8159603
_publ_section_title
;
Structure prediction by ZEFSAII (Michael W. Deem and Ramdas Pophale) SiO2 
 PCOD8159603
Probable space group: C 2 2 21
;
_chemical_formula_sum "Si O2"
_cell_formula_units_Z 36
_cell_length_a 6.121064
_cell_length_b 22.109342
_cell_length_c 12.974470
_cell_angle_alpha 90.000000
_cell_angle_beta 90.000000
_cell_angle_gamma 90.000000
_cell_volume 1755.870022
_symmetry_space_group_name_H-M "C 2 2 21"
_symmetry_group_IT_number 20
_symmetry_cell_setting 'orthorhombic'
loop_
_space_group_symop_operation_xyz
x,y,z
-x,-y,1/2+z
x,-y,-z
-x,y,1/2-z
1/2+x,1/2+y,z
1/2-x,1/2-y,1/2+z
1/2+x,1/2-y,-z
1/2-x,1/2+y,1/2-z
loop_
_atom_site_type_symbol
_atom_site_label
_atom_site_fract_x
_atom_site_fract_y
_atom_site_fract_z
Si Si1 0.781355 0.687183 0.047095
Si Si2 0.151317 0.500000 0.500000
Si Si3 0.158078 0.604636 0.986478
Si Si4 0.554328 0.691131 0.630554
Si Si5 0.464022 0.577976 0.367565
O O1 0.795490 0.751570 0.102693
O O2 0.634827 0.645031 0.120405
O O3 0.668735 0.692969 0.935071
O O4 0.022933 0.660260 0.034536
O O5 0.299674 0.527724 0.410693
O O6 0.005598 0.447479 0.446598
O O7 0.310659 0.629891 0.894774
O O8 0.304220 0.574547 0.075479
O O9 0.500000 0.691224 0.750000
O O10 0.500000 0.561827 0.250000
#
# Coordination Sequence:
#
# PCOD8159603 Si02
#       5
#     8   4   8   8   8
#     4  10  22  39  61  95 135 165 213 267 315 389
#     4  10  22  44  68  90 130 172 212 272 320 370
#     4  10  22  44  62  92 135 163 212 270 308 393
#     4  11  23  39  65  98 134 175 210 263 332 383
#     4  10  23  41  67  98 121 170 222 267 321 379
#
# _framework density 20.502655000000001
#
# number of rings (size 3 to 8) (size 9 to 14) (size 15 to 20)
#    0.000    1.778    2.222    0.667    3.111    3.556 
#    0.000   26.667    0.000    0.000    0.000    0.000 
#    0.000    0.000    0.000    0.000    0.000    0.000 
#
# Total GULP energy -223258.237923 kJ/mol
# GULP energy per Si atom -12403.235440 kJ/mol
# Density = 2.045599 g / cm^3
# Si number density = 20.502655 Si / 1000 Ang^3
#
#
#
# Elastic Constant Matrix: (Units=GPa)
#
#
# Indices 1 2 3 4 5 6 
#
# 1 125.5076 56.0779 71.8241 0.0000 0.0000 0.0000
# 2 56.0779 120.9093 72.1693 0.0000 0.0000 0.0000
# 3 71.8241 72.1693 174.0449 0.0000 0.0000 0.0000
# 4 0.0000 0.0000 0.0000 20.3850 0.0000 0.0000
# 5 0.0000 0.0000 0.0000 0.0000 17.7737 0.0000
# 6 0.0000 0.0000 0.0000 0.0000 0.0000 41.8251
#
#
#
# Elastic Compliance Matrix: (Units=1/GPa)
#
#
# Indices 1 2 3 4 5 6 
#
# 1 0.011329 -0.003274 -0.003318 0.000000 0.000000 0.000000
# 2 -0.003274 0.011937 -0.003599 0.000000 0.000000 0.000000
# 3 -0.003318 -0.003599 0.008607 0.000000 0.000000 0.000000
# 4 0.000000 0.000000 0.000000 0.049056 0.000000 0.000000
# 5 0.000000 0.000000 0.000000 0.000000 0.056263 0.000000
# 6 0.000000 0.000000 0.000000 0.000000 0.000000 0.023909
#
#
# Mechanical properties :
#
#
# Convention : Reuss Voigt Hill
#
# Bulk Modulus (GPa) = 87.01439 91.17827 89.09633
# Shear Modulus (GPa) = 26.98138 30.68945 28.83541
#
# Velocity S-wave (km/s) = 3.63160 3.87312 3.75430
# Velocity P-wave (km/s) = 7.75354 8.03551 7.89578
#
# Compressibility (1/GPa) = 0.01149235
#
# Stress axis : x y z
#
# Youngs Moduli (GPa) = 88.26787 83.77108 116.18511
#
# Poissons Ratio (x) = 0.27429 0.38545
# Poissons Ratio (y) = 0.28901 0.41812
# Poissons Ratio (z) = 0.29283 0.30147
#
# Static dielectric constant tensor:
#      x y z
#    x 3.955240 0.000000 0.000000 
#    y 0.000000 3.923470 0.000000 
#    z 0.000000 0.000000 3.295120 
# 
# 
# High freq. dielectric constant tensor:
#      x y z
#    x 1.821220 0.000000 0.000000 
#    y 0.000000 1.816750 0.000000 
#    z 0.000000 0.000000 1.769280 
# 
# From -- ./inp_files/12036.got.cif
#   From: 2010.03.12/outbox.cif.g09.slc.cpg/sg20_7_cif.got.tgz:12036.got - 2010.04.14 01:38:04.
