data_PCOD8159915
_publ_section_title
;
Structure prediction by ZEFSAII (Michael W. Deem and Ramdas Pophale) SiO2 
 PCOD8159915
Probable space group: C 2 2 21
;
_chemical_formula_sum "Si O2"
_cell_formula_units_Z 64
_cell_length_a 12.907824
_cell_length_b 17.003337
_cell_length_c 13.921091
_cell_angle_alpha 90.000000
_cell_angle_beta 90.000000
_cell_angle_gamma 90.000000
_cell_volume 3055.346502
_symmetry_space_group_name_H-M "C 2 2 21"
_symmetry_group_IT_number 20
_symmetry_cell_setting 'orthorhombic'
loop_
_space_group_symop_operation_xyz
x,y,z
-x,-y,1/2+z
x,-y,-z
-x,y,1/2-z
1/2+x,1/2+y,z
1/2-x,1/2-y,1/2+z
1/2+x,1/2-y,-z
1/2-x,1/2+y,1/2-z
loop_
_atom_site_type_symbol
_atom_site_label
_atom_site_fract_x
_atom_site_fract_y
_atom_site_fract_z
Si Si1 0.882131 0.065796 0.766794
Si Si2 0.747851 0.679731 0.610920
Si Si3 0.708580 0.851597 0.596531
Si Si4 0.291776 0.090652 0.893481
Si Si5 0.960738 0.457880 0.855536
Si Si6 0.889142 0.274547 0.213349
Si Si7 0.677140 0.607327 0.284723
Si Si8 0.329072 0.924946 0.548635
O O1 0.838061 0.116035 0.856445
O O2 0.808591 0.077835 0.673849
O O3 0.000000 0.094445 0.750000
O O4 0.886706 0.973385 0.793947
O O5 0.698018 0.759593 0.570368
O O6 0.811168 0.707378 0.701780
O O7 0.823036 0.645434 0.528405
O O8 0.743626 0.902321 0.503734
O O9 0.595575 0.873803 0.638061
O O10 0.793646 0.875203 0.675209
O O11 0.353186 0.171684 0.874391
O O12 0.374178 0.021220 0.883384
O O13 0.000000 0.478368 0.750000
O O14 0.054544 0.453588 0.930280
O O15 0.889769 0.182741 0.180364
O O16 0.000000 0.301502 0.250000
O O17 0.778524 0.600697 0.351220
O O18 0.271863 0.000000 0.500000
#
# Coordination Sequence:
#
# PCOD8159915 Si02
#       8
#     8   8   8   8   8   8   8   8
#     4  11  23  45  71  94 133 180 228 279 339 405
#     4  10  25  44  63  99 135 171 224 284 331 411
#     4  11  23  44  64  94 139 172 220 279 336 400
#     4  11  23  43  67  98 138 171 227 286 332 408
#     4  12  24  40  72 104 135 179 220 284 353 404
#     4  10  23  40  66  95 131 176 217 274 341 400
#     4  11  22  43  65  93 135 172 223 278 329 404
#     4  12  23  41  68  99 134 172 220 280 340 401
#
# _framework density 20.946885999999999
#
# number of rings (size 3 to 8) (size 9 to 14) (size 15 to 20)
#    0.000    1.000    3.750    2.625    5.250    0.500 
#    4.500    3.750    0.000    0.000    0.000    0.000 
#    0.000    0.000    0.000    0.000    0.000    0.000 
#
# Total GULP energy -396698.230327 kJ/mol
# GULP energy per Si atom -12396.819698 kJ/mol
# Density = 2.089921 g / cm^3
# Si number density = 20.946886 Si / 1000 Ang^3
#
#
#
# Elastic Constant Matrix: (Units=GPa)
#
#
# Indices 1 2 3 4 5 6 
#
# 1 103.9350 34.8786 24.9772 0.0000 0.0000 0.0000
# 2 34.8786 141.3557 38.9260 0.0000 0.0000 0.0000
# 3 24.9772 38.9260 81.1465 0.0000 0.0000 0.0000
# 4 0.0000 0.0000 0.0000 39.1118 0.0000 0.0000
# 5 0.0000 0.0000 0.0000 0.0000 25.9672 0.0000
# 6 0.0000 0.0000 0.0000 0.0000 0.0000 23.6816
#
#
#
# Elastic Compliance Matrix: (Units=1/GPa)
#
#
# Indices 1 2 3 4 5 6 
#
# 1 0.010873 -0.002029 -0.002373 0.000000 0.000000 0.000000
# 2 -0.002029 0.008530 -0.003467 0.000000 0.000000 0.000000
# 3 -0.002373 -0.003467 0.014717 0.000000 0.000000 0.000000
# 4 0.000000 0.000000 0.000000 0.025568 0.000000 0.000000
# 5 0.000000 0.000000 0.000000 0.000000 0.038510 0.000000
# 6 0.000000 0.000000 0.000000 0.000000 0.000000 0.042227
#
#
# Mechanical properties :
#
#
# Convention : Reuss Voigt Hill
#
# Bulk Modulus (GPa) = 54.40592 58.22232 56.31412
# Shear Modulus (GPa) = 30.80897 32.92913 31.86905
#
# Velocity S-wave (km/s) = 3.83928 3.96918 3.90477
# Velocity P-wave (km/s) = 6.75893 6.99010 6.87548
#
# Compressibility (1/GPa) = 0.01838035
#
# Stress axis : x y z
#
# Youngs Moduli (GPa) = 91.97354 117.23562 67.94827
#
# Poissons Ratio (x) = 0.23790 0.16126
# Poissons Ratio (y) = 0.18664 0.23559
# Poissons Ratio (z) = 0.21827 0.40647
#
# Static dielectric constant tensor:
#      x y z
#    x 3.445990 0.000000 0.000000 
#    y 0.000000 4.356390 0.000000 
#    z 0.000000 0.000000 3.795550 
# 
# 
# High freq. dielectric constant tensor:
#      x y z
#    x 1.797270 0.000000 0.000000 
#    y 0.000000 1.839260 0.000000 
#    z 0.000000 0.000000 1.827860 
# 
# From -- ./inp_files/20287.got.cif
#   From: 2010.03.12/outbox.cif.g09.slc.cpg/sg20_11_cif.got.tgz:20287.got - 2010.04.14 01:38:04.
