data_PCOD8159220
_publ_section_title
;
Structure prediction by ZEFSAII (Michael W. Deem and Ramdas Pophale) SiO2 
 PCOD8159220
Probable space group: C 2 2 21
;
_chemical_formula_sum "Si O2"
_cell_formula_units_Z 56
_cell_length_a 4.968622
_cell_length_b 31.093701
_cell_length_c 17.129513
_cell_angle_alpha 90.000000
_cell_angle_beta 90.000000
_cell_angle_gamma 90.000000
_cell_volume 2646.387229
_symmetry_space_group_name_H-M "C 2 2 21"
_symmetry_group_IT_number 20
_symmetry_cell_setting 'orthorhombic'
loop_
_space_group_symop_operation_xyz
x,y,z
-x,-y,1/2+z
x,-y,-z
-x,y,1/2-z
1/2+x,1/2+y,z
1/2-x,1/2-y,1/2+z
1/2+x,1/2-y,-z
1/2-x,1/2+y,1/2-z
loop_
_atom_site_type_symbol
_atom_site_label
_atom_site_fract_x
_atom_site_fract_y
_atom_site_fract_z
Si Si1 0.976780 0.017836 0.339334
Si Si2 0.017058 0.538438 0.839263
Si Si3 0.582604 0.397383 0.565953
Si Si4 0.432459 0.888967 0.039105
Si Si5 0.984575 0.706187 0.567187
Si Si6 0.020291 0.257150 0.896624
Si Si7 0.738686 0.166997 0.200110
O O1 0.678851 0.001278 0.355314
O O2 0.000000 0.033101 0.250000
O O3 0.185834 0.979391 0.359492
O O4 0.001148 0.058871 0.393214
O O5 0.000000 0.554086 0.750000
O O6 0.912330 0.577904 0.890285
O O7 0.349261 0.381680 0.506504
O O8 0.649460 0.360645 0.628501
O O9 0.852599 0.408201 0.520291
O O10 0.545698 0.844836 0.076151
O O11 0.961789 0.715940 0.475873
O O12 0.270354 0.718306 0.602564
O O13 0.766254 0.734057 0.615165
O O14 0.087114 0.289807 0.827448
O O15 0.500000 0.142735 0.250000
O O16 0.000000 0.179218 0.250000
#
# Coordination Sequence:
#
# PCOD8159220 Si02
#       7
#     8   8   8   8   8   8   8
#     4  10  22  42  62  89 128 174 213 253 322 395
#     4  10  23  43  65  88 124 170 214 267 333 384
#     4  12  25  39  64  98 132 167 220 260 322 389
#     4  12  24  40  65  99 128 162 219 274 319 381
#     4  10  21  38  64  88 121 159 212 265 308 378
#     4  10  21  39  62  87 120 168 211 250 314 382
#     4  12  25  41  63  94 138 173 213 267 325 382
#
# _framework density 21.160923
#
# number of rings (size 3 to 8) (size 9 to 14) (size 15 to 20)
#    0.000    1.143    1.429    4.714    4.000    5.143 
#    0.000    2.143    0.000    0.000    0.000    0.000 
#    0.000    0.000    0.000    0.000    0.000    0.000 
#
# Total GULP energy -347236.992731 kJ/mol
# GULP energy per Si atom -12401.321169 kJ/mol
# Density = 2.111276 g / cm^3
# Si number density = 21.160923 Si / 1000 Ang^3
#
#
#
# Elastic Constant Matrix: (Units=GPa)
#
#
# Indices 1 2 3 4 5 6 
#
# 1 94.3579 2.9385 31.7126 0.0000 0.0000 0.0000
# 2 2.9385 100.3909 50.5454 0.0000 0.0000 0.0000
# 3 31.7126 50.5454 82.8985 0.0000 0.0000 0.0000
# 4 0.0000 0.0000 0.0000 3.1793 0.0000 0.0000
# 5 0.0000 0.0000 0.0000 0.0000 33.7398 0.0000
# 6 0.0000 0.0000 0.0000 0.0000 0.0000 16.3115
#
#
#
# Elastic Compliance Matrix: (Units=1/GPa)
#
#
# Indices 1 2 3 4 5 6 
#
# 1 0.012761 0.003008 -0.006716 0.000000 0.000000 0.000000
# 2 0.003008 0.015082 -0.010347 0.000000 0.000000 0.000000
# 3 -0.006716 -0.010347 0.020941 0.000000 0.000000 0.000000
# 4 0.000000 0.000000 0.000000 0.314539 0.000000 0.000000
# 5 0.000000 0.000000 0.000000 0.000000 0.029639 0.000000
# 6 0.000000 0.000000 0.000000 0.000000 0.000000 0.061307
#
#
# Mechanical properties :
#
#
# Convention : Reuss Voigt Hill
#
# Bulk Modulus (GPa) = 48.36753 49.78225 49.07489
# Shear Modulus (GPa) = 10.21932 23.47617 16.84775
#
# Velocity S-wave (km/s) = 2.19996 3.33440 2.82471
# Velocity P-wave (km/s) = 5.41846 6.19685 5.82068
#
# Compressibility (1/GPa) = 0.02067503
#
# Stress axis : x y z
#
# Youngs Moduli (GPa) = 78.36162 66.30215 47.75384
#
# Poissons Ratio (x) = -0.19942 0.32070
# Poissons Ratio (y) = -0.23569 0.49410
# Poissons Ratio (z) = 0.52625 0.68601
#
# Static dielectric constant tensor:
#      x y z
#    x 4.181650 0.000000 0.000000 
#    y 0.000000 3.625890 0.000000 
#    z 0.000000 0.000000 3.618180 
# 
# 
# High freq. dielectric constant tensor:
#      x y z
#    x 1.851750 0.000000 0.000000 
#    y 0.000000 1.825310 0.000000 
#    z 0.000000 0.000000 1.819910 
# 
# From -- ./inp_files/17971.got.cif
#   From: 2010.03.12/outbox.cif.g09.slc.cpg/sg20_9_cif.got.tgz:17971.got - 2010.04.14 01:38:04.
