data_PCOD8159248
_publ_section_title
;
Structure prediction by ZEFSAII (Michael W. Deem and Ramdas Pophale) SiO2 
 PCOD8159248
Probable space group: C 2 2 21
;
_chemical_formula_sum "Si O2"
_cell_formula_units_Z 64
_cell_length_a 27.244179
_cell_length_b 13.011234
_cell_length_c 8.682648
_cell_angle_alpha 90.000000
_cell_angle_beta 90.000000
_cell_angle_gamma 90.000000
_cell_volume 3077.828433
_symmetry_space_group_name_H-M "C 2 2 21"
_symmetry_group_IT_number 20
_symmetry_cell_setting 'orthorhombic'
loop_
_space_group_symop_operation_xyz
x,y,z
-x,-y,1/2+z
x,-y,-z
-x,y,1/2-z
1/2+x,1/2+y,z
1/2-x,1/2-y,1/2+z
1/2+x,1/2-y,-z
1/2-x,1/2+y,1/2-z
loop_
_atom_site_type_symbol
_atom_site_label
_atom_site_fract_x
_atom_site_fract_y
_atom_site_fract_z
Si Si1 0.267633 0.365925 0.173856
Si Si2 0.947369 0.711837 0.319816
Si Si3 0.792723 0.528144 0.176006
Si Si4 0.446950 0.788214 0.318185
Si Si5 0.129035 0.882836 0.179996
Si Si6 0.769409 0.179293 0.179555
Si Si7 0.870009 0.116801 0.323106
Si Si8 0.397398 0.999615 0.682129
O O1 0.248512 0.479468 0.210712
O O2 0.324533 0.356889 0.215450
O O3 0.231128 0.300274 0.284141
O O4 0.258153 0.339547 0.997707
O O5 0.952278 0.713315 0.500893
O O6 0.912945 0.804835 0.263043
O O7 0.927106 0.601215 0.265320
O O8 0.000000 0.731863 0.250000
O O9 0.777440 0.645486 0.211794
O O10 0.847062 0.499201 0.225082
O O11 0.783454 0.500000 0.000000
O O12 0.500000 0.766826 0.250000
O O13 0.410827 0.697084 0.262800
O O14 0.427024 0.899434 0.264348
O O15 0.110740 0.000317 0.202416
O O16 0.142603 0.862471 0.001775
O O17 0.821157 0.130284 0.224623
O O18 0.386562 0.000000 0.500000
#
# Coordination Sequence:
#
# PCOD8159248 Si02
#       8
#     8   8   8   8   8   8   8   8
#     4  12  24  39  61  90 124 164 208 254 307 369
#     4  10  22  39  61  88 118 159 206 261 320 373
#     4  12  24  39  61  92 126 163 204 250 309 374
#     4  10  22  39  61  88 118 159 206 261 320 373
#     4  10  21  39  61  86 122 163 207 257 312 371
#     4  12  24  39  61  90 124 164 208 254 307 369
#     4  10  21  39  61  86 122 163 207 257 312 371
#     4  10  21  39  61  88 124 161 207 260 315 376
#
# _framework density 20.793880999999999
#
# number of rings (size 3 to 8) (size 9 to 14) (size 15 to 20)
#    0.000    1.250    1.250    5.250    0.000    4.500 
#    0.000    0.000    0.000    0.000    0.000    0.000 
#    0.000    0.000    0.000    0.000    0.000    0.000 
#
# Total GULP energy -396867.084992 kJ/mol
# GULP energy per Si atom -12402.096406 kJ/mol
# Density = 2.074655 g / cm^3
# Si number density = 20.793881 Si / 1000 Ang^3
#
#
#
# Elastic Constant Matrix: (Units=GPa)
#
#
# Indices 1 2 3 4 5 6 
#
# 1 133.1791 50.6345 32.3797 0.0000 0.0000 0.0000
# 2 50.6345 121.5872 23.2072 0.0000 0.0000 0.0000
# 3 32.3797 23.2072 75.5098 0.0000 0.0000 0.0000
# 4 0.0000 0.0000 0.0000 23.1813 0.0000 0.0000
# 5 0.0000 0.0000 0.0000 0.0000 36.4604 0.0000
# 6 0.0000 0.0000 0.0000 0.0000 0.0000 39.6589
#
#
#
# Elastic Compliance Matrix: (Units=1/GPa)
#
#
# Indices 1 2 3 4 5 6 
#
# 1 0.009539 -0.003391 -0.003048 0.000000 0.000000 0.000000
# 2 -0.003391 0.009942 -0.001602 0.000000 0.000000 0.000000
# 3 -0.003048 -0.001602 0.015043 0.000000 0.000000 0.000000
# 4 0.000000 0.000000 0.000000 0.043138 0.000000 0.000000
# 5 0.000000 0.000000 0.000000 0.000000 0.027427 0.000000
# 6 0.000000 0.000000 0.000000 0.000000 0.000000 0.025215
#
#
# Mechanical properties :
#
#
# Convention : Reuss Voigt Hill
#
# Bulk Modulus (GPa) = 54.22231 60.30211 57.26221
# Shear Modulus (GPa) = 32.77976 34.79710 33.78843
#
# Velocity S-wave (km/s) = 3.97471 4.09520 4.03540
# Velocity P-wave (km/s) = 6.87002 7.17103 7.02214
#
# Compressibility (1/GPa) = 0.01844259
#
# Stress axis : x y z
#
# Youngs Moduli (GPa) = 104.83352 100.58061 66.47715
#
# Poissons Ratio (x) = 0.34103 0.20265
# Poissons Ratio (y) = 0.35545 0.10648
# Poissons Ratio (z) = 0.31957 0.16110
#
# Static dielectric constant tensor:
#      x y z
#    x 3.985800 0.000000 0.000000 
#    y 0.000000 4.282180 0.000000 
#    z 0.000000 0.000000 3.558800 
# 
# 
# High freq. dielectric constant tensor:
#      x y z
#    x 1.809590 0.000000 0.000000 
#    y 0.000000 1.839640 0.000000 
#    z 0.000000 0.000000 1.803930 
# 
# From -- ./inp_files/11617.got.cif
#   From: 2010.03.12/outbox.cif.g09.slc.cpg/sg20_6_cif.got.tgz:11617.got - 2010.04.14 01:38:04.
