data_PCOD8159065
_publ_section_title
;
Structure prediction by ZEFSAII (Michael W. Deem and Ramdas Pophale) SiO2 
 PCOD8159065
Probable space group: C 2 2 21
;
_chemical_formula_sum "Si O2"
_cell_formula_units_Z 52
_cell_length_a 7.842789
_cell_length_b 11.056956
_cell_length_c 28.461560
_cell_angle_alpha 90.000000
_cell_angle_beta 90.000000
_cell_angle_gamma 90.000000
_cell_volume 2468.111712
_symmetry_space_group_name_H-M "C 2 2 21"
_symmetry_group_IT_number 20
_symmetry_cell_setting 'orthorhombic'
loop_
_space_group_symop_operation_xyz
x,y,z
-x,-y,1/2+z
x,-y,-z
-x,y,1/2-z
1/2+x,1/2+y,z
1/2-x,1/2-y,1/2+z
1/2+x,1/2-y,-z
1/2-x,1/2+y,1/2-z
loop_
_atom_site_type_symbol
_atom_site_label
_atom_site_fract_x
_atom_site_fract_y
_atom_site_fract_z
Si Si1 0.773297 0.750779 0.688842
Si Si2 0.558956 0.519159 0.165555
Si Si3 0.726071 0.127300 0.491762
Si Si4 0.635191 0.878868 0.025829
Si Si5 0.371525 0.901699 0.886293
Si Si6 0.292724 0.044541 0.625422
Si Si7 0.000000 0.159302 0.750000
O O1 0.640242 0.783857 0.646875
O O2 0.847365 0.622062 0.671599
O O3 0.665490 0.740418 0.737114
O O4 0.922015 0.851272 0.692914
O O5 0.724581 0.503023 0.131514
O O6 0.389241 0.520046 0.133821
O O7 0.553552 0.417000 0.204771
O O8 0.570021 0.115260 0.528694
O O9 0.824842 0.252697 0.501857
O O10 0.655328 0.135773 0.439475
O O11 0.832599 0.000000 0.500000
O O12 0.712339 0.874089 0.078158
O O13 0.706902 0.000000 0.000000
O O14 0.563562 0.945183 0.881005
#
# Coordination Sequence:
#
# PCOD8159065 Si02
#       7
#     8   8   8   8   8   8   4
#     4   9  22  42  65  95 129 164 218 271 328 410
#     4   9  23  42  65  96 126 170 212 270 335 400
#     4  11  23  43  62  95 136 175 228 274 324 399
#     4  11  23  39  64  96 130 178 223 279 323 385
#     4  10  21  45  64  92 131 174 219 271 330 388
#     4  11  20  44  65  91 137 167 221 274 321 395
#     4  10  20  44  66  94 134 160 216 280 332 406
#
# _framework density 21.068739000000001
#
# number of rings (size 3 to 8) (size 9 to 14) (size 15 to 20)
#    0.923    0.923    4.615    0.000    0.000    6.769 
#    8.308    0.000    0.000    0.000    0.000    0.000 
#    0.000    0.000    0.000    0.000    0.000    0.000 
#
# Total GULP energy -322107.485699 kJ/mol
# GULP energy per Si atom -12388.749450 kJ/mol
# Density = 2.102079 g / cm^3
# Si number density = 21.068739 Si / 1000 Ang^3
#
#
#
# Elastic Constant Matrix: (Units=GPa)
#
#
# Indices 1 2 3 4 5 6 
#
# 1 82.7551 19.1094 17.2691 0.0000 0.0000 0.0000
# 2 19.1094 108.8029 -2.5218 0.0000 0.0000 0.0000
# 3 17.2691 -2.5218 45.9704 0.0000 0.0000 0.0000
# 4 0.0000 0.0000 0.0000 30.4114 0.0000 0.0000
# 5 0.0000 0.0000 0.0000 0.0000 31.6129 0.0000
# 6 0.0000 0.0000 0.0000 0.0000 0.0000 30.5734
#
#
#
# Elastic Compliance Matrix: (Units=1/GPa)
#
#
# Indices 1 2 3 4 5 6 
#
# 1 0.013781 -0.002544 -0.005316 0.000000 0.000000 0.000000
# 2 -0.002544 0.009672 0.001486 0.000000 0.000000 0.000000
# 3 -0.005316 0.001486 0.023832 0.000000 0.000000 0.000000
# 4 0.000000 0.000000 0.000000 0.032882 0.000000 0.000000
# 5 0.000000 0.000000 0.000000 0.000000 0.031633 0.000000
# 6 0.000000 0.000000 0.000000 0.000000 0.000000 0.032708
#
#
# Mechanical properties :
#
#
# Convention : Reuss Voigt Hill
#
# Bulk Modulus (GPa) = 28.95454 33.91578 31.43516
# Shear Modulus (GPa) = 29.62655 32.09766 30.86210
#
# Velocity S-wave (km/s) = 3.75398 3.90740 3.83146
# Velocity P-wave (km/s) = 5.70636 6.04067 5.87589
#
# Compressibility (1/GPa) = 0.03453690
#
# Stress axis : x y z
#
# Youngs Moduli (GPa) = 72.56589 103.39014 41.96077
#
# Poissons Ratio (x) = 0.26298 0.22308
# Poissons Ratio (y) = 0.18457 -0.06236
# Poissons Ratio (z) = 0.38578 -0.15365
#
# Static dielectric constant tensor:
#      x y z
#    x 3.608050 0.000000 0.000000 
#    y 0.000000 3.882710 0.000000 
#    z 0.000000 0.000000 3.734620 
# 
# 
# High freq. dielectric constant tensor:
#      x y z
#    x 1.802730 0.000000 0.000000 
#    y 0.000000 1.829240 0.000000 
#    z 0.000000 0.000000 1.822350 
# 
# From -- ./inp_files/31016.got.cif
#   From: 2010.03.12/outbox.cif.g09.slc.cpg/sg20_16_cif.got.tgz:31016.got - 2010.04.14 01:38:04.
