data_PCOD8159111
_publ_section_title
;
Structure prediction by ZEFSAII (Michael W. Deem and Ramdas Pophale) SiO2 
 PCOD8159111
Probable space group: C 2 2 21
;
_chemical_formula_sum "Si O2"
_cell_formula_units_Z 48
_cell_length_a 5.136894
_cell_length_b 27.550403
_cell_length_c 17.429601
_cell_angle_alpha 90.000000
_cell_angle_beta 90.000000
_cell_angle_gamma 90.000000
_cell_volume 2466.698135
_symmetry_space_group_name_H-M "C 2 2 21"
_symmetry_group_IT_number 20
_symmetry_cell_setting 'orthorhombic'
loop_
_space_group_symop_operation_xyz
x,y,z
-x,-y,1/2+z
x,-y,-z
-x,y,1/2-z
1/2+x,1/2+y,z
1/2-x,1/2-y,1/2+z
1/2+x,1/2-y,-z
1/2-x,1/2+y,1/2-z
loop_
_atom_site_type_symbol
_atom_site_label
_atom_site_fract_x
_atom_site_fract_y
_atom_site_fract_z
Si Si1 0.921538 0.713299 0.414144
Si Si2 0.449192 0.022523 0.581422
Si Si3 0.000000 0.249921 0.750000
Si Si4 0.709707 0.884185 0.379687
Si Si5 0.500000 0.185455 0.750000
Si Si6 0.917931 0.813875 0.501513
Si Si7 0.936192 0.022419 0.666695
O O1 0.916176 0.716453 0.321730
O O2 0.911760 0.767150 0.447527
O O3 0.680367 0.682519 0.448264
O O4 0.182652 0.686158 0.438423
O O5 0.491093 0.081097 0.580663
O O6 0.666911 0.998564 0.637623
O O7 0.164876 0.007687 0.609202
O O8 0.499980 0.000000 0.500000
O O9 0.249275 0.217350 0.726633
O O10 0.565628 0.846024 0.324931
O O11 0.884516 0.859370 0.445166
O O12 0.903085 0.918691 0.330348
O O13 0.000000 0.001908 0.750000
#
# Coordination Sequence:
#
# PCOD8159111 Si02
#       7
#     8   8   4   8   4   8   8
#     4  10  22  36  53  77 116 154 199 229 288 339
#     4  10  22  37  58  88 121 155 191 228 291 362
#     4  12  24  38  56  86 119 160 193 250 292 356
#     4  10  24  34  61  87 125 148 196 234 304 343
#     4  12  24  32  60  92 123 146 185 238 310 362
#     4  10  21  36  53  82 113 154 193 238 278 350
#     4  10  21  36  58  89 121 149 183 235 297 354
#
# _framework density 19.459211
#
# number of rings (size 3 to 8) (size 9 to 14) (size 15 to 20)
#    1.000    0.667    1.667    3.000   10.500    0.000 
#    0.000    0.000    0.000    0.000    8.667    0.000 
#    0.000    0.000    0.000    0.000    0.000    0.000 
#
# Total GULP energy -297476.003979 kJ/mol
# GULP energy per Si atom -12394.833499 kJ/mol
# Density = 1.941492 g / cm^3
# Si number density = 19.459211 Si / 1000 Ang^3
#
#
#
# Elastic Constant Matrix: (Units=GPa)
#
#
# Indices 1 2 3 4 5 6 
#
# 1 111.6348 1.9805 23.3257 0.0000 0.0000 0.0000
# 2 1.9805 17.9829 17.6173 0.0000 0.0000 0.0000
# 3 23.3257 17.6173 122.0017 0.0000 0.0000 0.0000
# 4 0.0000 0.0000 0.0000 30.7380 0.0000 0.0000
# 5 0.0000 0.0000 0.0000 0.0000 39.6877 0.0000
# 6 0.0000 0.0000 0.0000 0.0000 0.0000 12.1926
#
#
#
# Elastic Compliance Matrix: (Units=1/GPa)
#
#
# Indices 1 2 3 4 5 6 
#
# 1 0.009341 0.000840 -0.001907 0.000000 0.000000 0.000000
# 2 0.000840 0.064847 -0.009525 0.000000 0.000000 0.000000
# 3 -0.001907 -0.009525 0.009937 0.000000 0.000000 0.000000
# 4 0.000000 0.000000 0.000000 0.032533 0.000000 0.000000
# 5 0.000000 0.000000 0.000000 0.000000 0.025197 0.000000
# 6 0.000000 0.000000 0.000000 0.000000 0.000000 0.082017
#
#
# Mechanical properties :
#
#
# Convention : Reuss Voigt Hill
#
# Bulk Modulus (GPa) = 15.88801 37.49625 26.69213
# Shear Modulus (GPa) = 18.79445 30.43671 24.61558
#
# Velocity S-wave (km/s) = 3.11116 3.95920 3.56052
# Velocity P-wave (km/s) = 4.59220 6.34124 5.53623
#
# Compressibility (1/GPa) = 0.06294055
#
# Stress axis : x y z
#
# Youngs Moduli (GPa) = 107.05034 15.42098 100.63787
#
# Poissons Ratio (x) = -0.01295 0.19194
# Poissons Ratio (y) = -0.08989 0.95853
# Poissons Ratio (z) = 0.20417 0.14688
#
# Static dielectric constant tensor:
#      x y z
#    x 3.744570 0.000000 0.000000 
#    y 0.000000 3.112330 0.000000 
#    z 0.000000 0.000000 3.458820 
# 
# 
# High freq. dielectric constant tensor:
#      x y z
#    x 1.777190 0.000000 0.000000 
#    y 0.000000 1.702430 0.000000 
#    z 0.000000 0.000000 1.760040 
# 
# From -- ./inp_files/22947.got.cif
#   From: 2010.03.12/outbox.cif.g09.slc.cpg/sg20_12_cif.got.tgz:22947.got - 2010.04.14 01:38:04.
