data_PCOD8159837
_publ_section_title
;
Structure prediction by ZEFSAII (Michael W. Deem and Ramdas Pophale) SiO2 
 PCOD8159837
Probable space group: C 2 2 21
;
_chemical_formula_sum "Si O2"
_cell_formula_units_Z 52
_cell_length_a 8.411673
_cell_length_b 17.671347
_cell_length_c 17.784870
_cell_angle_alpha 90.000000
_cell_angle_beta 90.000000
_cell_angle_gamma 90.000000
_cell_volume 2643.642538
_symmetry_space_group_name_H-M "C 2 2 21"
_symmetry_group_IT_number 20
_symmetry_cell_setting 'orthorhombic'
loop_
_space_group_symop_operation_xyz
x,y,z
-x,-y,1/2+z
x,-y,-z
-x,y,1/2-z
1/2+x,1/2+y,z
1/2-x,1/2-y,1/2+z
1/2+x,1/2-y,-z
1/2-x,1/2+y,1/2-z
loop_
_atom_site_type_symbol
_atom_site_label
_atom_site_fract_x
_atom_site_fract_y
_atom_site_fract_z
Si Si1 0.057920 0.645021 0.669363
Si Si2 0.050337 0.155427 0.524611
Si Si3 0.092790 0.805085 0.171162
Si Si4 0.055843 0.655936 0.333937
Si Si5 0.294034 0.500000 0.000000
Si Si6 0.321176 0.741966 0.413042
Si Si7 0.010994 0.501500 0.418018
O O1 0.221556 0.688003 0.682014
O O2 0.088307 0.566838 0.626879
O O3 0.000000 0.619828 0.750000
O O4 0.934336 0.698027 0.627001
O O5 0.197801 0.213167 0.533510
O O6 0.973800 0.138919 0.606975
O O7 0.921691 0.187723 0.466699
O O8 0.101048 0.074741 0.491322
O O9 0.000000 0.817205 0.250000
O O10 0.067072 0.720210 0.138539
O O11 0.231623 0.693085 0.347495
O O12 0.049039 0.581499 0.382388
O O13 0.000000 0.635040 0.250000
O O14 0.180609 0.491768 0.073895
O O15 0.092890 0.500000 0.500000
#
# Coordination Sequence:
#
# PCOD8159837 Si02
#       7
#     8   8   8   8   4   8   8
#     4  12  23  41  68  94 128 168 215 259 326 392
#     4  11  23  41  63  93 133 162 217 266 317 382
#     4  10  24  40  69  94 129 166 214 268 319 378
#     4  10  22  44  64  91 135 169 213 265 326 384
#     4  10  24  40  60  90 130 166 208 266 320 378
#     4  11  24  39  68 101 122 173 217 269 319 380
#     4  10  24  38  64  93 130 168 216 258 331 378
#
# _framework density 19.669830999999999
#
# number of rings (size 3 to 8) (size 9 to 14) (size 15 to 20)
#    0.462    0.923    1.538    4.154   12.923    1.231 
#    0.000    0.000    0.000    0.000    0.000    0.000 
#    0.000    0.000    0.000    0.000    0.000    0.000 
#
# Total GULP energy -322250.152254 kJ/mol
# GULP energy per Si atom -12394.236625 kJ/mol
# Density = 1.962506 g / cm^3
# Si number density = 19.669831 Si / 1000 Ang^3
#
#
#
# Elastic Constant Matrix: (Units=GPa)
#
#
# Indices 1 2 3 4 5 6 
#
# 1 109.5695 50.7093 36.0084 0.0000 0.0000 0.0000
# 2 50.7093 124.5401 47.7178 0.0000 0.0000 0.0000
# 3 36.0084 47.7178 101.9594 0.0000 0.0000 0.0000
# 4 0.0000 0.0000 0.0000 -153.7712 0.0000 0.0000
# 5 0.0000 0.0000 0.0000 0.0000 35.7251 0.0000
# 6 0.0000 0.0000 0.0000 0.0000 0.0000 26.5006
#
#
#
# Elastic Compliance Matrix: (Units=1/GPa)
#
#
# Indices 1 2 3 4 5 6 
#
# 1 0.011677 -0.003868 -0.002314 0.000000 0.000000 0.000000
# 2 -0.003868 0.011065 -0.003813 0.000000 0.000000 0.000000
# 3 -0.002314 -0.003813 0.012409 0.000000 0.000000 0.000000
# 4 0.000000 0.000000 0.000000 -0.006503 0.000000 0.000000
# 5 0.000000 0.000000 0.000000 0.000000 0.027992 0.000000
# 6 0.000000 0.000000 0.000000 0.000000 0.000000 0.037735
#
#
# Mechanical properties :
#
#
# Convention : Reuss Voigt Hill
#
# Bulk Modulus (GPa) = 65.94988 67.21556 66.58272
# Shear Modulus (GPa) = 41.86968 -4.86687 18.50141
#
# Velocity S-wave (km/s) = 4.61871 -1.57469 3.07024
# Velocity P-wave (km/s) = 7.87683 5.56236 6.81852
#
# Compressibility (1/GPa) = 0.01516303
#
# Stress axis : x y z
#
# Youngs Moduli (GPa) = 85.63717 90.37223 80.58513
#
# Poissons Ratio (x) = 0.34957 0.18644
# Poissons Ratio (y) = 0.33126 0.30724
# Poissons Ratio (z) = 0.19813 0.34455
#
# Static dielectric constant tensor:
#      x y z
#    x 4.354220 0.000000 0.000000 
#    y 0.000000 3.529340 0.000000 
#    z 0.000000 0.000000 3.677380 
# 
# 
# High freq. dielectric constant tensor:
#      x y z
#    x 1.766400 0.000000 0.000000 
#    y 0.000000 1.767110 0.000000 
#    z 0.000000 0.000000 1.770770 
# 
# From -- ./inp_files/26670.got.cif
#   From: 2010.03.12/outbox.cif.g09.slc.cpg/sg20_14_cif.got.tgz:26670.got - 2010.04.14 01:38:04.
