data_PCOD8159198
_publ_section_title
;
Structure prediction by ZEFSAII (Michael W. Deem and Ramdas Pophale) SiO2 
 PCOD8159198
Probable space group: C 2 2 21
;
_chemical_formula_sum "Si O2"
_cell_formula_units_Z 64
_cell_length_a 10.532512
_cell_length_b 32.101349
_cell_length_c 9.199691
_cell_angle_alpha 90.000000
_cell_angle_beta 90.000000
_cell_angle_gamma 90.000000
_cell_volume 3110.487685
_symmetry_space_group_name_H-M "C 2 2 21"
_symmetry_group_IT_number 20
_symmetry_cell_setting 'orthorhombic'
loop_
_space_group_symop_operation_xyz
x,y,z
-x,-y,1/2+z
x,-y,-z
-x,y,1/2-z
1/2+x,1/2+y,z
1/2-x,1/2-y,1/2+z
1/2+x,1/2-y,-z
1/2-x,1/2+y,1/2-z
loop_
_atom_site_type_symbol
_atom_site_label
_atom_site_fract_x
_atom_site_fract_y
_atom_site_fract_z
Si Si1 0.635770 0.005222 0.825518
Si Si2 0.144525 0.312479 0.707997
Si Si3 0.858144 0.601193 0.709746
Si Si4 0.723027 0.349364 0.518783
Si Si5 0.474113 0.616076 0.406180
Si Si6 0.740361 0.657639 0.932720
Si Si7 0.380497 0.476124 0.652895
Si Si8 0.646235 0.717598 0.706630
O O1 0.500000 0.993400 0.750000
O O2 0.670977 0.052839 0.801627
O O3 0.749987 0.979119 0.748184
O O4 0.627530 0.000000 0.000000
O O5 0.231044 0.337254 0.821466
O O6 0.152904 0.335424 0.553708
O O7 0.191169 0.265057 0.689746
O O8 0.000000 0.314089 0.750000
O O9 0.836383 0.627121 0.562914
O O10 0.768271 0.616925 0.838194
O O11 0.000000 0.611230 0.750000
O O12 0.612264 0.384640 0.517995
O O13 0.675680 0.307159 0.441247
O O14 0.500000 0.636303 0.250000
O O15 0.393782 0.649543 0.493250
O O16 0.406148 0.571592 0.390448
O O17 0.732227 0.698574 0.834228
O O18 0.367921 0.500000 0.500000
O O19 0.500000 0.492726 0.750000
O O20 0.500000 0.713871 0.750000
#
# Coordination Sequence:
#
# PCOD8159198 Si02
#       8
#     8   8   8   8   8   8   8   8
#     4  11  25  46  70  97 137 179 225 277 341 409
#     4  11  23  38  61  90 124 165 209 266 324 385
#     4  10  24  42  65  94 126 169 213 259 322 392
#     4  11  22  40  65  90 128 164 213 266 323 393
#     4  11  23  39  64  95 126 167 213 267 326 386
#     4  11  21  40  63  87 127 160 213 261 318 388
#     4  11  25  42  66 101 137 173 230 283 340 405
#     4  10  21  38  60  91 122 162 211 262 325 389
#
# _framework density 20.575551000000001
#
# number of rings (size 3 to 8) (size 9 to 14) (size 15 to 20)
#    0.000    1.250    2.500    3.000    5.250    1.000 
#    0.000    1.250    2.750    0.000    0.000    0.000 
#    0.000    0.000    0.000    0.000    0.000    0.000 
#
# Total GULP energy -396712.608016 kJ/mol
# GULP energy per Si atom -12397.269001 kJ/mol
# Density = 2.052872 g / cm^3
# Si number density = 20.575551 Si / 1000 Ang^3
#
#
#
# Elastic Constant Matrix: (Units=GPa)
#
#
# Indices 1 2 3 4 5 6 
#
# 1 99.1200 47.2436 40.8370 0.0000 0.0000 0.0000
# 2 47.2436 89.5839 33.1090 0.0000 0.0000 0.0000
# 3 40.8370 33.1090 134.1844 0.0000 0.0000 0.0000
# 4 0.0000 0.0000 0.0000 -957.4911 0.0000 0.0000
# 5 0.0000 0.0000 0.0000 0.0000 15.0590 0.0000
# 6 0.0000 0.0000 0.0000 0.0000 0.0000 28.4872
#
#
#
# Elastic Compliance Matrix: (Units=1/GPa)
#
#
# Indices 1 2 3 4 5 6 
#
# 1 0.014342 -0.006548 -0.002749 0.000000 0.000000 0.000000
# 2 -0.006548 0.015272 -0.001776 0.000000 0.000000 0.000000
# 3 -0.002749 -0.001776 0.008727 0.000000 0.000000 0.000000
# 4 0.000000 0.000000 0.000000 -0.001044 0.000000 0.000000
# 5 0.000000 0.000000 0.000000 0.000000 0.066405 0.000000
# 6 0.000000 0.000000 0.000000 0.000000 0.000000 0.035103
#
#
# Mechanical properties :
#
#
# Convention : Reuss Voigt Hill
#
# Bulk Modulus (GPa) = 61.74144 62.80752 62.27448
# Shear Modulus (GPa) = 30.05721 -169.34239 -69.64259
#
# Velocity S-wave (km/s) = 3.82622 -9.08193 -5.82415
# Velocity P-wave (km/s) = 7.04218 8.90975 3.85949
#
# Compressibility (1/GPa) = 0.01619658
#
# Stress axis : x y z
#
# Youngs Moduli (GPa) = 69.72416 65.47972 114.58368
#
# Poissons Ratio (x) = 0.42873 0.31502
# Poissons Ratio (y) = 0.45652 0.20345
# Poissons Ratio (z) = 0.19169 0.11627
#
# Static dielectric constant tensor:
#      x y z
#    x 4.798470 0.000000 0.000000 
#    y 0.000000 3.679460 0.000000 
#    z 0.000000 0.000000 3.825350 
# 
# 
# High freq. dielectric constant tensor:
#      x y z
#    x 1.810520 0.000000 0.000000 
#    y 0.000000 1.801590 0.000000 
#    z 0.000000 0.000000 1.822500 
# 
# From -- ./inp_files/7683.got.cif
#   From: 2010.03.12/outbox.cif.g09.slc.cpg/sg20_4_cif.got.tgz:7683.got - 2010.04.14 01:38:04.
