data_PCOD8159423
_publ_section_title
;
Structure prediction by ZEFSAII (Michael W. Deem and Ramdas Pophale) SiO2 
 PCOD8159423
Probable space group: C 2 2 21
;
_chemical_formula_sum "Si O2"
_cell_formula_units_Z 40
_cell_length_a 15.298992
_cell_length_b 8.230763
_cell_length_c 15.007822
_cell_angle_alpha 90.000000
_cell_angle_beta 90.000000
_cell_angle_gamma 90.000000
_cell_volume 1889.820624
_symmetry_space_group_name_H-M "C 2 2 21"
_symmetry_group_IT_number 20
_symmetry_cell_setting 'orthorhombic'
loop_
_space_group_symop_operation_xyz
x,y,z
-x,-y,1/2+z
x,-y,-z
-x,y,1/2-z
1/2+x,1/2+y,z
1/2-x,1/2-y,1/2+z
1/2+x,1/2-y,-z
1/2-x,1/2+y,1/2-z
loop_
_atom_site_type_symbol
_atom_site_label
_atom_site_fract_x
_atom_site_fract_y
_atom_site_fract_z
Si Si1 0.816195 0.789245 0.711601
Si Si2 0.561979 0.470605 0.674341
Si Si3 0.637568 0.060204 0.276797
Si Si4 0.012484 0.680859 0.128738
Si Si5 0.560502 0.663910 0.045216
O O1 0.842675 0.927992 0.785708
O O2 0.715755 0.825131 0.688201
O O3 0.825997 0.617277 0.758806
O O4 0.870248 0.784300 0.619630
O O5 0.500000 0.394833 0.750000
O O6 0.540631 0.659163 0.660625
O O7 0.536224 0.373835 0.584637
O O8 0.596945 0.144320 0.188580
O O9 0.561889 0.043822 0.353643
O O10 0.046642 0.693422 0.027470
O O11 0.598225 0.500000 0.000000
#
# Coordination Sequence:
#
# PCOD8159423 Si02
#       5
#     8   8   8   8   8
#     4  11  24  41  66 100 129 173 217 267 318 391
#     4   9  17  37  67  86 123 166 208 254 322 380
#     4  11  24  39  66  92 133 173 215 258 327 387
#     4  10  21  42  64  93 128 172 211 268 321 389
#     4   9  21  39  69  94 126 164 217 269 326 374
#
# _framework density 21.166031
#
# number of rings (size 3 to 8) (size 9 to 14) (size 15 to 20)
#    0.000    2.000    2.000    1.200   14.000    0.800 
#    3.600    0.000    0.000    0.000    0.000    0.000 
#    0.000    0.000    0.000    0.000    0.000    0.000 
#
# Total GULP energy -247782.825760 kJ/mol
# GULP energy per Si atom -12389.141288 kJ/mol
# Density = 2.111786 g / cm^3
# Si number density = 21.166031 Si / 1000 Ang^3
#
#
#
# Elastic Constant Matrix: (Units=GPa)
#
#
# Indices 1 2 3 4 5 6 
#
# 1 109.4587 20.1847 35.1007 0.0000 0.0000 0.0000
# 2 20.1847 80.1309 21.5663 0.0000 0.0000 0.0000
# 3 35.1007 21.5663 79.0561 0.0000 0.0000 0.0000
# 4 0.0000 0.0000 0.0000 20.1684 0.0000 0.0000
# 5 0.0000 0.0000 0.0000 0.0000 22.2632 0.0000
# 6 0.0000 0.0000 0.0000 0.0000 0.0000 27.9099
#
#
#
# Elastic Compliance Matrix: (Units=1/GPa)
#
#
# Indices 1 2 3 4 5 6 
#
# 1 0.010827 -0.001547 -0.004385 0.000000 0.000000 0.000000
# 2 -0.001547 0.013690 -0.003048 0.000000 0.000000 0.000000
# 3 -0.004385 -0.003048 0.015428 0.000000 0.000000 0.000000
# 4 0.000000 0.000000 0.000000 0.049583 0.000000 0.000000
# 5 0.000000 0.000000 0.000000 0.000000 0.044917 0.000000
# 6 0.000000 0.000000 0.000000 0.000000 0.000000 0.035830
#
#
# Mechanical properties :
#
#
# Convention : Reuss Voigt Hill
#
# Bulk Modulus (GPa) = 45.48626 46.92768 46.20697
# Shear Modulus (GPa) = 25.56734 26.85457 26.21095
#
# Velocity S-wave (km/s) = 3.47932 3.56583 3.52284
# Velocity P-wave (km/s) = 6.13822 6.25882 6.19881
#
# Compressibility (1/GPa) = 0.02198466
#
# Stress axis : x y z
#
# Youngs Moduli (GPa) = 92.35814 73.04866 64.81863
#
# Poissons Ratio (x) = 0.11302 0.28425
# Poissons Ratio (y) = 0.14289 0.19754
# Poissons Ratio (z) = 0.40502 0.22262
#
# Static dielectric constant tensor:
#      x y z
#    x 3.782550 0.000000 0.000000 
#    y 0.000000 3.786810 0.000000 
#    z 0.000000 0.000000 3.970170 
# 
# 
# High freq. dielectric constant tensor:
#      x y z
#    x 1.814650 0.000000 0.000000 
#    y 0.000000 1.830260 0.000000 
#    z 0.000000 0.000000 1.823300 
# 
# From -- ./inp_files/18532.got.cif
#   From: 2010.03.12/outbox.cif.g09.slc.cpg/sg20_10_cif.got.tgz:18532.got - 2010.04.14 01:38:04.
