data_PCOD8159715
_publ_section_title
;
Structure prediction by ZEFSAII (Michael W. Deem and Ramdas Pophale) SiO2 
 PCOD8159715
Probable space group: C 2 2 21
;
_chemical_formula_sum "Si O2"
_cell_formula_units_Z 32
_cell_length_a 30.225918
_cell_length_b 10.031089
_cell_length_c 4.991855
_cell_angle_alpha 90.000000
_cell_angle_beta 90.000000
_cell_angle_gamma 90.000000
_cell_volume 1513.524813
_symmetry_space_group_name_H-M "C 2 2 21"
_symmetry_group_IT_number 20
_symmetry_cell_setting 'orthorhombic'
loop_
_space_group_symop_operation_xyz
x,y,z
-x,-y,1/2+z
x,-y,-z
-x,y,1/2-z
1/2+x,1/2+y,z
1/2-x,1/2-y,1/2+z
1/2+x,1/2-y,-z
1/2-x,1/2+y,1/2-z
loop_
_atom_site_type_symbol
_atom_site_label
_atom_site_fract_x
_atom_site_fract_y
_atom_site_fract_z
Si Si1 0.369629 0.647570 0.610063
Si Si2 0.604434 0.793269 0.380649
Si Si3 0.530337 0.000000 0.500000
Si Si4 0.322089 0.000000 0.000000
Si Si5 0.777811 0.718771 0.321013
O O1 0.374468 0.500000 0.500000
O O2 0.400304 0.737068 0.417179
O O3 0.318765 0.689935 0.592072
O O4 0.387805 0.671966 0.909839
O O5 0.560039 0.870744 0.449535
O O6 0.647249 0.888303 0.366589
O O7 0.500000 0.033735 0.250000
O O8 0.291956 0.070307 0.225984
O O9 0.746835 0.704046 0.579929
#
# Coordination Sequence:
#
# PCOD8159715 Si02
#       5
#     8   8   4   4   8
#     4  11  23  42  61  87 121 169 220 244 300 386
#     4  10  22  41  67  90 121 166 199 248 312 373
#     4  11  22  40  72 108 130 148 196 262 310 368
#     4   9  22  42  58  80 118 158 210 252 318 374
#     4  11  24  39  57  86 116 160 211 281 323 350
#
# _framework density 21.142700000000001
#
# number of rings (size 3 to 8) (size 9 to 14) (size 15 to 20)
#    0.000    1.500    0.000    5.250    1.750   13.000 
#    4.500    0.000    0.000   15.000    0.000    0.000 
#    0.000    0.000    0.000    0.000    0.000    0.000 
#
# Total GULP energy -198428.524464 kJ/mol
# GULP energy per Si atom -12401.782779 kJ/mol
# Density = 2.109458 g / cm^3
# Si number density = 21.142700 Si / 1000 Ang^3
#
#
#
# Elastic Constant Matrix: (Units=GPa)
#
#
# Indices 1 2 3 4 5 6 
#
# 1 109.9065 32.9669 35.9712 0.0000 0.0000 0.0000
# 2 32.9669 77.9081 -4.8428 0.0000 0.0000 0.0000
# 3 35.9712 -4.8428 85.7204 0.0000 0.0000 0.0000
# 4 0.0000 0.0000 0.0000 25.8747 0.0000 0.0000
# 5 0.0000 0.0000 0.0000 0.0000 37.2569 0.0000
# 6 0.0000 0.0000 0.0000 0.0000 0.0000 5.6175
#
#
#
# Elastic Compliance Matrix: (Units=1/GPa)
#
#
# Indices 1 2 3 4 5 6 
#
# 1 0.012653 -0.005704 -0.005632 0.000000 0.000000 0.000000
# 2 -0.005704 0.015452 0.003267 0.000000 0.000000 0.000000
# 3 -0.005632 0.003267 0.014214 0.000000 0.000000 0.000000
# 4 0.000000 0.000000 0.000000 0.038648 0.000000 0.000000
# 5 0.000000 0.000000 0.000000 0.000000 0.026841 0.000000
# 6 0.000000 0.000000 0.000000 0.000000 0.000000 0.178015
#
#
# Mechanical properties :
#
#
# Convention : Reuss Voigt Hill
#
# Bulk Modulus (GPa) = 38.19667 44.63618 41.41643
# Shear Modulus (GPa) = 16.09330 27.71246 21.90288
#
# Velocity S-wave (km/s) = 2.76193 3.62433 3.22212
# Velocity P-wave (km/s) = 5.31755 6.21869 5.78569
#
# Compressibility (1/GPa) = 0.02618029
#
# Stress axis : x y z
#
# Youngs Moduli (GPa) = 79.03353 64.71483 70.35469
#
# Poissons Ratio (x) = 0.36914 0.39623
# Poissons Ratio (y) = 0.45082 -0.22982
# Poissons Ratio (z) = 0.44510 -0.21140
#
# Static dielectric constant tensor:
#      x y z
#    x 3.749890 0.000000 0.000000 
#    y 0.000000 3.750860 0.000000 
#    z 0.000000 0.000000 4.008040 
# 
# 
# High freq. dielectric constant tensor:
#      x y z
#    x 1.811850 0.000000 0.000000 
#    y 0.000000 1.824130 0.000000 
#    z 0.000000 0.000000 1.848500 
# 
# From -- ./inp_files/614.got.cif
#   From: 2010.03.12/outbox.cif.g09.slc.cpg/sg20_1_cif.got.tgz:614.got - 2010.04.14 01:38:04.
