data_PCOD8159970
_publ_section_title
;
Structure prediction by ZEFSAII (Michael W. Deem and Ramdas Pophale) SiO2 
 PCOD8159970
Probable space group: C 2 2 21
;
_chemical_formula_sum "Si O2"
_cell_formula_units_Z 48
_cell_length_a 12.507239
_cell_length_b 18.798871
_cell_length_c 8.688327
_cell_angle_alpha 90.000000
_cell_angle_beta 90.000000
_cell_angle_gamma 90.000000
_cell_volume 2042.816582
_symmetry_space_group_name_H-M "C 2 2 21"
_symmetry_group_IT_number 20
_symmetry_cell_setting 'orthorhombic'
loop_
_space_group_symop_operation_xyz
x,y,z
-x,-y,1/2+z
x,-y,-z
-x,y,1/2-z
1/2+x,1/2+y,z
1/2-x,1/2-y,1/2+z
1/2+x,1/2-y,-z
1/2-x,1/2+y,1/2-z
loop_
_atom_site_type_symbol
_atom_site_label
_atom_site_fract_x
_atom_site_fract_y
_atom_site_fract_z
Si Si1 0.227711 0.717196 0.112355
Si Si2 0.102724 0.158433 0.949518
Si Si3 0.197019 0.610093 0.376422
Si Si4 0.796608 0.523486 0.660416
Si Si5 0.110278 0.342566 0.322322
Si Si6 0.871350 0.123143 0.899392
O O1 0.130553 0.757692 0.020315
O O2 0.183140 0.674583 0.257990
O O3 0.311993 0.775431 0.170939
O O4 0.281555 0.662361 0.997549
O O5 0.118834 0.156699 0.767057
O O6 0.983768 0.131480 0.991626
O O7 0.186180 0.109452 0.041988
O O8 0.186086 0.534527 0.292935
O O9 0.105289 0.622230 0.505616
O O10 0.851439 0.500000 0.500000
O O11 0.848961 0.597085 0.708016
O O12 0.670321 0.541627 0.624237
O O13 0.000000 0.315329 0.250000
#
# Coordination Sequence:
#
# PCOD8159970 Si02
#       6
#     8   8   8   8   8   8
#     4  11  23  45  71 106 146 189 239 308 371 434
#     4  10  23  42  70 100 142 184 242 296 361 436
#     4  11  24  45  75  99 147 194 236 308 375 433
#     4  12  25  48  70 100 148 185 236 304 366 435
#     4  11  27  46  75 103 141 190 250 301 361 442
#     4  11  23  44  67 105 142 187 238 297 360 440
#
# _framework density 23.496969
#
# number of rings (size 3 to 8) (size 9 to 14) (size 15 to 20)
#    0.000    1.000    5.000    2.500    2.333    1.333 
#    6.000    0.000    3.667    0.000    0.000    0.000 
#    0.000    0.000    0.000    0.000    0.000    0.000 
#
# Total GULP energy -297377.920300 kJ/mol
# GULP energy per Si atom -12390.746679 kJ/mol
# Density = 2.344349 g / cm^3
# Si number density = 23.496969 Si / 1000 Ang^3
#
#
#
# Elastic Constant Matrix: (Units=GPa)
#
#
# Indices 1 2 3 4 5 6 
#
# 1 52.7265 21.3395 9.4658 0.0000 0.0000 0.0000
# 2 21.3395 85.7459 24.6818 0.0000 0.0000 0.0000
# 3 9.4658 24.6818 103.5948 0.0000 0.0000 0.0000
# 4 0.0000 0.0000 0.0000 47.0133 0.0000 0.0000
# 5 0.0000 0.0000 0.0000 0.0000 24.3051 0.0000
# 6 0.0000 0.0000 0.0000 0.0000 0.0000 19.2102
#
#
#
# Elastic Compliance Matrix: (Units=1/GPa)
#
#
# Indices 1 2 3 4 5 6 
#
# 1 0.021141 -0.005052 -0.000728 0.000000 0.000000 0.000000
# 2 -0.005052 0.013728 -0.002809 0.000000 0.000000 0.000000
# 3 -0.000728 -0.002809 0.010389 0.000000 0.000000 0.000000
# 4 0.000000 0.000000 0.000000 0.021271 0.000000 0.000000
# 5 0.000000 0.000000 0.000000 0.000000 0.041144 0.000000
# 6 0.000000 0.000000 0.000000 0.000000 0.000000 0.052056
#
#
# Mechanical properties :
#
#
# Convention : Reuss Voigt Hill
#
# Bulk Modulus (GPa) = 35.61266 39.22685 37.41975
# Shear Modulus (GPa) = 26.84331 30.54439 28.69385
#
# Velocity S-wave (km/s) = 3.38363 3.60936 3.49832
# Velocity P-wave (km/s) = 5.51856 5.83958 5.68134
#
# Compressibility (1/GPa) = 0.02807990
#
# Stress axis : x y z
#
# Youngs Moduli (GPa) = 47.30132 72.84266 96.25730
#
# Poissons Ratio (x) = 0.36798 0.07009
# Poissons Ratio (y) = 0.23896 0.27041
# Poissons Ratio (z) = 0.03444 0.20463
#
# Static dielectric constant tensor:
#      x y z
#    x 4.682990 0.000000 0.000000 
#    y 0.000000 4.495720 0.000000 
#    z 0.000000 0.000000 4.567910 
# 
# 
# High freq. dielectric constant tensor:
#      x y z
#    x 1.904290 0.000000 0.000000 
#    y 0.000000 1.933310 0.000000 
#    z 0.000000 0.000000 1.950210 
# 
# From -- ./inp_files/8426.got.cif
#   From: 2010.03.12/outbox.cif.g09.slc.cpg/sg20_5_cif.got.tgz:8426.got - 2010.04.14 01:38:04.
