data_PCOD8159764
_publ_section_title
;
Structure prediction by ZEFSAII (Michael W. Deem and Ramdas Pophale) SiO2 
 PCOD8159764
Probable space group: C 2 2 21
;
_chemical_formula_sum "Si O2"
_cell_formula_units_Z 60
_cell_length_a 13.813432
_cell_length_b 9.000356
_cell_length_c 23.086414
_cell_angle_alpha 90.000000
_cell_angle_beta 90.000000
_cell_angle_gamma 90.000000
_cell_volume 2870.237019
_symmetry_space_group_name_H-M "C 2 2 21"
_symmetry_group_IT_number 20
_symmetry_cell_setting 'orthorhombic'
loop_
_space_group_symop_operation_xyz
x,y,z
-x,-y,1/2+z
x,-y,-z
-x,y,1/2-z
1/2+x,1/2+y,z
1/2-x,1/2-y,1/2+z
1/2+x,1/2-y,-z
1/2-x,1/2+y,1/2-z
loop_
_atom_site_type_symbol
_atom_site_label
_atom_site_fract_x
_atom_site_fract_y
_atom_site_fract_z
Si Si1 0.851756 0.573950 0.942746
Si Si2 0.789004 0.111811 0.370433
Si Si3 0.338830 0.069052 0.241127
Si Si4 0.524233 0.881580 0.331395
Si Si5 0.811893 0.548090 0.643703
Si Si6 0.500000 0.686810 0.750000
Si Si7 0.326308 0.411675 0.941019
Si Si8 0.495766 0.450149 0.850109
O O1 0.763978 0.468242 0.923384
O O2 0.928641 0.582273 0.892447
O O3 0.819026 0.739944 0.957446
O O4 0.898385 0.500000 0.000000
O O5 0.739559 0.083867 0.309009
O O6 0.785314 0.288422 0.377802
O O7 0.896261 0.045634 0.375225
O O8 0.400878 0.217471 0.255442
O O9 0.416234 0.943226 0.222909
O O10 0.270719 0.011945 0.294523
O O11 0.424667 0.968993 0.340634
O O12 0.515974 0.707435 0.317804
O O13 0.773866 0.442271 0.593011
O O14 0.482895 0.586718 0.806606
O O15 0.417358 0.461690 0.901545
O O16 0.333427 0.500000 0.000000
#
# Coordination Sequence:
#
# PCOD8159764 Si02
#       8
#     8   8   8   8   8   4   8   8
#     4  10  22  42  66  90 120 161 216 265 318 375
#     4  10  24  39  64  93 128 165 213 260 316 377
#     4  11  23  38  61  97 132 171 205 263 313 390
#     4   9  21  43  62  91 127 170 212 258 325 381
#     4  11  22  40  63  90 126 169 209 256 320 380
#     4  12  24  36  62  98 134 164 214 258 322 378
#     4  11  25  45  65  90 127 166 213 268 322 377
#     4  10  25  41  63  93 127 172 211 263 317 382
#
# _framework density 20.904195999999999
#
# number of rings (size 3 to 8) (size 9 to 14) (size 15 to 20)
#    0.000    1.600    1.333    1.600    9.333    3.200 
#    0.000    2.667    0.000    0.000    0.000    0.000 
#    0.000    0.000    0.000    0.000    0.000    0.000 
#
# Total GULP energy -371875.024808 kJ/mol
# GULP energy per Si atom -12395.834160 kJ/mol
# Density = 2.085662 g / cm^3
# Si number density = 20.904196 Si / 1000 Ang^3
#
#
#
# Elastic Constant Matrix: (Units=GPa)
#
#
# Indices 1 2 3 4 5 6 
#
# 1 61.9745 23.6188 21.2126 0.0000 0.0000 0.0000
# 2 23.6188 105.6005 50.6675 0.0000 0.0000 0.0000
# 3 21.2126 50.6675 109.1824 0.0000 0.0000 0.0000
# 4 0.0000 0.0000 0.0000 38.5197 0.0000 0.0000
# 5 0.0000 0.0000 0.0000 0.0000 17.5755 0.0000
# 6 0.0000 0.0000 0.0000 0.0000 0.0000 -10.9438
#
#
#
# Elastic Compliance Matrix: (Units=1/GPa)
#
#
# Indices 1 2 3 4 5 6 
#
# 1 0.018005 -0.003021 -0.002096 0.000000 0.000000 0.000000
# 2 -0.003021 0.012689 -0.005302 0.000000 0.000000 0.000000
# 3 -0.002096 -0.005302 0.012026 0.000000 0.000000 0.000000
# 4 0.000000 0.000000 0.000000 0.025961 0.000000 0.000000
# 5 0.000000 0.000000 0.000000 0.000000 0.056898 0.000000
# 6 0.000000 0.000000 0.000000 0.000000 0.000000 -0.091376
#
#
# Mechanical properties :
#
#
# Convention : Reuss Voigt Hill
#
# Bulk Modulus (GPa) = 45.69864 51.97280 48.83572
# Shear Modulus (GPa) = 80.21274 21.11416 50.66345
#
# Velocity S-wave (km/s) = 6.20120 3.18157 4.92835
# Velocity P-wave (km/s) = 8.55463 6.19781 7.46976
#
# Compressibility (1/GPa) = 0.02188249
#
# Stress axis : x y z
#
# Youngs Moduli (GPa) = 55.54164 78.80788 83.15006
#
# Poissons Ratio (x) = 0.23810 0.17428
# Poissons Ratio (y) = 0.16781 0.44082
# Poissons Ratio (z) = 0.11641 0.41780
#
# Static dielectric constant tensor:
#      x y z
#    x 3.874300 0.000000 0.000000 
#    y 0.000000 4.053120 0.000000 
#    z 0.000000 0.000000 3.780250 
# 
# 
# High freq. dielectric constant tensor:
#      x y z
#    x 1.818920 0.000000 0.000000 
#    y 0.000000 1.831470 0.000000 
#    z 0.000000 0.000000 1.821640 
# 
# From -- ./inp_files/29300.got.cif
#   From: 2010.03.12/outbox.cif.g09.slc.cpg/sg20_15_cif.got.tgz:29300.got - 2010.04.14 01:38:04.
