data_PCOD8159286
_publ_section_title
;
Structure prediction by ZEFSAII (Michael W. Deem and Ramdas Pophale) SiO2 
 PCOD8159286
Probable space group: C 2 2 21
;
_chemical_formula_sum "Si O2"
_cell_formula_units_Z 56
_cell_length_a 14.011246
_cell_length_b 23.344926
_cell_length_c 7.820392
_cell_angle_alpha 90.000000
_cell_angle_beta 90.000000
_cell_angle_gamma 90.000000
_cell_volume 2557.983758
_symmetry_space_group_name_H-M "C 2 2 21"
_symmetry_group_IT_number 20
_symmetry_cell_setting 'orthorhombic'
loop_
_space_group_symop_operation_xyz
x,y,z
-x,-y,1/2+z
x,-y,-z
-x,y,1/2-z
1/2+x,1/2+y,z
1/2-x,1/2-y,1/2+z
1/2+x,1/2-y,-z
1/2-x,1/2+y,1/2-z
loop_
_atom_site_type_symbol
_atom_site_label
_atom_site_fract_x
_atom_site_fract_y
_atom_site_fract_z
Si Si1 0.864186 0.250247 0.416352
Si Si2 0.821210 0.794734 0.926717
Si Si3 0.363994 0.500000 0.000000
Si Si4 0.039480 0.633690 0.936313
Si Si5 0.009278 0.146620 0.043953
Si Si6 0.581860 0.951525 0.631604
Si Si7 0.500000 0.444204 0.250000
Si Si8 0.280308 0.906936 0.606474
O O1 0.867229 0.248454 0.210538
O O2 0.751961 0.259036 0.456732
O O3 0.935511 0.300293 0.478796
O O4 0.903278 0.190268 0.488763
O O5 0.759911 0.845233 0.837373
O O6 0.910861 0.823788 0.024672
O O7 0.420983 0.512457 0.824481
O O8 0.303967 0.443049 0.973605
O O9 0.000000 0.623998 0.750000
O O10 0.137155 0.597900 0.962232
O O11 0.958489 0.609116 0.061699
O O12 0.000000 0.131064 0.250000
O O13 0.031151 0.093115 0.918199
O O14 0.500000 0.979533 0.750000
O O15 0.679621 0.937924 0.726902
O O16 0.610448 0.000000 0.500000
#
# Coordination Sequence:
#
# PCOD8159286 Si02
#       8
#     8   8   4   8   8   8   4   8
#     4  10  23  39  68  99 141 181 225 293 340 431
#     4  10  21  42  64  99 136 174 229 284 351 410
#     4  12  28  50  70 102 128 182 244 294 358 422
#     4  10  21  39  66 101 137 184 221 273 352 425
#     4  10  23  46  68  99 142 180 233 290 349 424
#     4  10  22  39  62  96 135 184 220 279 348 413
#     4  12  28  48  78  96 134 188 232 296 370 414
#     4  10  24  43  63  96 140 168 230 297 325 422
#
# _framework density 21.892243000000001
#
# number of rings (size 3 to 8) (size 9 to 14) (size 15 to 20)
#    0.000    1.714    1.429    1.714    9.000    2.286 
#   10.286    0.000    0.000    0.000    0.000    0.000 
#    0.000    0.000    0.000    0.000    0.000    0.000 
#
# Total GULP energy -346991.157581 kJ/mol
# GULP energy per Si atom -12392.541342 kJ/mol
# Density = 2.184242 g / cm^3
# Si number density = 21.892243 Si / 1000 Ang^3
#
#
#
# Elastic Constant Matrix: (Units=GPa)
#
#
# Indices 1 2 3 4 5 6 
#
# 1 94.5899 20.1693 28.4739 0.0000 0.0000 0.0000
# 2 20.1693 78.1991 32.0435 0.0000 0.0000 0.0000
# 3 28.4739 32.0435 87.6331 0.0000 0.0000 0.0000
# 4 0.0000 0.0000 0.0000 42.5955 0.0000 0.0000
# 5 0.0000 0.0000 0.0000 0.0000 34.6541 0.0000
# 6 0.0000 0.0000 0.0000 0.0000 0.0000 10.1675
#
#
#
# Elastic Compliance Matrix: (Units=1/GPa)
#
#
# Indices 1 2 3 4 5 6 
#
# 1 0.011918 -0.001749 -0.003233 0.000000 0.000000 0.000000
# 2 -0.001749 0.015298 -0.005026 0.000000 0.000000 0.000000
# 3 -0.003233 -0.005026 0.014299 0.000000 0.000000 0.000000
# 4 0.000000 0.000000 0.000000 0.023477 0.000000 0.000000
# 5 0.000000 0.000000 0.000000 0.000000 0.028857 0.000000
# 6 0.000000 0.000000 0.000000 0.000000 0.000000 0.098353
#
#
# Mechanical properties :
#
#
# Convention : Reuss Voigt Hill
#
# Bulk Modulus (GPa) = 46.51065 46.86618 46.68841
# Shear Modulus (GPa) = 22.79108 29.46578 26.12843
#
# Velocity S-wave (km/s) = 3.23004 3.67269 3.45846
# Velocity P-wave (km/s) = 5.93315 6.28005 6.10906
#
# Compressibility (1/GPa) = 0.02150045
#
# Stress axis : x y z
#
# Youngs Moduli (GPa) = 83.90599 65.36652 69.93379
#
# Poissons Ratio (x) = 0.11434 0.22608
# Poissons Ratio (y) = 0.14677 0.35146
# Poissons Ratio (z) = 0.27125 0.32850
#
# Static dielectric constant tensor:
#      x y z
#    x 4.138140 0.000000 0.000000 
#    y 0.000000 4.019190 0.000000 
#    z 0.000000 0.000000 3.871590 
# 
# 
# High freq. dielectric constant tensor:
#      x y z
#    x 1.867300 0.000000 0.000000 
#    y 0.000000 1.868120 0.000000 
#    z 0.000000 0.000000 1.840980 
# 
# From -- ./inp_files/8784.got.cif
#   From: 2010.03.12/outbox.cif.g09.slc.cpg/sg20_5_cif.got.tgz:8784.got - 2010.04.14 01:38:04.
