data_PCOD8159852
_publ_section_title
;
Structure prediction by ZEFSAII (Michael W. Deem and Ramdas Pophale) SiO2 
 PCOD8159852
Probable space group: C 2 2 21
;
_chemical_formula_sum "Si O2"
_cell_formula_units_Z 60
_cell_length_a 27.361096
_cell_length_b 11.716289
_cell_length_c 8.532411
_cell_angle_alpha 90.000000
_cell_angle_beta 90.000000
_cell_angle_gamma 90.000000
_cell_volume 2735.239330
_symmetry_space_group_name_H-M "C 2 2 21"
_symmetry_group_IT_number 20
_symmetry_cell_setting 'orthorhombic'
loop_
_space_group_symop_operation_xyz
x,y,z
-x,-y,1/2+z
x,-y,-z
-x,y,1/2-z
1/2+x,1/2+y,z
1/2-x,1/2-y,1/2+z
1/2+x,1/2-y,-z
1/2-x,1/2+y,1/2-z
loop_
_atom_site_type_symbol
_atom_site_label
_atom_site_fract_x
_atom_site_fract_y
_atom_site_fract_z
Si Si1 0.390231 0.893180 0.681837
Si Si2 0.799069 0.778484 0.824091
Si Si3 0.352113 0.507193 0.821504
Si Si4 0.951985 0.759136 0.529097
Si Si5 0.454863 0.122068 0.032671
Si Si6 0.913031 0.000000 0.500000
Si Si7 0.194158 0.747961 0.321954
Si Si8 0.391641 0.852011 0.251205
O O1 0.405996 0.817889 0.533857
O O2 0.338130 0.851660 0.746084
O O3 0.387075 0.028854 0.652745
O O4 0.436589 0.865895 0.791724
O O5 0.808732 0.914288 0.824572
O O6 0.747238 0.752094 0.752045
O O7 0.841090 0.715108 0.725562
O O8 0.799962 0.724106 0.995568
O O9 0.384795 0.482638 0.666154
O O10 0.330798 0.631091 0.790218
O O11 0.377097 0.500000 0.000000
O O12 0.947498 0.890196 0.479184
O O13 0.938737 0.730158 0.708841
O O14 0.006466 0.722693 0.488351
O O15 0.405044 0.124987 0.930058
O O16 0.481462 0.000000 0.000000
#
# Coordination Sequence:
#
# PCOD8159852 Si02
#       8
#     8   8   8   8   8   4   8   8
#     4  11  23  42  67  99 135 174 219 280 343 407
#     4  11  25  43  67  99 134 178 227 284 343 411
#     4  10  24  48  67  96 143 190 225 286 353 406
#     4  12  24  42  67 101 133 173 232 274 336 413
#     4  10  22  44  70  98 135 177 219 281 352 409
#     4  12  24  44  74 100 134 190 236 280 338 414
#     4  11  25  43  67  99 134 178 227 284 343 411
#     4  11  23  42  67  99 135 174 219 280 343 407
#
# _framework density 21.935922000000001
#
# number of rings (size 3 to 8) (size 9 to 14) (size 15 to 20)
#    0.000    1.067    4.000    2.000    5.600    2.133 
#    0.000    4.000    0.000    0.000    0.000    0.000 
#    0.000    0.000    0.000    0.000    0.000    0.000 
#
# Total GULP energy -371794.535379 kJ/mol
# GULP energy per Si atom -12393.151179 kJ/mol
# Density = 2.188599 g / cm^3
# Si number density = 21.935922 Si / 1000 Ang^3
#
#
#
# Elastic Constant Matrix: (Units=GPa)
#
#
# Indices 1 2 3 4 5 6 
#
# 1 109.4216 39.3113 11.9693 0.0000 0.0000 0.0000
# 2 39.3113 132.8656 10.9790 0.0000 0.0000 0.0000
# 3 11.9693 10.9790 58.7753 0.0000 0.0000 0.0000
# 4 0.0000 0.0000 0.0000 30.5191 0.0000 0.0000
# 5 0.0000 0.0000 0.0000 0.0000 -11.7414 0.0000
# 6 0.0000 0.0000 0.0000 0.0000 0.0000 26.1410
#
#
#
# Elastic Compliance Matrix: (Units=1/GPa)
#
#
# Indices 1 2 3 4 5 6 
#
# 1 0.010365 -0.002938 -0.001562 0.000000 0.000000 0.000000
# 2 -0.002938 0.008477 -0.000985 0.000000 0.000000 0.000000
# 3 -0.001562 -0.000985 0.017516 0.000000 0.000000 0.000000
# 4 0.000000 0.000000 0.000000 0.032766 0.000000 0.000000
# 5 0.000000 0.000000 0.000000 0.000000 -0.085169 0.000000
# 6 0.000000 0.000000 0.000000 0.000000 0.000000 0.038254
#
#
# Mechanical properties :
#
#
# Convention : Reuss Voigt Hill
#
# Bulk Modulus (GPa) = 39.38819 47.28686 43.33753
# Shear Modulus (GPa) = 120.06861 24.90394 72.48628
#
# Velocity S-wave (km/s) = 7.40641 3.37308 5.75468
# Velocity P-wave (km/s) = 9.54646 6.06415 7.99715
#
# Compressibility (1/GPa) = 0.02538832
#
# Stress axis : x y z
#
# Youngs Moduli (GPa) = 96.47618 117.96620 57.09035
#
# Poissons Ratio (x) = 0.34655 0.08918
# Poissons Ratio (y) = 0.28342 0.05625
# Poissons Ratio (z) = 0.15070 0.11622
#
# Static dielectric constant tensor:
#      x y z
#    x 3.584070 0.000000 0.000000 
#    y 0.000000 4.183880 0.000000 
#    z 0.000000 0.000000 4.297600 
# 
# 
# High freq. dielectric constant tensor:
#      x y z
#    x 1.843830 0.000000 0.000000 
#    y 0.000000 1.870590 0.000000 
#    z 0.000000 0.000000 1.885820 
# 
# From -- ./inp_files/11587.got.cif
#   From: 2010.03.12/outbox.cif.g09.slc.cpg/sg20_6_cif.got.tgz:11587.got - 2010.04.14 01:38:04.
