data_PCOD8159453
_publ_section_title
;
Structure prediction by ZEFSAII (Michael W. Deem and Ramdas Pophale) SiO2 
 PCOD8159453
Probable space group: C 2 2 21
;
_chemical_formula_sum "Si O2"
_cell_formula_units_Z 48
_cell_length_a 31.158130
_cell_length_b 8.102873
_cell_length_c 8.831961
_cell_angle_alpha 90.000000
_cell_angle_beta 90.000000
_cell_angle_gamma 90.000000
_cell_volume 2229.808464
_symmetry_space_group_name_H-M "C 2 2 21"
_symmetry_group_IT_number 20
_symmetry_cell_setting 'orthorhombic'
loop_
_space_group_symop_operation_xyz
x,y,z
-x,-y,1/2+z
x,-y,-z
-x,y,1/2-z
1/2+x,1/2+y,z
1/2-x,1/2-y,1/2+z
1/2+x,1/2-y,-z
1/2-x,1/2+y,1/2-z
loop_
_atom_site_type_symbol
_atom_site_label
_atom_site_fract_x
_atom_site_fract_y
_atom_site_fract_z
Si Si1 0.198984 0.411856 0.154477
Si Si2 0.080642 0.000000 0.000000
Si Si3 0.860888 0.155824 0.734166
Si Si4 0.548362 0.733436 0.257067
Si Si5 0.774668 0.041543 0.337553
Si Si6 0.378998 0.980539 0.177071
Si Si7 0.586115 0.500000 0.500000
O O1 0.214314 0.228855 0.130460
O O2 0.237288 0.527329 0.214636
O O3 0.161817 0.371161 0.278603
O O4 0.182532 0.500000 0.000000
O O5 0.110946 0.124764 0.912673
O O6 0.052642 0.891180 0.884528
O O7 0.862494 0.351600 0.745796
O O8 0.882512 0.086635 0.883823
O O9 0.814073 0.076528 0.712470
O O10 0.500000 0.801170 0.250000
O O11 0.556849 0.634809 0.413984
O O12 0.578968 0.894596 0.248997
O O13 0.755069 0.000000 0.500000
O O14 0.386940 0.000000 0.000000
#
# Coordination Sequence:
#
# PCOD8159453 Si02
#       7
#     8   4   8   8   8   8   4
#     4  12  27  44  72 101 143 186 238 297 345 413
#     4  10  23  44  70 104 134 184 228 288 353 418
#     4  11  23  42  71 100 142 183 231 285 341 419
#     4  11  24  46  72 104 139 179 237 294 358 428
#     4  12  25  45  67 105 138 188 239 286 348 410
#     4  12  26  46  67 103 141 189 231 289 362 417
#     4  10  21  42  70 100 138 184 230 278 357 418
#
# _framework density 21.526513000000001
#
# number of rings (size 3 to 8) (size 9 to 14) (size 15 to 20)
#    0.000    0.667    2.500    6.000    3.500    0.000 
#    3.000    0.833    0.000    0.000    0.000    0.000 
#    0.000    0.000    0.000    0.000    0.000    0.000 
#
# Total GULP energy -297453.945106 kJ/mol
# GULP energy per Si atom -12393.914379 kJ/mol
# Density = 2.147752 g / cm^3
# Si number density = 21.526513 Si / 1000 Ang^3
#
#
#
# Elastic Constant Matrix: (Units=GPa)
#
#
# Indices 1 2 3 4 5 6 
#
# 1 137.3978 26.7666 37.6961 0.0000 0.0000 0.0000
# 2 26.7666 96.7528 33.3770 0.0000 0.0000 0.0000
# 3 37.6961 33.3770 108.4826 0.0000 0.0000 0.0000
# 4 0.0000 0.0000 0.0000 28.2496 0.0000 0.0000
# 5 0.0000 0.0000 0.0000 0.0000 21.5301 0.0000
# 6 0.0000 0.0000 0.0000 0.0000 0.0000 21.9706
#
#
#
# Elastic Compliance Matrix: (Units=1/GPa)
#
#
# Indices 1 2 3 4 5 6 
#
# 1 0.008221 -0.001442 -0.002413 0.000000 0.000000 0.000000
# 2 -0.001442 0.011816 -0.003134 0.000000 0.000000 0.000000
# 3 -0.002413 -0.003134 0.011021 0.000000 0.000000 0.000000
# 4 0.000000 0.000000 0.000000 0.035399 0.000000 0.000000
# 5 0.000000 0.000000 0.000000 0.000000 0.046447 0.000000
# 6 0.000000 0.000000 0.000000 0.000000 0.000000 0.045515
#
#
# Mechanical properties :
#
#
# Convention : Reuss Voigt Hill
#
# Bulk Modulus (GPa) = 58.55095 59.81252 59.18174
# Shear Modulus (GPa) = 28.07567 30.66962 29.37265
#
# Velocity S-wave (km/s) = 3.61534 3.77866 3.69790
# Velocity P-wave (km/s) = 6.68476 6.84716 6.76645
#
# Compressibility (1/GPa) = 0.01707914
#
# Stress axis : x y z
#
# Youngs Moduli (GPa) = 121.63846 84.63255 90.73651
#
# Poissons Ratio (x) = 0.12203 0.21895
# Poissons Ratio (y) = 0.17539 0.28440
# Poissons Ratio (z) = 0.29352 0.26527
#
# Static dielectric constant tensor:
#      x y z
#    x 3.841900 0.000000 0.000000 
#    y 0.000000 4.115860 0.000000 
#    z 0.000000 0.000000 5.044580 
# 
# 
# High freq. dielectric constant tensor:
#      x y z
#    x 1.839630 0.000000 0.000000 
#    y 0.000000 1.858190 0.000000 
#    z 0.000000 0.000000 1.861970 
# 
# From -- ./inp_files/11521.got.cif
#   From: 2010.03.12/outbox.cif.g09.slc.cpg/sg20_6_cif.got.tgz:11521.got - 2010.04.14 01:38:04.
