data_PCOD8159385
_publ_section_title
;
Structure prediction by ZEFSAII (Michael W. Deem and Ramdas Pophale) SiO2 
 PCOD8159385
Probable space group: C 2 2 21
;
_chemical_formula_sum "Si O2"
_cell_formula_units_Z 56
_cell_length_a 20.471982
_cell_length_b 7.754663
_cell_length_c 16.777646
_cell_angle_alpha 90.000000
_cell_angle_beta 90.000000
_cell_angle_gamma 90.000000
_cell_volume 2663.507027
_symmetry_space_group_name_H-M "C 2 2 21"
_symmetry_group_IT_number 20
_symmetry_cell_setting 'orthorhombic'
loop_
_space_group_symop_operation_xyz
x,y,z
-x,-y,1/2+z
x,-y,-z
-x,y,1/2-z
1/2+x,1/2+y,z
1/2-x,1/2-y,1/2+z
1/2+x,1/2-y,-z
1/2-x,1/2+y,1/2-z
loop_
_atom_site_type_symbol
_atom_site_label
_atom_site_fract_x
_atom_site_fract_y
_atom_site_fract_z
Si Si1 0.367617 0.458496 0.416042
Si Si2 0.274465 0.242860 0.619607
Si Si3 0.676367 0.903891 0.861478
Si Si4 0.805019 0.242934 0.200396
Si Si5 0.343339 0.048216 0.090825
Si Si6 0.928543 0.355308 0.774439
Si Si7 0.928463 0.037259 0.253345
O O1 0.402696 0.500000 0.500000
O O2 0.303879 0.576875 0.409628
O O3 0.346236 0.258486 0.413908
O O4 0.415924 0.512443 0.346753
O O5 0.281339 0.198085 0.713027
O O6 0.198551 0.271941 0.595644
O O7 0.314395 0.077288 0.583414
O O8 0.749962 0.887481 0.828840
O O9 0.624777 0.926647 0.788731
O O10 0.804868 0.397881 0.137379
O O11 0.876063 0.153534 0.207198
O O12 0.411549 0.073526 0.137660
O O13 0.358877 0.000000 0.000000
O O14 0.928142 0.150470 0.785438
O O15 0.000000 0.423748 0.750000
O O16 0.000000 0.124852 0.250000
#
# Coordination Sequence:
#
# PCOD8159385 Si02
#       7
#     8   8   8   8   8   8   8
#     4  10  22  39  59  95 132 161 206 278 328 370
#     4  11  20  37  62  92 125 169 213 255 322 401
#     4  11  21  37  65  92 122 175 221 256 322 407
#     4  11  20  37  63  91 126 170 213 266 324 396
#     4  12  24  40  63  98 138 167 215 293 343 379
#     4  10  21  41  66  89 128 177 229 270 324 407
#     4   9  21  41  68  92 120 176 230 261 318 412
#
# _framework density 21.024912
#
# number of rings (size 3 to 8) (size 9 to 14) (size 15 to 20)
#    0.000    1.429    4.286    1.286    2.000    1.143 
#    0.000    6.429    0.000    0.000    0.000    0.000 
#    0.000    0.000    0.000    0.000    0.000    0.000 
#
# Total GULP energy -346964.819841 kJ/mol
# GULP energy per Si atom -12391.600709 kJ/mol
# Density = 2.097706 g / cm^3
# Si number density = 21.024912 Si / 1000 Ang^3
#
#
#
# Elastic Constant Matrix: (Units=GPa)
#
#
# Indices 1 2 3 4 5 6 
#
# 1 146.0040 37.0245 43.0953 0.0000 0.0000 0.0000
# 2 37.0245 98.4886 48.8695 0.0000 0.0000 0.0000
# 3 43.0953 48.8695 117.9328 0.0000 0.0000 0.0000
# 4 0.0000 0.0000 0.0000 24.6353 0.0000 0.0000
# 5 0.0000 0.0000 0.0000 0.0000 3.1770 0.0000
# 6 0.0000 0.0000 0.0000 0.0000 0.0000 25.2798
#
#
#
# Elastic Compliance Matrix: (Units=1/GPa)
#
#
# Indices 1 2 3 4 5 6 
#
# 1 0.007964 -0.001951 -0.002102 0.000000 0.000000 0.000000
# 2 -0.001951 0.013260 -0.004782 0.000000 0.000000 0.000000
# 3 -0.002102 -0.004782 0.011229 0.000000 0.000000 0.000000
# 4 0.000000 0.000000 0.000000 0.040592 0.000000 0.000000
# 5 0.000000 0.000000 0.000000 0.000000 0.314759 0.000000
# 6 0.000000 0.000000 0.000000 0.000000 0.000000 0.039557
#
#
# Mechanical properties :
#
#
# Convention : Reuss Voigt Hill
#
# Bulk Modulus (GPa) = 67.64198 68.93377 68.28788
# Shear Modulus (GPa) = 11.11216 26.18084 18.64650
#
# Velocity S-wave (km/s) = 2.30146 3.53261 2.98128
# Velocity P-wave (km/s) = 6.26932 7.03541 6.66339
#
# Compressibility (1/GPa) = 0.01478372
#
# Stress axis : x y z
#
# Youngs Moduli (GPa) = 125.56067 75.41758 89.05611
#
# Poissons Ratio (x) = 0.14714 0.18718
# Poissons Ratio (y) = 0.24498 0.42583
# Poissons Ratio (z) = 0.26391 0.36061
#
# Static dielectric constant tensor:
#      x y z
#    x 3.829770 0.000000 0.000000 
#    y 0.000000 4.106240 0.000000 
#    z 0.000000 0.000000 3.757070 
# 
# 
# High freq. dielectric constant tensor:
#      x y z
#    x 1.810210 0.000000 0.000000 
#    y 0.000000 1.836360 0.000000 
#    z 0.000000 0.000000 1.803970 
# 
# From -- ./inp_files/21751.got.cif
#   From: 2010.03.12/outbox.cif.g09.slc.cpg/sg20_11_cif.got.tgz:21751.got - 2010.04.14 01:38:04.
