data_PCOD8159354
_publ_section_title
;
Structure prediction by ZEFSAII (Michael W. Deem and Ramdas Pophale) SiO2 
 PCOD8159354
Probable space group: C 2 2 21
;
_chemical_formula_sum "Si O2"
_cell_formula_units_Z 52
_cell_length_a 19.386720
_cell_length_b 9.500481
_cell_length_c 13.463265
_cell_angle_alpha 90.000000
_cell_angle_beta 90.000000
_cell_angle_gamma 90.000000
_cell_volume 2479.706759
_symmetry_space_group_name_H-M "C 2 2 21"
_symmetry_group_IT_number 20
_symmetry_cell_setting 'orthorhombic'
loop_
_space_group_symop_operation_xyz
x,y,z
-x,-y,1/2+z
x,-y,-z
-x,y,1/2-z
1/2+x,1/2+y,z
1/2-x,1/2-y,1/2+z
1/2+x,1/2-y,-z
1/2-x,1/2+y,1/2-z
loop_
_atom_site_type_symbol
_atom_site_label
_atom_site_fract_x
_atom_site_fract_y
_atom_site_fract_z
Si Si1 0.636628 0.792208 0.002889
Si Si2 0.694296 0.847695 0.786850
Si Si3 0.059703 0.635444 0.324111
Si Si4 0.525444 0.545403 0.646384
Si Si5 0.512871 0.000000 0.000000
Si Si6 0.241583 0.114217 0.636676
Si Si7 0.133127 0.000000 0.500000
Si Si8 0.409800 0.500000 0.500000
O O1 0.661803 0.790835 0.889116
O O2 0.562108 0.865098 0.018471
O O3 0.687491 0.870406 0.077342
O O4 0.635543 0.629976 0.039208
O O5 0.632985 0.913316 0.720501
O O6 0.730966 0.726010 0.723448
O O7 0.753381 0.962577 0.809723
O O8 0.062177 0.803564 0.342106
O O9 0.000000 0.596240 0.250000
O O10 0.042645 0.538664 0.417002
O O11 0.500000 0.477817 0.750000
O O12 0.580557 0.444435 0.587648
O O13 0.455584 0.568378 0.586193
O O14 0.181045 0.117899 0.552591
#
# Coordination Sequence:
#
# PCOD8159354 Si02
#       8
#     8   8   8   8   4   8   4   4
#     4  12  23  46  70  94 140 177 226 285 345 409
#     4  12  25  46  70  98 137 186 229 283 346 415
#     4  11  20  40  70  95 129 175 224 277 346 408
#     4  10  21  40  68  98 130 172 223 282 345 401
#     4  12  21  42  72  92 131 180 218 280 348 404
#     4  12  26  46  69 100 138 188 232 278 347 414
#     4  11  21  42  70  92 141 183 216 284 346 409
#     4  11  24  38  68 106 124 171 228 280 338 411
#
# _framework density 20.970223000000001
#
# number of rings (size 3 to 8) (size 9 to 14) (size 15 to 20)
#    0.000    0.615    7.692    0.923    2.154    0.000 
#    5.538    2.308    0.000    0.000    0.000    0.000 
#    0.000    0.000    0.000    0.000    0.000    0.000 
#
# Total GULP energy -322209.421634 kJ/mol
# GULP energy per Si atom -12392.670063 kJ/mol
# Density = 2.092249 g / cm^3
# Si number density = 20.970223 Si / 1000 Ang^3
#
#
#
# Elastic Constant Matrix: (Units=GPa)
#
#
# Indices 1 2 3 4 5 6 
#
# 1 85.4759 23.4067 49.8936 0.0000 0.0000 0.0000
# 2 23.4067 96.3089 40.8111 0.0000 0.0000 0.0000
# 3 49.8936 40.8111 118.4947 0.0000 0.0000 0.0000
# 4 0.0000 0.0000 0.0000 36.9921 0.0000 0.0000
# 5 0.0000 0.0000 0.0000 0.0000 38.3480 0.0000
# 6 0.0000 0.0000 0.0000 0.0000 0.0000 21.8758
#
#
#
# Elastic Compliance Matrix: (Units=1/GPa)
#
#
# Indices 1 2 3 4 5 6 
#
# 1 0.015626 -0.001182 -0.006172 0.000000 0.000000 0.000000
# 2 -0.001182 0.012247 -0.003720 0.000000 0.000000 0.000000
# 3 -0.006172 -0.003720 0.012319 0.000000 0.000000 0.000000
# 4 0.000000 0.000000 0.000000 0.027033 0.000000 0.000000
# 5 0.000000 0.000000 0.000000 0.000000 0.026077 0.000000
# 6 0.000000 0.000000 0.000000 0.000000 0.000000 0.045713
#
#
# Mechanical properties :
#
#
# Convention : Reuss Voigt Hill
#
# Bulk Modulus (GPa) = 55.42364 58.72247 57.07305
# Shear Modulus (GPa) = 29.90820 31.85439 30.88129
#
# Velocity S-wave (km/s) = 3.78063 3.90170 3.84164
# Velocity P-wave (km/s) = 6.74868 6.95423 6.85222
#
# Compressibility (1/GPa) = 0.01804284
#
# Stress axis : x y z
#
# Youngs Moduli (GPa) = 63.99680 81.65247 81.17262
#
# Poissons Ratio (x) = 0.09652 0.50102
# Poissons Ratio (y) = 0.07565 0.30198
# Poissons Ratio (z) = 0.39501 0.30377
#
# Static dielectric constant tensor:
#      x y z
#    x 3.901990 0.000000 0.000000 
#    y 0.000000 3.517990 0.000000 
#    z 0.000000 0.000000 4.046260 
# 
# 
# High freq. dielectric constant tensor:
#      x y z
#    x 1.831280 0.000000 0.000000 
#    y 0.000000 1.790990 0.000000 
#    z 0.000000 0.000000 1.833850 
# 
# From -- ./inp_files/21735.got.cif
#   From: 2010.03.12/outbox.cif.g09.slc.cpg/sg20_11_cif.got.tgz:21735.got - 2010.04.14 01:38:04.
