data_PCOD8159851
_publ_section_title
;
Structure prediction by ZEFSAII (Michael W. Deem and Ramdas Pophale) SiO2 
 PCOD8159851
Probable space group: C 2 2 21
;
_chemical_formula_sum "Si O2"
_cell_formula_units_Z 56
_cell_length_a 18.278574
_cell_length_b 15.349073
_cell_length_c 8.833699
_cell_angle_alpha 90.000000
_cell_angle_beta 90.000000
_cell_angle_gamma 90.000000
_cell_volume 2478.375230
_symmetry_space_group_name_H-M "C 2 2 21"
_symmetry_group_IT_number 20
_symmetry_cell_setting 'orthorhombic'
loop_
_space_group_symop_operation_xyz
x,y,z
-x,-y,1/2+z
x,-y,-z
-x,y,1/2-z
1/2+x,1/2+y,z
1/2-x,1/2-y,1/2+z
1/2+x,1/2-y,-z
1/2-x,1/2+y,1/2-z
loop_
_atom_site_type_symbol
_atom_site_label
_atom_site_fract_x
_atom_site_fract_y
_atom_site_fract_z
Si Si1 0.735329 0.032440 0.725362
Si Si2 0.973524 0.645585 0.589664
Si Si3 0.870298 0.500000 0.500000
Si Si4 0.114685 0.810638 0.799551
Si Si5 0.000000 0.864487 0.250000
Si Si6 0.597312 0.247519 0.467089
Si Si7 0.887709 0.000727 0.664711
Si Si8 0.732686 0.856896 0.556448
O O1 0.727206 0.120871 0.624480
O O2 0.680700 0.033407 0.865260
O O3 0.821036 0.025170 0.779129
O O4 0.713233 0.945278 0.639987
O O5 0.923799 0.583387 0.484414
O O6 0.935873 0.739592 0.618620
O O7 0.000000 0.602969 0.750000
O O8 0.046164 0.663740 0.494209
O O9 0.122635 0.791995 0.622656
O O10 0.077261 0.906315 0.803348
O O11 0.191053 0.815043 0.889909
O O12 0.945558 0.811059 0.145030
O O13 0.950231 0.927350 0.351613
O O14 0.672096 0.213630 0.392744
O O15 0.847043 0.000000 0.500000
#
# Coordination Sequence:
#
# PCOD8159851 Si02
#       8
#     8   8   4   8   4   8   8   8
#     4  10  22  44  70 105 134 194 247 298 371 436
#     4  10  24  45  69 103 144 191 244 300 378 448
#     4  12  26  42  76 108 144 190 250 318 368 442
#     4  10  22  44  75  97 139 197 245 296 365 449
#     4  12  30  38  70 104 146 180 236 312 374 452
#     4  11  26  43  64 109 141 184 248 301 373 449
#     4  11  23  45  67  97 139 184 231 296 367 433
#     4  10  22  45  72  98 147 193 244 307 369 446
#
# _framework density 22.595448000000001
#
# number of rings (size 3 to 8) (size 9 to 14) (size 15 to 20)
#    0.000    1.429    2.857    2.571    7.000    9.143 
#    0.000    0.000    0.000    0.000    0.000    0.000 
#    0.000    0.000    0.000    0.000    0.000    0.000 
#
# Total GULP energy -346954.106100 kJ/mol
# GULP energy per Si atom -12391.218075 kJ/mol
# Density = 2.254402 g / cm^3
# Si number density = 22.595448 Si / 1000 Ang^3
#
#
#
# Elastic Constant Matrix: (Units=GPa)
#
#
# Indices 1 2 3 4 5 6 
#
# 1 126.2357 48.2109 46.6757 0.0000 0.0000 0.0000
# 2 48.2109 98.2692 22.9274 0.0000 0.0000 0.0000
# 3 46.6757 22.9274 77.5933 0.0000 0.0000 0.0000
# 4 0.0000 0.0000 0.0000 23.4117 0.0000 0.0000
# 5 0.0000 0.0000 0.0000 0.0000 31.4241 0.0000
# 6 0.0000 0.0000 0.0000 0.0000 0.0000 46.6880
#
#
#
# Elastic Compliance Matrix: (Units=1/GPa)
#
#
# Indices 1 2 3 4 5 6 
#
# 1 0.011736 -0.004415 -0.005755 0.000000 0.000000 0.000000
# 2 -0.004415 0.012590 -0.001065 0.000000 0.000000 0.000000
# 3 -0.005755 -0.001065 0.016664 0.000000 0.000000 0.000000
# 4 0.000000 0.000000 0.000000 0.042714 0.000000 0.000000
# 5 0.000000 0.000000 0.000000 0.000000 0.031823 0.000000
# 6 0.000000 0.000000 0.000000 0.000000 0.000000 0.021419
#
#
# Mechanical properties :
#
#
# Convention : Reuss Voigt Hill
#
# Bulk Modulus (GPa) = 53.99128 59.74735 56.86932
# Shear Modulus (GPa) = 30.19543 32.59038 31.39290
#
# Velocity S-wave (km/s) = 3.65958 3.80194 3.73144
# Velocity P-wave (km/s) = 6.46555 6.76554 6.61725
#
# Compressibility (1/GPa) = 0.01852151
#
# Stress axis : x y z
#
# Youngs Moduli (GPa) = 85.21021 79.42560 60.00901
#
# Poissons Ratio (x) = 0.35065 0.34535
# Poissons Ratio (y) = 0.37619 0.06388
# Poissons Ratio (z) = 0.49039 0.08455
#
# Static dielectric constant tensor:
#      x y z
#    x 4.267500 0.000000 0.000000 
#    y 0.000000 4.134380 0.000000 
#    z 0.000000 0.000000 4.025870 
# 
# 
# High freq. dielectric constant tensor:
#      x y z
#    x 1.910370 0.000000 0.000000 
#    y 0.000000 1.892700 0.000000 
#    z 0.000000 0.000000 1.869480 
# 
# From -- ./inp_files/10266.got.cif
#   From: 2010.03.12/outbox.cif.g09.slc.cpg/sg20_6_cif.got.tgz:10266.got - 2010.04.14 01:38:04.
