data_PCOD8159728
_publ_section_title
;
Structure prediction by ZEFSAII (Michael W. Deem and Ramdas Pophale) SiO2 
 PCOD8159728
Probable space group: C 2 2 21
;
_chemical_formula_sum "Si O2"
_cell_formula_units_Z 56
_cell_length_a 18.934328
_cell_length_b 9.540838
_cell_length_c 14.294754
_cell_angle_alpha 90.000000
_cell_angle_beta 90.000000
_cell_angle_gamma 90.000000
_cell_volume 2582.338106
_symmetry_space_group_name_H-M "C 2 2 21"
_symmetry_group_IT_number 20
_symmetry_cell_setting 'orthorhombic'
loop_
_space_group_symop_operation_xyz
x,y,z
-x,-y,1/2+z
x,-y,-z
-x,y,1/2-z
1/2+x,1/2+y,z
1/2-x,1/2-y,1/2+z
1/2+x,1/2-y,-z
1/2-x,1/2+y,1/2-z
loop_
_atom_site_type_symbol
_atom_site_label
_atom_site_fract_x
_atom_site_fract_y
_atom_site_fract_z
Si Si1 0.256401 0.310270 0.347862
Si Si2 0.948062 0.273959 0.836694
Si Si3 0.346474 0.657017 0.472693
Si Si4 0.562822 0.463527 0.677300
Si Si5 0.698847 0.406225 0.775611
Si Si6 0.999783 0.751781 0.957765
Si Si7 0.613149 0.954441 0.397693
O O1 0.299723 0.279852 0.443004
O O2 0.292028 0.427638 0.283398
O O3 0.258791 0.167199 0.287709
O O4 0.175386 0.355042 0.362693
O O5 0.893805 0.405140 0.834218
O O6 0.000000 0.290340 0.750000
O O7 0.909711 0.122974 0.836604
O O8 0.990802 0.276942 0.933109
O O9 0.371110 0.500000 0.500000
O O10 0.298122 0.657300 0.380268
O O11 0.415586 0.747276 0.446366
O O12 0.500000 0.462296 0.750000
O O13 0.625180 0.374530 0.723706
O O14 0.536161 0.395921 0.579567
O O15 0.962504 0.626396 0.899171
O O16 0.637375 0.000000 0.500000
#
# Coordination Sequence:
#
# PCOD8159728 Si02
#       7
#     8   8   8   8   8   8   8
#     4  11  25  44  65  95 138 177 223 271 341 404
#     4  10  24  36  61  99 134 171 216 281 338 391
#     4  10  22  41  70  93 131 179 218 284 339 396
#     4  11  21  39  67 100 124 167 231 279 329 390
#     4  11  24  42  67  97 127 181 226 269 336 407
#     4  11  21  41  67  98 128 169 229 277 330 395
#     4  10  22  42  63  91 131 180 213 268 341 402
#
# _framework density 21.685773999999999
#
# number of rings (size 3 to 8) (size 9 to 14) (size 15 to 20)
#    0.000    1.429    2.857    2.571    8.000    1.714 
#    0.000    3.571    0.000    0.000    0.000    0.000 
#    0.000    0.000    0.000    0.000    0.000    0.000 
#
# Total GULP energy -347040.788852 kJ/mol
# GULP energy per Si atom -12394.313888 kJ/mol
# Density = 2.163642 g / cm^3
# Si number density = 21.685774 Si / 1000 Ang^3
#
#
#
# Elastic Constant Matrix: (Units=GPa)
#
#
# Indices 1 2 3 4 5 6 
#
# 1 89.1882 32.8862 41.9370 0.0000 0.0000 0.0000
# 2 32.8862 75.7983 41.1207 0.0000 0.0000 0.0000
# 3 41.9370 41.1207 101.0175 0.0000 0.0000 0.0000
# 4 0.0000 0.0000 0.0000 37.2438 0.0000 0.0000
# 5 0.0000 0.0000 0.0000 0.0000 31.4159 0.0000
# 6 0.0000 0.0000 0.0000 0.0000 0.0000 32.9210
#
#
#
# Elastic Compliance Matrix: (Units=1/GPa)
#
#
# Indices 1 2 3 4 5 6 
#
# 1 0.014805 -0.003965 -0.004533 0.000000 0.000000 0.000000
# 2 -0.003965 0.017994 -0.005679 0.000000 0.000000 0.000000
# 3 -0.004533 -0.005679 0.014093 0.000000 0.000000 0.000000
# 4 0.000000 0.000000 0.000000 0.026850 0.000000 0.000000
# 5 0.000000 0.000000 0.000000 0.000000 0.031831 0.000000
# 6 0.000000 0.000000 0.000000 0.000000 0.000000 0.030376
#
#
# Mechanical properties :
#
#
# Convention : Reuss Voigt Hill
#
# Bulk Modulus (GPa) = 53.93774 55.32132 54.62953
# Shear Modulus (GPa) = 29.32891 30.32014 29.82453
#
# Velocity S-wave (km/s) = 3.68156 3.74325 3.71253
# Velocity P-wave (km/s) = 6.55730 6.65195 6.60479
#
# Compressibility (1/GPa) = 0.01853990
#
# Stress axis : x y z
#
# Youngs Moduli (GPa) = 67.54324 55.57487 70.95948
#
# Poissons Ratio (x) = 0.22033 0.32163
# Poissons Ratio (y) = 0.26778 0.40296
# Poissons Ratio (z) = 0.30614 0.31560
#
# Static dielectric constant tensor:
#      x y z
#    x 3.738240 0.000000 0.000000 
#    y 0.000000 4.136680 0.000000 
#    z 0.000000 0.000000 3.879890 
# 
# 
# High freq. dielectric constant tensor:
#      x y z
#    x 1.841480 0.000000 0.000000 
#    y 0.000000 1.843230 0.000000 
#    z 0.000000 0.000000 1.858620 
# 
# From -- ./inp_files/21790.got.cif
#   From: 2010.03.12/outbox.cif.g09.slc.cpg/sg20_11_cif.got.tgz:21790.got - 2010.04.14 01:38:04.
