data_PCOD8159263
_publ_section_title
;
Structure prediction by ZEFSAII (Michael W. Deem and Ramdas Pophale) SiO2 
 PCOD8159263
Probable space group: C 2 2 21
;
_chemical_formula_sum "Si O2"
_cell_formula_units_Z 60
_cell_length_a 8.386165
_cell_length_b 11.870408
_cell_length_c 29.204086
_cell_angle_alpha 90.000000
_cell_angle_beta 90.000000
_cell_angle_gamma 90.000000
_cell_volume 2907.184993
_symmetry_space_group_name_H-M "C 2 2 21"
_symmetry_group_IT_number 20
_symmetry_cell_setting 'orthorhombic'
loop_
_space_group_symop_operation_xyz
x,y,z
-x,-y,1/2+z
x,-y,-z
-x,y,1/2-z
1/2+x,1/2+y,z
1/2-x,1/2-y,1/2+z
1/2+x,1/2-y,-z
1/2-x,1/2+y,1/2-z
loop_
_atom_site_type_symbol
_atom_site_label
_atom_site_fract_x
_atom_site_fract_y
_atom_site_fract_z
Si Si1 0.924365 0.963804 0.669819
Si Si2 0.400617 0.788711 0.341315
Si Si3 0.118206 0.543090 0.714307
Si Si4 0.340530 0.653684 0.490560
Si Si5 0.166049 0.624702 0.939225
Si Si6 0.487516 0.530723 0.569215
Si Si7 0.134797 0.144273 0.720256
Si Si8 0.558725 0.000000 0.500000
O O1 0.741360 0.962425 0.688039
O O2 0.921104 0.022797 0.620452
O O3 0.047633 0.029255 0.702820
O O4 0.978336 0.833751 0.667483
O O5 0.513188 0.884957 0.320943
O O6 0.393846 0.808412 0.395215
O O7 0.217125 0.791350 0.322161
O O8 0.220268 0.627443 0.745103
O O9 0.000000 0.476943 0.750000
O O10 0.326222 0.785595 0.480762
O O11 0.393903 0.631453 0.543109
O O12 0.463878 0.587861 0.457244
O O13 0.164508 0.604509 0.483097
O O14 0.327500 0.559447 0.929172
O O15 0.043452 0.529704 0.955203
O O16 0.000000 0.212341 0.750000
#
# Coordination Sequence:
#
# PCOD8159263 Si02
#       8
#     8   8   8   8   8   8   8   4
#     4  11  21  41  65  90 123 164 200 254 307 369
#     4  11  23  37  65  93 124 158 206 250 303 361
#     4   9  22  40  61  91 123 157 203 255 302 366
#     4  10  23  42  60  88 123 162 201 256 304 355
#     4  12  22  40  63  91 123 165 205 252 301 361
#     4  10  21  39  63  88 125 159 203 246 307 365
#     4   9  20  41  63  87 122 157 199 250 307 364
#     4  10  24  38  62  86 122 162 204 248 302 360
#
# _framework density 20.638521000000001
#
# number of rings (size 3 to 8) (size 9 to 14) (size 15 to 20)
#    0.000    1.867    2.667    1.600    3.733    5.333 
#    0.000    5.333    0.000    0.000    0.000    0.000 
#    0.000    0.000    0.000    0.000    0.000    0.000 
#
# Total GULP energy -371810.214993 kJ/mol
# GULP energy per Si atom -12393.673833 kJ/mol
# Density = 2.059155 g / cm^3
# Si number density = 20.638521 Si / 1000 Ang^3
#
#
#
# Elastic Constant Matrix: (Units=GPa)
#
#
# Indices 1 2 3 4 5 6 
#
# 1 94.9553 24.0975 23.4948 0.0000 0.0000 0.0000
# 2 24.0975 56.4902 20.4252 0.0000 0.0000 0.0000
# 3 23.4948 20.4252 89.3025 0.0000 0.0000 0.0000
# 4 0.0000 0.0000 0.0000 19.7144 0.0000 0.0000
# 5 0.0000 0.0000 0.0000 0.0000 22.7556 0.0000
# 6 0.0000 0.0000 0.0000 0.0000 0.0000 19.6936
#
#
#
# Elastic Compliance Matrix: (Units=1/GPa)
#
#
# Indices 1 2 3 4 5 6 
#
# 1 0.012194 -0.004406 -0.002200 0.000000 0.000000 0.000000
# 2 -0.004406 0.020890 -0.003619 0.000000 0.000000 0.000000
# 3 -0.002200 -0.003619 0.012604 0.000000 0.000000 0.000000
# 4 0.000000 0.000000 0.000000 0.050724 0.000000 0.000000
# 5 0.000000 0.000000 0.000000 0.000000 0.043945 0.000000
# 6 0.000000 0.000000 0.000000 0.000000 0.000000 0.050778
#
#
# Mechanical properties :
#
#
# Convention : Reuss Voigt Hill
#
# Bulk Modulus (GPa) = 39.62263 41.86479 40.74371
# Shear Modulus (GPa) = 22.72738 23.94810 23.33774
#
# Velocity S-wave (km/s) = 3.32205 3.41010 3.36636
# Velocity P-wave (km/s) = 5.82707 5.98614 5.90714
#
# Compressibility (1/GPa) = 0.02523810
#
# Stress axis : x y z
#
# Youngs Moduli (GPa) = 82.00846 47.86942 79.33691
#
# Poissons Ratio (x) = 0.21092 0.17457
# Poissons Ratio (y) = 0.36133 0.28710
# Poissons Ratio (z) = 0.18045 0.17323
#
# Static dielectric constant tensor:
#      x y z
#    x 3.943820 0.000000 0.000000 
#    y 0.000000 3.369530 0.000000 
#    z 0.000000 0.000000 4.044520 
# 
# 
# High freq. dielectric constant tensor:
#      x y z
#    x 1.816760 0.000000 0.000000 
#    y 0.000000 1.778150 0.000000 
#    z 0.000000 0.000000 1.818800 
# 
# From -- ./inp_files/31052.got.cif
#   From: 2010.03.12/outbox.cif.g09.slc.cpg/sg20_16_cif.got.tgz:31052.got - 2010.04.14 01:38:04.
