data_PCOD8159910
_publ_section_title
;
Structure prediction by ZEFSAII (Michael W. Deem and Ramdas Pophale) SiO2 
 PCOD8159910
Probable space group: C 2 2 21
;
_chemical_formula_sum "Si O2"
_cell_formula_units_Z 60
_cell_length_a 6.335526
_cell_length_b 19.165808
_cell_length_c 21.658435
_cell_angle_alpha 90.000000
_cell_angle_beta 90.000000
_cell_angle_gamma 90.000000
_cell_volume 2629.885755
_symmetry_space_group_name_H-M "C 2 2 21"
_symmetry_group_IT_number 20
_symmetry_cell_setting 'orthorhombic'
loop_
_space_group_symop_operation_xyz
x,y,z
-x,-y,1/2+z
x,-y,-z
-x,y,1/2-z
1/2+x,1/2+y,z
1/2-x,1/2-y,1/2+z
1/2+x,1/2-y,-z
1/2-x,1/2+y,1/2-z
loop_
_atom_site_type_symbol
_atom_site_label
_atom_site_fract_x
_atom_site_fract_y
_atom_site_fract_z
Si Si1 0.135012 0.830849 0.457874
Si Si2 0.090239 0.563328 0.893608
Si Si3 0.183361 0.560414 0.375980
Si Si4 0.471902 0.520961 0.817485
Si Si5 0.296292 0.350138 0.357139
Si Si6 0.385699 0.308405 0.578373
Si Si7 0.500000 0.112146 0.250000
Si Si8 0.844901 0.215119 0.197991
O O1 0.268923 0.902408 0.448078
O O2 0.269717 0.764002 0.436126
O O3 0.917815 0.838136 0.421011
O O4 0.067236 0.824380 0.528574
O O5 0.232262 0.535343 0.836883
O O6 0.952863 0.496282 0.915429
O O7 0.942492 0.626144 0.870098
O O8 0.419001 0.529441 0.367726
O O9 0.204509 0.631491 0.415820
O O10 0.080005 0.567276 0.308074
O O11 0.500000 0.486169 0.750000
O O12 0.592107 0.594385 0.813526
O O13 0.305964 0.277653 0.321530
O O14 0.509730 0.310545 0.642235
O O15 0.697940 0.154872 0.224401
O O16 0.000000 0.243550 0.250000
#
# Coordination Sequence:
#
# PCOD8159910 Si02
#       8
#     8   8   8   8   8   8   4   8
#     4  11  25  50  75 104 141 197 251 314 372 452
#     4  10  23  47  70 101 145 192 248 302 369 447
#     4  11  25  44  70 107 144 193 243 305 372 449
#     4  10  23  39  68 101 145 191 239 293 367 445
#     4  10  23  42  68 102 140 187 250 296 363 438
#     4  12  26  48  78 104 146 190 251 313 380 437
#     4  12  26  44  72 104 156 192 236 308 382 458
#     4  12  26  42  69 110 146 185 244 304 375 454
#
# _framework density 22.814681
#
# number of rings (size 3 to 8) (size 9 to 14) (size 15 to 20)
#    0.000    1.067    2.667    2.400    6.533    1.067 
#    0.000    7.333    0.000    0.000    0.000    0.000 
#    0.000    0.000    0.000    0.000    0.000    0.000 
#
# Total GULP energy -371976.796383 kJ/mol
# GULP energy per Si atom -12399.226546 kJ/mol
# Density = 2.276275 g / cm^3
# Si number density = 22.814681 Si / 1000 Ang^3
#
#
#
# Elastic Constant Matrix: (Units=GPa)
#
#
# Indices 1 2 3 4 5 6 
#
# 1 114.6141 40.0646 39.9441 0.0000 0.0000 0.0000
# 2 40.0646 125.3510 33.0662 0.0000 0.0000 0.0000
# 3 39.9441 33.0662 92.4523 0.0000 0.0000 0.0000
# 4 0.0000 0.0000 0.0000 22.7363 0.0000 0.0000
# 5 0.0000 0.0000 0.0000 0.0000 39.9785 0.0000
# 6 0.0000 0.0000 0.0000 0.0000 0.0000 33.9753
#
#
#
# Elastic Compliance Matrix: (Units=1/GPa)
#
#
# Indices 1 2 3 4 5 6 
#
# 1 0.010929 -0.002482 -0.003834 0.000000 0.000000 0.000000
# 2 -0.002482 0.009372 -0.002280 0.000000 0.000000 0.000000
# 3 -0.003834 -0.002280 0.013288 0.000000 0.000000 0.000000
# 4 0.000000 0.000000 0.000000 0.043982 0.000000 0.000000
# 5 0.000000 0.000000 0.000000 0.000000 0.025013 0.000000
# 6 0.000000 0.000000 0.000000 0.000000 0.000000 0.029433
#
#
# Mechanical properties :
#
#
# Convention : Reuss Voigt Hill
#
# Bulk Modulus (GPa) = 60.98331 62.06304 61.52317
# Shear Modulus (GPa) = 32.32576 33.96087 33.14332
#
# Velocity S-wave (km/s) = 3.76824 3.86236 3.81559
# Velocity P-wave (km/s) = 6.76171 6.86678 6.81444
#
# Compressibility (1/GPa) = 0.01639793
#
# Stress axis : x y z
#
# Youngs Moduli (GPa) = 91.50262 106.69899 75.25389
#
# Poissons Ratio (x) = 0.26478 0.28854
# Poissons Ratio (y) = 0.22707 0.17157
# Poissons Ratio (z) = 0.35084 0.24326
#
# Static dielectric constant tensor:
#      x y z
#    x 4.303050 0.000000 0.000000 
#    y 0.000000 4.247780 0.000000 
#    z 0.000000 0.000000 3.844300 
# 
# 
# High freq. dielectric constant tensor:
#      x y z
#    x 1.917020 0.000000 0.000000 
#    y 0.000000 1.914400 0.000000 
#    z 0.000000 0.000000 1.880280 
# 
# From -- ./inp_files/28479.got.cif
#   From: 2010.03.12/outbox.cif.g09.slc.cpg/sg20_15_cif.got.tgz:28479.got - 2010.04.14 01:38:04.
