data_PCOD8159499
_publ_section_title
;
Structure prediction by ZEFSAII (Michael W. Deem and Ramdas Pophale) SiO2 
 PCOD8159499
Probable space group: C 2 2 21
;
_chemical_formula_sum "Si O2"
_cell_formula_units_Z 24
_cell_length_a 12.640330
_cell_length_b 15.607705
_cell_length_c 5.227818
_cell_angle_alpha 90.000000
_cell_angle_beta 90.000000
_cell_angle_gamma 90.000000
_cell_volume 1031.378134
_symmetry_space_group_name_H-M "C 2 2 21"
_symmetry_group_IT_number 20
_symmetry_cell_setting 'orthorhombic'
loop_
_space_group_symop_operation_xyz
x,y,z
-x,-y,1/2+z
x,-y,-z
-x,y,1/2-z
1/2+x,1/2+y,z
1/2-x,1/2-y,1/2+z
1/2+x,1/2-y,-z
1/2-x,1/2+y,1/2-z
loop_
_atom_site_type_symbol
_atom_site_label
_atom_site_fract_x
_atom_site_fract_y
_atom_site_fract_z
Si Si1 0.000000 0.142217 0.750000
Si Si2 0.129493 0.000000 0.500000
Si Si3 0.815522 0.264108 0.662739
Si Si4 0.666875 0.043032 0.247431
O O1 0.056024 0.082250 0.541769
O O2 0.086103 0.201673 0.890756
O O3 0.206125 0.023771 0.260858
O O4 0.753309 0.274918 0.395763
O O5 0.857286 0.356417 0.751936
O O6 0.618620 0.000000 0.500000
O O7 0.610820 0.000000 0.000000
#
# Coordination Sequence:
#
# PCOD8159499 Si02
#       4
#     4   4   8   8
#     4  12  26  42  74 108 138 184 240 290 356 418
#     4  10  24  40  64 106 126 178 234 286 344 406
#     4  12  25  46  66 105 146 182 230 293 355 413
#     4  10  21  44  68  93 138 183 221 282 351 405
#
# _framework density 23.269836000000002
#
# number of rings (size 3 to 8) (size 9 to 14) (size 15 to 20)
#    1.000    0.000    3.333    4.000    7.000    1.333 
#    0.000    1.667    0.000    0.000    0.000    0.000 
#    0.000    0.000    0.000    0.000    0.000    0.000 
#
# Total GULP energy -148771.330922 kJ/mol
# GULP energy per Si atom -12397.610910 kJ/mol
# Density = 2.321687 g / cm^3
# Si number density = 23.269836 Si / 1000 Ang^3
#
#
#
# Elastic Constant Matrix: (Units=GPa)
#
#
# Indices 1 2 3 4 5 6 
#
# 1 95.3077 31.7410 14.5377 0.0000 0.0000 0.0000
# 2 31.7410 170.8786 20.3878 0.0000 0.0000 0.0000
# 3 14.5377 20.3878 124.5658 0.0000 0.0000 0.0000
# 4 0.0000 0.0000 0.0000 39.2202 0.0000 0.0000
# 5 0.0000 0.0000 0.0000 0.0000 0.6560 0.0000
# 6 0.0000 0.0000 0.0000 0.0000 0.0000 51.4371
#
#
#
# Elastic Compliance Matrix: (Units=1/GPa)
#
#
# Indices 1 2 3 4 5 6 
#
# 1 0.011304 -0.001981 -0.000995 0.000000 0.000000 0.000000
# 2 -0.001981 0.006316 -0.000803 0.000000 0.000000 0.000000
# 3 -0.000995 -0.000803 0.008275 0.000000 0.000000 0.000000
# 4 0.000000 0.000000 0.000000 0.025497 0.000000 0.000000
# 5 0.000000 0.000000 0.000000 0.000000 1.524496 0.000000
# 6 0.000000 0.000000 0.000000 0.000000 0.000000 0.019441
#
#
# Mechanical properties :
#
#
# Convention : Reuss Voigt Hill
#
# Bulk Modulus (GPa) = 54.53162 58.23169 56.38165
# Shear Modulus (GPa) = 3.10752 39.86837 21.48794
#
# Velocity S-wave (km/s) = 1.15686 4.14370 3.04209
# Velocity P-wave (km/s) = 5.02691 6.92622 6.05154
#
# Compressibility (1/GPa) = 0.01833799
#
# Stress axis : x y z
#
# Youngs Moduli (GPa) = 88.46548 158.33225 120.84068
#
# Poissons Ratio (x) = 0.31365 0.12024
# Poissons Ratio (y) = 0.17525 0.09698
# Poissons Ratio (z) = 0.08802 0.12707
#
# Static dielectric constant tensor:
#      x y z
#    x 3.944720 0.000000 0.000000 
#    y 0.000000 4.310420 0.000000 
#    z 0.000000 0.000000 3.869830 
# 
# 
# High freq. dielectric constant tensor:
#      x y z
#    x 1.902130 0.000000 0.000000 
#    y 0.000000 1.939190 0.000000 
#    z 0.000000 0.000000 1.908110 
# 
# From -- ./inp_files/1558.got.cif
#   From: 2010.03.12/outbox.cif.g09.slc.cpg/sg20_1_cif.got.tgz:1558.got - 2010.04.14 01:38:04.
