data_PCOD8159247
_publ_section_title
;
Structure prediction by ZEFSAII (Michael W. Deem and Ramdas Pophale) SiO2 
 PCOD8159247
Probable space group: C 2 2 21
;
_chemical_formula_sum "Si O2"
_cell_formula_units_Z 60
_cell_length_a 25.029769
_cell_length_b 5.086026
_cell_length_c 24.291268
_cell_angle_alpha 90.000000
_cell_angle_beta 90.000000
_cell_angle_gamma 90.000000
_cell_volume 3092.328357
_symmetry_space_group_name_H-M "C 2 2 21"
_symmetry_group_IT_number 20
_symmetry_cell_setting 'orthorhombic'
loop_
_space_group_symop_operation_xyz
x,y,z
-x,-y,1/2+z
x,-y,-z
-x,y,1/2-z
1/2+x,1/2+y,z
1/2-x,1/2-y,1/2+z
1/2+x,1/2-y,-z
1/2-x,1/2+y,1/2-z
loop_
_atom_site_type_symbol
_atom_site_label
_atom_site_fract_x
_atom_site_fract_y
_atom_site_fract_z
Si Si1 0.903468 0.256947 0.296989
Si Si2 0.250572 0.752615 0.212743
Si Si3 0.888255 0.243034 0.534400
Si Si4 0.863746 0.705324 0.823303
Si Si5 0.071559 0.199226 0.651277
Si Si6 0.142100 0.750561 0.152795
Si Si7 0.011882 0.241774 0.536302
Si Si8 0.500000 0.522765 0.750000
O O1 0.870513 0.255001 0.241308
O O2 0.902449 0.546382 0.323971
O O3 0.875859 0.047776 0.336928
O O4 0.964381 0.172377 0.286890
O O5 0.259716 0.530925 0.258457
O O6 0.299840 0.770095 0.169188
O O7 0.198623 0.674939 0.178323
O O8 0.880382 0.500000 0.500000
O O9 0.852363 0.279526 0.587910
O O10 0.949960 0.197418 0.550328
O O11 0.865640 0.000000 0.500000
O O12 0.883802 0.421167 0.841737
O O13 0.897207 0.924822 0.856140
O O14 0.039678 0.258302 0.595643
O O15 0.034410 0.198076 0.706677
O O16 0.022436 0.500000 0.500000
O O17 0.034136 0.000000 0.500000
#
# Coordination Sequence:
#
# PCOD8159247 Si02
#       8
#     8   8   8   8   8   8   8   4
#     4  11  22  35  55  87 121 159 190 230 294 373
#     4  12  22  39  62  88 120 161 204 249 297 373
#     4  10  22  38  59  85 115 148 200 253 301 355
#     4  11  22  37  56  87 124 153 195 245 298 351
#     4  11  23  38  59  86 124 162 197 250 303 369
#     4  12  22  38  62  84 117 160 199 248 300 360
#     4  10  21  39  61  85 113 159 209 248 290 358
#     4  10  24  36  56  90 134 162 188 240 318 390
#
# _framework density 19.402857000000001
#
# number of rings (size 3 to 8) (size 9 to 14) (size 15 to 20)
#    0.000    1.067    2.667    4.800    0.000    9.067 
#    0.000    0.000    0.000    4.800    0.000    0.000 
#    0.000    0.000    0.000    0.000    0.000    0.000 
#
# Total GULP energy -372079.221208 kJ/mol
# GULP energy per Si atom -12402.640707 kJ/mol
# Density = 1.935869 g / cm^3
# Si number density = 19.402857 Si / 1000 Ang^3
#
#
#
# Elastic Constant Matrix: (Units=GPa)
#
#
# Indices 1 2 3 4 5 6 
#
# 1 65.6357 28.8977 41.4509 0.0000 0.0000 0.0000
# 2 28.8977 93.0968 16.8223 0.0000 0.0000 0.0000
# 3 41.4509 16.8223 100.5703 0.0000 0.0000 0.0000
# 4 0.0000 0.0000 0.0000 22.8516 0.0000 0.0000
# 5 0.0000 0.0000 0.0000 0.0000 24.0972 0.0000
# 6 0.0000 0.0000 0.0000 0.0000 0.0000 22.5191
#
#
#
# Elastic Compliance Matrix: (Units=1/GPa)
#
#
# Indices 1 2 3 4 5 6 
#
# 1 0.023144 -0.005631 -0.008597 0.000000 0.000000 0.000000
# 2 -0.005631 0.012446 0.000239 0.000000 0.000000 0.000000
# 3 -0.008597 0.000239 0.013447 0.000000 0.000000 0.000000
# 4 0.000000 0.000000 0.000000 0.043761 0.000000 0.000000
# 5 0.000000 0.000000 0.000000 0.000000 0.041499 0.000000
# 6 0.000000 0.000000 0.000000 0.000000 0.000000 0.044407
#
#
# Mechanical properties :
#
#
# Convention : Reuss Voigt Hill
#
# Bulk Modulus (GPa) = 47.48550 48.18273 47.83411
# Shear Modulus (GPa) = 23.39726 25.36903 24.38314
#
# Velocity S-wave (km/s) = 3.47633 3.61985 3.54881
# Velocity P-wave (km/s) = 6.37493 6.50828 6.44195
#
# Compressibility (1/GPa) = 0.02105906
#
# Stress axis : x y z
#
# Youngs Moduli (GPa) = 43.20780 80.34647 74.36736
#
# Poissons Ratio (x) = 0.45239 0.63935
# Poissons Ratio (y) = 0.24328 -0.01776
# Poissons Ratio (z) = 0.37147 -0.01919
#
# Static dielectric constant tensor:
#      x y z
#    x 3.609380 0.000000 0.000000 
#    y 0.000000 3.842110 0.000000 
#    z 0.000000 0.000000 3.394550 
# 
# 
# High freq. dielectric constant tensor:
#      x y z
#    x 1.743150 0.000000 0.000000 
#    y 0.000000 1.776470 0.000000 
#    z 0.000000 0.000000 1.739060 
# 
# From -- ./inp_files/28045.got.cif
#   From: 2010.03.12/outbox.cif.g09.slc.cpg/sg20_15_cif.got.tgz:28045.got - 2010.04.14 01:38:04.
