data_PCOD8159964
_publ_section_title
;
Structure prediction by ZEFSAII (Michael W. Deem and Ramdas Pophale) SiO2 
 PCOD8159964
Probable space group: C 2 2 21
;
_chemical_formula_sum "Si O2"
_cell_formula_units_Z 56
_cell_length_a 21.311516
_cell_length_b 13.277468
_cell_length_c 8.781049
_cell_angle_alpha 90.000000
_cell_angle_beta 90.000000
_cell_angle_gamma 90.000000
_cell_volume 2484.711720
_symmetry_space_group_name_H-M "C 2 2 21"
_symmetry_group_IT_number 20
_symmetry_cell_setting 'orthorhombic'
loop_
_space_group_symop_operation_xyz
x,y,z
-x,-y,1/2+z
x,-y,-z
-x,y,1/2-z
1/2+x,1/2+y,z
1/2-x,1/2-y,1/2+z
1/2+x,1/2-y,-z
1/2-x,1/2+y,1/2-z
loop_
_atom_site_type_symbol
_atom_site_label
_atom_site_fract_x
_atom_site_fract_y
_atom_site_fract_z
Si Si1 0.557233 0.455974 0.846493
Si Si2 0.362034 0.155724 0.368030
Si Si3 0.112399 0.260488 0.411472
Si Si4 0.500000 0.139908 0.750000
Si Si5 0.834248 0.201707 0.377612
Si Si6 0.571187 0.662280 0.704453
Si Si7 0.295074 0.104141 0.083134
Si Si8 0.451819 0.000000 0.500000
O O1 0.500000 0.406359 0.750000
O O2 0.608654 0.376518 0.903749
O O3 0.588672 0.547596 0.749562
O O4 0.526000 0.500000 0.000000
O O5 0.342075 0.190453 0.537348
O O6 0.385084 0.258836 0.290976
O O7 0.307398 0.103889 0.265668
O O8 0.412709 0.067679 0.382546
O O9 0.168409 0.216693 0.305567
O O10 0.081915 0.176797 0.522648
O O11 0.142284 0.349020 0.509849
O O12 0.061072 0.293499 0.285109
O O13 0.494484 0.073255 0.599074
O O14 0.769232 0.162324 0.444903
O O15 0.500000 0.686582 0.750000
O O16 0.285013 0.000000 0.000000
#
# Coordination Sequence:
#
# PCOD8159964 Si02
#       8
#     8   8   8   4   8   8   8   4
#     4  11  25  41  69 105 144 187 237 296 362 434
#     4  11  24  45  68  98 140 182 237 295 363 433
#     4  11  26  44  71 104 144 188 242 304 373 443
#     4  12  26  42  72 110 146 186 242 300 380 442
#     4  12  25  46  72 102 140 192 242 301 365 439
#     4  10  23  42  67 100 145 188 228 294 364 440
#     4  11  26  48  72  96 138 191 245 299 363 440
#     4  12  26  40  68 106 140 184 230 294 368 448
#
# _framework density 22.537825999999999
#
# number of rings (size 3 to 8) (size 9 to 14) (size 15 to 20)
#    0.000    0.857    2.857    3.000   11.000    0.000 
#    0.000    1.429    0.000    0.000    0.000    0.000 
#    0.000    0.000    0.000    0.000    0.000    0.000 
#
# Total GULP energy -347077.338949 kJ/mol
# GULP energy per Si atom -12395.619248 kJ/mol
# Density = 2.248653 g / cm^3
# Si number density = 22.537826 Si / 1000 Ang^3
#
#
#
# Elastic Constant Matrix: (Units=GPa)
#
#
# Indices 1 2 3 4 5 6 
#
# 1 81.9717 12.3354 25.8116 0.0000 0.0000 0.0000
# 2 12.3354 77.0694 30.4688 0.0000 0.0000 0.0000
# 3 25.8116 30.4688 131.9555 0.0000 0.0000 0.0000
# 4 0.0000 0.0000 0.0000 42.2249 0.0000 0.0000
# 5 0.0000 0.0000 0.0000 0.0000 39.2996 0.0000
# 6 0.0000 0.0000 0.0000 0.0000 0.0000 20.4628
#
#
#
# Elastic Compliance Matrix: (Units=1/GPa)
#
#
# Indices 1 2 3 4 5 6 
#
# 1 0.013099 -0.001192 -0.002287 0.000000 0.000000 0.000000
# 2 -0.001192 0.014387 -0.003089 0.000000 0.000000 0.000000
# 3 -0.002287 -0.003089 0.008739 0.000000 0.000000 0.000000
# 4 0.000000 0.000000 0.000000 0.023683 0.000000 0.000000
# 5 0.000000 0.000000 0.000000 0.000000 0.025446 0.000000
# 6 0.000000 0.000000 0.000000 0.000000 0.000000 0.048869
#
#
# Mechanical properties :
#
#
# Convention : Reuss Voigt Hill
#
# Bulk Modulus (GPa) = 43.31115 47.58091 45.44603
# Shear Modulus (GPa) = 32.24661 35.22283 33.73472
#
# Velocity S-wave (km/s) = 3.78667 3.95756 3.87305
# Velocity P-wave (km/s) = 6.19494 6.48386 6.34104
#
# Compressibility (1/GPa) = 0.02308874
#
# Stress axis : x y z
#
# Youngs Moduli (GPa) = 76.34232 69.50566 114.43138
#
# Poissons Ratio (x) = 0.08288 0.26169
# Poissons Ratio (y) = 0.09103 0.35346
# Poissons Ratio (z) = 0.17459 0.21469
#
# Static dielectric constant tensor:
#      x y z
#    x 3.864140 0.000000 0.000000 
#    y 0.000000 4.072650 0.000000 
#    z 0.000000 0.000000 5.836940 
# 
# 
# High freq. dielectric constant tensor:
#      x y z
#    x 1.872020 0.000000 0.000000 
#    y 0.000000 1.889010 0.000000 
#    z 0.000000 0.000000 1.910710 
# 
# From -- ./inp_files/10264.got.cif
#   From: 2010.03.12/outbox.cif.g09.slc.cpg/sg20_6_cif.got.tgz:10264.got - 2010.04.14 01:38:04.
