data_PCOD8159450
_publ_section_title
;
Structure prediction by ZEFSAII (Michael W. Deem and Ramdas Pophale) SiO2 
 PCOD8159450
Probable space group: C 2 2 21
;
_chemical_formula_sum "Si O2"
_cell_formula_units_Z 32
_cell_length_a 17.503699
_cell_length_b 5.050689
_cell_length_c 13.834519
_cell_angle_alpha 90.000000
_cell_angle_beta 90.000000
_cell_angle_gamma 90.000000
_cell_volume 1223.050890
_symmetry_space_group_name_H-M "C 2 2 21"
_symmetry_group_IT_number 20
_symmetry_cell_setting 'orthorhombic'
loop_
_space_group_symop_operation_xyz
x,y,z
-x,-y,1/2+z
x,-y,-z
-x,y,1/2-z
1/2+x,1/2+y,z
1/2-x,1/2-y,1/2+z
1/2+x,1/2-y,-z
1/2-x,1/2+y,1/2-z
loop_
_atom_site_type_symbol
_atom_site_label
_atom_site_fract_x
_atom_site_fract_y
_atom_site_fract_z
Si Si1 0.809062 0.256800 0.065159
Si Si2 0.855086 0.665662 0.403342
Si Si3 0.516517 0.262999 0.436351
Si Si4 0.582046 0.920932 0.280860
O O1 0.724531 0.327321 0.107486
O O2 0.869977 0.218971 0.152009
O O3 0.839516 0.500000 0.000000
O O4 0.805058 0.000000 0.000000
O O5 0.847768 0.500000 0.500000
O O6 0.930051 0.855480 0.407171
O O7 0.865102 0.475533 0.311097
O O8 0.555110 0.500000 0.500000
O O9 0.564752 0.194502 0.340257
O O10 0.507847 0.000000 0.500000
O O11 0.500000 0.792740 0.250000
#
# Coordination Sequence:
#
# PCOD8159450 Si02
#       4
#     8   8   8   8
#     4  11  25  47  73 104 142 187 237 294 353 420
#     4   9  21  44  72 104 144 189 238 292 350 416
#     4  10  21  42  69 101 139 181 230 287 345 410
#     4  10  23  45  74 107 143 187 236 291 356 422
#
# _framework density 26.164078
#
# number of rings (size 3 to 8) (size 9 to 14) (size 15 to 20)
#    0.000    2.000    0.000    1.500    0.000    9.000 
#    0.000   42.500    0.000    7.500    0.000    0.000 
#    0.000    0.000    0.000    0.000    0.000    0.000 
#
# Total GULP energy -198298.940225 kJ/mol
# GULP energy per Si atom -12393.683764 kJ/mol
# Density = 2.610453 g / cm^3
# Si number density = 26.164078 Si / 1000 Ang^3
#
#
#
# Elastic Constant Matrix: (Units=GPa)
#
#
# Indices 1 2 3 4 5 6 
#
# 1 174.5837 -12.0949 70.9099 0.0000 0.0000 0.0000
# 2 -12.0949 91.7249 38.2683 0.0000 0.0000 0.0000
# 3 70.9099 38.2683 174.8297 0.0000 0.0000 0.0000
# 4 0.0000 0.0000 0.0000 35.3473 0.0000 0.0000
# 5 0.0000 0.0000 0.0000 0.0000 207.4615 0.0000
# 6 0.0000 0.0000 0.0000 0.0000 0.0000 33.2048
#
#
#
# Elastic Compliance Matrix: (Units=1/GPa)
#
#
# Indices 1 2 3 4 5 6 
#
# 1 0.007317 0.002424 -0.003498 0.000000 0.000000 0.000000
# 2 0.002424 0.012801 -0.003785 0.000000 0.000000 0.000000
# 3 -0.003498 -0.003785 0.007967 0.000000 0.000000 0.000000
# 4 0.000000 0.000000 0.000000 0.028291 0.000000 0.000000
# 5 0.000000 0.000000 0.000000 0.000000 0.004820 0.000000
# 6 0.000000 0.000000 0.000000 0.000000 0.000000 0.030116
#
#
# Mechanical properties :
#
#
# Convention : Reuss Voigt Hill
#
# Bulk Modulus (GPa) = 54.44674 70.58942 62.51808
# Shear Modulus (GPa) = 46.66233 78.13975 62.40104
#
# Velocity S-wave (km/s) = 4.22767 5.47084 4.88893
# Velocity P-wave (km/s) = 6.68475 8.18199 7.47097
#
# Compressibility (1/GPa) = 0.01836657
#
# Stress axis : x y z
#
# Youngs Moduli (GPa) = 136.67280 78.11833 125.51314
#
# Poissons Ratio (x) = -0.18938 0.43908
# Poissons Ratio (y) = -0.33134 0.47510
# Poissons Ratio (z) = 0.47812 0.29570
#
# Static dielectric constant tensor:
#      x y z
#    x 6.051620 0.000000 0.000000 
#    y 0.000000 3.876120 0.000000 
#    z 0.000000 0.000000 5.027040 
# 
# 
# High freq. dielectric constant tensor:
#      x y z
#    x 2.087250 0.000000 0.000000 
#    y 0.000000 1.996140 0.000000 
#    z 0.000000 0.000000 2.060650 
# 
# From -- ./inp_files/21019.got.cif
#   From: 2010.03.12/outbox.cif.g09.slc.cpg/sg20_11_cif.got.tgz:21019.got - 2010.04.14 01:38:04.
