data_PCOD8159077
_publ_section_title
;
Structure prediction by ZEFSAII (Michael W. Deem and Ramdas Pophale) SiO2 
 PCOD8159077
Probable space group: C 2 2 21
;
_chemical_formula_sum "Si O2"
_cell_formula_units_Z 36
_cell_length_a 11.739170
_cell_length_b 13.007628
_cell_length_c 11.351572
_cell_angle_alpha 90.000000
_cell_angle_beta 90.000000
_cell_angle_gamma 90.000000
_cell_volume 1733.370927
_symmetry_space_group_name_H-M "C 2 2 21"
_symmetry_group_IT_number 20
_symmetry_cell_setting 'orthorhombic'
loop_
_space_group_symop_operation_xyz
x,y,z
-x,-y,1/2+z
x,-y,-z
-x,y,1/2-z
1/2+x,1/2+y,z
1/2-x,1/2-y,1/2+z
1/2+x,1/2-y,-z
1/2-x,1/2+y,1/2-z
loop_
_atom_site_type_symbol
_atom_site_label
_atom_site_fract_x
_atom_site_fract_y
_atom_site_fract_z
Si Si1 0.097110 0.000000 0.000000
Si Si2 0.607053 0.788641 0.672418
Si Si3 0.158272 0.710647 0.763860
Si Si4 0.980843 0.790717 0.933000
Si Si5 0.318072 0.992714 0.130260
O O1 0.179994 0.982651 0.113600
O O2 0.015549 0.096867 0.021799
O O3 0.500000 0.758302 0.750000
O O4 0.708358 0.714019 0.711863
O O5 0.577648 0.773599 0.536390
O O6 0.649693 0.903709 0.698992
O O7 0.112918 0.797434 0.671843
O O8 0.130671 0.600091 0.706457
O O9 0.091420 0.727647 0.886698
O O10 0.375046 0.000000 0.000000
#
# Coordination Sequence:
#
# PCOD8159077 Si02
#       5
#     4   8   8   8   8
#     4  10  20  44  72  96 142 182 226 302 338 426
#     4  12  26  40  71 103 139 186 235 292 355 427
#     4  11  24  46  71 100 140 188 231 297 353 428
#     4  11  24  44  72  98 142 184 242 288 362 416
#     4  10  21  43  70  97 145 178 230 284 357 415
#
# _framework density 20.76878
#
# number of rings (size 3 to 8) (size 9 to 14) (size 15 to 20)
#    0.667    0.444    4.444    1.333    6.222    1.778 
#    4.000    0.000    2.444    0.000    0.000    0.000 
#    0.000    0.000    0.000    0.000    0.000    0.000 
#
# Total GULP energy -223150.542456 kJ/mol
# GULP energy per Si atom -12397.252359 kJ/mol
# Density = 2.072151 g / cm^3
# Si number density = 20.768780 Si / 1000 Ang^3
#
#
#
# Elastic Constant Matrix: (Units=GPa)
#
#
# Indices 1 2 3 4 5 6 
#
# 1 135.5586 36.6225 54.9503 0.0000 0.0000 0.0000
# 2 36.6225 129.9588 39.4050 0.0000 0.0000 0.0000
# 3 54.9503 39.4050 87.1856 0.0000 0.0000 0.0000
# 4 0.0000 0.0000 0.0000 33.5417 0.0000 0.0000
# 5 0.0000 0.0000 0.0000 0.0000 36.7072 0.0000
# 6 0.0000 0.0000 0.0000 0.0000 0.0000 27.0892
#
#
#
# Elastic Compliance Matrix: (Units=1/GPa)
#
#
# Indices 1 2 3 4 5 6 
#
# 1 0.010031 -0.001054 -0.005846 0.000000 0.000000 0.000000
# 2 -0.001054 0.009028 -0.003416 0.000000 0.000000 0.000000
# 3 -0.005846 -0.003416 0.016698 0.000000 0.000000 0.000000
# 4 0.000000 0.000000 0.000000 0.029814 0.000000 0.000000
# 5 0.000000 0.000000 0.000000 0.000000 0.027243 0.000000
# 6 0.000000 0.000000 0.000000 0.000000 0.000000 0.036915
#
#
# Mechanical properties :
#
#
# Convention : Reuss Voigt Hill
#
# Bulk Modulus (GPa) = 66.11497 68.29541 67.20519
# Shear Modulus (GPa) = 32.17463 34.24930 33.21196
#
# Velocity S-wave (km/s) = 3.94024 4.06529 4.00325
# Velocity P-wave (km/s) = 7.25283 7.41556 7.33464
#
# Compressibility (1/GPa) = 0.01512517
#
# Stress axis : x y z
#
# Youngs Moduli (GPa) = 99.68643 110.77244 59.88710
#
# Poissons Ratio (x) = 0.11679 0.35010
# Poissons Ratio (y) = 0.10510 0.20455
# Poissons Ratio (z) = 0.58277 0.37836
#
# Static dielectric constant tensor:
#      x y z
#    x 3.736510 0.000000 0.000000 
#    y 0.000000 3.548480 0.000000 
#    z 0.000000 0.000000 3.690100 
# 
# 
# High freq. dielectric constant tensor:
#      x y z
#    x 1.812420 0.000000 0.000000 
#    y 0.000000 1.806420 0.000000 
#    z 0.000000 0.000000 1.805130 
# 
# From -- ./inp_files/13687.got.cif
#   From: 2010.03.12/outbox.cif.g09.slc.cpg/sg20_7_cif.got.tgz:13687.got - 2010.04.14 01:38:04.
