data_PCOD8159465
_publ_section_title
;
Structure prediction by ZEFSAII (Michael W. Deem and Ramdas Pophale) SiO2 
 PCOD8159465
Probable space group: C 2 2 21
;
_chemical_formula_sum "Si O2"
_cell_formula_units_Z 40
_cell_length_a 19.211309
_cell_length_b 18.007073
_cell_length_c 5.044002
_cell_angle_alpha 90.000000
_cell_angle_beta 90.000000
_cell_angle_gamma 90.000000
_cell_volume 1744.919245
_symmetry_space_group_name_H-M "C 2 2 21"
_symmetry_group_IT_number 20
_symmetry_cell_setting 'orthorhombic'
loop_
_space_group_symop_operation_xyz
x,y,z
-x,-y,1/2+z
x,-y,-z
-x,y,1/2-z
1/2+x,1/2+y,z
1/2-x,1/2-y,1/2+z
1/2+x,1/2-y,-z
1/2-x,1/2+y,1/2-z
loop_
_atom_site_type_symbol
_atom_site_label
_atom_site_fract_x
_atom_site_fract_y
_atom_site_fract_z
Si Si1 0.423704 0.642672 0.137121
Si Si2 0.000000 0.550094 0.250000
Si Si3 0.244970 0.500000 0.500000
Si Si4 0.500000 0.263244 0.250000
Si Si5 0.858975 0.369089 0.897691
Si Si6 0.664075 0.500000 0.500000
Si Si7 0.615619 0.219808 0.923092
O O1 0.500000 0.623525 0.250000
O O2 0.376021 0.693948 0.332520
O O3 0.436123 0.687832 0.864439
O O4 0.384117 0.567322 0.087652
O O5 0.932732 0.598910 0.188944
O O6 0.980056 0.500000 0.500000
O O7 0.199106 0.568296 0.400450
O O8 0.290696 0.525991 0.749438
O O9 0.466244 0.213450 0.484545
O O10 0.837935 0.306019 0.677760
O O11 0.866500 0.335075 0.186962
#
# Coordination Sequence:
#
# PCOD8159465 Si02
#       7
#     8   4   4   4   8   4   8
#     4  10  25  45  78 118 145 176 246 309 385 442
#     4  12  25  38  66 104 139 178 248 298 375 412
#     4  12  30  53  69 104 150 212 256 286 356 446
#     4  10  21  42  72 116 149 172 228 314 387 450
#     4  12  25  45  71 103 150 191 244 307 354 435
#     4  12  30  51  81  98 154 204 244 302 370 438
#     4  11  23  41  73 106 144 185 225 303 381 432
#
# _framework density 22.923694999999999
#
# number of rings (size 3 to 8) (size 9 to 14) (size 15 to 20)
#    0.000    0.800    3.000    3.000   14.000    0.000 
#    0.000    4.000    0.000    0.000    0.000    0.000 
#    0.000    0.000    0.000    0.000    0.000    0.000 
#
# Total GULP energy -247872.624285 kJ/mol
# GULP energy per Si atom -12393.631214 kJ/mol
# Density = 2.287152 g / cm^3
# Si number density = 22.923695 Si / 1000 Ang^3
#
#
#
# Elastic Constant Matrix: (Units=GPa)
#
#
# Indices 1 2 3 4 5 6 
#
# 1 83.7862 53.2158 31.1743 0.0000 0.0000 0.0000
# 2 53.2158 130.4133 50.4256 0.0000 0.0000 0.0000
# 3 31.1743 50.4256 155.5094 0.0000 0.0000 0.0000
# 4 0.0000 0.0000 0.0000 34.0363 0.0000 0.0000
# 5 0.0000 0.0000 0.0000 0.0000 21.3522 0.0000
# 6 0.0000 0.0000 0.0000 0.0000 0.0000 -1.6379
#
#
#
# Elastic Compliance Matrix: (Units=1/GPa)
#
#
# Indices 1 2 3 4 5 6 
#
# 1 0.016328 -0.006171 -0.001272 0.000000 0.000000 0.000000
# 2 -0.006171 0.011099 -0.002362 0.000000 0.000000 0.000000
# 3 -0.001272 -0.002362 0.007451 0.000000 0.000000 0.000000
# 4 0.000000 0.000000 0.000000 0.029380 0.000000 0.000000
# 5 0.000000 0.000000 0.000000 0.000000 0.046834 0.000000
# 6 0.000000 0.000000 0.000000 0.000000 0.000000 -0.610554
#
#
# Mechanical properties :
#
#
# Convention : Reuss Voigt Hill
#
# Bulk Modulus (GPa) = 65.49445 71.03782 68.26614
# Shear Modulus (GPa) = -10.53158 26.40968 7.93905
#
# Velocity S-wave (km/s) = -2.14573 3.39790 1.86300
# Velocity P-wave (km/s) = 4.74276 6.81545 5.87129
#
# Compressibility (1/GPa) = 0.01526847
#
# Stress axis : x y z
#
# Youngs Moduli (GPa) = 61.24544 90.09651 134.20233
#
# Poissons Ratio (x) = 0.55596 0.17074
# Poissons Ratio (y) = 0.37793 0.31699
# Poissons Ratio (z) = 0.07792 0.21281
#
# Static dielectric constant tensor:
#      x y z
#    x 3.876150 0.000000 0.000000 
#    y 0.000000 4.244110 0.000000 
#    z 0.000000 0.000000 5.376110 
# 
# 
# High freq. dielectric constant tensor:
#      x y z
#    x 1.873610 0.000000 0.000000 
#    y 0.000000 1.911710 0.000000 
#    z 0.000000 0.000000 1.936080 
# 
# From -- ./inp_files/3121.got.cif
#   From: 2010.03.12/outbox.cif.g09.slc.cpg/sg20_2_cif.got.tgz:3121.got - 2010.04.14 01:38:04.
