data_PCOD8159272
_publ_section_title
;
Structure prediction by ZEFSAII (Michael W. Deem and Ramdas Pophale) SiO2 
 PCOD8159272
Probable space group: C 2 2 21
;
_chemical_formula_sum "Si O2"
_cell_formula_units_Z 60
_cell_length_a 15.629716
_cell_length_b 11.546765
_cell_length_c 17.465764
_cell_angle_alpha 90.000000
_cell_angle_beta 90.000000
_cell_angle_gamma 90.000000
_cell_volume 3152.092847
_symmetry_space_group_name_H-M "C 2 2 21"
_symmetry_group_IT_number 20
_symmetry_cell_setting 'orthorhombic'
loop_
_space_group_symop_operation_xyz
x,y,z
-x,-y,1/2+z
x,-y,-z
-x,y,1/2-z
1/2+x,1/2+y,z
1/2-x,1/2-y,1/2+z
1/2+x,1/2-y,-z
1/2-x,1/2+y,1/2-z
loop_
_atom_site_type_symbol
_atom_site_label
_atom_site_fract_x
_atom_site_fract_y
_atom_site_fract_z
Si Si1 0.353141 0.941059 0.575252
Si Si2 0.097616 0.825855 0.438880
Si Si3 0.697678 0.386406 0.175027
Si Si4 0.534599 0.771610 0.833615
Si Si5 0.969117 0.000000 0.500000
Si Si6 0.273900 0.238036 0.959403
Si Si7 0.234713 0.356241 0.155062
Si Si8 0.324226 0.622938 0.408485
O O1 0.422448 0.880063 0.627162
O O2 0.282493 0.854791 0.539947
O O3 0.395195 0.000000 0.500000
O O4 0.319456 0.031653 0.636920
O O5 0.126712 0.768975 0.520509
O O6 0.186867 0.863265 0.402961
O O7 0.051318 0.738709 0.382636
O O8 0.031683 0.930643 0.444728
O O9 0.600777 0.337340 0.164869
O O10 0.766598 0.317697 0.123932
O O11 0.728995 0.366168 0.260125
O O12 0.701128 0.520057 0.149376
O O13 0.500000 0.800118 0.750000
O O14 0.914163 0.909372 0.550710
O O15 0.241157 0.143014 0.021400
O O16 0.176509 0.240511 0.142502
#
# Coordination Sequence:
#
# PCOD8159272 Si02
#       8
#     8   8   8   8   4   8   8   8
#     4  11  21  41  65  90 126 171 203 254 316 375
#     4  11  21  37  63  96 121 159 210 260 302 379
#     4  11  22  40  65  92 126 168 208 263 320 365
#     4  11  23  40  62  95 128 163 201 257 327 374
#     4  12  20  38  66  92 128 158 204 266 316 364
#     4  10  21  39  64  94 120 160 219 257 299 375
#     4  11  25  39  65  93 129 164 219 255 306 386
#     4  11  21  39  65  93 120 166 212 257 308 378
#
# _framework density 19.034972
#
# number of rings (size 3 to 8) (size 9 to 14) (size 15 to 20)
#    0.000    1.067    6.667    1.600    3.733    0.000 
#    0.000    4.000    0.000    0.000    0.000    0.000 
#    0.000    0.000    0.000    0.000    0.000    0.000 
#
# Total GULP energy -371743.283364 kJ/mol
# GULP energy per Si atom -12391.442779 kJ/mol
# Density = 1.899165 g / cm^3
# Si number density = 19.034972 Si / 1000 Ang^3
#
#
#
# Elastic Constant Matrix: (Units=GPa)
#
#
# Indices 1 2 3 4 5 6 
#
# 1 62.2749 27.5560 33.8340 0.0000 0.0000 0.0000
# 2 27.5560 97.5533 35.8569 0.0000 0.0000 0.0000
# 3 33.8340 35.8569 91.1801 0.0000 0.0000 0.0000
# 4 0.0000 0.0000 0.0000 28.9026 0.0000 0.0000
# 5 0.0000 0.0000 0.0000 0.0000 38.6056 0.0000
# 6 0.0000 0.0000 0.0000 0.0000 0.0000 27.2693
#
#
#
# Elastic Compliance Matrix: (Units=1/GPa)
#
#
# Indices 1 2 3 4 5 6 
#
# 1 0.021148 -0.003611 -0.006427 0.000000 0.000000 0.000000
# 2 -0.003611 0.012600 -0.003615 0.000000 0.000000 0.000000
# 3 -0.006427 -0.003615 0.014774 0.000000 0.000000 0.000000
# 4 0.000000 0.000000 0.000000 0.034599 0.000000 0.000000
# 5 0.000000 0.000000 0.000000 0.000000 0.025903 0.000000
# 6 0.000000 0.000000 0.000000 0.000000 0.000000 0.036671
#
#
# Mechanical properties :
#
#
# Convention : Reuss Voigt Hill
#
# Bulk Modulus (GPa) = 47.13723 49.50024 48.31874
# Shear Modulus (GPa) = 27.76668 29.20624 28.48646
#
# Velocity S-wave (km/s) = 3.82346 3.92132 3.87270
# Velocity P-wave (km/s) = 6.65651 6.82376 6.74065
#
# Compressibility (1/GPa) = 0.02121465
#
# Stress axis : x y z
#
# Youngs Moduli (GPa) = 47.28667 79.36801 67.68778
#
# Poissons Ratio (x) = 0.28662 0.43503
# Poissons Ratio (y) = 0.17076 0.24468
# Poissons Ratio (z) = 0.30391 0.28690
#
# Static dielectric constant tensor:
#      x y z
#    x 3.477040 0.000000 0.000000 
#    y 0.000000 3.639610 0.000000 
#    z 0.000000 0.000000 3.668040 
# 
# 
# High freq. dielectric constant tensor:
#      x y z
#    x 1.724200 0.000000 0.000000 
#    y 0.000000 1.744110 0.000000 
#    z 0.000000 0.000000 1.752010 
# 
# From -- ./inp_files/24948.got.cif
#   From: 2010.03.12/outbox.cif.g09.slc.cpg/sg20_13_cif.got.tgz:24948.got - 2010.04.14 01:38:04.
