data_PCOD8159470
_publ_section_title
;
Structure prediction by ZEFSAII (Michael W. Deem and Ramdas Pophale) SiO2 
 PCOD8159470
Probable space group: C 2 2 21
;
_chemical_formula_sum "Si O2"
_cell_formula_units_Z 56
_cell_length_a 14.686878
_cell_length_b 14.191824
_cell_length_c 12.735671
_cell_angle_alpha 90.000000
_cell_angle_beta 90.000000
_cell_angle_gamma 90.000000
_cell_volume 2654.541598
_symmetry_space_group_name_H-M "C 2 2 21"
_symmetry_group_IT_number 20
_symmetry_cell_setting 'orthorhombic'
loop_
_space_group_symop_operation_xyz
x,y,z
-x,-y,1/2+z
x,-y,-z
-x,y,1/2-z
1/2+x,1/2+y,z
1/2-x,1/2-y,1/2+z
1/2+x,1/2-y,-z
1/2-x,1/2+y,1/2-z
loop_
_atom_site_type_symbol
_atom_site_label
_atom_site_fract_x
_atom_site_fract_y
_atom_site_fract_z
Si Si1 0.326956 0.255435 0.856473
Si Si2 0.716289 0.909554 0.947884
Si Si3 0.740997 0.058115 0.607020
Si Si4 0.956051 0.054173 0.644557
Si Si5 0.096069 0.490261 0.212702
Si Si6 0.863126 0.700838 0.631643
Si Si7 0.003914 0.147505 0.067214
O O1 0.279256 0.356104 0.867142
O O2 0.286768 0.166152 0.920147
O O3 0.309645 0.231034 0.735400
O O4 0.428857 0.277627 0.894052
O O5 0.627574 0.944365 0.884430
O O6 0.702263 0.836163 0.041318
O O7 0.766507 0.000000 0.000000
O O8 0.846046 0.054890 0.645169
O O9 0.673704 0.015412 0.696680
O O10 0.729742 0.000000 0.500000
O O11 0.999339 0.120449 0.554976
O O12 0.000000 0.096113 0.750000
O O13 0.992844 0.947642 0.634453
O O14 0.072093 0.386505 0.166277
O O15 0.000000 0.533737 0.250000
O O16 0.905349 0.794564 0.585406
#
# Coordination Sequence:
#
# PCOD8159470 Si02
#       7
#     8   8   8   8   8   8   8
#     4  11  24  40  68  98 131 184 229 284 346 426
#     4  10  24  39  63  95 137 167 224 286 345 408
#     4  11  24  46  70 102 143 191 236 294 363 433
#     4  11  25  42  69 101 140 183 238 301 352 417
#     4  10  23  41  66  98 134 180 231 286 349 428
#     4  10  21  43  63  89 128 176 225 276 343 421
#     4  11  23  41  69  97 133 181 239 281 351 430
#
# _framework density 21.095918999999999
#
# number of rings (size 3 to 8) (size 9 to 14) (size 15 to 20)
#    0.000    1.429    1.429    3.857    6.000    5.143 
#    0.000    4.286    0.000    0.000    0.000    0.000 
#    0.000    0.000    0.000    0.000    0.000    0.000 
#
# Total GULP energy -346951.966628 kJ/mol
# GULP energy per Si atom -12391.141665 kJ/mol
# Density = 2.104790 g / cm^3
# Si number density = 21.095919 Si / 1000 Ang^3
#
#
#
# Elastic Constant Matrix: (Units=GPa)
#
#
# Indices 1 2 3 4 5 6 
#
# 1 85.8798 25.0893 37.5504 0.0000 0.0000 0.0000
# 2 25.0893 101.0412 52.6841 0.0000 0.0000 0.0000
# 3 37.5504 52.6841 130.4982 0.0000 0.0000 0.0000
# 4 0.0000 0.0000 0.0000 -160.8981 0.0000 0.0000
# 5 0.0000 0.0000 0.0000 0.0000 7.7156 0.0000
# 6 0.0000 0.0000 0.0000 0.0000 0.0000 36.1691
#
#
#
# Elastic Compliance Matrix: (Units=1/GPa)
#
#
# Indices 1 2 3 4 5 6 
#
# 1 0.013543 -0.001686 -0.003216 0.000000 0.000000 0.000000
# 2 -0.001686 0.012746 -0.004661 0.000000 0.000000 0.000000
# 3 -0.003216 -0.004661 0.010470 0.000000 0.000000 0.000000
# 4 0.000000 0.000000 0.000000 -0.006215 0.000000 0.000000
# 5 0.000000 0.000000 0.000000 0.000000 0.129608 0.000000
# 6 0.000000 0.000000 0.000000 0.000000 0.000000 0.027648
#
#
# Mechanical properties :
#
#
# Convention : Reuss Voigt Hill
#
# Bulk Modulus (GPa) = 56.71111 60.89632 58.80371
# Shear Modulus (GPa) = 23.49599 -9.92966 6.78316
#
# Velocity S-wave (km/s) = 3.34094 -2.17189 1.79510
# Velocity P-wave (km/s) = 6.46710 4.75810 5.67728
#
# Compressibility (1/GPa) = 0.01763323
#
# Stress axis : x y z
#
# Youngs Moduli (GPa) = 73.83884 78.45853 95.51138
#
# Poissons Ratio (x) = 0.13226 0.30720
# Poissons Ratio (y) = 0.12448 0.44513
# Poissons Ratio (z) = 0.23749 0.36566
#
# Static dielectric constant tensor:
#      x y z
#    x 3.652990 0.000000 0.000000 
#    y 0.000000 4.132240 0.000000 
#    z 0.000000 0.000000 3.986520 
# 
# 
# High freq. dielectric constant tensor:
#      x y z
#    x 1.807800 0.000000 0.000000 
#    y 0.000000 1.839250 0.000000 
#    z 0.000000 0.000000 1.840530 
# 
# From -- ./inp_files/15119.got.cif
#   From: 2010.03.12/outbox.cif.g09.slc.cpg/sg20_8_cif.got.tgz:15119.got - 2010.04.14 01:38:04.
