data_PCOD8159441
_publ_section_title
;
Structure prediction by ZEFSAII (Michael W. Deem and Ramdas Pophale) SiO2 
 PCOD8159441
Probable space group: C 2 2 21
;
_chemical_formula_sum "Si O2"
_cell_formula_units_Z 44
_cell_length_a 11.575742
_cell_length_b 16.330484
_cell_length_c 11.650286
_cell_angle_alpha 90.000000
_cell_angle_beta 90.000000
_cell_angle_gamma 90.000000
_cell_volume 2202.340585
_symmetry_space_group_name_H-M "C 2 2 21"
_symmetry_group_IT_number 20
_symmetry_cell_setting 'orthorhombic'
loop_
_space_group_symop_operation_xyz
x,y,z
-x,-y,1/2+z
x,-y,-z
-x,y,1/2-z
1/2+x,1/2+y,z
1/2-x,1/2-y,1/2+z
1/2+x,1/2-y,-z
1/2-x,1/2+y,1/2-z
loop_
_atom_site_type_symbol
_atom_site_label
_atom_site_fract_x
_atom_site_fract_y
_atom_site_fract_z
Si Si1 0.963187 0.403973 0.972089
Si Si2 0.911610 0.290119 0.347206
Si Si3 0.207080 0.846473 0.989162
Si Si4 0.818982 0.182495 0.736318
Si Si5 0.948583 0.000000 0.500000
Si Si6 0.500000 0.543150 0.750000
Si Si7 0.500000 0.181415 0.250000
O O1 0.831016 0.378664 0.948826
O O2 0.019603 0.351833 0.072384
O O3 0.975080 0.500000 0.000000
O O4 0.029954 0.378690 0.855792
O O5 0.862920 0.206778 0.399030
O O6 0.798347 0.336799 0.303626
O O7 0.000000 0.261851 0.250000
O O8 0.216732 0.794706 0.106319
O O9 0.128145 0.922002 0.017716
O O10 0.886656 0.098381 0.748005
O O11 0.892204 0.259688 0.784315
O O12 0.013313 0.007197 0.373203
#
# Coordination Sequence:
#
# PCOD8159441 Si02
#       7
#     8   8   8   8   4   4   4
#     4  12  26  43  67 100 135 177 220 278 343 399
#     4  12  25  41  70 103 133 170 233 279 329 406
#     4  11  22  41  66  97 135 175 221 272 337 399
#     4  10  21  42  67  96 129 180 220 277 328 403
#     4  10  22  42  64 100 134 174 222 282 332 400
#     4   9  22  42  68  91 138 174 224 273 342 392
#     4  11  22  42  68  95 134 178 224 267 344 402
#
# _framework density 19.978745
#
# number of rings (size 3 to 8) (size 9 to 14) (size 15 to 20)
#    0.000    1.091    6.364    0.000    2.545    0.000 
#    1.636    0.000    0.000    0.000    0.000    0.000 
#    0.000    0.000    0.000    0.000    0.000    0.000 
#
# Total GULP energy -272547.817790 kJ/mol
# GULP energy per Si atom -12388.537172 kJ/mol
# Density = 1.993327 g / cm^3
# Si number density = 19.978745 Si / 1000 Ang^3
#
#
#
# Elastic Constant Matrix: (Units=GPa)
#
#
# Indices 1 2 3 4 5 6 
#
# 1 89.8669 30.5514 30.4125 0.0000 0.0000 0.0000
# 2 30.5514 93.1926 42.0131 0.0000 0.0000 0.0000
# 3 30.4125 42.0131 143.0558 0.0000 0.0000 0.0000
# 4 0.0000 0.0000 0.0000 30.2204 0.0000 0.0000
# 5 0.0000 0.0000 0.0000 0.0000 32.0033 0.0000
# 6 0.0000 0.0000 0.0000 0.0000 0.0000 18.5536
#
#
#
# Elastic Compliance Matrix: (Units=1/GPa)
#
#
# Indices 1 2 3 4 5 6 
#
# 1 0.012883 -0.003445 -0.001727 0.000000 0.000000 0.000000
# 2 -0.003445 0.013289 -0.003170 0.000000 0.000000 0.000000
# 3 -0.001727 -0.003170 0.008289 0.000000 0.000000 0.000000
# 4 0.000000 0.000000 0.000000 0.033090 0.000000 0.000000
# 5 0.000000 0.000000 0.000000 0.000000 0.031247 0.000000
# 6 0.000000 0.000000 0.000000 0.000000 0.000000 0.053898
#
#
# Mechanical properties :
#
#
# Convention : Reuss Voigt Hill
#
# Bulk Modulus (GPa) = 56.25587 59.11882 57.68735
# Shear Modulus (GPa) = 28.52156 31.03134 29.77645
#
# Velocity S-wave (km/s) = 3.78245 3.94536 3.86477
# Velocity P-wave (km/s) = 6.87713 7.09997 6.98944
#
# Compressibility (1/GPa) = 0.01777592
#
# Stress axis : x y z
#
# Youngs Moduli (GPa) = 77.62046 75.24961 120.64808
#
# Poissons Ratio (x) = 0.25923 0.20838
# Poissons Ratio (y) = 0.26739 0.38251
# Poissons Ratio (z) = 0.13406 0.23857
#
# Static dielectric constant tensor:
#      x y z
#    x 3.708330 0.000000 0.000000 
#    y 0.000000 3.396720 0.000000 
#    z 0.000000 0.000000 4.159100 
# 
# 
# High freq. dielectric constant tensor:
#      x y z
#    x 1.778060 0.000000 0.000000 
#    y 0.000000 1.768210 0.000000 
#    z 0.000000 0.000000 1.798650 
# 
# From -- ./inp_files/14075.got.cif
#   From: 2010.03.12/outbox.cif.g09.slc.cpg/sg20_8_cif.got.tgz:14075.got - 2010.04.14 01:38:04.
