data_PCOD8159049
_publ_section_title
;
Structure prediction by ZEFSAII (Michael W. Deem and Ramdas Pophale) SiO2 
 PCOD8159049
Probable space group: C 2 2 21
;
_chemical_formula_sum "Si O2"
_cell_formula_units_Z 36
_cell_length_a 11.030758
_cell_length_b 15.671751
_cell_length_c 10.218398
_cell_angle_alpha 90.000000
_cell_angle_beta 90.000000
_cell_angle_gamma 90.000000
_cell_volume 1766.467672
_symmetry_space_group_name_H-M "C 2 2 21"
_symmetry_group_IT_number 20
_symmetry_cell_setting 'orthorhombic'
loop_
_space_group_symop_operation_xyz
x,y,z
-x,-y,1/2+z
x,-y,-z
-x,y,1/2-z
1/2+x,1/2+y,z
1/2-x,1/2-y,1/2+z
1/2+x,1/2-y,-z
1/2-x,1/2+y,1/2-z
loop_
_atom_site_type_symbol
_atom_site_label
_atom_site_fract_x
_atom_site_fract_y
_atom_site_fract_z
Si Si1 0.259696 0.000000 0.500000
Si Si2 0.663631 0.200183 0.669037
Si Si3 0.570142 0.686722 0.885667
Si Si4 0.922741 0.657453 0.563018
Si Si5 0.424489 0.618326 0.118045
O O1 0.348511 0.929420 0.442335
O O2 0.171323 0.959194 0.609592
O O3 0.792065 0.157415 0.638770
O O4 0.561487 0.138065 0.606282
O O5 0.641903 0.213355 0.824012
O O6 0.652613 0.294738 0.609201
O O7 0.500000 0.680834 0.750000
O O8 0.573427 0.785628 0.932191
O O9 0.513209 0.621790 0.991732
O O10 0.500000 0.606749 0.250000
#
# Coordination Sequence:
#
# PCOD8159049 Si02
#       5
#     4   8   8   8   8
#     4  12  24  42  64 102 140 170 218 300 338 388
#     4  10  20  43  67  89 131 176 227 267 320 427
#     4  11  22  38  72 100 120 181 235 264 331 428
#     4  10  22  40  64  94 132 172 214 281 340 383
#     4  11  23  42  69  98 139 177 221 285 346 390
#
# _framework density 20.379655
#
# number of rings (size 3 to 8) (size 9 to 14) (size 15 to 20)
#    0.000    1.333    6.667    1.333    3.111    2.667 
#    4.000    1.111    0.000    0.000    0.000    0.000 
#    0.000    0.000    0.000    0.000    0.000    0.000 
#
# Total GULP energy -223133.933753 kJ/mol
# GULP energy per Si atom -12396.329653 kJ/mol
# Density = 2.033327 g / cm^3
# Si number density = 20.379655 Si / 1000 Ang^3
#
#
#
# Elastic Constant Matrix: (Units=GPa)
#
#
# Indices 1 2 3 4 5 6 
#
# 1 179.6397 54.8885 71.4700 0.0000 0.0000 0.0000
# 2 54.8885 85.1832 27.8832 0.0000 0.0000 0.0000
# 3 71.4700 27.8832 135.1024 0.0000 0.0000 0.0000
# 4 0.0000 0.0000 0.0000 18.5632 0.0000 0.0000
# 5 0.0000 0.0000 0.0000 0.0000 24.6482 0.0000
# 6 0.0000 0.0000 0.0000 0.0000 0.0000 45.5248
#
#
#
# Elastic Compliance Matrix: (Units=1/GPa)
#
#
# Indices 1 2 3 4 5 6 
#
# 1 0.008227 -0.004157 -0.003494 0.000000 0.000000 0.000000
# 2 -0.004157 0.014691 -0.000833 0.000000 0.000000 0.000000
# 3 -0.003494 -0.000833 0.009422 0.000000 0.000000 0.000000
# 4 0.000000 0.000000 0.000000 0.053870 0.000000 0.000000
# 5 0.000000 0.000000 0.000000 0.000000 0.040571 0.000000
# 6 0.000000 0.000000 0.000000 0.000000 0.000000 0.021966
#
#
# Mechanical properties :
#
#
# Convention : Reuss Voigt Hill
#
# Bulk Modulus (GPa) = 65.05550 78.71206 71.88378
# Shear Modulus (GPa) = 29.26724 34.12615 31.69670
#
# Velocity S-wave (km/s) = 3.79370 4.09653 3.94802
# Velocity P-wave (km/s) = 7.15407 7.81551 7.49209
#
# Compressibility (1/GPa) = 0.01537149
#
# Stress axis : x y z
#
# Youngs Moduli (GPa) = 121.54835 68.06953 106.13366
#
# Poissons Ratio (x) = 0.28300 0.37085
# Poissons Ratio (y) = 0.50534 0.08837
# Poissons Ratio (z) = 0.42471 0.05668
#
# Static dielectric constant tensor:
#      x y z
#    x 3.987660 0.000000 0.000000 
#    y 0.000000 3.485820 0.000000 
#    z 0.000000 0.000000 3.747520 
# 
# 
# High freq. dielectric constant tensor:
#      x y z
#    x 1.817220 0.000000 0.000000 
#    y 0.000000 1.764610 0.000000 
#    z 0.000000 0.000000 1.796800 
# 
# From -- ./inp_files/13785.got.cif
#   From: 2010.03.12/outbox.cif.g09.slc.cpg/sg20_7_cif.got.tgz:13785.got - 2010.04.14 01:38:04.
