data_PCOD8159565
_publ_section_title
;
Structure prediction by ZEFSAII (Michael W. Deem and Ramdas Pophale) SiO2 
 PCOD8159565
Probable space group: C 2 2 21
;
_chemical_formula_sum "Si O2"
_cell_formula_units_Z 64
_cell_length_a 27.093439
_cell_length_b 11.856004
_cell_length_c 9.547490
_cell_angle_alpha 90.000000
_cell_angle_beta 90.000000
_cell_angle_gamma 90.000000
_cell_volume 3066.843985
_symmetry_space_group_name_H-M "C 2 2 21"
_symmetry_group_IT_number 20
_symmetry_cell_setting 'orthorhombic'
loop_
_space_group_symop_operation_xyz
x,y,z
-x,-y,1/2+z
x,-y,-z
-x,y,1/2-z
1/2+x,1/2+y,z
1/2-x,1/2-y,1/2+z
1/2+x,1/2-y,-z
1/2-x,1/2+y,1/2-z
loop_
_atom_site_type_symbol
_atom_site_label
_atom_site_fract_x
_atom_site_fract_y
_atom_site_fract_z
Si Si1 0.943366 0.083129 0.794562
Si Si2 0.462226 0.964157 0.646075
Si Si3 0.607893 0.238664 0.098929
Si Si4 0.289600 0.179063 0.272622
Si Si5 0.793486 0.229668 0.022637
Si Si6 0.906972 0.323796 0.292207
Si Si7 0.825850 0.546693 0.859270
Si Si8 0.404031 0.356578 0.923865
O O1 0.918704 0.153456 0.668619
O O2 0.000000 0.055897 0.750000
O O3 0.911379 0.972032 0.835531
O O4 0.939188 0.153608 0.939033
O O5 0.500000 0.902129 0.750000
O O6 0.415774 0.881889 0.637061
O O7 0.486850 0.000000 0.500000
O O8 0.449494 0.085239 0.707234
O O9 0.663962 0.232886 0.147399
O O10 0.602949 0.249863 0.931744
O O11 0.245812 0.162430 0.384165
O O12 0.297445 0.053319 0.216850
O O13 0.278416 0.263259 0.141684
O O14 0.789781 0.356844 0.082032
O O15 0.846582 0.167255 0.038526
O O16 0.858320 0.393359 0.256832
O O17 0.924675 0.241224 0.172037
O O18 0.854430 0.500000 0.000000
#
# Coordination Sequence:
#
# PCOD8159565 Si02
#       8
#     8   8   8   8   8   8   8   8
#     4  11  25  46  71  95 135 186 236 289 361 423
#     4  10  22  38  58  94 127 162 214 262 327 388
#     4  11  23  41  63  99 138 172 225 280 337 407
#     4  11  22  41  69  97 139 179 225 286 348 411
#     4  10  23  42  67 102 130 181 232 281 346 415
#     4  10  22  39  66  93 126 172 222 271 340 404
#     4   9  20  40  63  92 131 174 220 276 340 405
#     4  10  24  46  68  96 136 174 236 284 347 421
#
# _framework density 20.868359000000002
#
# number of rings (size 3 to 8) (size 9 to 14) (size 15 to 20)
#    0.000    1.750    2.500    0.375    3.500    7.500 
#    0.000    0.000    0.000    0.000    0.000    0.000 
#    0.000    0.000    0.000    0.000    0.000    0.000 
#
# Total GULP energy -396453.076435 kJ/mol
# GULP energy per Si atom -12389.158639 kJ/mol
# Density = 2.082086 g / cm^3
# Si number density = 20.868359 Si / 1000 Ang^3
#
#
#
# Elastic Constant Matrix: (Units=GPa)
#
#
# Indices 1 2 3 4 5 6 
#
# 1 82.3586 17.2503 48.8035 0.0000 0.0000 0.0000
# 2 17.2503 78.1018 45.2887 0.0000 0.0000 0.0000
# 3 48.8035 45.2887 123.4994 0.0000 0.0000 0.0000
# 4 0.0000 0.0000 0.0000 40.1970 0.0000 0.0000
# 5 0.0000 0.0000 0.0000 0.0000 43.0821 0.0000
# 6 0.0000 0.0000 0.0000 0.0000 0.0000 23.8194
#
#
#
# Elastic Compliance Matrix: (Units=1/GPa)
#
#
# Indices 1 2 3 4 5 6 
#
# 1 0.015856 0.000167 -0.006327 0.000000 0.000000 0.000000
# 2 0.000167 0.016264 -0.006030 0.000000 0.000000 0.000000
# 3 -0.006327 -0.006030 0.012809 0.000000 0.000000 0.000000
# 4 0.000000 0.000000 0.000000 0.024877 0.000000 0.000000
# 5 0.000000 0.000000 0.000000 0.000000 0.023212 0.000000
# 6 0.000000 0.000000 0.000000 0.000000 0.000000 0.041983
#
#
# Mechanical properties :
#
#
# Convention : Reuss Voigt Hill
#
# Bulk Modulus (GPa) = 48.66652 56.29386 52.48019
# Shear Modulus (GPa) = 30.07875 32.92752 31.50314
#
# Velocity S-wave (km/s) = 3.80064 3.97655 3.88959
# Velocity P-wave (km/s) = 6.52925 6.93673 6.73607
#
# Compressibility (1/GPa) = 0.02054801
#
# Stress axis : x y z
#
# Youngs Moduli (GPa) = 63.06602 61.48725 78.07158
#
# Poissons Ratio (x) = -0.01025 0.49397
# Poissons Ratio (y) = -0.01051 0.47077
# Poissons Ratio (z) = 0.39903 0.37076
#
# Static dielectric constant tensor:
#      x y z
#    x 3.481590 0.000000 0.000000 
#    y 0.000000 3.628770 0.000000 
#    z 0.000000 0.000000 4.172580 
# 
# 
# High freq. dielectric constant tensor:
#      x y z
#    x 1.794140 0.000000 0.000000 
#    y 0.000000 1.820920 0.000000 
#    z 0.000000 0.000000 1.839160 
# 
# From -- ./inp_files/11630.got.cif
#   From: 2010.03.12/outbox.cif.g09.slc.cpg/sg20_6_cif.got.tgz:11630.got - 2010.04.14 01:38:04.
