data_PCOD8159378
_publ_section_title
;
Structure prediction by ZEFSAII (Michael W. Deem and Ramdas Pophale) SiO2 
 PCOD8159378
Probable space group: C 2 2 21
;
_chemical_formula_sum "Si O2"
_cell_formula_units_Z 64
_cell_length_a 23.770775
_cell_length_b 14.564300
_cell_length_c 9.034659
_cell_angle_alpha 90.000000
_cell_angle_beta 90.000000
_cell_angle_gamma 90.000000
_cell_volume 3127.841394
_symmetry_space_group_name_H-M "C 2 2 21"
_symmetry_group_IT_number 20
_symmetry_cell_setting 'orthorhombic'
loop_
_space_group_symop_operation_xyz
x,y,z
-x,-y,1/2+z
x,-y,-z
-x,y,1/2-z
1/2+x,1/2+y,z
1/2-x,1/2-y,1/2+z
1/2+x,1/2-y,-z
1/2-x,1/2+y,1/2-z
loop_
_atom_site_type_symbol
_atom_site_label
_atom_site_fract_x
_atom_site_fract_y
_atom_site_fract_z
Si Si1 0.616025 0.721847 0.008945
Si Si2 0.056482 0.477139 0.825948
Si Si3 0.435743 0.177902 0.760795
Si Si4 0.774522 0.922268 0.889392
Si Si5 0.854854 0.959635 0.650189
Si Si6 0.162011 0.342279 0.780824
Si Si7 0.935202 0.110126 0.741941
Si Si8 0.133517 0.782888 0.483749
O O1 0.665543 0.764568 0.909193
O O2 0.572028 0.679534 0.893903
O O3 0.588764 0.803919 0.098699
O O4 0.636848 0.648827 0.130211
O O5 0.069017 0.567774 0.725615
O O6 0.108528 0.408154 0.806754
O O7 0.000000 0.433163 0.750000
O O8 0.046312 0.500000 0.000000
O O9 0.500000 0.211532 0.750000
O O10 0.402137 0.232677 0.887847
O O11 0.811321 0.981337 0.777345
O O12 0.721499 0.890834 0.794021
O O13 0.812793 0.840269 0.956378
O O14 0.752299 0.000000 0.000000
O O15 0.829608 0.000000 0.500000
O O16 0.911579 0.010570 0.698122
O O17 0.158132 0.296651 0.620116
O O18 0.000000 0.092012 0.750000
O O19 0.907962 0.149304 0.892978
#
# Coordination Sequence:
#
# PCOD8159378 Si02
#       8
#     8   8   8   8   8   8   8   8
#     4  10  21  41  63  94 132 168 227 270 334 399
#     4  11  25  45  70 102 139 178 222 287 348 412
#     4  11  23  39  67 101 136 172 218 277 338 400
#     4  12  25  47  69  96 136 178 232 289 339 411
#     4  10  22  43  63  96 133 174 216 279 336 399
#     4  11  27  45  71  95 132 183 229 281 354 407
#     4  10  21  41  66  97 138 183 219 267 345 413
#     4  11  25  44  68 104 135 178 233 284 336 409
#
# _framework density 20.461395
#
# number of rings (size 3 to 8) (size 9 to 14) (size 15 to 20)
#    0.000    1.250    3.750    1.125    5.250    2.500 
#    9.000    0.000    0.000    0.000    0.000    0.000 
#    0.000    0.000    0.000    0.000    0.000    0.000 
#
# Total GULP energy -396601.157482 kJ/mol
# GULP energy per Si atom -12393.786171 kJ/mol
# Density = 2.041482 g / cm^3
# Si number density = 20.461395 Si / 1000 Ang^3
#
#
#
# Elastic Constant Matrix: (Units=GPa)
#
#
# Indices 1 2 3 4 5 6 
#
# 1 111.3445 36.0720 51.2687 0.0000 0.0000 0.0000
# 2 36.0720 84.1230 32.2085 0.0000 0.0000 0.0000
# 3 51.2687 32.2085 101.1187 0.0000 0.0000 0.0000
# 4 0.0000 0.0000 0.0000 29.8055 0.0000 0.0000
# 5 0.0000 0.0000 0.0000 0.0000 24.8662 0.0000
# 6 0.0000 0.0000 0.0000 0.0000 0.0000 30.1928
#
#
#
# Elastic Compliance Matrix: (Units=1/GPa)
#
#
# Indices 1 2 3 4 5 6 
#
# 1 0.012488 -0.003338 -0.005269 0.000000 0.000000 0.000000
# 2 -0.003338 0.014431 -0.002904 0.000000 0.000000 0.000000
# 3 -0.005269 -0.002904 0.013486 0.000000 0.000000 0.000000
# 4 0.000000 0.000000 0.000000 0.033551 0.000000 0.000000
# 5 0.000000 0.000000 0.000000 0.000000 0.040215 0.000000
# 6 0.000000 0.000000 0.000000 0.000000 0.000000 0.033120
#
#
# Mechanical properties :
#
#
# Convention : Reuss Voigt Hill
#
# Bulk Modulus (GPa) = 57.52593 59.52051 58.52322
# Shear Modulus (GPa) = 28.39187 28.77539 28.58363
#
# Velocity S-wave (km/s) = 3.72907 3.75417 3.74164
# Velocity P-wave (km/s) = 6.83496 6.92416 6.87971
#
# Compressibility (1/GPa) = 0.01738346
#
# Stress axis : x y z
#
# Youngs Moduli (GPa) = 80.07412 69.29757 74.15278
#
# Poissons Ratio (x) = 0.23130 0.39068
# Poissons Ratio (y) = 0.26727 0.21535
# Poissons Ratio (z) = 0.42188 0.20125
#
# Static dielectric constant tensor:
#      x y z
#    x 3.529920 0.000000 0.000000 
#    y 0.000000 3.922150 0.000000 
#    z 0.000000 0.000000 3.966000 
# 
# 
# High freq. dielectric constant tensor:
#      x y z
#    x 1.787870 0.000000 0.000000 
#    y 0.000000 1.809200 0.000000 
#    z 0.000000 0.000000 1.818890 
# 
# From -- ./inp_files/10799.got.cif
#   From: 2010.03.12/outbox.cif.g09.slc.cpg/sg20_6_cif.got.tgz:10799.got - 2010.04.14 01:38:04.
