data_PCOD8159884
_publ_section_title
;
Structure prediction by ZEFSAII (Michael W. Deem and Ramdas Pophale) SiO2 
 PCOD8159884
Probable space group: C 2 2 21
;
_chemical_formula_sum "Si O2"
_cell_formula_units_Z 64
_cell_length_a 32.623652
_cell_length_b 10.447676
_cell_length_c 8.804931
_cell_angle_alpha 90.000000
_cell_angle_beta 90.000000
_cell_angle_gamma 90.000000
_cell_volume 3001.084534
_symmetry_space_group_name_H-M "C 2 2 21"
_symmetry_group_IT_number 20
_symmetry_cell_setting 'orthorhombic'
loop_
_space_group_symop_operation_xyz
x,y,z
-x,-y,1/2+z
x,-y,-z
-x,y,1/2-z
1/2+x,1/2+y,z
1/2-x,1/2-y,1/2+z
1/2+x,1/2-y,-z
1/2-x,1/2+y,1/2-z
loop_
_atom_site_type_symbol
_atom_site_label
_atom_site_fract_x
_atom_site_fract_y
_atom_site_fract_z
Si Si1 0.510515 0.628102 0.573707
Si Si2 0.266590 0.865115 0.929664
Si Si3 0.312824 0.980496 0.677389
Si Si4 0.393704 0.639475 0.949249
Si Si5 0.972040 0.624107 0.398793
Si Si6 0.173493 0.137175 0.066766
Si Si7 0.119351 0.713653 0.157041
Si Si8 0.829846 0.738160 0.861933
O O1 0.492007 0.500000 0.500000
O O2 0.500000 0.620565 0.750000
O O3 0.557813 0.643529 0.533734
O O4 0.488446 0.753524 0.505617
O O5 0.220470 0.824580 0.971006
O O6 0.276257 0.892223 0.750819
O O7 0.295601 0.756227 0.004561
O O8 0.279167 0.000000 0.000000
O O9 0.320803 0.116877 0.755508
O O10 0.302802 0.000000 0.500000
O O11 0.354451 0.905797 0.713871
O O12 0.381192 0.668946 0.775761
O O13 0.376990 0.500000 0.000000
O O14 0.374059 0.750965 0.055643
O O15 0.975807 0.500000 0.500000
O O16 0.925369 0.654770 0.361052
O O17 0.000000 0.604645 0.250000
O O18 0.171112 0.138944 0.249722
O O19 0.140617 0.236555 0.997660
O O20 0.162632 0.000000 0.000000
#
# Coordination Sequence:
#
# PCOD8159884 Si02
#       8
#     8   8   8   8   8   8   8   8
#     4  10  22  46  68  98 131 175 223 277 345 422
#     4   9  22  41  64  95 132 175 235 282 335 405
#     4  11  22  42  66  99 131 185 227 281 347 407
#     4  11  23  43  69  98 135 177 227 274 346 419
#     4  11  25  46  69 106 137 177 227 289 354 420
#     4  11  25  43  63 100 138 183 232 286 346 407
#     4  12  23  44  69  95 144 171 228 288 344 419
#     4  11  23  40  67  97 132 179 227 277 341 405
#
# _framework density 21.325623
#
# number of rings (size 3 to 8) (size 9 to 14) (size 15 to 20)
#    0.000    1.250    5.000    1.125    1.750    2.000 
#    4.500    3.125    0.000    0.000    0.000    0.000 
#    0.000    0.000    0.000    0.000    0.000    0.000 
#
# Total GULP energy -396510.712976 kJ/mol
# GULP energy per Si atom -12390.959781 kJ/mol
# Density = 2.127708 g / cm^3
# Si number density = 21.325623 Si / 1000 Ang^3
#
#
#
# Elastic Constant Matrix: (Units=GPa)
#
#
# Indices 1 2 3 4 5 6 
#
# 1 100.9690 34.3419 32.3777 0.0000 0.0000 0.0000
# 2 34.3419 105.2438 52.8512 0.0000 0.0000 0.0000
# 3 32.3777 52.8512 96.9532 0.0000 0.0000 0.0000
# 4 0.0000 0.0000 0.0000 45.7743 0.0000 0.0000
# 5 0.0000 0.0000 0.0000 0.0000 31.2698 0.0000
# 6 0.0000 0.0000 0.0000 0.0000 0.0000 31.8814
#
#
#
# Elastic Compliance Matrix: (Units=1/GPa)
#
#
# Indices 1 2 3 4 5 6 
#
# 1 0.011559 -0.002524 -0.002484 0.000000 0.000000 0.000000
# 2 -0.002524 0.013635 -0.006589 0.000000 0.000000 0.000000
# 3 -0.002484 -0.006589 0.014736 0.000000 0.000000 0.000000
# 4 0.000000 0.000000 0.000000 0.021846 0.000000 0.000000
# 5 0.000000 0.000000 0.000000 0.000000 0.031980 0.000000
# 6 0.000000 0.000000 0.000000 0.000000 0.000000 0.031366
#
#
# Mechanical properties :
#
#
# Convention : Reuss Voigt Hill
#
# Bulk Modulus (GPa) = 59.75960 60.25641 60.00801
# Shear Modulus (GPa) = 32.48952 34.02479 33.25715
#
# Velocity S-wave (km/s) = 3.90743 3.99869 3.95333
# Velocity P-wave (km/s) = 6.95993 7.04529 7.00274
#
# Compressibility (1/GPa) = 0.01673371
#
# Stress axis : x y z
#
# Youngs Moduli (GPa) = 86.51104 73.34307 67.86157
#
# Poissons Ratio (x) = 0.18515 0.16858
# Poissons Ratio (y) = 0.21839 0.44717
# Poissons Ratio (z) = 0.21490 0.48329
#
# Static dielectric constant tensor:
#      x y z
#    x 3.845030 0.000000 0.000000 
#    y 0.000000 4.179560 0.000000 
#    z 0.000000 0.000000 4.105480 
# 
# 
# High freq. dielectric constant tensor:
#      x y z
#    x 1.837830 0.000000 0.000000 
#    y 0.000000 1.839910 0.000000 
#    z 0.000000 0.000000 1.836710 
# 
# From -- ./inp_files/11633.got.cif
#   From: 2010.03.12/outbox.cif.g09.slc.cpg/sg20_6_cif.got.tgz:11633.got - 2010.04.14 01:38:04.
