data_PCOD8159595
_publ_section_title
;
Structure prediction by ZEFSAII (Michael W. Deem and Ramdas Pophale) SiO2 
 PCOD8159595
Probable space group: C 2 2 21
;
_chemical_formula_sum "Si O2"
_cell_formula_units_Z 48
_cell_length_a 14.262044
_cell_length_b 8.761340
_cell_length_c 17.380512
_cell_angle_alpha 90.000000
_cell_angle_beta 90.000000
_cell_angle_gamma 90.000000
_cell_volume 2171.775213
_symmetry_space_group_name_H-M "C 2 2 21"
_symmetry_group_IT_number 20
_symmetry_cell_setting 'orthorhombic'
loop_
_space_group_symop_operation_xyz
x,y,z
-x,-y,1/2+z
x,-y,-z
-x,y,1/2-z
1/2+x,1/2+y,z
1/2-x,1/2-y,1/2+z
1/2+x,1/2-y,-z
1/2-x,1/2+y,1/2-z
loop_
_atom_site_type_symbol
_atom_site_label
_atom_site_fract_x
_atom_site_fract_y
_atom_site_fract_z
Si Si1 0.494025 0.099389 0.932031
Si Si2 0.741565 0.485437 0.184818
Si Si3 0.320569 0.260009 0.577570
Si Si4 0.303442 0.741817 0.073513
Si Si5 0.173988 0.068003 0.652737
Si Si6 0.930594 0.353858 0.815876
O O1 0.567824 0.235035 0.919039
O O2 0.393096 0.164850 0.956800
O O3 0.485426 0.984848 0.861019
O O4 0.536989 0.000000 0.000000
O O5 0.695881 0.572301 0.112027
O O6 0.763724 0.317193 0.151825
O O7 0.670487 0.474106 0.256546
O O8 0.833857 0.573414 0.215201
O O9 0.275029 0.241348 0.492857
O O10 0.276616 0.134483 0.634448
O O11 0.341815 0.574756 0.096545
O O12 0.096087 0.200151 0.635510
O O13 0.000000 0.298039 0.750000
#
# Coordination Sequence:
#
# PCOD8159595 Si02
#       6
#     8   8   8   8   8   8
#     4  11  23  40  63  88 121 165 211 259 315 374
#     4  10  22  41  63  90 125 166 208 257 317 378
#     4  11  23  41  64  90 123 168 211 254 316 379
#     4  11  22  41  64  92 128 163 208 265 314 372
#     4  11  22  38  62  90 125 163 205 261 313 370
#     4  10  22  39  60  88 124 163 208 256 310 375
#
# _framework density 22.101735000000001
#
# number of rings (size 3 to 8) (size 9 to 14) (size 15 to 20)
#    0.000    1.333    0.000    8.000    0.000    4.000 
#    0.000    5.833    0.000    0.000    0.000    0.000 
#    0.000    0.000    0.000    0.000    0.000    0.000 
#
# Total GULP energy -297567.542713 kJ/mol
# GULP energy per Si atom -12398.647613 kJ/mol
# Density = 2.205143 g / cm^3
# Si number density = 22.101735 Si / 1000 Ang^3
#
#
#
# Elastic Constant Matrix: (Units=GPa)
#
#
# Indices 1 2 3 4 5 6 
#
# 1 94.8383 28.8898 28.2120 0.0000 0.0000 0.0000
# 2 28.8898 108.0506 23.3947 0.0000 0.0000 0.0000
# 3 28.2120 23.3947 87.5727 0.0000 0.0000 0.0000
# 4 0.0000 0.0000 0.0000 38.9746 0.0000 0.0000
# 5 0.0000 0.0000 0.0000 0.0000 33.8234 0.0000
# 6 0.0000 0.0000 0.0000 0.0000 0.0000 27.3134
#
#
#
# Elastic Compliance Matrix: (Units=1/GPa)
#
#
# Indices 1 2 3 4 5 6 
#
# 1 0.012305 -0.002581 -0.003274 0.000000 0.000000 0.000000
# 2 -0.002581 0.010364 -0.001937 0.000000 0.000000 0.000000
# 3 -0.003274 -0.001937 0.012992 0.000000 0.000000 0.000000
# 4 0.000000 0.000000 0.000000 0.025658 0.000000 0.000000
# 5 0.000000 0.000000 0.000000 0.000000 0.029565 0.000000
# 6 0.000000 0.000000 0.000000 0.000000 0.000000 0.036612
#
#
# Mechanical properties :
#
#
# Convention : Reuss Voigt Hill
#
# Bulk Modulus (GPa) = 49.81324 50.16163 49.98743
# Shear Modulus (GPa) = 33.38389 34.01997 33.70193
#
# Velocity S-wave (km/s) = 3.89069 3.92758 3.90917
# Velocity P-wave (km/s) = 6.53990 6.58125 6.56061
#
# Compressibility (1/GPa) = 0.02007498
#
# Stress axis : x y z
#
# Youngs Moduli (GPa) = 81.27075 96.48358 76.97320
#
# Poissons Ratio (x) = 0.24902 0.25205
# Poissons Ratio (y) = 0.20975 0.14913
# Poissons Ratio (z) = 0.26612 0.18692
#
# Static dielectric constant tensor:
#      x y z
#    x 3.717790 0.000000 0.000000 
#    y 0.000000 4.111990 0.000000 
#    z 0.000000 0.000000 3.905320 
# 
# 
# High freq. dielectric constant tensor:
#      x y z
#    x 1.851410 0.000000 0.000000 
#    y 0.000000 1.881700 0.000000 
#    z 0.000000 0.000000 1.866920 
# 
# From -- ./inp_files/23469.got.cif
#   From: 2010.03.12/outbox.cif.g09.slc.cpg/sg20_12_cif.got.tgz:23469.got - 2010.04.14 01:38:04.
