data_PCOD8159244
_publ_section_title
;
Structure prediction by ZEFSAII (Michael W. Deem and Ramdas Pophale) SiO2 
 PCOD8159244
Probable space group: C 2 2 21
;
_chemical_formula_sum "Si O2"
_cell_formula_units_Z 64
_cell_length_a 18.001548
_cell_length_b 11.773267
_cell_length_c 15.418234
_cell_angle_alpha 90.000000
_cell_angle_beta 90.000000
_cell_angle_gamma 90.000000
_cell_volume 3267.694737
_symmetry_space_group_name_H-M "C 2 2 21"
_symmetry_group_IT_number 20
_symmetry_cell_setting 'orthorhombic'
loop_
_space_group_symop_operation_xyz
x,y,z
-x,-y,1/2+z
x,-y,-z
-x,y,1/2-z
1/2+x,1/2+y,z
1/2-x,1/2-y,1/2+z
1/2+x,1/2-y,-z
1/2-x,1/2+y,1/2-z
loop_
_atom_site_type_symbol
_atom_site_label
_atom_site_fract_x
_atom_site_fract_y
_atom_site_fract_z
Si Si1 0.933639 0.680219 0.582977
Si Si2 0.166672 0.879264 0.622401
Si Si3 0.347716 0.827738 0.237262
Si Si4 0.297634 0.367810 0.172372
Si Si5 0.553378 0.754842 0.667674
Si Si6 0.041026 0.512625 0.658812
Si Si7 0.025206 0.873841 0.506358
Si Si8 0.286711 0.133732 0.502803
O O1 0.891099 0.676140 0.673035
O O2 0.873476 0.668892 0.504837
O O3 0.992184 0.575527 0.584448
O O4 0.975380 0.799319 0.571310
O O5 0.141257 0.797314 0.698697
O O6 0.108565 0.881678 0.543131
O O7 0.244563 0.827645 0.584836
O O8 0.173406 0.004170 0.662371
O O9 0.261985 0.862155 0.249936
O O10 0.381746 0.919926 0.170896
O O11 0.364997 0.284673 0.196877
O O12 0.257726 0.319987 0.086070
O O13 0.500000 0.742161 0.750000
O O14 0.524159 0.677864 0.589549
O O15 0.556670 0.883420 0.631104
O O16 0.000000 0.513454 0.750000
O O17 0.990686 0.000000 0.500000
O O18 0.280865 0.000000 0.500000
#
# Coordination Sequence:
#
# PCOD8159244 Si02
#       8
#     8   8   8   8   8   8   8   8
#     4  10  22  39  63  90 123 159 209 264 306 368
#     4  11  20  40  66  85 121 174 209 251 313 387
#     4  10  22  39  64  92 121 164 211 261 308 377
#     4  10  21  39  60  88 122 163 206 253 311 365
#     4  11  24  39  63  92 130 161 209 268 317 368
#     4   9  20  39  59  91 125 155 203 262 317 364
#     4  12  23  41  63  89 127 170 212 249 317 394
#     4   9  19  37  61  85 112 157 211 253 300 367
#
# _framework density 19.585673
#
# number of rings (size 3 to 8) (size 9 to 14) (size 15 to 20)
#    0.000    1.750    3.750    0.375    3.500    2.000 
#    0.000    0.000    0.000    0.000    0.000    0.000 
#    0.000    0.000    0.000    0.000    0.000    0.000 
#
# Total GULP energy -396750.630296 kJ/mol
# GULP energy per Si atom -12398.457197 kJ/mol
# Density = 1.954110 g / cm^3
# Si number density = 19.585673 Si / 1000 Ang^3
#
#
#
# Elastic Constant Matrix: (Units=GPa)
#
#
# Indices 1 2 3 4 5 6 
#
# 1 129.6351 61.1198 30.0032 0.0000 0.0000 0.0000
# 2 61.1198 137.4685 36.0404 0.0000 0.0000 0.0000
# 3 30.0032 36.0404 43.5750 0.0000 0.0000 0.0000
# 4 0.0000 0.0000 0.0000 31.6146 0.0000 0.0000
# 5 0.0000 0.0000 0.0000 0.0000 17.2850 0.0000
# 6 0.0000 0.0000 0.0000 0.0000 0.0000 31.2267
#
#
#
# Elastic Compliance Matrix: (Units=1/GPa)
#
#
# Indices 1 2 3 4 5 6 
#
# 1 0.010338 -0.003486 -0.004235 0.000000 0.000000 0.000000
# 2 -0.003486 0.010464 -0.006254 0.000000 0.000000 0.000000
# 3 -0.004235 -0.006254 0.031038 0.000000 0.000000 0.000000
# 4 0.000000 0.000000 0.000000 0.031631 0.000000 0.000000
# 5 0.000000 0.000000 0.000000 0.000000 0.057854 0.000000
# 6 0.000000 0.000000 0.000000 0.000000 0.000000 0.032024
#
#
# Mechanical properties :
#
#
# Convention : Reuss Voigt Hill
#
# Bulk Modulus (GPa) = 41.86001 62.77837 52.31919
# Shear Modulus (GPa) = 23.89359 28.25959 26.07659
#
# Velocity S-wave (km/s) = 3.49657 3.80263 3.65281
# Velocity P-wave (km/s) = 6.14170 7.16958 6.67545
#
# Compressibility (1/GPa) = 0.02388915
#
# Stress axis : x y z
#
# Youngs Moduli (GPa) = 96.73421 95.56539 32.21888
#
# Poissons Ratio (x) = 0.33314 0.13644
# Poissons Ratio (y) = 0.33721 0.20151
# Poissons Ratio (z) = 0.40964 0.59771
#
# Static dielectric constant tensor:
#      x y z
#    x 3.948180 0.000000 0.000000 
#    y 0.000000 3.598720 0.000000 
#    z 0.000000 0.000000 3.508100 
# 
# 
# High freq. dielectric constant tensor:
#      x y z
#    x 1.769490 0.000000 0.000000 
#    y 0.000000 1.757670 0.000000 
#    z 0.000000 0.000000 1.750460 
# 
# From -- ./inp_files/21494.got.cif
#   From: 2010.03.12/outbox.cif.g09.slc.cpg/sg20_11_cif.got.tgz:21494.got - 2010.04.14 01:38:04.
