data_PCOD8159418
_publ_section_title
;
Structure prediction by ZEFSAII (Michael W. Deem and Ramdas Pophale) SiO2 
 PCOD8159418
Probable space group: C 2 2 21
;
_chemical_formula_sum "Si O2"
_cell_formula_units_Z 64
_cell_length_a 11.697394
_cell_length_b 30.339211
_cell_length_c 8.626544
_cell_angle_alpha 90.000000
_cell_angle_beta 90.000000
_cell_angle_gamma 90.000000
_cell_volume 3061.471653
_symmetry_space_group_name_H-M "C 2 2 21"
_symmetry_group_IT_number 20
_symmetry_cell_setting 'orthorhombic'
loop_
_space_group_symop_operation_xyz
x,y,z
-x,-y,1/2+z
x,-y,-z
-x,y,1/2-z
1/2+x,1/2+y,z
1/2-x,1/2-y,1/2+z
1/2+x,1/2-y,-z
1/2-x,1/2+y,1/2-z
loop_
_atom_site_type_symbol
_atom_site_label
_atom_site_fract_x
_atom_site_fract_y
_atom_site_fract_z
Si Si1 0.860065 0.620202 0.413401
Si Si2 0.190832 0.904487 0.118929
Si Si3 0.050870 0.818055 0.096706
Si Si4 0.742098 0.721481 0.106847
Si Si5 0.115786 0.363268 0.566210
Si Si6 0.516282 0.452448 0.929465
Si Si7 0.321052 0.305176 0.946038
Si Si8 0.785416 0.050333 0.939732
O O1 0.861856 0.612574 0.229476
O O2 0.768485 0.655847 0.467355
O O3 0.825827 0.574178 0.492005
O O4 0.982733 0.635637 0.477721
O O5 0.110481 0.862896 0.160270
O O6 0.206918 0.940888 0.254402
O O7 0.315937 0.888409 0.068233
O O8 0.130465 0.925850 0.969266
O O9 0.000000 0.794495 0.250000
O O10 0.143445 0.786450 0.019087
O O11 0.948134 0.824942 0.972390
O O12 0.845165 0.687152 0.082748
O O13 0.687763 0.717267 0.277412
O O14 0.793151 0.769768 0.080208
O O15 0.500000 0.456937 0.750000
O O16 0.530060 0.500000 0.000000
O O17 0.403270 0.428648 0.996911
O O18 0.777764 0.000000 0.000000
#
# Coordination Sequence:
#
# PCOD8159418 Si02
#       8
#     8   8   8   8   8   8   8   8
#     4  10  21  42  64  86 122 176 209 264 325 383
#     4  11  22  39  62  92 125 163 209 264 320 387
#     4  11  22  38  60  87 124 164 211 265 318 383
#     4  10  23  39  59  95 127 169 217 270 325 386
#     4   9  22  41  62  87 127 167 218 260 317 386
#     4  11  21  35  58  87 120 155 196 254 315 376
#     4  11  22  38  64  91 128 169 217 270 326 389
#     4  11  23  40  62  93 129 161 211 267 324 388
#
# _framework density 20.904979000000001
#
# number of rings (size 3 to 8) (size 9 to 14) (size 15 to 20)
#    0.000    1.500    0.000    6.000    1.750    3.500 
#    0.000    3.125    0.000    0.000    0.000    0.000 
#    0.000    0.000    0.000    0.000    0.000    0.000 
#
# Total GULP energy -396760.063872 kJ/mol
# GULP energy per Si atom -12398.751996 kJ/mol
# Density = 2.085740 g / cm^3
# Si number density = 20.904979 Si / 1000 Ang^3
#
#
#
# Elastic Constant Matrix: (Units=GPa)
#
#
# Indices 1 2 3 4 5 6 
#
# 1 125.8665 33.9141 19.7630 0.0000 0.0000 0.0000
# 2 33.9141 76.7672 31.7985 0.0000 0.0000 0.0000
# 3 19.7630 31.7985 91.4143 0.0000 0.0000 0.0000
# 4 0.0000 0.0000 0.0000 35.9065 0.0000 0.0000
# 5 0.0000 0.0000 0.0000 0.0000 34.6053 0.0000
# 6 0.0000 0.0000 0.0000 0.0000 0.0000 23.5659
#
#
#
# Elastic Compliance Matrix: (Units=1/GPa)
#
#
# Indices 1 2 3 4 5 6 
#
# 1 0.009053 -0.003725 -0.000661 0.000000 0.000000 0.000000
# 2 -0.003725 0.016752 -0.005022 0.000000 0.000000 0.000000
# 3 -0.000661 -0.005022 0.012829 0.000000 0.000000 0.000000
# 4 0.000000 0.000000 0.000000 0.027850 0.000000 0.000000
# 5 0.000000 0.000000 0.000000 0.000000 0.028897 0.000000
# 6 0.000000 0.000000 0.000000 0.000000 0.000000 0.042434
#
#
# Mechanical properties :
#
#
# Convention : Reuss Voigt Hill
#
# Bulk Modulus (GPa) = 50.46183 51.66659 51.06421
# Shear Modulus (GPa) = 30.63010 32.72037 31.67523
#
# Velocity S-wave (km/s) = 3.83195 3.96055 3.89678
# Velocity P-wave (km/s) = 6.61586 6.75893 6.68778
#
# Compressibility (1/GPa) = 0.01981696
#
# Stress axis : x y z
#
# Youngs Moduli (GPa) = 110.46648 59.69314 77.94822
#
# Poissons Ratio (x) = 0.22238 0.05154
# Poissons Ratio (y) = 0.41152 0.39145
# Poissons Ratio (z) = 0.07304 0.29977
#
# Static dielectric constant tensor:
#      x y z
#    x 3.961490 0.000000 0.000000 
#    y 0.000000 3.649080 0.000000 
#    z 0.000000 0.000000 3.975530 
# 
# 
# High freq. dielectric constant tensor:
#      x y z
#    x 1.825320 0.000000 0.000000 
#    y 0.000000 1.806850 0.000000 
#    z 0.000000 0.000000 1.825500 
# 
# From -- ./inp_files/7698.got.cif
#   From: 2010.03.12/outbox.cif.g09.slc.cpg/sg20_4_cif.got.tgz:7698.got - 2010.04.14 01:38:04.
