data_PCOD8159267
_publ_section_title
;
Structure prediction by ZEFSAII (Michael W. Deem and Ramdas Pophale) SiO2 
 PCOD8159267
Probable space group: C 2 2 21
;
_chemical_formula_sum "Si O2"
_cell_formula_units_Z 52
_cell_length_a 8.601664
_cell_length_b 11.664514
_cell_length_c 25.887263
_cell_angle_alpha 90.000000
_cell_angle_beta 90.000000
_cell_angle_gamma 90.000000
_cell_volume 2597.378604
_symmetry_space_group_name_H-M "C 2 2 21"
_symmetry_group_IT_number 20
_symmetry_cell_setting 'orthorhombic'
loop_
_space_group_symop_operation_xyz
x,y,z
-x,-y,1/2+z
x,-y,-z
-x,y,1/2-z
1/2+x,1/2+y,z
1/2-x,1/2-y,1/2+z
1/2+x,1/2-y,-z
1/2-x,1/2+y,1/2-z
loop_
_atom_site_type_symbol
_atom_site_label
_atom_site_fract_x
_atom_site_fract_y
_atom_site_fract_z
Si Si1 0.206988 0.655220 0.014610
Si Si2 0.646667 0.456013 0.423073
Si Si3 0.574878 0.000000 0.500000
Si Si4 0.766664 0.782838 0.316723
Si Si5 0.764890 0.484310 0.684884
Si Si6 0.500000 0.116602 0.750000
Si Si7 0.000000 0.085494 0.750000
Si Si8 0.295817 0.386113 0.425846
O O1 0.315255 0.579320 0.052079
O O2 0.198570 0.785024 0.032248
O O3 0.279991 0.646715 0.957127
O O4 0.031094 0.609044 0.013710
O O5 0.723277 0.447434 0.366967
O O6 0.462136 0.444759 0.418810
O O7 0.678386 0.979620 0.448966
O O8 0.789780 0.648878 0.326699
O O9 0.730881 0.843118 0.371179
O O10 0.625840 0.802199 0.277170
O O11 0.925877 0.833099 0.293583
O O12 0.924208 0.535690 0.706772
O O13 0.628568 0.501629 0.726330
#
# Coordination Sequence:
#
# PCOD8159267 Si02
#       8
#     8   8   4   8   8   4   4   8
#     4  10  23  42  60  87 126 158 199 253 297 363
#     4  10  21  39  64  89 121 159 198 250 308 353
#     4  10  24  38  60  90 122 154 206 244 296 366
#     4  11  23  39  66  90 120 163 201 249 308 363
#     4  11  21  43  63  89 124 160 200 257 306 360
#     4  10  26  40  62  92 124 156 210 252 302 360
#     4  10  22  42  62  90 122 156 206 254 300 368
#     4  12  22  40  64  91 121 163 203 245 305 365
#
# _framework density 20.020185999999999
#
# number of rings (size 3 to 8) (size 9 to 14) (size 15 to 20)
#    0.000    1.538    3.077    2.769    4.308    0.000 
#    0.000    1.538    0.000    0.000    0.000    0.000 
#    0.000    0.000    0.000    0.000    0.000    0.000 
#
# Total GULP energy -322512.115960 kJ/mol
# GULP energy per Si atom -12404.312152 kJ/mol
# Density = 1.997462 g / cm^3
# Si number density = 20.020186 Si / 1000 Ang^3
#
#
#
# Elastic Constant Matrix: (Units=GPa)
#
#
# Indices 1 2 3 4 5 6 
#
# 1 89.4815 21.3936 20.3934 0.0000 0.0000 0.0000
# 2 21.3936 45.1886 20.9078 0.0000 0.0000 0.0000
# 3 20.3934 20.9078 104.5404 0.0000 0.0000 0.0000
# 4 0.0000 0.0000 0.0000 33.4902 0.0000 0.0000
# 5 0.0000 0.0000 0.0000 0.0000 32.3317 0.0000
# 6 0.0000 0.0000 0.0000 0.0000 0.0000 18.0336
#
#
#
# Elastic Compliance Matrix: (Units=1/GPa)
#
#
# Indices 1 2 3 4 5 6 
#
# 1 0.012789 -0.005400 -0.001415 0.000000 0.000000 0.000000
# 2 -0.005400 0.026666 -0.004280 0.000000 0.000000 0.000000
# 3 -0.001415 -0.004280 0.010698 0.000000 0.000000 0.000000
# 4 0.000000 0.000000 0.000000 0.029859 0.000000 0.000000
# 5 0.000000 0.000000 0.000000 0.000000 0.030929 0.000000
# 6 0.000000 0.000000 0.000000 0.000000 0.000000 0.055452
#
#
# Mechanical properties :
#
#
# Convention : Reuss Voigt Hill
#
# Bulk Modulus (GPa) = 35.76090 40.51114 38.13602
# Shear Modulus (GPa) = 25.26476 28.53882 26.90179
#
# Velocity S-wave (km/s) = 3.55627 3.77968 3.66967
# Velocity P-wave (km/s) = 5.89609 6.27113 6.08650
#
# Compressibility (1/GPa) = 0.02796350
#
# Stress axis : x y z
#
# Youngs Moduli (GPa) = 78.19210 37.50070 93.47875
#
# Poissons Ratio (x) = 0.20251 0.13226
# Poissons Ratio (y) = 0.42224 0.40006
# Poissons Ratio (z) = 0.11063 0.16049
#
# Static dielectric constant tensor:
#      x y z
#    x 3.694140 0.000000 0.000000 
#    y 0.000000 3.392820 0.000000 
#    z 0.000000 0.000000 3.775480 
# 
# 
# High freq. dielectric constant tensor:
#      x y z
#    x 1.791020 0.000000 0.000000 
#    y 0.000000 1.768330 0.000000 
#    z 0.000000 0.000000 1.792970 
# 
# From -- ./inp_files/30131.got.cif
#   From: 2010.03.12/outbox.cif.g09.slc.cpg/sg20_16_cif.got.tgz:30131.got - 2010.04.14 01:38:04.
