data_PCOD8159159
_publ_section_title
;
Structure prediction by ZEFSAII (Michael W. Deem and Ramdas Pophale) SiO2 
 PCOD8159159
Probable space group: C 2 2 21
;
_chemical_formula_sum "Si O2"
_cell_formula_units_Z 60
_cell_length_a 21.258418
_cell_length_b 14.936641
_cell_length_c 9.223500
_cell_angle_alpha 90.000000
_cell_angle_beta 90.000000
_cell_angle_gamma 90.000000
_cell_volume 2928.732033
_symmetry_space_group_name_H-M "C 2 2 21"
_symmetry_group_IT_number 20
_symmetry_cell_setting 'orthorhombic'
loop_
_space_group_symop_operation_xyz
x,y,z
-x,-y,1/2+z
x,-y,-z
-x,y,1/2-z
1/2+x,1/2+y,z
1/2-x,1/2-y,1/2+z
1/2+x,1/2-y,-z
1/2-x,1/2+y,1/2-z
loop_
_atom_site_type_symbol
_atom_site_label
_atom_site_fract_x
_atom_site_fract_y
_atom_site_fract_z
Si Si1 0.942781 0.012794 0.838428
Si Si2 0.246484 0.522192 0.168827
Si Si3 0.095369 0.203849 0.608176
Si Si4 0.218464 0.169916 0.769257
Si Si5 0.500000 0.832665 0.750000
Si Si6 0.616514 0.079593 0.103184
Si Si7 0.855860 0.142964 0.198353
Si Si8 0.678853 0.244225 0.942868
O O1 0.929091 0.115671 0.811231
O O2 0.000000 0.973689 0.750000
O O3 0.882036 0.957181 0.795654
O O4 0.964457 0.000000 0.000000
O O5 0.276987 0.439059 0.258394
O O6 0.173242 0.543758 0.208550
O O7 0.281621 0.618573 0.185506
O O8 0.249800 0.500000 0.000000
O O9 0.159155 0.221364 0.697035
O O10 0.039129 0.274949 0.630644
O O11 0.113258 0.195242 0.438127
O O12 0.278788 0.206258 0.686570
O O13 0.217958 0.197600 0.939105
O O14 0.447414 0.896084 0.683104
O O15 0.639713 0.165415 0.013943
O O16 0.595827 0.000000 0.000000
O O17 0.869218 0.192826 0.350680
#
# Coordination Sequence:
#
# PCOD8159159 Si02
#       8
#     8   8   8   8   4   8   8   8
#     4  10  21  37  60  90 136 181 215 262 345 414
#     4  11  19  42  73  98 141 179 219 288 374 419
#     4  11  21  41  66  97 139 179 224 279 344 413
#     4  12  22  41  70 101 132 176 223 287 359 422
#     4  12  26  44  72 100 134 198 254 278 330 440
#     4  11  24  48  70  94 139 194 231 291 359 407
#     4  11  23  39  65 106 136 176 225 291 350 425
#     4  12  25  41  71 102 135 175 231 293 356 415
#
# _framework density 20.486681999999998
#
# number of rings (size 3 to 8) (size 9 to 14) (size 15 to 20)
#    0.000    0.800    7.333    2.000    0.000    3.733 
#    2.400    0.000    0.000    0.000    0.000    0.000 
#    0.000    0.000    0.000    0.000    0.000    0.000 
#
# Total GULP energy -371698.367697 kJ/mol
# GULP energy per Si atom -12389.945590 kJ/mol
# Density = 2.044005 g / cm^3
# Si number density = 20.486682 Si / 1000 Ang^3
#
#
#
# Elastic Constant Matrix: (Units=GPa)
#
#
# Indices 1 2 3 4 5 6 
#
# 1 112.6997 39.5058 48.6420 0.0000 0.0000 0.0000
# 2 39.5058 100.8517 54.9852 0.0000 0.0000 0.0000
# 3 48.6420 54.9852 99.4553 0.0000 0.0000 0.0000
# 4 0.0000 0.0000 0.0000 32.2010 0.0000 0.0000
# 5 0.0000 0.0000 0.0000 0.0000 35.7786 0.0000
# 6 0.0000 0.0000 0.0000 0.0000 0.0000 36.4541
#
#
#
# Elastic Compliance Matrix: (Units=1/GPa)
#
#
# Indices 1 2 3 4 5 6 
#
# 1 0.011540 -0.002066 -0.004502 0.000000 0.000000 0.000000
# 2 -0.002066 0.014564 -0.007041 0.000000 0.000000 0.000000
# 3 -0.004502 -0.007041 0.016150 0.000000 0.000000 0.000000
# 4 0.000000 0.000000 0.000000 0.031055 0.000000 0.000000
# 5 0.000000 0.000000 0.000000 0.000000 0.027950 0.000000
# 6 0.000000 0.000000 0.000000 0.000000 0.000000 0.027432
#
#
# Mechanical properties :
#
#
# Convention : Reuss Voigt Hill
#
# Bulk Modulus (GPa) = 66.51148 66.58585 66.54866
# Shear Modulus (GPa) = 31.07117 32.21164 31.64140
#
# Velocity S-wave (km/s) = 3.89865 3.96955 3.93426
# Velocity P-wave (km/s) = 7.26651 7.32000 7.29330
#
# Compressibility (1/GPa) = 0.01503500
#
# Stress axis : x y z
#
# Youngs Moduli (GPa) = 86.65140 68.66295 61.92140
#
# Poissons Ratio (x) = 0.14187 0.27877
# Poissons Ratio (y) = 0.17903 0.43601
# Poissons Ratio (z) = 0.39010 0.48348
#
# Static dielectric constant tensor:
#      x y z
#    x 3.769490 0.000000 0.000000 
#    y 0.000000 3.923360 0.000000 
#    z 0.000000 0.000000 3.716550 
# 
# 
# High freq. dielectric constant tensor:
#      x y z
#    x 1.803020 0.000000 0.000000 
#    y 0.000000 1.809780 0.000000 
#    z 0.000000 0.000000 1.781500 
# 
# From -- ./inp_files/10753.got.cif
#   From: 2010.03.12/outbox.cif.g09.slc.cpg/sg20_6_cif.got.tgz:10753.got - 2010.04.14 01:38:04.
