data_PCOD8159913
_publ_section_title
;
Structure prediction by ZEFSAII (Michael W. Deem and Ramdas Pophale) SiO2 
 PCOD8159913
Probable space group: C 2 2 21
;
_chemical_formula_sum "Si O2"
_cell_formula_units_Z 52
_cell_length_a 25.777430
_cell_length_b 12.668351
_cell_length_c 7.568980
_cell_angle_alpha 90.000000
_cell_angle_beta 90.000000
_cell_angle_gamma 90.000000
_cell_volume 2471.707422
_symmetry_space_group_name_H-M "C 2 2 21"
_symmetry_group_IT_number 20
_symmetry_cell_setting 'orthorhombic'
loop_
_space_group_symop_operation_xyz
x,y,z
-x,-y,1/2+z
x,-y,-z
-x,y,1/2-z
1/2+x,1/2+y,z
1/2-x,1/2-y,1/2+z
1/2+x,1/2-y,-z
1/2-x,1/2+y,1/2-z
loop_
_atom_site_type_symbol
_atom_site_label
_atom_site_fract_x
_atom_site_fract_y
_atom_site_fract_z
Si Si1 0.409641 0.775502 0.561662
Si Si2 0.302126 0.495407 0.194072
Si Si3 0.803133 0.435712 0.171871
Si Si4 0.397944 0.351031 0.104815
Si Si5 0.126962 0.500000 0.000000
Si Si6 0.157096 0.213429 0.262398
Si Si7 0.493241 0.611469 0.457578
O O1 0.394828 0.748369 0.763179
O O2 0.365995 0.734741 0.428808
O O3 0.463123 0.715925 0.520077
O O4 0.412065 0.902030 0.537706
O O5 0.259238 0.438999 0.312253
O O6 0.358407 0.438582 0.183597
O O7 0.305917 0.613756 0.268279
O O8 0.277689 0.500000 0.000000
O O9 0.835782 0.483268 0.333286
O O10 0.812466 0.311461 0.155011
O O11 0.821464 0.500000 0.000000
O O12 0.385854 0.314798 0.907028
O O13 0.455509 0.397908 0.081997
O O14 0.463420 0.500000 0.500000
O O15 0.500000 0.625138 0.250000
#
# Coordination Sequence:
#
# PCOD8159913 Si02
#       7
#     8   8   8   8   4   8   8
#     4  11  24  41  71  91 133 175 213 273 334 391
#     4  10  23  40  61  93 135 167 215 274 327 395
#     4  11  23  41  65  93 129 177 224 267 327 397
#     4  11  23  43  65  99 131 169 217 276 334 393
#     4  10  24  48  62  98 132 174 228 274 320 400
#     4  10  23  40  63  93 131 170 215 276 327 390
#     4  12  24  42  68 101 135 168 218 275 341 404
#
# _framework density 21.038088999999999
#
# number of rings (size 3 to 8) (size 9 to 14) (size 15 to 20)
#    0.000    1.231    2.308    3.692    4.308    3.692 
#    0.000    1.538    1.692    0.000    0.000    0.000 
#    0.000    0.000    0.000    0.000    0.000    0.000 
#
# Total GULP energy -322271.087425 kJ/mol
# GULP energy per Si atom -12395.041824 kJ/mol
# Density = 2.099021 g / cm^3
# Si number density = 21.038089 Si / 1000 Ang^3
#
#
#
# Elastic Constant Matrix: (Units=GPa)
#
#
# Indices 1 2 3 4 5 6 
#
# 1 97.8595 62.1691 14.3329 0.0000 0.0000 0.0000
# 2 62.1691 159.0112 21.1073 0.0000 0.0000 0.0000
# 3 14.3329 21.1073 75.2406 0.0000 0.0000 0.0000
# 4 0.0000 0.0000 0.0000 30.5112 0.0000 0.0000
# 5 0.0000 0.0000 0.0000 0.0000 -3.4013 0.0000
# 6 0.0000 0.0000 0.0000 0.0000 0.0000 23.9759
#
#
#
# Elastic Compliance Matrix: (Units=1/GPa)
#
#
# Indices 1 2 3 4 5 6 
#
# 1 0.013691 -0.005200 -0.001149 0.000000 0.000000 0.000000
# 2 -0.005200 0.008507 -0.001396 0.000000 0.000000 0.000000
# 3 -0.001149 -0.001396 0.013901 0.000000 0.000000 0.000000
# 4 0.000000 0.000000 0.000000 0.032775 0.000000 0.000000
# 5 0.000000 0.000000 0.000000 0.000000 -0.294003 0.000000
# 6 0.000000 0.000000 0.000000 0.000000 0.000000 0.041709
#
#
# Mechanical properties :
#
#
# Convention : Reuss Voigt Hill
#
# Bulk Modulus (GPa) = 48.52349 58.59221 53.55785
# Shear Modulus (GPa) = -31.04431 25.85062 -2.59684
#
# Velocity S-wave (km/s) = -3.84555 3.50916 -1.11222
# Velocity P-wave (km/s) = 1.84308 6.65807 4.88502
#
# Compressibility (1/GPa) = 0.02060858
#
# Stress axis : x y z
#
# Youngs Moduli (GPa) = 73.04263 117.54648 71.93616
#
# Poissons Ratio (x) = 0.61126 0.08267
# Poissons Ratio (y) = 0.37983 0.10042
# Poissons Ratio (z) = 0.08394 0.16409
#
# Static dielectric constant tensor:
#      x y z
#    x 3.575840 0.000000 0.000000 
#    y 0.000000 3.981480 0.000000 
#    z 0.000000 0.000000 4.031890 
# 
# 
# High freq. dielectric constant tensor:
#      x y z
#    x 1.806170 0.000000 0.000000 
#    y 0.000000 1.828280 0.000000 
#    z 0.000000 0.000000 1.843770 
# 
# From -- ./inp_files/11087.got.cif
#   From: 2010.03.12/outbox.cif.g09.slc.cpg/sg20_6_cif.got.tgz:11087.got - 2010.04.14 01:38:04.
