data_PCOD8159681
_publ_section_title
;
Structure prediction by ZEFSAII (Michael W. Deem and Ramdas Pophale) SiO2 
 PCOD8159681
Probable space group: C 2 2 21
;
_chemical_formula_sum "Si O2"
_cell_formula_units_Z 52
_cell_length_a 6.352963
_cell_length_b 17.253524
_cell_length_c 23.998792
_cell_angle_alpha 90.000000
_cell_angle_beta 90.000000
_cell_angle_gamma 90.000000
_cell_volume 2630.531580
_symmetry_space_group_name_H-M "C 2 2 21"
_symmetry_group_IT_number 20
_symmetry_cell_setting 'orthorhombic'
loop_
_space_group_symop_operation_xyz
x,y,z
-x,-y,1/2+z
x,-y,-z
-x,y,1/2-z
1/2+x,1/2+y,z
1/2-x,1/2-y,1/2+z
1/2+x,1/2-y,-z
1/2-x,1/2+y,1/2-z
loop_
_atom_site_type_symbol
_atom_site_label
_atom_site_fract_x
_atom_site_fract_y
_atom_site_fract_z
Si Si1 0.778189 0.643232 0.100088
Si Si2 0.284420 0.070106 0.650026
Si Si3 0.120143 0.455776 0.697219
Si Si4 0.064339 0.038169 0.440117
Si Si5 0.952981 0.287785 0.419299
Si Si6 0.183974 0.692742 0.041558
Si Si7 0.500000 0.459355 0.250000
O O1 0.872579 0.619215 0.158717
O O2 0.675138 0.565954 0.072248
O O3 0.603931 0.707833 0.111166
O O4 0.947004 0.687023 0.062193
O O5 0.397587 0.144703 0.623674
O O6 0.140005 0.090152 0.705052
O O7 0.486243 0.022552 0.668449
O O8 0.143667 0.023562 0.605462
O O9 0.350989 0.486342 0.712759
O O10 0.000000 0.422710 0.750000
O O11 0.209118 0.113409 0.439159
O O12 0.068906 0.000000 0.500000
O O13 0.817750 0.302068 0.474898
O O14 0.200305 0.271223 0.434854
#
# Coordination Sequence:
#
# PCOD8159681 Si02
#       7
#     8   8   8   8   8   8   4
#     4  11  23  41  60  93 129 174 206 261 327 386
#     4  11  22  41  66  96 124 169 218 274 326 387
#     4  10  22  40  69  91 119 169 222 272 319 379
#     4  11  22  36  65  97 128 168 221 263 323 398
#     4  11  24  38  63  92 134 171 206 260 325 388
#     4  11  22  40  58  95 136 167 209 256 319 396
#     4  10  22  44  68  92 128 158 226 280 326 370
#
# _framework density 19.767866999999999
#
# number of rings (size 3 to 8) (size 9 to 14) (size 15 to 20)
#    0.000    1.231    6.154    0.000    0.000    3.077 
#    1.385    0.000    5.077    0.000    0.000    0.000 
#    0.000    0.000    0.000    0.000    0.000    0.000 
#
# Total GULP energy -322179.892666 kJ/mol
# GULP energy per Si atom -12391.534333 kJ/mol
# Density = 1.972287 g / cm^3
# Si number density = 19.767867 Si / 1000 Ang^3
#
#
#
# Elastic Constant Matrix: (Units=GPa)
#
#
# Indices 1 2 3 4 5 6 
#
# 1 97.3016 28.5678 40.0262 0.0000 0.0000 0.0000
# 2 28.5678 79.9799 47.3810 0.0000 0.0000 0.0000
# 3 40.0262 47.3810 119.5031 0.0000 0.0000 0.0000
# 4 0.0000 0.0000 0.0000 26.1885 0.0000 0.0000
# 5 0.0000 0.0000 0.0000 0.0000 29.6406 0.0000
# 6 0.0000 0.0000 0.0000 0.0000 0.0000 27.7606
#
#
#
# Elastic Compliance Matrix: (Units=1/GPa)
#
#
# Indices 1 2 3 4 5 6 
#
# 1 0.012306 -0.002554 -0.003109 0.000000 0.000000 0.000000
# 2 -0.002554 0.016871 -0.005834 0.000000 0.000000 0.000000
# 3 -0.003109 -0.005834 0.011722 0.000000 0.000000 0.000000
# 4 0.000000 0.000000 0.000000 0.038185 0.000000 0.000000
# 5 0.000000 0.000000 0.000000 0.000000 0.033738 0.000000
# 6 0.000000 0.000000 0.000000 0.000000 0.000000 0.036022
#
#
# Mechanical properties :
#
#
# Convention : Reuss Voigt Hill
#
# Bulk Modulus (GPa) = 55.84641 58.74829 57.29735
# Shear Modulus (GPa) = 28.12041 28.77192 28.44617
#
# Velocity S-wave (km/s) = 3.77574 3.81923 3.79754
# Velocity P-wave (km/s) = 6.87900 7.01657 6.94813
#
# Compressibility (1/GPa) = 0.01790625
#
# Stress axis : x y z
#
# Youngs Moduli (GPa) = 81.26042 59.27219 85.30627
#
# Poissons Ratio (x) = 0.15136 0.26525
# Poissons Ratio (y) = 0.20750 0.49767
# Poissons Ratio (z) = 0.25267 0.34579
#
# Static dielectric constant tensor:
#      x y z
#    x 3.939440 0.000000 0.000000 
#    y 0.000000 3.424520 0.000000 
#    z 0.000000 0.000000 3.788320 
# 
# 
# High freq. dielectric constant tensor:
#      x y z
#    x 1.785340 0.000000 0.000000 
#    y 0.000000 1.752780 0.000000 
#    z 0.000000 0.000000 1.776230 
# 
# From -- ./inp_files/29903.got.cif
#   From: 2010.03.12/outbox.cif.g09.slc.cpg/sg20_15_cif.got.tgz:29903.got - 2010.04.14 01:38:04.
