data_PCOD8159387
_publ_section_title
;
Structure prediction by ZEFSAII (Michael W. Deem and Ramdas Pophale) SiO2 
 PCOD8159387
Probable space group: C 2 2 21
;
_chemical_formula_sum "Si O2"
_cell_formula_units_Z 56
_cell_length_a 6.547492
_cell_length_b 14.368164
_cell_length_c 26.847033
_cell_angle_alpha 90.000000
_cell_angle_beta 90.000000
_cell_angle_gamma 90.000000
_cell_volume 2525.646411
_symmetry_space_group_name_H-M "C 2 2 21"
_symmetry_group_IT_number 20
_symmetry_cell_setting 'orthorhombic'
loop_
_space_group_symop_operation_xyz
x,y,z
-x,-y,1/2+z
x,-y,-z
-x,y,1/2-z
1/2+x,1/2+y,z
1/2-x,1/2-y,1/2+z
1/2+x,1/2-y,-z
1/2-x,1/2+y,1/2-z
loop_
_atom_site_type_symbol
_atom_site_label
_atom_site_fract_x
_atom_site_fract_y
_atom_site_fract_z
Si Si1 0.641238 0.000000 0.000000
Si Si2 0.265280 0.232424 0.930426
Si Si3 0.207027 0.974175 0.332662
Si Si4 0.537187 0.089608 0.095337
Si Si5 0.118365 0.170185 0.530241
Si Si6 0.192596 0.904301 0.829676
Si Si7 0.655730 0.212382 0.876518
Si Si8 0.500000 0.958365 0.750000
O O1 0.779679 0.069609 0.967973
O O2 0.504014 0.940385 0.962066
O O3 0.426713 0.181556 0.893868
O O4 0.120638 0.305115 0.900623
O O5 0.117229 0.154631 0.953789
O O6 0.380135 0.284608 0.975652
O O7 0.284170 0.029525 0.380201
O O8 0.360318 0.979247 0.285927
O O9 0.983179 0.017875 0.319989
O O10 0.210967 0.865055 0.347277
O O11 0.324432 0.068573 0.122155
O O12 0.226478 0.236800 0.571892
O O13 0.112617 0.800394 0.840561
O O14 0.343176 0.896033 0.782104
#
# Coordination Sequence:
#
# PCOD8159387 Si02
#       8
#     4   8   8   8   8   8   8   4
#     4  10  22  42  60  98 142 192 248 280 344 414
#     4  11  22  40  63  97 146 189 243 289 345 419
#     4  11  24  48  70 106 144 180 238 301 369 442
#     4  10  21  41  66  98 144 186 237 293 348 418
#     4  11  22  39  63  98 139 195 240 286 346 411
#     4  11  24  48  76 100 143 183 229 309 377 434
#     4  12  24  43  71 109 138 190 244 294 356 440
#     4  10  26  52  72 106 134 180 228 308 386 442
#
# _framework density 22.172540999999999
#
# number of rings (size 3 to 8) (size 9 to 14) (size 15 to 20)
#    0.000    1.143    5.714    0.429    0.000    2.286 
#    5.143    1.429    0.000    0.000    0.000    0.000 
#    0.000    0.000    0.000    0.000    0.000    0.000 
#
# Total GULP energy -346965.714145 kJ/mol
# GULP energy per Si atom -12391.632648 kJ/mol
# Density = 2.212208 g / cm^3
# Si number density = 22.172541 Si / 1000 Ang^3
#
#
#
# Elastic Constant Matrix: (Units=GPa)
#
#
# Indices 1 2 3 4 5 6 
#
# 1 135.5306 35.2643 47.0829 0.0000 0.0000 0.0000
# 2 35.2643 84.9041 30.8828 0.0000 0.0000 0.0000
# 3 47.0829 30.8828 94.6886 0.0000 0.0000 0.0000
# 4 0.0000 0.0000 0.0000 23.4882 0.0000 0.0000
# 5 0.0000 0.0000 0.0000 0.0000 40.9009 0.0000
# 6 0.0000 0.0000 0.0000 0.0000 0.0000 21.3065
#
#
#
# Elastic Compliance Matrix: (Units=1/GPa)
#
#
# Indices 1 2 3 4 5 6 
#
# 1 0.009361 -0.002490 -0.003843 0.000000 0.000000 0.000000
# 2 -0.002490 0.014026 -0.003336 0.000000 0.000000 0.000000
# 3 -0.003843 -0.003336 0.013560 0.000000 0.000000 0.000000
# 4 0.000000 0.000000 0.000000 0.042575 0.000000 0.000000
# 5 0.000000 0.000000 0.000000 0.000000 0.024449 0.000000
# 6 0.000000 0.000000 0.000000 0.000000 0.000000 0.046934
#
#
# Mechanical properties :
#
#
# Convention : Reuss Voigt Hill
#
# Bulk Modulus (GPa) = 56.79084 60.17593 58.48339
# Shear Modulus (GPa) = 28.39090 30.59867 29.49478
#
# Velocity S-wave (km/s) = 3.58222 3.71890 3.65120
# Velocity P-wave (km/s) = 6.54053 6.75567 6.64897
#
# Compressibility (1/GPa) = 0.01760847
#
# Stress axis : x y z
#
# Youngs Moduli (GPa) = 106.82278 71.29671 73.74796
#
# Poissons Ratio (x) = 0.17756 0.28338
# Poissons Ratio (y) = 0.26604 0.24604
# Poissons Ratio (z) = 0.41047 0.23786
#
# Static dielectric constant tensor:
#      x y z
#    x 4.147750 0.000000 0.000000 
#    y 0.000000 3.788620 0.000000 
#    z 0.000000 0.000000 4.082080 
# 
# 
# High freq. dielectric constant tensor:
#      x y z
#    x 1.880070 0.000000 0.000000 
#    y 0.000000 1.849790 0.000000 
#    z 0.000000 0.000000 1.870440 
# 
# From -- ./inp_files/30771.got.cif
#   From: 2010.03.12/outbox.cif.g09.slc.cpg/sg20_16_cif.got.tgz:30771.got - 2010.04.14 01:38:04.
