data_PCOD8159605
_publ_section_title
;
Structure prediction by ZEFSAII (Michael W. Deem and Ramdas Pophale) SiO2 
 PCOD8159605
Probable space group: C 2 2 21
;
_chemical_formula_sum "Si O2"
_cell_formula_units_Z 40
_cell_length_a 8.664045
_cell_length_b 12.906278
_cell_length_c 16.199309
_cell_angle_alpha 90.000000
_cell_angle_beta 90.000000
_cell_angle_gamma 90.000000
_cell_volume 1811.416021
_symmetry_space_group_name_H-M "C 2 2 21"
_symmetry_group_IT_number 20
_symmetry_cell_setting 'orthorhombic'
loop_
_space_group_symop_operation_xyz
x,y,z
-x,-y,1/2+z
x,-y,-z
-x,y,1/2-z
1/2+x,1/2+y,z
1/2-x,1/2-y,1/2+z
1/2+x,1/2-y,-z
1/2-x,1/2+y,1/2-z
loop_
_atom_site_type_symbol
_atom_site_label
_atom_site_fract_x
_atom_site_fract_y
_atom_site_fract_z
Si Si1 0.431145 0.103074 0.660670
Si Si2 0.821237 0.850437 0.475539
Si Si3 0.919278 0.202311 0.084375
Si Si4 0.698319 0.966730 0.621216
Si Si5 0.653546 0.520580 0.288979
O O1 0.500000 0.123846 0.750000
O O2 0.457450 0.209860 0.612409
O O3 0.251368 0.068719 0.663886
O O4 0.523387 0.008782 0.617151
O O5 0.750164 0.746697 0.435177
O O6 0.716179 0.873156 0.557030
O O7 0.000412 0.841578 0.501415
O O8 0.814317 0.941714 0.408298
O O9 0.898908 0.113624 0.152066
O O10 0.742368 0.932745 0.714190
O O11 0.500000 0.469131 0.250000
#
# Coordination Sequence:
#
# PCOD8159605 Si02
#       5
#     8   8   8   8   8
#     4   9  21  39  64  91 123 169 217 265 330 388
#     4  10  22  39  62  93 131 165 216 274 332 388
#     4  11  23  40  65  94 133 170 221 272 331 398
#     4   9  20  42  62  84 130 171 212 269 331 389
#     4  11  21  39  69  93 125 173 218 271 325 394
#
# _framework density 22.082172
#
# number of rings (size 3 to 8) (size 9 to 14) (size 15 to 20)
#    0.000    2.000    2.000    0.600    2.800    1.600 
#    0.000    0.000    4.400    0.000    0.000    0.000 
#    0.000    0.000    0.000    0.000    0.000    0.000 
#
# Total GULP energy -247918.038795 kJ/mol
# GULP energy per Si atom -12395.901940 kJ/mol
# Density = 2.203191 g / cm^3
# Si number density = 22.082172 Si / 1000 Ang^3
#
#
#
# Elastic Constant Matrix: (Units=GPa)
#
#
# Indices 1 2 3 4 5 6 
#
# 1 100.0485 45.2672 19.7553 0.0000 0.0000 0.0000
# 2 45.2672 65.0484 24.1045 0.0000 0.0000 0.0000
# 3 19.7553 24.1045 70.2441 0.0000 0.0000 0.0000
# 4 0.0000 0.0000 0.0000 24.4606 0.0000 0.0000
# 5 0.0000 0.0000 0.0000 0.0000 40.0528 0.0000
# 6 0.0000 0.0000 0.0000 0.0000 0.0000 21.8883
#
#
#
# Elastic Compliance Matrix: (Units=1/GPa)
#
#
# Indices 1 2 3 4 5 6 
#
# 1 0.014619 -0.009910 -0.000711 0.000000 0.000000 0.000000
# 2 -0.009910 0.024331 -0.005562 0.000000 0.000000 0.000000
# 3 -0.000711 -0.005562 0.016345 0.000000 0.000000 0.000000
# 4 0.000000 0.000000 0.000000 0.040882 0.000000 0.000000
# 5 0.000000 0.000000 0.000000 0.000000 0.024967 0.000000
# 6 0.000000 0.000000 0.000000 0.000000 0.000000 0.045687
#
#
# Mechanical properties :
#
#
# Convention : Reuss Voigt Hill
#
# Bulk Modulus (GPa) = 43.61364 45.95501 44.78433
# Shear Modulus (GPa) = 24.17331 27.02793 25.60062
#
# Velocity S-wave (km/s) = 3.31221 3.50232 3.40859
# Velocity P-wave (km/s) = 5.86695 6.10009 5.98466
#
# Compressibility (1/GPa) = 0.02292861
#
# Stress axis : x y z
#
# Youngs Moduli (GPa) = 68.40215 41.10012 61.18217
#
# Poissons Ratio (x) = 0.40731 0.04349
# Poissons Ratio (y) = 0.67788 0.34030
# Poissons Ratio (z) = 0.04862 0.22860
#
# Static dielectric constant tensor:
#      x y z
#    x 3.936290 0.000000 0.000000 
#    y 0.000000 3.750130 0.000000 
#    z 0.000000 0.000000 4.119210 
# 
# 
# High freq. dielectric constant tensor:
#      x y z
#    x 1.858020 0.000000 0.000000 
#    y 0.000000 1.847210 0.000000 
#    z 0.000000 0.000000 1.876930 
# 
# From -- ./inp_files/23184.got.cif
#   From: 2010.03.12/outbox.cif.g09.slc.cpg/sg20_12_cif.got.tgz:23184.got - 2010.04.14 01:38:04.
