data_PCOD8159034
_publ_section_title
;
Structure prediction by ZEFSAII (Michael W. Deem and Ramdas Pophale) SiO2 
 PCOD8159034
Probable space group: C 2 2 21
;
_chemical_formula_sum "Si O2"
_cell_formula_units_Z 48
_cell_length_a 15.753465
_cell_length_b 10.142597
_cell_length_c 14.736837
_cell_angle_alpha 90.000000
_cell_angle_beta 90.000000
_cell_angle_gamma 90.000000
_cell_volume 2354.667243
_symmetry_space_group_name_H-M "C 2 2 21"
_symmetry_group_IT_number 20
_symmetry_cell_setting 'orthorhombic'
loop_
_space_group_symop_operation_xyz
x,y,z
-x,-y,1/2+z
x,-y,-z
-x,y,1/2-z
1/2+x,1/2+y,z
1/2-x,1/2-y,1/2+z
1/2+x,1/2-y,-z
1/2-x,1/2+y,1/2-z
loop_
_atom_site_type_symbol
_atom_site_label
_atom_site_fract_x
_atom_site_fract_y
_atom_site_fract_z
Si Si1 0.150956 0.580636 0.247901
Si Si2 0.086096 0.169295 0.845794
Si Si3 0.602170 0.260287 0.400454
Si Si4 0.833565 0.994768 0.194765
Si Si5 0.441247 0.306520 0.901292
Si Si6 0.500000 0.115508 0.750000
Si Si7 0.938676 0.000000 0.500000
O O1 0.141812 0.702216 0.177410
O O2 0.141982 0.632267 0.351631
O O3 0.240459 0.510154 0.235798
O O4 0.080970 0.472162 0.227706
O O5 0.102541 0.054681 0.772849
O O6 0.987218 0.209394 0.850074
O O7 0.115099 0.108947 0.944158
O O8 0.664881 0.385292 0.385582
O O9 0.591343 0.233986 0.507256
O O10 0.862857 0.135924 0.156306
O O11 0.489632 0.201145 0.840462
O O12 0.502164 0.428405 0.925772
#
# Coordination Sequence:
#
# PCOD8159034 Si02
#       7
#     8   8   8   8   8   4   4
#     4  11  24  42  62  93 137 173 211 269 342 390
#     4  10  20  42  69  85 126 177 218 264 325 394
#     4  10  21  45  68  86 130 179 215 269 330 386
#     4  11  21  39  67  94 123 174 225 266 321 388
#     4  11  22  39  69  97 125 167 223 276 312 389
#     4  12  26  40  66  98 128 174 218 260 340 408
#     4  10  20  42  68  98 114 172 234 264 312 398
#
# _framework density 20.385045999999999
#
# number of rings (size 3 to 8) (size 9 to 14) (size 15 to 20)
#    0.000    1.333    5.000    2.500    4.667    0.667 
#    3.000    5.000    0.000    0.000    0.000    0.000 
#    0.000    0.000    0.000    0.000    0.000    0.000 
#
# Total GULP energy -297560.446908 kJ/mol
# GULP energy per Si atom -12398.351954 kJ/mol
# Density = 2.033865 g / cm^3
# Si number density = 20.385046 Si / 1000 Ang^3
#
#
#
# Elastic Constant Matrix: (Units=GPa)
#
#
# Indices 1 2 3 4 5 6 
#
# 1 87.4672 37.6616 48.1774 0.0000 0.0000 0.0000
# 2 37.6616 100.1431 59.2039 0.0000 0.0000 0.0000
# 3 48.1774 59.2039 138.8085 0.0000 0.0000 0.0000
# 4 0.0000 0.0000 0.0000 36.2870 0.0000 0.0000
# 5 0.0000 0.0000 0.0000 0.0000 20.7694 0.0000
# 6 0.0000 0.0000 0.0000 0.0000 0.0000 30.6091
#
#
#
# Elastic Compliance Matrix: (Units=1/GPa)
#
#
# Indices 1 2 3 4 5 6 
#
# 1 0.014962 -0.003419 -0.003735 0.000000 0.000000 0.000000
# 2 -0.003419 0.014134 -0.004842 0.000000 0.000000 0.000000
# 3 -0.003735 -0.004842 0.010565 0.000000 0.000000 0.000000
# 4 0.000000 0.000000 0.000000 0.027558 0.000000 0.000000
# 5 0.000000 0.000000 0.000000 0.000000 0.048148 0.000000
# 6 0.000000 0.000000 0.000000 0.000000 0.000000 0.032670
#
#
# Mechanical properties :
#
#
# Convention : Reuss Voigt Hill
#
# Bulk Modulus (GPa) = 63.81352 68.50051 66.15701
# Shear Modulus (GPa) = 28.20849 29.62484 28.91666
#
# Velocity S-wave (km/s) = 3.72396 3.81630 3.77041
# Velocity P-wave (km/s) = 7.06134 7.28664 7.17488
#
# Compressibility (1/GPa) = 0.01567066
#
# Stress axis : x y z
#
# Youngs Moduli (GPa) = 66.83542 70.75209 94.64791
#
# Poissons Ratio (x) = 0.24190 0.35349
# Poissons Ratio (y) = 0.22851 0.45825
# Poissons Ratio (z) = 0.24962 0.34256
#
# Static dielectric constant tensor:
#      x y z
#    x 3.377780 0.000000 0.000000 
#    y 0.000000 3.795590 0.000000 
#    z 0.000000 0.000000 3.814710 
# 
# 
# High freq. dielectric constant tensor:
#      x y z
#    x 1.768650 0.000000 0.000000 
#    y 0.000000 1.800290 0.000000 
#    z 0.000000 0.000000 1.802760 
# 
# From -- ./inp_files/20682.got.cif
#   From: 2010.03.12/outbox.cif.g09.slc.cpg/sg20_11_cif.got.tgz:20682.got - 2010.04.14 01:38:04.
