data_PCOD8159388
_publ_section_title
;
Structure prediction by ZEFSAII (Michael W. Deem and Ramdas Pophale) SiO2 
 PCOD8159388
Probable space group: C 2 2 21
;
_chemical_formula_sum "Si O2"
_cell_formula_units_Z 56
_cell_length_a 21.753726
_cell_length_b 14.070207
_cell_length_c 9.109942
_cell_angle_alpha 90.000000
_cell_angle_beta 90.000000
_cell_angle_gamma 90.000000
_cell_volume 2788.365835
_symmetry_space_group_name_H-M "C 2 2 21"
_symmetry_group_IT_number 20
_symmetry_cell_setting 'orthorhombic'
loop_
_space_group_symop_operation_xyz
x,y,z
-x,-y,1/2+z
x,-y,-z
-x,y,1/2-z
1/2+x,1/2+y,z
1/2-x,1/2-y,1/2+z
1/2+x,1/2-y,-z
1/2-x,1/2+y,1/2-z
loop_
_atom_site_type_symbol
_atom_site_label
_atom_site_fract_x
_atom_site_fract_y
_atom_site_fract_z
Si Si1 0.950565 0.939543 0.643300
Si Si2 0.687445 0.322096 0.285452
Si Si3 0.335514 0.470888 0.833150
Si Si4 0.237808 0.328224 0.928196
Si Si5 0.105937 0.600511 0.062418
Si Si6 0.512141 0.772530 0.089071
Si Si7 0.063437 0.714741 0.319377
O O1 0.979641 0.840534 0.590830
O O2 0.000000 0.991448 0.750000
O O3 0.935085 0.000000 0.500000
O O4 0.890218 0.923785 0.741585
O O5 0.688751 0.434262 0.252212
O O6 0.727378 0.295401 0.426615
O O7 0.717714 0.268544 0.149643
O O8 0.616497 0.293195 0.308703
O O9 0.282046 0.392881 0.829122
O O10 0.354790 0.500000 0.000000
O O11 0.178655 0.392910 0.962029
O O12 0.085823 0.618529 0.233472
O O13 0.082233 0.500000 0.000000
O O14 0.075337 0.684333 0.969549
O O15 0.500000 0.813881 0.250000
O O16 0.453313 0.804499 0.989735
O O17 0.000000 0.755561 0.250000
#
# Coordination Sequence:
#
# PCOD8159388 Si02
#       7
#     8   8   8   8   8   8   8
#     4  11  26  37  61  92 129 167 205 257 314 382
#     4  10  22  37  67  83 126 168 201 270 308 379
#     4  10  23  40  60  92 123 167 214 254 311 379
#     4  10  23  40  61  92 122 166 210 259 318 364
#     4  10  21  41  67  88 119 166 212 259 312 373
#     4  10  24  38  59  95 129 162 204 265 310 377
#     4   9  21  39  61  89 124 160 210 247 322 366
#
# _framework density 20.083449000000002
#
# number of rings (size 3 to 8) (size 9 to 14) (size 15 to 20)
#    0.000    2.000    0.000    1.714   18.000    1.714 
#    0.000    0.000    0.000    6.857    0.000    0.000 
#    0.000    0.000    0.000    0.000    0.000    0.000 
#
# Total GULP energy -347147.198645 kJ/mol
# GULP energy per Si atom -12398.114237 kJ/mol
# Density = 2.003774 g / cm^3
# Si number density = 20.083449 Si / 1000 Ang^3
#
#
#
# Elastic Constant Matrix: (Units=GPa)
#
#
# Indices 1 2 3 4 5 6 
#
# 1 113.4571 3.8744 37.2707 0.0000 0.0000 0.0000
# 2 3.8744 61.6778 25.2514 0.0000 0.0000 0.0000
# 3 37.2707 25.2514 98.5664 0.0000 0.0000 0.0000
# 4 0.0000 0.0000 0.0000 30.2168 0.0000 0.0000
# 5 0.0000 0.0000 0.0000 0.0000 35.9164 0.0000
# 6 0.0000 0.0000 0.0000 0.0000 0.0000 19.4386
#
#
#
# Elastic Compliance Matrix: (Units=1/GPa)
#
#
# Indices 1 2 3 4 5 6 
#
# 1 0.010123 0.001040 -0.004094 0.000000 0.000000 0.000000
# 2 0.001040 0.018220 -0.005061 0.000000 0.000000 0.000000
# 3 -0.004094 -0.005061 0.012990 0.000000 0.000000 0.000000
# 4 0.000000 0.000000 0.000000 0.033094 0.000000 0.000000
# 5 0.000000 0.000000 0.000000 0.000000 0.027842 0.000000
# 6 0.000000 0.000000 0.000000 0.000000 0.000000 0.051444
#
#
# Mechanical properties :
#
#
# Convention : Reuss Voigt Hill
#
# Bulk Modulus (GPa) = 39.83547 45.16604 42.50076
# Shear Modulus (GPa) = 28.04065 30.93467 29.48766
#
# Velocity S-wave (km/s) = 3.74064 3.92893 3.83594
# Velocity P-wave (km/s) = 6.20762 6.56658 6.38962
#
# Compressibility (1/GPa) = 0.02510326
#
# Stress axis : x y z
#
# Youngs Moduli (GPa) = 98.78092 54.88478 76.98065
#
# Poissons Ratio (x) = -0.05710 0.31520
# Poissons Ratio (y) = -0.10277 0.38961
# Poissons Ratio (z) = 0.40446 0.27778
#
# Static dielectric constant tensor:
#      x y z
#    x 3.741020 0.000000 0.000000 
#    y 0.000000 3.460380 0.000000 
#    z 0.000000 0.000000 3.908770 
# 
# 
# High freq. dielectric constant tensor:
#      x y z
#    x 1.794220 0.000000 0.000000 
#    y 0.000000 1.769230 0.000000 
#    z 0.000000 0.000000 1.786370 
# 
# From -- ./inp_files/10176.got.cif
#   From: 2010.03.12/outbox.cif.g09.slc.cpg/sg20_6_cif.got.tgz:10176.got - 2010.04.14 01:38:04.
