data_PCOD8159638
_publ_section_title
;
Structure prediction by ZEFSAII (Michael W. Deem and Ramdas Pophale) SiO2 
 PCOD8159638
Probable space group: C 2 2 21
;
_chemical_formula_sum "Si O2"
_cell_formula_units_Z 40
_cell_length_a 25.612781
_cell_length_b 9.033234
_cell_length_c 8.578314
_cell_angle_alpha 90.000000
_cell_angle_beta 90.000000
_cell_angle_gamma 90.000000
_cell_volume 1984.732291
_symmetry_space_group_name_H-M "C 2 2 21"
_symmetry_group_IT_number 20
_symmetry_cell_setting 'orthorhombic'
loop_
_space_group_symop_operation_xyz
x,y,z
-x,-y,1/2+z
x,-y,-z
-x,y,1/2-z
1/2+x,1/2+y,z
1/2-x,1/2-y,1/2+z
1/2+x,1/2-y,-z
1/2-x,1/2+y,1/2-z
loop_
_atom_site_type_symbol
_atom_site_label
_atom_site_fract_x
_atom_site_fract_y
_atom_site_fract_z
Si Si1 0.774738 0.940337 0.831760
Si Si2 0.946600 0.935945 0.832007
Si Si3 0.662143 0.108514 0.277098
Si Si4 0.638216 0.598376 0.845749
Si Si5 0.358973 0.799150 0.124784
O O1 0.724528 0.910768 0.725993
O O2 0.806804 0.788407 0.830856
O O3 0.812096 0.066468 0.762726
O O4 0.756861 0.000000 0.000000
O O5 0.910904 0.791634 0.839078
O O6 0.000000 0.889941 0.750000
O O7 0.916823 0.061741 0.733811
O O8 0.959878 0.000000 0.000000
O O9 0.641539 0.220970 0.139710
O O10 0.643716 0.171237 0.442107
O O11 0.637427 0.944580 0.265506
O O12 0.644220 0.500000 0.000000
#
# Coordination Sequence:
#
# PCOD8159638 Si02
#       5
#     8   8   8   8   8
#     4  11  22  37  56  91 134 183 223 262 318 402
#     4  11  22  45  70  92 122 168 222 284 347 410
#     4  11  22  37  64  92 134 177 216 272 336 394
#     4  11  23  39  62  95 130 171 227 269 327 404
#     4  10  22  40  62  93 133 172 220 283 335 391
#
# _framework density 20.153851
#
# number of rings (size 3 to 8) (size 9 to 14) (size 15 to 20)
#    0.000    1.200    4.000    3.000    5.600    1.600 
#    0.000    1.000    4.400    0.000    0.000    0.000 
#    0.000    0.000    0.000    0.000    0.000    0.000 
#
# Total GULP energy -247930.283253 kJ/mol
# GULP energy per Si atom -12396.514163 kJ/mol
# Density = 2.010798 g / cm^3
# Si number density = 20.153851 Si / 1000 Ang^3
#
#
#
# Elastic Constant Matrix: (Units=GPa)
#
#
# Indices 1 2 3 4 5 6 
#
# 1 126.0895 47.5993 14.4719 0.0000 0.0000 0.0000
# 2 47.5993 162.9676 33.6036 0.0000 0.0000 0.0000
# 3 14.4719 33.6036 51.5600 0.0000 0.0000 0.0000
# 4 0.0000 0.0000 0.0000 29.0590 0.0000 0.0000
# 5 0.0000 0.0000 0.0000 0.0000 54.8988 0.0000
# 6 0.0000 0.0000 0.0000 0.0000 0.0000 4.8924
#
#
#
# Elastic Compliance Matrix: (Units=1/GPa)
#
#
# Indices 1 2 3 4 5 6 
#
# 1 0.008952 -0.002422 -0.000934 0.000000 0.000000 0.000000
# 2 -0.002422 0.007744 -0.004367 0.000000 0.000000 0.000000
# 3 -0.000934 -0.004367 0.022503 0.000000 0.000000 0.000000
# 4 0.000000 0.000000 0.000000 0.034413 0.000000 0.000000
# 5 0.000000 0.000000 0.000000 0.000000 0.018215 0.000000
# 6 0.000000 0.000000 0.000000 0.000000 0.000000 0.204398
#
#
# Mechanical properties :
#
#
# Convention : Reuss Voigt Hill
#
# Bulk Modulus (GPa) = 42.10041 59.10743 50.60392
# Shear Modulus (GPa) = 15.64501 34.09953 24.87227
#
# Velocity S-wave (km/s) = 2.78920 4.11781 3.51682
# Velocity P-wave (km/s) = 5.59533 7.21112 6.45399
#
# Compressibility (1/GPa) = 0.02375274
#
# Stress axis : x y z
#
# Youngs Moduli (GPa) = 111.70088 129.12899 44.43772
#
# Poissons Ratio (x) = 0.31278 0.04151
# Poissons Ratio (y) = 0.27056 0.19407
# Poissons Ratio (z) = 0.10435 0.56395
#
# Static dielectric constant tensor:
#      x y z
#    x 3.463270 0.000000 0.000000 
#    y 0.000000 3.744450 0.000000 
#    z 0.000000 0.000000 3.693610 
# 
# 
# High freq. dielectric constant tensor:
#      x y z
#    x 1.768930 0.000000 0.000000 
#    y 0.000000 1.801710 0.000000 
#    z 0.000000 0.000000 1.781090 
# 
# From -- ./inp_files/6033.got.cif
#   From: 2010.03.12/outbox.cif.g09.slc.cpg/sg20_4_cif.got.tgz:6033.got - 2010.04.14 01:38:04.
