data_PCOD8159658
_publ_section_title
;
Structure prediction by ZEFSAII (Michael W. Deem and Ramdas Pophale) SiO2 
 PCOD8159658
Probable space group: C 2 2 21
;
_chemical_formula_sum "Si O2"
_cell_formula_units_Z 32
_cell_length_a 5.204706
_cell_length_b 22.712370
_cell_length_c 14.126196
_cell_angle_alpha 90.000000
_cell_angle_beta 90.000000
_cell_angle_gamma 90.000000
_cell_volume 1669.874699
_symmetry_space_group_name_H-M "C 2 2 21"
_symmetry_group_IT_number 20
_symmetry_cell_setting 'orthorhombic'
loop_
_space_group_symop_operation_xyz
x,y,z
-x,-y,1/2+z
x,-y,-z
-x,y,1/2-z
1/2+x,1/2+y,z
1/2-x,1/2-y,1/2+z
1/2+x,1/2-y,-z
1/2-x,1/2+y,1/2-z
loop_
_atom_site_type_symbol
_atom_site_label
_atom_site_fract_x
_atom_site_fract_y
_atom_site_fract_z
Si Si1 0.311883 0.430714 0.501953
Si Si2 0.902489 0.355844 0.149154
Si Si3 0.249711 0.273300 0.810428
Si Si4 0.179933 0.632039 0.032876
O O1 0.280677 0.500000 0.500000
O O2 0.289494 0.404769 0.394773
O O3 0.585698 0.413375 0.544938
O O4 0.080828 0.402225 0.565086
O O5 0.751619 0.294780 0.160339
O O6 0.000000 0.379267 0.250000
O O7 0.143159 0.346824 0.076572
O O8 0.500000 0.290316 0.750000
O O9 0.238717 0.310859 0.905714
O O10 0.000000 0.287777 0.750000
#
# Coordination Sequence:
#
# PCOD8159658 Si02
#       4
#     8   8   8   8
#     4  10  22  40  65  86 125 164 219 255 308 368
#     4   9  24  37  66  91 127 161 210 259 316 376
#     4  11  24  39  63  96 133 162 210 257 319 383
#     4  10  23  39  67  86 129 162 210 256 322 360
#
# _framework density 19.163114
#
# number of rings (size 3 to 8) (size 9 to 14) (size 15 to 20)
#    1.500    0.500    0.000    2.250   10.500    0.000 
#    0.000    3.750    5.500    0.000    0.000    0.000 
#    0.000    0.000    0.000    0.000    0.000    0.000 
#
# Total GULP energy -198297.432312 kJ/mol
# GULP energy per Si atom -12393.589519 kJ/mol
# Density = 1.911950 g / cm^3
# Si number density = 19.163114 Si / 1000 Ang^3
#
#
#
# Elastic Constant Matrix: (Units=GPa)
#
#
# Indices 1 2 3 4 5 6 
#
# 1 130.9016 21.6530 33.8036 0.0000 0.0000 0.0000
# 2 21.6530 82.8228 43.5334 0.0000 0.0000 0.0000
# 3 33.8036 43.5334 95.7209 0.0000 0.0000 0.0000
# 4 0.0000 0.0000 0.0000 15.4100 0.0000 0.0000
# 5 0.0000 0.0000 0.0000 0.0000 20.7053 0.0000
# 6 0.0000 0.0000 0.0000 0.0000 0.0000 -152.5137
#
#
#
# Elastic Compliance Matrix: (Units=1/GPa)
#
#
# Indices 1 2 3 4 5 6 
#
# 1 0.008450 -0.000842 -0.002601 0.000000 0.000000 0.000000
# 2 -0.000842 0.015951 -0.006957 0.000000 0.000000 0.000000
# 3 -0.002601 -0.006957 0.014530 0.000000 0.000000 0.000000
# 4 0.000000 0.000000 0.000000 0.064893 0.000000 0.000000
# 5 0.000000 0.000000 0.000000 0.000000 0.048297 0.000000
# 6 0.000000 0.000000 0.000000 0.000000 0.000000 -0.006557
#
#
# Mechanical properties :
#
#
# Convention : Reuss Voigt Hill
#
# Bulk Modulus (GPa) = 55.15619 56.38059 55.76839
# Shear Modulus (GPa) = 29.00099 -9.24932 9.87583
#
# Velocity S-wave (km/s) = 3.89443 -2.19934 2.27261
# Velocity P-wave (km/s) = 7.00479 4.79956 6.00429
#
# Compressibility (1/GPa) = 0.01813033
#
# Stress axis : x y z
#
# Youngs Moduli (GPa) = 118.33836 62.69260 68.82449
#
# Poissons Ratio (x) = 0.05278 0.17903
# Poissons Ratio (y) = 0.09963 0.47881
# Poissons Ratio (z) = 0.30783 0.43615
#
# Static dielectric constant tensor:
#      x y z
#    x 3.661970 0.000000 0.000000 
#    y 0.000000 3.233240 0.000000 
#    z 0.000000 0.000000 3.772730 
# 
# 
# High freq. dielectric constant tensor:
#      x y z
#    x 1.757350 0.000000 0.000000 
#    y 0.000000 1.735420 0.000000 
#    z 0.000000 0.000000 1.728550 
# 
# From -- ./inp_files/16059.got.cif
#   From: 2010.03.12/outbox.cif.g09.slc.cpg/sg20_9_cif.got.tgz:16059.got - 2010.04.14 01:38:04.
