data_PCOD8159925
_publ_section_title
;
Structure prediction by ZEFSAII (Michael W. Deem and Ramdas Pophale) SiO2 
 PCOD8159925
Probable space group: C 2 2 21
;
_chemical_formula_sum "Si O2"
_cell_formula_units_Z 40
_cell_length_a 14.567686
_cell_length_b 8.580064
_cell_length_c 13.084945
_cell_angle_alpha 90.000000
_cell_angle_beta 90.000000
_cell_angle_gamma 90.000000
_cell_volume 1635.509235
_symmetry_space_group_name_H-M "C 2 2 21"
_symmetry_group_IT_number 20
_symmetry_cell_setting 'orthorhombic'
loop_
_space_group_symop_operation_xyz
x,y,z
-x,-y,1/2+z
x,-y,-z
-x,y,1/2-z
1/2+x,1/2+y,z
1/2-x,1/2-y,1/2+z
1/2+x,1/2-y,-z
1/2-x,1/2+y,1/2-z
loop_
_atom_site_type_symbol
_atom_site_label
_atom_site_fract_x
_atom_site_fract_y
_atom_site_fract_z
Si Si1 0.457488 0.606724 0.852879
Si Si2 0.714273 0.492388 0.242265
Si Si3 0.330518 0.193134 0.629788
Si Si4 0.280701 0.161058 0.948414
Si Si5 0.023435 0.777034 0.566639
O O1 0.500000 0.675283 0.750000
O O2 0.352359 0.573902 0.829565
O O3 0.504919 0.445333 0.888125
O O4 0.469721 0.729810 0.943466
O O5 0.693819 0.668186 0.209834
O O6 0.807843 0.467399 0.308751
O O7 0.710481 0.380918 0.142668
O O8 0.271793 0.221876 0.525609
O O9 0.438658 0.171887 0.604348
O O10 0.374269 0.229818 0.897273
O O11 0.311322 0.000000 0.000000
#
# Coordination Sequence:
#
# PCOD8159925 Si02
#       5
#     8   8   8   8   8
#     4  11  21  38  66  96 121 165 227 264 312 377
#     4  11  22  40  67  96 130 171 212 272 324 391
#     4  11  23  43  67  98 131 172 218 272 330 380
#     4  10  23  41  62  92 136 170 214 272 335 387
#     4  11  23  40  68  95 129 173 221 270 317 396
#
# _framework density 24.457215000000001
#
# number of rings (size 3 to 8) (size 9 to 14) (size 15 to 20)
#    0.000    1.200    4.000    2.400    5.600    0.000 
#    0.000    6.000    0.000    0.000    0.000    0.000 
#    0.000    0.000    0.000    0.000    0.000    0.000 
#
# Total GULP energy -247787.214549 kJ/mol
# GULP energy per Si atom -12389.360727 kJ/mol
# Density = 2.440155 g / cm^3
# Si number density = 24.457215 Si / 1000 Ang^3
#
#
#
# Elastic Constant Matrix: (Units=GPa)
#
#
# Indices 1 2 3 4 5 6 
#
# 1 117.2336 4.2481 21.9166 0.0000 0.0000 0.0000
# 2 4.2481 23.5121 17.9857 0.0000 0.0000 0.0000
# 3 21.9166 17.9857 120.8751 0.0000 0.0000 0.0000
# 4 0.0000 0.0000 0.0000 36.0173 0.0000 0.0000
# 5 0.0000 0.0000 0.0000 0.0000 57.9203 0.0000
# 6 0.0000 0.0000 0.0000 0.0000 0.0000 25.7447
#
#
#
# Elastic Compliance Matrix: (Units=1/GPa)
#
#
# Indices 1 2 3 4 5 6 
#
# 1 0.008833 -0.000418 -0.001539 0.000000 0.000000 0.000000
# 2 -0.000418 0.048014 -0.007068 0.000000 0.000000 0.000000
# 3 -0.001539 -0.007068 0.009604 0.000000 0.000000 0.000000
# 4 0.000000 0.000000 0.000000 0.027764 0.000000 0.000000
# 5 0.000000 0.000000 0.000000 0.000000 0.017265 0.000000
# 6 0.000000 0.000000 0.000000 0.000000 0.000000 0.038843
#
#
# Mechanical properties :
#
#
# Convention : Reuss Voigt Hill
#
# Bulk Modulus (GPa) = 20.66183 38.88018 29.77101
# Shear Modulus (GPa) = 27.09907 38.43447 32.76677
#
# Velocity S-wave (km/s) = 3.33230 3.96851 3.66424
# Velocity P-wave (km/s) = 4.82412 6.07705 5.48647
#
# Compressibility (1/GPa) = 0.04839842
#
# Stress axis : x y z
#
# Youngs Moduli (GPa) = 113.21298 20.82732 104.12497
#
# Poissons Ratio (x) = 0.00871 0.16028
# Poissons Ratio (y) = 0.04737 0.73600
# Poissons Ratio (z) = 0.17427 0.14722
#
# Static dielectric constant tensor:
#      x y z
#    x 4.405820 0.000000 0.000000 
#    y 0.000000 3.952190 0.000000 
#    z 0.000000 0.000000 4.677160 
# 
# 
# High freq. dielectric constant tensor:
#      x y z
#    x 1.971810 0.000000 0.000000 
#    y 0.000000 1.924650 0.000000 
#    z 0.000000 0.000000 1.999480 
# 
# From -- ./inp_files/13890.got.cif
#   From: 2010.03.12/outbox.cif.g09.slc.cpg/sg20_7_cif.got.tgz:13890.got - 2010.04.14 01:38:04.
