data_PCOD8159345
_publ_section_title
;
Structure prediction by ZEFSAII (Michael W. Deem and Ramdas Pophale) SiO2 
 PCOD8159345
Probable space group: C 2 2 21
;
_chemical_formula_sum "Si O2"
_cell_formula_units_Z 48
_cell_length_a 8.543620
_cell_length_b 31.497749
_cell_length_c 8.632166
_cell_angle_alpha 90.000000
_cell_angle_beta 90.000000
_cell_angle_gamma 90.000000
_cell_volume 2322.957290
_symmetry_space_group_name_H-M "C 2 2 21"
_symmetry_group_IT_number 20
_symmetry_cell_setting 'orthorhombic'
loop_
_space_group_symop_operation_xyz
x,y,z
-x,-y,1/2+z
x,-y,-z
-x,y,1/2-z
1/2+x,1/2+y,z
1/2-x,1/2-y,1/2+z
1/2+x,1/2-y,-z
1/2-x,1/2+y,1/2-z
loop_
_atom_site_type_symbol
_atom_site_label
_atom_site_fract_x
_atom_site_fract_y
_atom_site_fract_z
Si Si1 0.805450 0.865633 0.497256
Si Si2 0.637076 0.204778 0.041869
Si Si3 0.715446 0.219830 0.380610
Si Si4 0.000000 0.909540 0.250000
Si Si5 0.964221 0.616349 0.569101
Si Si6 0.500000 0.413409 0.750000
Si Si7 0.789204 0.048875 0.003307
O O1 0.804295 0.814652 0.512163
O O2 0.871822 0.879060 0.329902
O O3 0.629324 0.883337 0.521615
O O4 0.917412 0.883628 0.627146
O O5 0.736904 0.207454 0.200346
O O6 0.464304 0.221415 0.072263
O O7 0.712483 0.233964 0.909353
O O8 0.640689 0.156713 0.979775
O O9 0.912883 0.940227 0.130645
O O10 0.871304 0.574606 0.518649
O O11 0.000000 0.617623 0.750000
O O12 0.631103 0.442328 0.668820
O O13 0.741219 0.000000 0.000000
#
# Coordination Sequence:
#
# PCOD8159345 Si02
#       7
#     8   8   8   4   8   4   8
#     4  10  22  42  65  93 128 170 216 257 326 384
#     4  10  24  39  62  89 130 165 214 265 319 377
#     4  10  23  40  60  94 124 169 214 263 313 381
#     4  10  21  40  66  92 132 170 212 262 325 388
#     4  11  23  44  67  94 131 176 215 271 332 385
#     4  10  23  42  66  96 132 168 206 280 323 388
#     4  11  23  42  66  98 128 169 219 268 330 394
#
# _framework density 20.663315000000001
#
# number of rings (size 3 to 8) (size 9 to 14) (size 15 to 20)
#    0.000    1.667    1.667    1.500    4.667    7.333 
#    3.000    0.833    0.000    0.000    0.000    0.000 
#    0.000    0.000    0.000    0.000    0.000    0.000 
#
# Total GULP energy -297718.271677 kJ/mol
# GULP energy per Si atom -12404.927987 kJ/mol
# Density = 2.061628 g / cm^3
# Si number density = 20.663315 Si / 1000 Ang^3
#
#
#
# Elastic Constant Matrix: (Units=GPa)
#
#
# Indices 1 2 3 4 5 6 
#
# 1 71.4738 55.0747 21.5919 0.0000 0.0000 0.0000
# 2 55.0747 148.2436 41.3042 0.0000 0.0000 0.0000
# 3 21.5919 41.3042 92.9838 0.0000 0.0000 0.0000
# 4 0.0000 0.0000 0.0000 21.0880 0.0000 0.0000
# 5 0.0000 0.0000 0.0000 0.0000 35.6800 0.0000
# 6 0.0000 0.0000 0.0000 0.0000 0.0000 32.0481
#
#
#
# Elastic Compliance Matrix: (Units=1/GPa)
#
#
# Indices 1 2 3 4 5 6 
#
# 1 0.019789 -0.006929 -0.001517 0.000000 0.000000 0.000000
# 2 -0.006929 0.010125 -0.002888 0.000000 0.000000 0.000000
# 3 -0.001517 -0.002888 0.012390 0.000000 0.000000 0.000000
# 4 0.000000 0.000000 0.000000 0.047420 0.000000 0.000000
# 5 0.000000 0.000000 0.000000 0.000000 0.028027 0.000000
# 6 0.000000 0.000000 0.000000 0.000000 0.000000 0.031203
#
#
# Mechanical properties :
#
#
# Convention : Reuss Voigt Hill
#
# Bulk Modulus (GPa) = 50.93240 60.96032 55.94636
# Shear Modulus (GPa) = 28.06340 30.74523 29.40431
#
# Velocity S-wave (km/s) = 3.68928 3.86153 3.77639
# Velocity P-wave (km/s) = 6.54598 7.03190 6.79329
#
# Compressibility (1/GPa) = 0.01963387
#
# Stress axis : x y z
#
# Youngs Moduli (GPa) = 50.53381 98.76831 80.71052
#
# Poissons Ratio (x) = 0.68437 0.12246
# Poissons Ratio (y) = 0.35015 0.23313
# Poissons Ratio (z) = 0.07667 0.28529
#
# Static dielectric constant tensor:
#      x y z
#    x 3.856800 0.000000 0.000000 
#    y 0.000000 3.564000 0.000000 
#    z 0.000000 0.000000 3.978170 
# 
# 
# High freq. dielectric constant tensor:
#      x y z
#    x 1.815160 0.000000 0.000000 
#    y 0.000000 1.799920 0.000000 
#    z 0.000000 0.000000 1.816910 
# 
# From -- ./inp_files/6578.got.cif
#   From: 2010.03.12/outbox.cif.g09.slc.cpg/sg20_4_cif.got.tgz:6578.got - 2010.04.14 01:38:04.
