data_PCOD8159914
_publ_section_title
;
Structure prediction by ZEFSAII (Michael W. Deem and Ramdas Pophale) SiO2 
 PCOD8159914
Probable space group: C 2 2 21
;
_chemical_formula_sum "Si O2"
_cell_formula_units_Z 64
_cell_length_a 14.005850
_cell_length_b 9.136155
_cell_length_c 24.082318
_cell_angle_alpha 90.000000
_cell_angle_beta 90.000000
_cell_angle_gamma 90.000000
_cell_volume 3081.564176
_symmetry_space_group_name_H-M "C 2 2 21"
_symmetry_group_IT_number 20
_symmetry_cell_setting 'orthorhombic'
loop_
_space_group_symop_operation_xyz
x,y,z
-x,-y,1/2+z
x,-y,-z
-x,y,1/2-z
1/2+x,1/2+y,z
1/2-x,1/2-y,1/2+z
1/2+x,1/2-y,-z
1/2-x,1/2+y,1/2-z
loop_
_atom_site_type_symbol
_atom_site_label
_atom_site_fract_x
_atom_site_fract_y
_atom_site_fract_z
Si Si1 0.144711 0.399791 0.248574
Si Si2 0.570209 0.443340 0.120797
Si Si3 0.815822 0.162245 0.520380
Si Si4 0.596264 0.765742 0.628989
Si Si5 0.723405 0.385574 0.803147
Si Si6 0.361769 0.327189 0.006901
Si Si7 0.467119 0.727307 0.436895
Si Si8 0.500766 0.948123 0.341365
O O1 0.238723 0.496192 0.258865
O O2 0.164899 0.235573 0.229695
O O3 0.088769 0.382018 0.306562
O O4 0.083849 0.485729 0.201844
O O5 0.625200 0.336427 0.077872
O O6 0.483007 0.354464 0.151220
O O7 0.649396 0.524495 0.158475
O O8 0.515848 0.562519 0.084021
O O9 0.724372 0.262591 0.529251
O O10 0.869431 0.242998 0.470197
O O11 0.787426 0.000000 0.500000
O O12 0.687392 0.800234 0.668130
O O13 0.642022 0.716632 0.571243
O O14 0.534103 0.912278 0.623835
O O15 0.366135 0.500000 0.000000
O O16 0.450350 0.241378 0.980630
O O17 0.461506 0.832815 0.384850
#
# Coordination Sequence:
#
# PCOD8159914 Si02
#       8
#     8   8   8   8   8   8   8   8
#     4  10  24  47  66  98 131 170 232 297 343 414
#     4  11  22  45  67  96 138 183 218 279 351 406
#     4  10  23  40  63  93 137 178 219 270 337 409
#     4  11  24  44  67 101 135 183 226 278 349 420
#     4  11  25  46  72  99 135 176 234 292 354 413
#     4  12  24  41  63  98 138 176 225 270 330 421
#     4  11  21  43  66  96 139 175 220 276 331 420
#     4  10  24  43  69  94 134 173 227 288 347 403
#
# _framework density 20.768675000000002
#
# number of rings (size 3 to 8) (size 9 to 14) (size 15 to 20)
#    0.000    1.250    3.750    1.875    7.000    2.000 
#    0.000    0.000    0.000    0.000    0.000    0.000 
#    0.000    0.000    0.000    0.000    0.000    0.000 
#
# Total GULP energy -396614.277229 kJ/mol
# GULP energy per Si atom -12394.196163 kJ/mol
# Density = 2.072140 g / cm^3
# Si number density = 20.768675 Si / 1000 Ang^3
#
#
#
# Elastic Constant Matrix: (Units=GPa)
#
#
# Indices 1 2 3 4 5 6 
#
# 1 98.3786 46.1085 23.3172 0.0000 0.0000 0.0000
# 2 46.1085 74.8548 49.1764 0.0000 0.0000 0.0000
# 3 23.3172 49.1764 76.9188 0.0000 0.0000 0.0000
# 4 0.0000 0.0000 0.0000 33.4350 0.0000 0.0000
# 5 0.0000 0.0000 0.0000 0.0000 26.2608 0.0000
# 6 0.0000 0.0000 0.0000 0.0000 0.0000 44.3802
#
#
#
# Elastic Compliance Matrix: (Units=1/GPa)
#
#
# Indices 1 2 3 4 5 6 
#
# 1 0.014517 -0.010433 0.002269 0.000000 0.000000 0.000000
# 2 -0.010433 0.030531 -0.016357 0.000000 0.000000 0.000000
# 3 0.002269 -0.016357 0.022770 0.000000 0.000000 0.000000
# 4 0.000000 0.000000 0.000000 0.029909 0.000000 0.000000
# 5 0.000000 0.000000 0.000000 0.000000 0.038080 0.000000
# 6 0.000000 0.000000 0.000000 0.000000 0.000000 0.022533
#
#
# Mechanical properties :
#
#
# Convention : Reuss Voigt Hill
#
# Bulk Modulus (GPa) = 53.25509 54.15070 53.70290
# Shear Modulus (GPa) = 23.40402 29.58521 26.49461
#
# Velocity S-wave (km/s) = 3.36056 3.77836 3.57557
# Velocity P-wave (km/s) = 6.38400 6.72046 6.55439
#
# Compressibility (1/GPa) = 0.01877755
#
# Stress axis : x y z
#
# Youngs Moduli (GPa) = 68.88682 32.75337 43.91702
#
# Poissons Ratio (x) = 0.34170 -0.09966
# Poissons Ratio (y) = 0.71867 0.71835
# Poissons Ratio (z) = -0.15633 0.53574
#
# Static dielectric constant tensor:
#      x y z
#    x 3.936900 0.000000 0.000000 
#    y 0.000000 3.761820 0.000000 
#    z 0.000000 0.000000 3.705670 
# 
# 
# High freq. dielectric constant tensor:
#      x y z
#    x 1.827460 0.000000 0.000000 
#    y 0.000000 1.808980 0.000000 
#    z 0.000000 0.000000 1.807800 
# 
# From -- ./inp_files/29342.got.cif
#   From: 2010.03.12/outbox.cif.g09.slc.cpg/sg20_15_cif.got.tgz:29342.got - 2010.04.14 01:38:04.
