data_PCOD8159342
_publ_section_title
;
Structure prediction by ZEFSAII (Michael W. Deem and Ramdas Pophale) SiO2 
 PCOD8159342
Probable space group: C 2 2 21
;
_chemical_formula_sum "Si O2"
_cell_formula_units_Z 52
_cell_length_a 22.073198
_cell_length_b 13.299371
_cell_length_c 8.000226
_cell_angle_alpha 90.000000
_cell_angle_beta 90.000000
_cell_angle_gamma 90.000000
_cell_volume 2348.543539
_symmetry_space_group_name_H-M "C 2 2 21"
_symmetry_group_IT_number 20
_symmetry_cell_setting 'orthorhombic'
loop_
_space_group_symop_operation_xyz
x,y,z
-x,-y,1/2+z
x,-y,-z
-x,y,1/2-z
1/2+x,1/2+y,z
1/2-x,1/2-y,1/2+z
1/2+x,1/2-y,-z
1/2-x,1/2+y,1/2-z
loop_
_atom_site_type_symbol
_atom_site_label
_atom_site_fract_x
_atom_site_fract_y
_atom_site_fract_z
Si Si1 0.000000 0.763284 0.250000
Si Si2 0.904455 0.344724 0.159233
Si Si3 0.692169 0.691879 0.487307
Si Si4 0.366563 0.500000 0.500000
Si Si5 0.592878 0.575137 0.650697
Si Si6 0.268293 0.640810 0.364100
Si Si7 0.465132 0.879405 0.485981
Si Si8 0.329382 0.000000 0.000000
O O1 0.043740 0.835398 0.358029
O O2 0.954666 0.687084 0.348736
O O3 0.861611 0.257873 0.091560
O O4 0.917473 0.333200 0.355505
O O5 0.966754 0.350205 0.060335
O O6 0.870729 0.449876 0.139943
O O7 0.661103 0.616617 0.619572
O O8 0.719272 0.631238 0.332025
O O9 0.748786 0.747284 0.576945
O O10 0.407540 0.478133 0.334658
O O11 0.325283 0.598681 0.468582
O O12 0.575065 0.500000 0.500000
O O13 0.209030 0.576658 0.393362
O O14 0.457518 0.000000 0.500000
#
# Coordination Sequence:
#
# PCOD8159342 Si02
#       8
#     4   8   8   4   8   8   8   4
#     4  12  28  46  70 108 140 192 246 302 366 452
#     4  10  21  40  65  96 135 172 223 282 362 419
#     4  11  22  45  67  99 136 184 232 299 357 416
#     4  11  24  46  72 106 138 190 246 299 362 428
#     4  12  27  48  74 102 149 192 246 303 362 435
#     4  10  22  40  70  97 137 177 237 292 352 420
#     4  11  23  41  70 101 139 182 230 298 369 449
#     4   9  20  40  66  94 134 178 216 287 344 438
#
# _framework density 22.141380999999999
#
# number of rings (size 3 to 8) (size 9 to 14) (size 15 to 20)
#    0.000    1.231    3.846    1.846    3.231    0.000 
#    2.769    0.000    0.000    0.000    0.000    0.000 
#    0.000    0.000    0.000    0.000    0.000    0.000 
#
# Total GULP energy -322271.353428 kJ/mol
# GULP energy per Si atom -12395.052055 kJ/mol
# Density = 2.209099 g / cm^3
# Si number density = 22.141381 Si / 1000 Ang^3
#
#
#
# Elastic Constant Matrix: (Units=GPa)
#
#
# Indices 1 2 3 4 5 6 
#
# 1 56.1582 17.0268 22.1735 0.0000 0.0000 0.0000
# 2 17.0268 97.6818 40.9802 0.0000 0.0000 0.0000
# 3 22.1735 40.9802 130.3665 0.0000 0.0000 0.0000
# 4 0.0000 0.0000 0.0000 41.7353 0.0000 0.0000
# 5 0.0000 0.0000 0.0000 0.0000 37.5835 0.0000
# 6 0.0000 0.0000 0.0000 0.0000 0.0000 13.5725
#
#
#
# Elastic Compliance Matrix: (Units=1/GPa)
#
#
# Indices 1 2 3 4 5 6 
#
# 1 0.019533 -0.002317 -0.002594 0.000000 0.000000 0.000000
# 2 -0.002317 0.012067 -0.003399 0.000000 0.000000 0.000000
# 3 -0.002594 -0.003399 0.009180 0.000000 0.000000 0.000000
# 4 0.000000 0.000000 0.000000 0.023961 0.000000 0.000000
# 5 0.000000 0.000000 0.000000 0.000000 0.026607 0.000000
# 6 0.000000 0.000000 0.000000 0.000000 0.000000 0.073678
#
#
# Mechanical properties :
#
#
# Convention : Reuss Voigt Hill
#
# Bulk Modulus (GPa) = 41.38869 49.39639 45.39254
# Shear Modulus (GPa) = 26.35726 32.18000 29.26863
#
# Velocity S-wave (km/s) = 3.45397 3.81647 3.63973
# Velocity P-wave (km/s) = 5.88558 6.46363 6.18137
#
# Compressibility (1/GPa) = 0.02416119
#
# Stress axis : x y z
#
# Youngs Moduli (GPa) = 51.19413 82.86925 108.92698
#
# Poissons Ratio (x) = 0.19197 0.28258
# Poissons Ratio (y) = 0.11859 0.37027
# Poissons Ratio (z) = 0.13281 0.28169
#
# Static dielectric constant tensor:
#      x y z
#    x 3.984150 0.000000 0.000000 
#    y 0.000000 4.155810 0.000000 
#    z 0.000000 0.000000 4.033330 
# 
# 
# High freq. dielectric constant tensor:
#      x y z
#    x 1.867390 0.000000 0.000000 
#    y 0.000000 1.875740 0.000000 
#    z 0.000000 0.000000 1.873450 
# 
# From -- ./inp_files/10149.got.cif
#   From: 2010.03.12/outbox.cif.g09.slc.cpg/sg20_6_cif.got.tgz:10149.got - 2010.04.14 01:38:04.
