data_PCOD8159553
_publ_section_title
;
Structure prediction by ZEFSAII (Michael W. Deem and Ramdas Pophale) SiO2 
 PCOD8159553
Probable space group: C 2 2 21
;
_chemical_formula_sum "Si O2"
_cell_formula_units_Z 64
_cell_length_a 18.518914
_cell_length_b 8.176784
_cell_length_c 19.292564
_cell_angle_alpha 90.000000
_cell_angle_beta 90.000000
_cell_angle_gamma 90.000000
_cell_volume 2921.379585
_symmetry_space_group_name_H-M "C 2 2 21"
_symmetry_group_IT_number 20
_symmetry_cell_setting 'orthorhombic'
loop_
_space_group_symop_operation_xyz
x,y,z
-x,-y,1/2+z
x,-y,-z
-x,y,1/2-z
1/2+x,1/2+y,z
1/2-x,1/2-y,1/2+z
1/2+x,1/2-y,-z
1/2-x,1/2+y,1/2-z
loop_
_atom_site_type_symbol
_atom_site_label
_atom_site_fract_x
_atom_site_fract_y
_atom_site_fract_z
Si Si1 0.884534 0.302275 0.089412
Si Si2 0.365263 0.689489 0.495500
Si Si3 0.962477 0.584908 0.569271
Si Si4 0.103994 0.933779 0.377536
Si Si5 0.788443 0.265833 0.962058
Si Si6 0.953185 0.738515 0.367751
Si Si7 0.837189 0.812563 0.259772
Si Si8 0.710865 0.012464 0.327562
O O1 0.856447 0.389061 0.160039
O O2 0.953818 0.387032 0.057805
O O3 0.912089 0.120856 0.106810
O O4 0.823519 0.334039 0.032151
O O5 0.345333 0.500000 0.500000
O O6 0.416092 0.745143 0.429301
O O7 0.291129 0.792324 0.485892
O O8 0.405240 0.718806 0.566975
O O9 0.931298 0.500000 0.500000
O O10 0.956221 0.461195 0.634545
O O11 0.158985 0.878848 0.437636
O O12 0.146682 0.925356 0.305732
O O13 0.031987 0.821921 0.375449
O O14 0.776685 0.393086 0.899518
O O15 0.913794 0.794088 0.298196
O O16 0.780436 0.904227 0.308835
O O17 0.807083 0.636065 0.235292
#
# Coordination Sequence:
#
# PCOD8159553 Si02
#       8
#     8   8   8   8   8   8   8   8
#     4  12  22  40  64  92 125 160 208 268 328 389
#     4  11  22  37  61  94 125 157 202 261 325 383
#     4  10  22  37  60  91 124 160 204 258 324 385
#     4  11  25  41  65  93 126 171 216 264 326 391
#     4  11  23  40  65  95 127 165 211 268 331 391
#     4  11  23  42  63  88 127 172 214 264 319 388
#     4  11  24  44  64  89 128 170 218 265 316 387
#     4  11  24  41  65  92 123 167 213 264 323 388
#
# _framework density 21.907457000000001
#
# number of rings (size 3 to 8) (size 9 to 14) (size 15 to 20)
#    0.000    1.000    0.000    8.625    0.000    6.000 
#    0.000    3.750    0.000    0.000    0.000    0.000 
#    0.000    0.000    0.000    0.000    0.000    0.000 
#
# Total GULP energy -396532.393250 kJ/mol
# GULP energy per Si atom -12391.637289 kJ/mol
# Density = 2.185759 g / cm^3
# Si number density = 21.907457 Si / 1000 Ang^3
#
#
#
# Elastic Constant Matrix: (Units=GPa)
#
#
# Indices 1 2 3 4 5 6 
#
# 1 132.6697 18.0620 19.1678 0.0000 0.0000 0.0000
# 2 18.0620 90.8387 22.6296 0.0000 0.0000 0.0000
# 3 19.1678 22.6296 52.0067 0.0000 0.0000 0.0000
# 4 0.0000 0.0000 0.0000 27.0956 0.0000 0.0000
# 5 0.0000 0.0000 0.0000 0.0000 41.1610 0.0000
# 6 0.0000 0.0000 0.0000 0.0000 0.0000 24.7933
#
#
#
# Elastic Compliance Matrix: (Units=1/GPa)
#
#
# Indices 1 2 3 4 5 6 
#
# 1 0.008036 -0.000965 -0.002542 0.000000 0.000000 0.000000
# 2 -0.000965 0.012463 -0.005067 0.000000 0.000000 0.000000
# 3 -0.002542 -0.005067 0.022370 0.000000 0.000000 0.000000
# 4 0.000000 0.000000 0.000000 0.036906 0.000000 0.000000
# 5 0.000000 0.000000 0.000000 0.000000 0.024295 0.000000
# 6 0.000000 0.000000 0.000000 0.000000 0.000000 0.040334
#
#
# Mechanical properties :
#
#
# Convention : Reuss Voigt Hill
#
# Bulk Modulus (GPa) = 38.87893 43.91487 41.39690
# Shear Modulus (GPa) = 29.39008 32.98703 31.18855
#
# Velocity S-wave (km/s) = 3.66670 3.88460 3.77722
# Velocity P-wave (km/s) = 5.97592 6.34108 6.16121
#
# Compressibility (1/GPa) = 0.02572087
#
# Stress axis : x y z
#
# Youngs Moduli (GPa) = 124.43828 80.23955 44.70243
#
# Poissons Ratio (x) = 0.07740 0.11364
# Poissons Ratio (y) = 0.12003 0.22652
# Poissons Ratio (z) = 0.31633 0.40660
#
# Static dielectric constant tensor:
#      x y z
#    x 3.999880 0.000000 0.000000 
#    y 0.000000 4.374860 0.000000 
#    z 0.000000 0.000000 3.913950 
# 
# 
# High freq. dielectric constant tensor:
#      x y z
#    x 1.875790 0.000000 0.000000 
#    y 0.000000 1.867390 0.000000 
#    z 0.000000 0.000000 1.849880 
# 
# From -- ./inp_files/27779.got.cif
#   From: 2010.03.12/outbox.cif.g09.slc.cpg/sg20_14_cif.got.tgz:27779.got - 2010.04.14 01:38:04.
