data_PCOD8159331
_publ_section_title
;
Structure prediction by ZEFSAII (Michael W. Deem and Ramdas Pophale) SiO2 
 PCOD8159331
Probable space group: C 2 2 21
;
_chemical_formula_sum "Si O2"
_cell_formula_units_Z 40
_cell_length_a 8.494369
_cell_length_b 17.535634
_cell_length_c 11.960519
_cell_angle_alpha 90.000000
_cell_angle_beta 90.000000
_cell_angle_gamma 90.000000
_cell_volume 1781.568892
_symmetry_space_group_name_H-M "C 2 2 21"
_symmetry_group_IT_number 20
_symmetry_cell_setting 'orthorhombic'
loop_
_space_group_symop_operation_xyz
x,y,z
-x,-y,1/2+z
x,-y,-z
-x,y,1/2-z
1/2+x,1/2+y,z
1/2-x,1/2-y,1/2+z
1/2+x,1/2-y,-z
1/2-x,1/2+y,1/2-z
loop_
_atom_site_type_symbol
_atom_site_label
_atom_site_fract_x
_atom_site_fract_y
_atom_site_fract_z
Si Si1 0.831565 0.941409 0.199760
Si Si2 0.309585 0.034284 0.110198
Si Si3 0.738836 0.315689 0.472003
Si Si4 0.975410 0.910701 0.877042
Si Si5 0.539413 0.189779 0.371264
O O1 0.744405 0.875941 0.129650
O O2 0.000000 0.912996 0.250000
O O3 0.711809 0.968444 0.296815
O O4 0.863939 0.014519 0.120886
O O5 0.142346 0.068274 0.069701
O O6 0.417877 0.102305 0.154359
O O7 0.392476 0.000000 0.000000
O O8 0.600658 0.342881 0.553934
O O9 0.688750 0.234219 0.422052
O O10 0.897663 0.304869 0.540810
O O11 0.000000 0.882513 0.750000
O O12 0.500000 0.226368 0.250000
#
# Coordination Sequence:
#
# PCOD8159331 Si02
#       5
#     8   8   8   8   8
#     4   9  19  38  69  98 127 169 221 269 317 390
#     4  10  21  40  64  95 131 169 215 270 327 388
#     4  12  24  42  66  94 132 178 218 266 331 397
#     4   9  18  36  64  94 127 169 217 267 322 388
#     4  12  28  44  63  93 133 171 218 280 330 387
#
# _framework density 22.452121000000002
#
# number of rings (size 3 to 8) (size 9 to 14) (size 15 to 20)
#    0.000    2.000    0.000    7.200    0.000    4.800 
#    0.000    2.000    0.000    0.000    0.000    0.000 
#    0.000    0.000    0.000    0.000    0.000    0.000 
#
# Total GULP energy -247984.043224 kJ/mol
# GULP energy per Si atom -12399.202161 kJ/mol
# Density = 2.240102 g / cm^3
# Si number density = 22.452121 Si / 1000 Ang^3
#
#
#
# Elastic Constant Matrix: (Units=GPa)
#
#
# Indices 1 2 3 4 5 6 
#
# 1 73.7307 30.3505 51.6041 0.0000 0.0000 0.0000
# 2 30.3505 88.4309 69.3683 0.0000 0.0000 0.0000
# 3 51.6041 69.3683 135.9094 0.0000 0.0000 0.0000
# 4 0.0000 0.0000 0.0000 28.6193 0.0000 0.0000
# 5 0.0000 0.0000 0.0000 0.0000 31.8095 0.0000
# 6 0.0000 0.0000 0.0000 0.0000 0.0000 21.4719
#
#
#
# Elastic Compliance Matrix: (Units=1/GPa)
#
#
# Indices 1 2 3 4 5 6 
#
# 1 0.018576 -0.001405 -0.006336 0.000000 0.000000 0.000000
# 2 -0.001405 0.018965 -0.009146 0.000000 0.000000 0.000000
# 3 -0.006336 -0.009146 0.014432 0.000000 0.000000 0.000000
# 4 0.000000 0.000000 0.000000 0.034941 0.000000 0.000000
# 5 0.000000 0.000000 0.000000 0.000000 0.031437 0.000000
# 6 0.000000 0.000000 0.000000 0.000000 0.000000 0.046572
#
#
# Mechanical properties :
#
#
# Convention : Reuss Voigt Hill
#
# Bulk Modulus (GPa) = 54.95141 66.74633 60.84887
# Shear Modulus (GPa) = 24.41824 26.16334 25.29079
#
# Velocity S-wave (km/s) = 3.30141 3.41734 3.35988
# Velocity P-wave (km/s) = 6.24984 6.73527 6.49709
#
# Compressibility (1/GPa) = 0.01819790
#
# Stress axis : x y z
#
# Youngs Moduli (GPa) = 53.83335 52.72796 69.29149
#
# Poissons Ratio (x) = 0.07410 0.43902
# Poissons Ratio (y) = 0.07566 0.63376
# Poissons Ratio (z) = 0.34108 0.48226
#
# Static dielectric constant tensor:
#      x y z
#    x 3.780330 0.000000 0.000000 
#    y 0.000000 3.872670 0.000000 
#    z 0.000000 0.000000 4.121690 
# 
# 
# High freq. dielectric constant tensor:
#      x y z
#    x 1.865610 0.000000 0.000000 
#    y 0.000000 1.872190 0.000000 
#    z 0.000000 0.000000 1.898400 
# 
# From -- ./inp_files/12709.got.cif
#   From: 2010.03.12/outbox.cif.g09.slc.cpg/sg20_7_cif.got.tgz:12709.got - 2010.04.14 01:38:04.
