data_PCOD8159410
_publ_section_title
;
Structure prediction by ZEFSAII (Michael W. Deem and Ramdas Pophale) SiO2 
 PCOD8159410
Probable space group: C 2 2 21
;
_chemical_formula_sum "Si O2"
_cell_formula_units_Z 56
_cell_length_a 14.731147
_cell_length_b 14.113054
_cell_length_c 12.009569
_cell_angle_alpha 90.000000
_cell_angle_beta 90.000000
_cell_angle_gamma 90.000000
_cell_volume 2496.807086
_symmetry_space_group_name_H-M "C 2 2 21"
_symmetry_group_IT_number 20
_symmetry_cell_setting 'orthorhombic'
loop_
_space_group_symop_operation_xyz
x,y,z
-x,-y,1/2+z
x,-y,-z
-x,y,1/2-z
1/2+x,1/2+y,z
1/2-x,1/2-y,1/2+z
1/2+x,1/2-y,-z
1/2-x,1/2+y,1/2-z
loop_
_atom_site_type_symbol
_atom_site_label
_atom_site_fract_x
_atom_site_fract_y
_atom_site_fract_z
Si Si1 0.635806 0.722784 0.771139
Si Si2 0.422567 0.094136 0.659524
Si Si3 0.816561 0.221260 0.319596
Si Si4 0.380880 0.104762 0.408298
Si Si5 0.065006 0.098516 0.593122
Si Si6 0.358951 0.600304 0.532727
Si Si7 0.833073 0.099197 0.110884
O O1 0.708263 0.775904 0.693016
O O2 0.584485 0.801561 0.845134
O O3 0.562437 0.669544 0.696268
O O4 0.684354 0.647853 0.856726
O O5 0.500000 0.117692 0.750000
O O6 0.345630 0.169566 0.690342
O O7 0.437673 0.102953 0.524536
O O8 0.397073 0.984262 0.674164
O O9 0.848615 0.176628 0.435097
O O10 0.857075 0.155936 0.222280
O O11 0.272037 0.103728 0.426451
O O12 0.112290 0.150334 0.488496
O O13 0.962584 0.073976 0.562034
O O14 0.126050 0.006574 0.623736
O O15 0.310956 0.500000 0.500000
#
# Coordination Sequence:
#
# PCOD8159410 Si02
#       7
#     8   8   8   8   8   8   8
#     4  11  24  43  73  94 137 185 222 274 334 416
#     4  11  23  40  68  91 131 178 227 284 324 386
#     4  11  25  42  68  98 136 181 230 267 340 407
#     4  10  22  45  66  95 131 181 239 272 330 404
#     4  11  22  40  69 109 137 173 222 271 355 408
#     4  12  25  43  67 106 141 167 220 291 347 405
#     4  10  21  41  74  99 139 177 215 274 339 431
#
# _framework density 22.428646000000001
#
# number of rings (size 3 to 8) (size 9 to 14) (size 15 to 20)
#    0.000    1.143    2.857    4.714    4.000    2.286 
#    0.000    0.000    3.143    0.000    0.000    0.000 
#    0.000    0.000    0.000    0.000    0.000    0.000 
#
# Total GULP energy -346881.531039 kJ/mol
# GULP energy per Si atom -12388.626109 kJ/mol
# Density = 2.237760 g / cm^3
# Si number density = 22.428646 Si / 1000 Ang^3
#
#
#
# Elastic Constant Matrix: (Units=GPa)
#
#
# Indices 1 2 3 4 5 6 
#
# 1 46.1717 21.9123 36.7293 0.0000 0.0000 0.0000
# 2 21.9123 113.7122 53.3934 0.0000 0.0000 0.0000
# 3 36.7293 53.3934 127.6220 0.0000 0.0000 0.0000
# 4 0.0000 0.0000 0.0000 38.5449 0.0000 0.0000
# 5 0.0000 0.0000 0.0000 0.0000 31.1186 0.0000
# 6 0.0000 0.0000 0.0000 0.0000 0.0000 23.1259
#
#
#
# Elastic Compliance Matrix: (Units=1/GPa)
#
#
# Indices 1 2 3 4 5 6 
#
# 1 0.028464 -0.002039 -0.007339 0.000000 0.000000 0.000000
# 2 -0.002039 0.011090 -0.004053 0.000000 0.000000 0.000000
# 3 -0.007339 -0.004053 0.011643 0.000000 0.000000 0.000000
# 4 0.000000 0.000000 0.000000 0.025944 0.000000 0.000000
# 5 0.000000 0.000000 0.000000 0.000000 0.032135 0.000000
# 6 0.000000 0.000000 0.000000 0.000000 0.000000 0.043242
#
#
# Mechanical properties :
#
#
# Convention : Reuss Voigt Hill
#
# Bulk Modulus (GPa) = 41.09166 56.84178 48.96672
# Shear Modulus (GPa) = 26.66787 30.25592 28.46190
#
# Velocity S-wave (km/s) = 3.45194 3.67684 3.56616
# Velocity P-wave (km/s) = 5.85224 6.58968 6.23188
#
# Compressibility (1/GPa) = 0.02433584
#
# Stress axis : x y z
#
# Youngs Moduli (GPa) = 35.13212 90.17035 85.88590
#
# Poissons Ratio (x) = 0.18387 0.63030
# Poissons Ratio (y) = 0.07164 0.34809
# Poissons Ratio (z) = 0.25783 0.36546
#
# Static dielectric constant tensor:
#      x y z
#    x 3.642410 0.000000 0.000000 
#    y 0.000000 4.361470 0.000000 
#    z 0.000000 0.000000 4.458670 
# 
# 
# High freq. dielectric constant tensor:
#      x y z
#    x 1.850110 0.000000 0.000000 
#    y 0.000000 1.899230 0.000000 
#    z 0.000000 0.000000 1.900570 
# 
# From -- ./inp_files/15122.got.cif
#   From: 2010.03.12/outbox.cif.g09.slc.cpg/sg20_8_cif.got.tgz:15122.got - 2010.04.14 01:38:04.
