data_PCOD8159382
_publ_section_title
;
Structure prediction by ZEFSAII (Michael W. Deem and Ramdas Pophale) SiO2 
 PCOD8159382
Probable space group: C 2 2 21
;
_chemical_formula_sum "Si O2"
_cell_formula_units_Z 32
_cell_length_a 5.220159
_cell_length_b 29.532845
_cell_length_c 8.586017
_cell_angle_alpha 90.000000
_cell_angle_beta 90.000000
_cell_angle_gamma 90.000000
_cell_volume 1323.673156
_symmetry_space_group_name_H-M "C 2 2 21"
_symmetry_group_IT_number 20
_symmetry_cell_setting 'orthorhombic'
loop_
_space_group_symop_operation_xyz
x,y,z
-x,-y,1/2+z
x,-y,-z
-x,y,1/2-z
1/2+x,1/2+y,z
1/2-x,1/2-y,1/2+z
1/2+x,1/2-y,-z
1/2-x,1/2+y,1/2-z
loop_
_atom_site_type_symbol
_atom_site_label
_atom_site_fract_x
_atom_site_fract_y
_atom_site_fract_z
Si Si1 0.249838 0.002980 0.815313
Si Si2 0.410778 0.233744 0.580568
Si Si3 0.748349 0.597654 0.320693
Si Si4 0.259350 0.132848 0.650651
O O1 0.500000 0.029165 0.750000
O O2 0.000000 0.029884 0.750000
O O3 0.247370 0.954144 0.734144
O O4 0.249759 0.000000 0.000000
O O5 0.500000 0.250864 0.750000
O O6 0.162987 0.262769 0.528616
O O7 0.318571 0.182131 0.581895
O O8 0.500000 0.622988 0.250000
O O9 0.733334 0.598559 0.506672
O O10 0.000000 0.622066 0.250000
O O11 0.500000 0.115563 0.750000
O O12 0.000000 0.133700 0.750000
#
# Coordination Sequence:
#
# PCOD8159382 Si02
#       4
#     8   8   8   8
#     4  10  21  41  64  92 126 161 204 257 311 376
#     4  11  23  40  61  91 125 165 211 262 317 372
#     4  10  22  41  62  92 123 161 210 255 312 377
#     4  11  23  42  63  89 126 167 211 262 314 373
#
# _framework density 24.175153999999999
#
# number of rings (size 3 to 8) (size 9 to 14) (size 15 to 20)
#    0.000    1.500    0.000    6.000    0.000    3.000 
#    0.000   30.000    0.000    0.000    0.000    0.000 
#    0.000    0.000    0.000    0.000    0.000    0.000 
#
# Total GULP energy -198335.852375 kJ/mol
# GULP energy per Si atom -12395.990773 kJ/mol
# Density = 2.412013 g / cm^3
# Si number density = 24.175154 Si / 1000 Ang^3
#
#
#
# Elastic Constant Matrix: (Units=GPa)
#
#
# Indices 1 2 3 4 5 6 
#
# 1 267.8931 21.9998 78.3677 0.0000 0.0000 0.0000
# 2 21.9998 60.3379 62.4009 0.0000 0.0000 0.0000
# 3 78.3677 62.4009 169.1754 0.0000 0.0000 0.0000
# 4 0.0000 0.0000 0.0000 45.4329 0.0000 0.0000
# 5 0.0000 0.0000 0.0000 0.0000 68.7809 0.0000
# 6 0.0000 0.0000 0.0000 0.0000 0.0000 73.3910
#
#
#
# Elastic Compliance Matrix: (Units=1/GPa)
#
#
# Indices 1 2 3 4 5 6 
#
# 1 0.004342 0.000803 -0.002308 0.000000 0.000000 0.000000
# 2 0.000803 0.026943 -0.010310 0.000000 0.000000 0.000000
# 3 -0.002308 -0.010310 0.010783 0.000000 0.000000 0.000000
# 4 0.000000 0.000000 0.000000 0.022010 0.000000 0.000000
# 5 0.000000 0.000000 0.000000 0.000000 0.014539 0.000000
# 6 0.000000 0.000000 0.000000 0.000000 0.000000 0.013626
#
#
# Mechanical properties :
#
#
# Convention : Reuss Voigt Hill
#
# Bulk Modulus (GPa) = 54.23248 91.43813 72.83531
# Shear Modulus (GPa) = 40.97739 59.83015 50.40377
#
# Velocity S-wave (km/s) = 4.12153 4.98019 4.57107
# Velocity P-wave (km/s) = 6.71798 8.42467 7.61926
#
# Compressibility (1/GPa) = 0.01843913
#
# Stress axis : x y z
#
# Youngs Moduli (GPa) = 230.31247 37.11515 92.73851
#
# Poissons Ratio (x) = -0.02982 0.21401
# Poissons Ratio (y) = -0.18505 0.95616
# Poissons Ratio (z) = 0.53149 0.38267
#
# Static dielectric constant tensor:
#      x y z
#    x -13.793520 0.000000 0.000000 
#    y 0.000000 3.901730 0.000000 
#    z 0.000000 0.000000 4.528440 
# 
# 
# High freq. dielectric constant tensor:
#      x y z
#    x 2.003620 0.000000 0.000000 
#    y 0.000000 1.928950 0.000000 
#    z 0.000000 0.000000 1.970010 
# 
# From -- ./inp_files/5233.got.cif
#   From: 2010.03.12/outbox.cif.g09.slc.cpg/sg20_3_cif.got.tgz:5233.got - 2010.04.14 01:38:04.
