data_PCOD8159007
_publ_section_title
;
Structure prediction by ZEFSAII (Michael W. Deem and Ramdas Pophale) SiO2 
 PCOD8159007
Probable space group: C 2 2 21
;
_chemical_formula_sum "Si O2"
_cell_formula_units_Z 64
_cell_length_a 10.744737
_cell_length_b 15.475536
_cell_length_c 16.856815
_cell_angle_alpha 90.000000
_cell_angle_beta 90.000000
_cell_angle_gamma 90.000000
_cell_volume 2802.960710
_symmetry_space_group_name_H-M "C 2 2 21"
_symmetry_group_IT_number 20
_symmetry_cell_setting 'orthorhombic'
loop_
_space_group_symop_operation_xyz
x,y,z
-x,-y,1/2+z
x,-y,-z
-x,y,1/2-z
1/2+x,1/2+y,z
1/2-x,1/2-y,1/2+z
1/2+x,1/2-y,-z
1/2-x,1/2+y,1/2-z
loop_
_atom_site_type_symbol
_atom_site_label
_atom_site_fract_x
_atom_site_fract_y
_atom_site_fract_z
Si Si1 0.157426 0.759812 0.356363
Si Si2 0.692685 0.224488 0.537195
Si Si3 0.924116 0.857658 0.412504
Si Si4 0.892533 0.987666 0.694242
Si Si5 0.538057 0.052322 0.574234
Si Si6 0.907014 0.678507 0.675214
Si Si7 0.508756 0.340235 0.912966
Si Si8 0.624613 0.070361 0.298753
O O1 0.208083 0.737435 0.443612
O O2 0.260100 0.813066 0.303375
O O3 0.122447 0.672671 0.310703
O O4 0.038961 0.821734 0.362282
O O5 0.823557 0.218977 0.582167
O O6 0.617397 0.135486 0.549190
O O7 0.634017 0.309349 0.578299
O O8 0.953232 0.882365 0.503423
O O9 0.863555 0.940692 0.371731
O O10 0.761398 0.958593 0.736345
O O11 0.000000 0.026905 0.750000
O O12 0.964541 0.906472 0.656443
O O13 0.429365 0.085957 0.633238
O O14 0.479399 0.000000 0.500000
O O15 0.621785 0.981332 0.618710
O O16 0.000000 0.690428 0.750000
O O17 0.919941 0.752764 0.609422
O O18 0.500000 0.043918 0.250000
#
# Coordination Sequence:
#
# PCOD8159007 Si02
#       8
#     8   8   8   8   8   8   8   8
#     4  11  24  43  70 104 140 175 234 296 362 424
#     4  10  20  41  72 106 130 173 230 297 356 420
#     4  11  23  43  72 102 137 174 234 302 357 412
#     4  12  26  45  68  98 142 190 235 284 358 423
#     4  11  23  42  73  99 132 180 236 284 340 422
#     4  11  23  43  72 102 142 183 231 287 356 426
#     4  10  22  40  73 102 130 181 236 283 347 432
#     4  12  26  44  67 100 138 186 238 288 344 430
#
# _framework density 22.833000999999999
#
# number of rings (size 3 to 8) (size 9 to 14) (size 15 to 20)
#    0.000    1.000    5.000    1.125    0.000    3.500 
#    2.250    3.750    0.000    0.000    0.000    0.000 
#    0.000    0.000    0.000    0.000    0.000    0.000 
#
# Total GULP energy -396451.754520 kJ/mol
# GULP energy per Si atom -12389.117329 kJ/mol
# Density = 2.278103 g / cm^3
# Si number density = 22.833001 Si / 1000 Ang^3
#
#
#
# Elastic Constant Matrix: (Units=GPa)
#
#
# Indices 1 2 3 4 5 6 
#
# 1 160.3153 38.1481 52.1765 0.0000 0.0000 0.0000
# 2 38.1481 77.3476 27.4344 0.0000 0.0000 0.0000
# 3 52.1765 27.4344 66.7148 0.0000 0.0000 0.0000
# 4 0.0000 0.0000 0.0000 33.1686 0.0000 0.0000
# 5 0.0000 0.0000 0.0000 0.0000 32.8337 0.0000
# 6 0.0000 0.0000 0.0000 0.0000 0.0000 23.5060
#
#
#
# Elastic Compliance Matrix: (Units=1/GPa)
#
#
# Indices 1 2 3 4 5 6 
#
# 1 0.008674 -0.002191 -0.005882 0.000000 0.000000 0.000000
# 2 -0.002191 0.015690 -0.004738 0.000000 0.000000 0.000000
# 3 -0.005882 -0.004738 0.021538 0.000000 0.000000 0.000000
# 4 0.000000 0.000000 0.000000 0.030149 0.000000 0.000000
# 5 0.000000 0.000000 0.000000 0.000000 0.030456 0.000000
# 6 0.000000 0.000000 0.000000 0.000000 0.000000 0.042542
#
#
# Mechanical properties :
#
#
# Convention : Reuss Voigt Hill
#
# Bulk Modulus (GPa) = 49.31481 59.98840 54.65160
# Shear Modulus (GPa) = 27.55839 30.34290 28.95064
#
# Velocity S-wave (km/s) = 3.47789 3.64937 3.56466
# Velocity P-wave (km/s) = 6.14594 6.63980 6.39764
#
# Compressibility (1/GPa) = 0.02027788
#
# Stress axis : x y z
#
# Youngs Moduli (GPa) = 115.29152 63.73456 46.42935
#
# Poissons Ratio (x) = 0.13967 0.27311
# Poissons Ratio (y) = 0.25266 0.21999
# Poissons Ratio (z) = 0.67819 0.30198
#
# Static dielectric constant tensor:
#      x y z
#    x 4.470840 0.000000 0.000000 
#    y 0.000000 4.053770 0.000000 
#    z 0.000000 0.000000 3.952210 
# 
# 
# High freq. dielectric constant tensor:
#      x y z
#    x 1.906090 0.000000 0.000000 
#    y 0.000000 1.900950 0.000000 
#    z 0.000000 0.000000 1.890000 
# 
# From -- ./inp_files/24478.got.cif
#   From: 2010.03.12/outbox.cif.g09.slc.cpg/sg20_13_cif.got.tgz:24478.got - 2010.04.14 01:38:04.
