data_PCOD8159589
_publ_section_title
;
Structure prediction by ZEFSAII (Michael W. Deem and Ramdas Pophale) SiO2 
 PCOD8159589
Probable space group: C 2 2 21
;
_chemical_formula_sum "Si O2"
_cell_formula_units_Z 32
_cell_length_a 6.133045
_cell_length_b 33.563319
_cell_length_c 7.180276
_cell_angle_alpha 90.000000
_cell_angle_beta 90.000000
_cell_angle_gamma 90.000000
_cell_volume 1478.026396
_symmetry_space_group_name_H-M "C 2 2 21"
_symmetry_group_IT_number 20
_symmetry_cell_setting 'orthorhombic'
loop_
_space_group_symop_operation_xyz
x,y,z
-x,-y,1/2+z
x,-y,-z
-x,y,1/2-z
1/2+x,1/2+y,z
1/2-x,1/2-y,1/2+z
1/2+x,1/2-y,-z
1/2-x,1/2+y,1/2-z
loop_
_atom_site_type_symbol
_atom_site_label
_atom_site_fract_x
_atom_site_fract_y
_atom_site_fract_z
Si Si1 0.000000 0.730326 0.250000
Si Si2 0.878112 0.074796 0.442506
Si Si3 0.654241 0.500000 0.500000
Si Si4 0.500000 0.962725 0.750000
Si Si5 0.000000 0.864525 0.250000
Si Si6 0.803924 0.297363 0.391194
O O1 0.879341 0.701285 0.394514
O O2 0.839686 0.757835 0.130444
O O3 0.622198 0.064718 0.403597
O O4 0.000000 0.086791 0.250000
O O5 0.878910 0.110179 0.591116
O O6 0.002224 0.037841 0.539460
O O7 0.809337 0.508720 0.325183
O O8 0.824312 0.837822 0.144766
O O9 0.000000 0.294301 0.250000
#
# Coordination Sequence:
#
# PCOD8159589 Si02
#       6
#     4   8   4   4   4   8
#     4  11  22  44  75 102 138 174 240 276 334 428
#     4  10  24  44  63 100 143 182 239 295 345 428
#     4  10  22  38  70 102 130 184 248 298 348 414
#     4  10  22  40  71  99 132 188 236 300 359 400
#     4  11  28  44  70 103 148 186 224 288 361 412
#     4  11  24  43  72 108 135 183 225 287 348 410
#
# _framework density 21.650493999999998
#
# number of rings (size 3 to 8) (size 9 to 14) (size 15 to 20)
#    0.000    1.500    2.500    0.750    8.750    6.000 
#    0.000    1.250    0.000    0.000    0.000    0.000 
#    0.000    0.000    0.000    0.000    0.000    0.000 
#
# Total GULP energy -198423.378516 kJ/mol
# GULP energy per Si atom -12401.461157 kJ/mol
# Density = 2.160122 g / cm^3
# Si number density = 21.650494 Si / 1000 Ang^3
#
#
#
# Elastic Constant Matrix: (Units=GPa)
#
#
# Indices 1 2 3 4 5 6 
#
# 1 129.8455 60.7107 57.3021 0.0000 0.0000 0.0000
# 2 60.7107 132.9677 77.0075 0.0000 0.0000 0.0000
# 3 57.3021 77.0075 154.0764 0.0000 0.0000 0.0000
# 4 0.0000 0.0000 0.0000 36.8376 0.0000 0.0000
# 5 0.0000 0.0000 0.0000 0.0000 41.7949 0.0000
# 6 0.0000 0.0000 0.0000 0.0000 0.0000 23.7679
#
#
#
# Elastic Compliance Matrix: (Units=1/GPa)
#
#
# Indices 1 2 3 4 5 6 
#
# 1 0.010241 -0.003476 -0.002071 0.000000 0.000000 0.000000
# 2 -0.003476 0.011764 -0.004587 0.000000 0.000000 0.000000
# 3 -0.002071 -0.004587 0.009553 0.000000 0.000000 0.000000
# 4 0.000000 0.000000 0.000000 0.027146 0.000000 0.000000
# 5 0.000000 0.000000 0.000000 0.000000 0.023926 0.000000
# 6 0.000000 0.000000 0.000000 0.000000 0.000000 0.042074
#
#
# Mechanical properties :
#
#
# Convention : Reuss Voigt Hill
#
# Bulk Modulus (GPa) = 88.57818 89.65890 89.11854
# Shear Modulus (GPa) = 33.61648 35.27137 34.44392
#
# Velocity S-wave (km/s) = 3.94469 4.04062 3.99294
# Velocity P-wave (km/s) = 7.85806 7.95429 7.90632
#
# Compressibility (1/GPa) = 0.01128946
#
# Stress axis : x y z
#
# Youngs Moduli (GPa) = 97.64788 85.00264 104.67744
#
# Poissons Ratio (x) = 0.29549 0.21681
# Poissons Ratio (y) = 0.33945 0.48015
# Poissons Ratio (z) = 0.20225 0.38990
#
# Static dielectric constant tensor:
#      x y z
#    x 4.132460 0.000000 0.000000 
#    y 0.000000 3.851960 0.000000 
#    z 0.000000 0.000000 3.557710 
# 
# 
# High freq. dielectric constant tensor:
#      x y z
#    x 1.862760 0.000000 0.000000 
#    y 0.000000 1.835880 0.000000 
#    z 0.000000 0.000000 1.859840 
# 
# From -- ./inp_files/5210.got.cif
#   From: 2010.03.12/outbox.cif.g09.slc.cpg/sg20_3_cif.got.tgz:5210.got - 2010.04.14 01:38:04.
