data_PCOD8159157
_publ_section_title
;
Structure prediction by ZEFSAII (Michael W. Deem and Ramdas Pophale) SiO2 
 PCOD8159157
Probable space group: C 2 2 21
;
_chemical_formula_sum "Si O2"
_cell_formula_units_Z 64
_cell_length_a 15.547984
_cell_length_b 11.483108
_cell_length_c 18.084128
_cell_angle_alpha 90.000000
_cell_angle_beta 90.000000
_cell_angle_gamma 90.000000
_cell_volume 3228.725374
_symmetry_space_group_name_H-M "C 2 2 21"
_symmetry_group_IT_number 20
_symmetry_cell_setting 'orthorhombic'
loop_
_space_group_symop_operation_xyz
x,y,z
-x,-y,1/2+z
x,-y,-z
-x,y,1/2-z
1/2+x,1/2+y,z
1/2-x,1/2-y,1/2+z
1/2+x,1/2-y,-z
1/2-x,1/2+y,1/2-z
loop_
_atom_site_type_symbol
_atom_site_label
_atom_site_fract_x
_atom_site_fract_y
_atom_site_fract_z
Si Si1 0.605787 0.467774 0.664944
Si Si2 0.097850 0.613346 0.593551
Si Si3 0.862039 0.088257 0.681969
Si Si4 0.119341 0.356186 0.571407
Si Si5 0.794657 0.848049 0.646287
Si Si6 0.982247 0.134374 0.928712
Si Si7 0.715162 0.739918 0.305917
Si Si8 0.975800 0.812872 0.590734
O O1 0.600587 0.546199 0.739000
O O2 0.599892 0.555447 0.595285
O O3 0.692660 0.387553 0.658043
O O4 0.522150 0.381333 0.658755
O O5 0.083741 0.476559 0.605333
O O6 0.144461 0.635097 0.514974
O O7 0.154706 0.661722 0.659986
O O8 0.006252 0.678892 0.590605
O O9 0.813224 0.213722 0.685465
O O10 0.937207 0.098455 0.622034
O O11 0.795281 0.987931 0.656852
O O12 0.205461 0.311718 0.610329
O O13 0.041952 0.267856 0.586954
O O14 0.806920 0.773667 0.720266
O O15 0.873615 0.810944 0.594966
O O16 0.000619 0.117592 0.015493
#
# Coordination Sequence:
#
# PCOD8159157 Si02
#       8
#     8   8   8   8   8   8   8   8
#     4  10  21  37  60  87 129 159 197 261 317 357
#     4   9  20  39  62  84 128 159 201 243 321 360
#     4  11  22  37  62  92 124 163 206 259 301 378
#     4  10  21  39  62  91 121 166 196 258 305 371
#     4  11  22  36  64  89 120 154 217 248 304 369
#     4  11  22  37  64  94 127 155 210 257 319 369
#     4  10  22  38  58  90 123 160 203 253 311 365
#     4  10  22  38  62  96 117 164 209 262 306 376
#
# _framework density 19.822063
#
# number of rings (size 3 to 8) (size 9 to 14) (size 15 to 20)
#    0.000    1.750    2.500    1.500    3.500    1.500 
#    0.000    3.750    5.500    0.000    0.000    0.000 
#    0.000    0.000    0.000    0.000    0.000    0.000 
#
# Total GULP energy -396580.287252 kJ/mol
# GULP energy per Si atom -12393.133977 kJ/mol
# Density = 1.977695 g / cm^3
# Si number density = 19.822063 Si / 1000 Ang^3
#
#
#
# Elastic Constant Matrix: (Units=GPa)
#
#
# Indices 1 2 3 4 5 6 
#
# 1 64.9855 28.9243 29.4449 0.0000 0.0000 0.0000
# 2 28.9243 85.5554 33.2643 0.0000 0.0000 0.0000
# 3 29.4449 33.2643 82.2640 0.0000 0.0000 0.0000
# 4 0.0000 0.0000 0.0000 32.4646 0.0000 0.0000
# 5 0.0000 0.0000 0.0000 0.0000 27.4924 0.0000
# 6 0.0000 0.0000 0.0000 0.0000 0.0000 35.9357
#
#
#
# Elastic Compliance Matrix: (Units=1/GPa)
#
#
# Indices 1 2 3 4 5 6 
#
# 1 0.019830 -0.004680 -0.005205 0.000000 0.000000 0.000000
# 2 -0.004680 0.014973 -0.004379 0.000000 0.000000 0.000000
# 3 -0.005205 -0.004379 0.015790 0.000000 0.000000 0.000000
# 4 0.000000 0.000000 0.000000 0.030803 0.000000 0.000000
# 5 0.000000 0.000000 0.000000 0.000000 0.036374 0.000000
# 6 0.000000 0.000000 0.000000 0.000000 0.000000 0.027827
#
#
# Mechanical properties :
#
#
# Convention : Reuss Voigt Hill
#
# Bulk Modulus (GPa) = 45.32405 46.23023 45.77714
# Shear Modulus (GPa) = 27.55113 28.58998 28.07055
#
# Velocity S-wave (km/s) = 3.73221 3.80192 3.76723
# Velocity P-wave (km/s) = 6.44109 6.53040 6.48590
#
# Compressibility (1/GPa) = 0.02206334
#
# Stress axis : x y z
#
# Youngs Moduli (GPa) = 50.42966 66.78541 63.33132
#
# Poissons Ratio (x) = 0.31256 0.32965
# Poissons Ratio (y) = 0.23602 0.27736
# Poissons Ratio (z) = 0.26250 0.29248
#
# Static dielectric constant tensor:
#      x y z
#    x 3.411720 0.000000 0.000000 
#    y 0.000000 3.975460 0.000000 
#    z 0.000000 0.000000 3.667120 
# 
# 
# High freq. dielectric constant tensor:
#      x y z
#    x 1.748190 0.000000 0.000000 
#    y 0.000000 1.781430 0.000000 
#    z 0.000000 0.000000 1.775120 
# 
# From -- ./inp_files/24442.got.cif
#   From: 2010.03.12/outbox.cif.g09.slc.cpg/sg20_13_cif.got.tgz:24442.got - 2010.04.14 01:38:04.
