data_PCOD8159552
_publ_section_title
;
Structure prediction by ZEFSAII (Michael W. Deem and Ramdas Pophale) SiO2 
 PCOD8159552
Probable space group: C 2 2 21
;
_chemical_formula_sum "Si O2"
_cell_formula_units_Z 64
_cell_length_a 21.926527
_cell_length_b 11.388135
_cell_length_c 12.747552
_cell_angle_alpha 90.000000
_cell_angle_beta 90.000000
_cell_angle_gamma 90.000000
_cell_volume 3183.092411
_symmetry_space_group_name_H-M "C 2 2 21"
_symmetry_group_IT_number 20
_symmetry_cell_setting 'orthorhombic'
loop_
_space_group_symop_operation_xyz
x,y,z
-x,-y,1/2+z
x,-y,-z
-x,y,1/2-z
1/2+x,1/2+y,z
1/2-x,1/2-y,1/2+z
1/2+x,1/2-y,-z
1/2-x,1/2+y,1/2-z
loop_
_atom_site_type_symbol
_atom_site_label
_atom_site_fract_x
_atom_site_fract_y
_atom_site_fract_z
Si Si1 0.620723 0.038264 0.162075
Si Si2 0.867929 0.260508 0.503105
Si Si3 0.212595 0.846208 0.843565
Si Si4 0.405219 0.868675 0.032513
Si Si5 0.309577 0.138566 0.792203
Si Si6 0.971987 0.338741 0.361377
Si Si7 0.153245 0.709350 0.333297
Si Si8 0.176544 0.901342 0.173748
O O1 0.634546 0.108214 0.053040
O O2 0.611804 0.135633 0.252495
O O3 0.675915 0.948655 0.192935
O O4 0.557475 0.967443 0.154426
O O5 0.804950 0.230835 0.445054
O O6 0.921809 0.252240 0.415406
O O7 0.870657 0.160873 0.593766
O O8 0.200852 0.771682 0.740683
O O9 0.285319 0.868348 0.851046
O O10 0.167724 0.958858 0.830510
O O11 0.369993 0.852885 0.140095
O O12 0.475978 0.845958 0.051407
O O13 0.382450 0.778622 0.942740
O O14 0.391748 0.000000 0.000000
O O15 0.248606 0.105610 0.856216
O O16 0.000000 0.292509 0.250000
O O17 0.167251 0.840290 0.288148
#
# Coordination Sequence:
#
# PCOD8159552 Si02
#       8
#     8   8   8   8   8   8   8   8
#     4  11  20  38  55  92 130 152 200 258 328 369
#     4  11  23  35  60  91 123 160 209 263 306 389
#     4  11  20  38  61  88 124 167 208 250 319 382
#     4  12  20  36  61  90 121 160 206 252 324 382
#     4  11  21  36  62  91 125 161 202 269 317 382
#     4  12  23  39  61  94 128 164 202 264 331 384
#     4  10  22  37  60  90 127 162 202 264 308 383
#     4  10  22  39  59  87 127 165 208 256 322 375
#
# _framework density 20.106233
#
# number of rings (size 3 to 8) (size 9 to 14) (size 15 to 20)
#    0.000    1.000    5.000    2.250    0.000    0.000 
#    0.000    2.500    0.000    7.500    0.000    0.875 
#    0.000    0.000    0.000    0.000    0.000    0.000 
#
# Total GULP energy -396525.577232 kJ/mol
# GULP energy per Si atom -12391.424288 kJ/mol
# Density = 2.006047 g / cm^3
# Si number density = 20.106233 Si / 1000 Ang^3
#
#
#
# Elastic Constant Matrix: (Units=GPa)
#
#
# Indices 1 2 3 4 5 6 
#
# 1 100.3198 32.7437 50.0009 0.0000 0.0000 0.0000
# 2 32.7437 82.4594 41.2465 0.0000 0.0000 0.0000
# 3 50.0009 41.2465 96.7885 0.0000 0.0000 0.0000
# 4 0.0000 0.0000 0.0000 28.3932 0.0000 0.0000
# 5 0.0000 0.0000 0.0000 0.0000 45.1009 0.0000
# 6 0.0000 0.0000 0.0000 0.0000 0.0000 24.1137
#
#
#
# Elastic Compliance Matrix: (Units=1/GPa)
#
#
# Indices 1 2 3 4 5 6 
#
# 1 0.013798 -0.002432 -0.006092 0.000000 0.000000 0.000000
# 2 -0.002432 0.015841 -0.005494 0.000000 0.000000 0.000000
# 3 -0.006092 -0.005494 0.015820 0.000000 0.000000 0.000000
# 4 0.000000 0.000000 0.000000 0.035220 0.000000 0.000000
# 5 0.000000 0.000000 0.000000 0.000000 0.022173 0.000000
# 6 0.000000 0.000000 0.000000 0.000000 0.000000 0.041470
#
#
# Mechanical properties :
#
#
# Convention : Reuss Voigt Hill
#
# Bulk Modulus (GPa) = 57.39415 58.61668 58.00542
# Shear Modulus (GPa) = 28.06373 29.89332 28.97852
#
# Velocity S-wave (km/s) = 3.74006 3.86005 3.80053
# Velocity P-wave (km/s) = 6.87445 7.00595 6.94052
#
# Compressibility (1/GPa) = 0.01742338
#
# Stress axis : x y z
#
# Youngs Moduli (GPa) = 72.47378 63.12653 63.21027
#
# Poissons Ratio (x) = 0.15352 0.38506
# Poissons Ratio (y) = 0.17625 0.34730
# Poissons Ratio (z) = 0.44149 0.34684
#
# Static dielectric constant tensor:
#      x y z
#    x 3.602340 0.000000 0.000000 
#    y 0.000000 3.627920 0.000000 
#    z 0.000000 0.000000 3.904320 
# 
# 
# High freq. dielectric constant tensor:
#      x y z
#    x 1.769080 0.000000 0.000000 
#    y 0.000000 1.766450 0.000000 
#    z 0.000000 0.000000 1.794510 
# 
# From -- ./inp_files/16786.got.cif
#   From: 2010.03.12/outbox.cif.g09.slc.cpg/sg20_9_cif.got.tgz:16786.got - 2010.04.14 01:38:04.
