data_PCOD8159747
_publ_section_title
;
Structure prediction by ZEFSAII (Michael W. Deem and Ramdas Pophale) SiO2 
 PCOD8159747
Probable space group: C 2 2 21
;
_chemical_formula_sum "Si O2"
_cell_formula_units_Z 32
_cell_length_a 5.252052
_cell_length_b 32.973168
_cell_length_c 8.637964
_cell_angle_alpha 90.000000
_cell_angle_beta 90.000000
_cell_angle_gamma 90.000000
_cell_volume 1495.894903
_symmetry_space_group_name_H-M "C 2 2 21"
_symmetry_group_IT_number 20
_symmetry_cell_setting 'orthorhombic'
loop_
_space_group_symop_operation_xyz
x,y,z
-x,-y,1/2+z
x,-y,-z
-x,y,1/2-z
1/2+x,1/2+y,z
1/2-x,1/2-y,1/2+z
1/2+x,1/2-y,-z
1/2-x,1/2+y,1/2-z
loop_
_atom_site_type_symbol
_atom_site_label
_atom_site_fract_x
_atom_site_fract_y
_atom_site_fract_z
Si Si1 0.000000 0.473893 0.750000
Si Si2 0.632637 0.422842 0.913407
Si Si3 0.843561 0.000000 0.000000
Si Si4 0.420164 0.765149 0.079220
Si Si5 0.743400 0.146081 0.652408
O O1 0.099552 0.444070 0.617250
O O2 0.199424 0.502592 0.835700
O O3 0.500000 0.411225 0.750000
O O4 0.488405 0.457528 0.008661
O O5 0.678315 0.383401 0.014203
O O6 0.500000 0.750325 0.250000
O O7 0.346618 0.812234 0.075389
O O8 0.670090 0.759880 0.971859
O O9 0.500000 0.128960 0.750000
O O10 0.000000 0.153674 0.750000
#
# Coordination Sequence:
#
# PCOD8159747 Si02
#       5
#     4   8   4   8   8
#     4  10  22  42  64  90 132 168 236 280 342 398
#     4  10  24  44  64  96 135 177 236 282 345 404
#     4  10  22  42  64  94 124 178 226 290 326 410
#     4  11  23  46  73 105 140 180 227 281 343 416
#     4  11  26  46  70 103 141 178 229 285 342 412
#
# _framework density 21.391877999999998
#
# number of rings (size 3 to 8) (size 9 to 14) (size 15 to 20)
#    0.000    1.500    0.000    4.500    7.000    6.000 
#    6.750    0.000    0.000    0.000    0.000    0.000 
#    0.000    0.000    0.000    0.000    0.000    0.000 
#
# Total GULP energy -198273.126381 kJ/mol
# GULP energy per Si atom -12392.070399 kJ/mol
# Density = 2.134319 g / cm^3
# Si number density = 21.391878 Si / 1000 Ang^3
#
#
#
# Elastic Constant Matrix: (Units=GPa)
#
#
# Indices 1 2 3 4 5 6 
#
# 1 165.5577 73.9794 71.3290 0.0000 0.0000 0.0000
# 2 73.9794 136.0197 100.2184 0.0000 0.0000 0.0000
# 3 71.3290 100.2184 124.9697 0.0000 0.0000 0.0000
# 4 0.0000 0.0000 0.0000 42.3554 0.0000 0.0000
# 5 0.0000 0.0000 0.0000 0.0000 -2.7304 0.0000
# 6 0.0000 0.0000 0.0000 0.0000 0.0000 325.4637
#
#
#
# Elastic Compliance Matrix: (Units=1/GPa)
#
#
# Indices 1 2 3 4 5 6 
#
# 1 0.008348 -0.002517 -0.002747 0.000000 0.000000 0.000000
# 2 -0.002517 0.018728 -0.013582 0.000000 0.000000 0.000000
# 3 -0.002747 -0.013582 0.020462 0.000000 0.000000 0.000000
# 4 0.000000 0.000000 0.000000 0.023610 0.000000 0.000000
# 5 0.000000 0.000000 0.000000 0.000000 -0.366250 0.000000
# 6 0.000000 0.000000 0.000000 0.000000 0.000000 0.003073
#
#
# Mechanical properties :
#
#
# Convention : Reuss Voigt Hill
#
# Bulk Modulus (GPa) = 101.55674 101.95563 101.75618
# Shear Modulus (GPa) = -19.91585 85.08577 32.58496
#
# Velocity S-wave (km/s) = -3.05454 6.31357 3.90710
# Velocity P-wave (km/s) = 5.92766 10.04552 8.24772
#
# Compressibility (1/GPa) = 0.00984671
#
# Stress axis : x y z
#
# Youngs Moduli (GPa) = 119.78704 53.39573 48.87159
#
# Poissons Ratio (x) = 0.13439 0.13423
# Poissons Ratio (y) = 0.30148 0.66379
# Poissons Ratio (z) = 0.32900 0.72524
#
# Static dielectric constant tensor:
#      x y z
#    x 4.390460 0.000000 0.000000 
#    y 0.000000 3.678120 0.000000 
#    z 0.000000 0.000000 3.677660 
# 
# 
# High freq. dielectric constant tensor:
#      x y z
#    x 1.865180 0.000000 0.000000 
#    y 0.000000 1.829610 0.000000 
#    z 0.000000 0.000000 1.846630 
# 
# From -- ./inp_files/5138.got.cif
#   From: 2010.03.12/outbox.cif.g09.slc.cpg/sg20_3_cif.got.tgz:5138.got - 2010.04.14 01:38:04.
