data_PCOD8159361
_publ_section_title
;
Structure prediction by ZEFSAII (Michael W. Deem and Ramdas Pophale) SiO2 
 PCOD8159361
Probable space group: C 2 2 21
;
_chemical_formula_sum "Si O2"
_cell_formula_units_Z 32
_cell_length_a 5.216127
_cell_length_b 35.081157
_cell_length_c 7.530227
_cell_angle_alpha 90.000000
_cell_angle_beta 90.000000
_cell_angle_gamma 90.000000
_cell_volume 1377.939448
_symmetry_space_group_name_H-M "C 2 2 21"
_symmetry_group_IT_number 20
_symmetry_cell_setting 'orthorhombic'
loop_
_space_group_symop_operation_xyz
x,y,z
-x,-y,1/2+z
x,-y,-z
-x,y,1/2-z
1/2+x,1/2+y,z
1/2-x,1/2-y,1/2+z
1/2+x,1/2-y,-z
1/2-x,1/2+y,1/2-z
loop_
_atom_site_type_symbol
_atom_site_label
_atom_site_fract_x
_atom_site_fract_y
_atom_site_fract_z
Si Si1 0.749738 0.035026 0.130019
Si Si2 0.235548 0.147894 0.932821
Si Si3 0.854701 0.236188 0.580008
Si Si4 0.763686 0.384613 0.459730
O O1 0.500000 0.028150 0.250000
O O2 0.000000 0.040771 0.250000
O O3 0.707081 0.071143 0.002747
O O4 0.795583 0.000000 0.000000
O O5 0.210762 0.192195 0.891072
O O6 0.494125 0.138532 0.041671
O O7 0.249659 0.123447 0.751090
O O8 0.994560 0.132721 0.047103
O O9 0.579676 0.257690 0.566740
O O10 0.000000 0.253734 0.750000
#
# Coordination Sequence:
#
# PCOD8159361 Si02
#       4
#     8   8   8   8
#     4  12  28  47  73 114 152 190 240 299 364 430
#     4  10  21  41  74  94 131 196 235 282 368 424
#     4  12  25  44  71 105 142 188 245 301 367 448
#     4  10  21  40  73  96 135 186 246 279 343 442
#
# _framework density 23.223082000000002
#
# number of rings (size 3 to 8) (size 9 to 14) (size 15 to 20)
#    0.000    1.000    2.500    4.500   10.500    0.000 
#    0.000   12.500    0.000    0.000    0.000    0.000 
#    0.000    0.000    0.000    0.000    0.000    0.000 
#
# Total GULP energy -198258.128280 kJ/mol
# GULP energy per Si atom -12391.133018 kJ/mol
# Density = 2.317022 g / cm^3
# Si number density = 23.223082 Si / 1000 Ang^3
#
#
#
# Elastic Constant Matrix: (Units=GPa)
#
#
# Indices 1 2 3 4 5 6 
#
# 1 220.4652 45.8900 16.7619 0.0000 0.0000 0.0000
# 2 45.8900 125.0182 50.9032 0.0000 0.0000 0.0000
# 3 16.7619 50.9032 64.5681 0.0000 0.0000 0.0000
# 4 0.0000 0.0000 0.0000 25.7914 0.0000 0.0000
# 5 0.0000 0.0000 0.0000 0.0000 23.8266 0.0000
# 6 0.0000 0.0000 0.0000 0.0000 0.0000 34.5443
#
#
#
# Elastic Compliance Matrix: (Units=1/GPa)
#
#
# Indices 1 2 3 4 5 6 
#
# 1 0.004913 -0.001891 0.000216 0.000000 0.000000 0.000000
# 2 -0.001891 0.012508 -0.009370 0.000000 0.000000 0.000000
# 3 0.000216 -0.009370 0.022819 0.000000 0.000000 0.000000
# 4 0.000000 0.000000 0.000000 0.038773 0.000000 0.000000
# 5 0.000000 0.000000 0.000000 0.000000 0.041970 0.000000
# 6 0.000000 0.000000 0.000000 0.000000 0.000000 0.028948
#
#
# Mechanical properties :
#
#
# Convention : Reuss Voigt Hill
#
# Bulk Modulus (GPa) = 55.10120 70.79574 62.94847
# Shear Modulus (GPa) = 28.07855 36.59887 32.33871
#
# Velocity S-wave (km/s) = 3.48095 3.97416 3.73570
# Velocity P-wave (km/s) = 6.31937 7.18400 6.76551
#
# Compressibility (1/GPa) = 0.01814842
#
# Stress axis : x y z
#
# Youngs Moduli (GPa) = 203.53612 79.94747 43.82385
#
# Poissons Ratio (x) = 0.15120 -0.00944
# Poissons Ratio (y) = 0.38493 0.41063
# Poissons Ratio (z) = -0.04386 0.74911
#
# Static dielectric constant tensor:
#      x y z
#    x 7.614630 0.000000 0.000000 
#    y 0.000000 3.983350 0.000000 
#    z 0.000000 0.000000 4.336300 
# 
# 
# High freq. dielectric constant tensor:
#      x y z
#    x 1.967030 0.000000 0.000000 
#    y 0.000000 1.913130 0.000000 
#    z 0.000000 0.000000 1.890330 
# 
# From -- ./inp_files/5134.got.cif
#   From: 2010.03.12/outbox.cif.g09.slc.cpg/sg20_3_cif.got.tgz:5134.got - 2010.04.14 01:38:04.
