data_PCOD8159238
_publ_section_title
;
Structure prediction by ZEFSAII (Michael W. Deem and Ramdas Pophale) SiO2 
 PCOD8159238
Probable space group: C 2 2 21
;
_chemical_formula_sum "Si O2"
_cell_formula_units_Z 64
_cell_length_a 27.382473
_cell_length_b 12.724841
_cell_length_c 8.976924
_cell_angle_alpha 90.000000
_cell_angle_beta 90.000000
_cell_angle_gamma 90.000000
_cell_volume 3127.897990
_symmetry_space_group_name_H-M "C 2 2 21"
_symmetry_group_IT_number 20
_symmetry_cell_setting 'orthorhombic'
loop_
_space_group_symop_operation_xyz
x,y,z
-x,-y,1/2+z
x,-y,-z
-x,y,1/2-z
1/2+x,1/2+y,z
1/2-x,1/2-y,1/2+z
1/2+x,1/2-y,-z
1/2-x,1/2+y,1/2-z
loop_
_atom_site_type_symbol
_atom_site_label
_atom_site_fract_x
_atom_site_fract_y
_atom_site_fract_z
Si Si1 0.574024 0.090744 0.662492
Si Si2 0.447318 0.491908 0.675402
Si Si3 0.703526 0.808363 0.810202
Si Si4 0.454021 0.866551 0.838905
Si Si5 0.291247 0.210618 0.651752
Si Si6 0.682373 0.020924 0.659566
Si Si7 0.607646 0.300852 0.195883
Si Si8 0.901030 0.775964 0.642705
O O1 0.542037 0.122478 0.517743
O O2 0.630216 0.072085 0.618648
O O3 0.568586 0.180424 0.785943
O O4 0.555023 0.981612 0.732687
O O5 0.454908 0.500000 0.500000
O O6 0.500000 0.501070 0.750000
O O7 0.411169 0.582812 0.736658
O O8 0.420841 0.382944 0.716556
O O9 0.750556 0.791692 0.707498
O O10 0.666475 0.708950 0.796406
O O11 0.677196 0.915449 0.757379
O O12 0.719109 0.820332 0.981578
O O13 0.500000 0.818433 0.750000
O O14 0.411094 0.783786 0.813784
O O15 0.286159 0.104672 0.748155
O O16 0.343498 0.266056 0.674531
O O17 0.708486 0.000000 0.500000
O O18 0.588154 0.270690 0.032183
#
# Coordination Sequence:
#
# PCOD8159238 Si02
#       8
#     8   8   8   8   8   8   8   8
#     4  10  21  39  57  86 118 158 199 242 314 365
#     4  10  22  41  61  85 117 159 204 251 305 359
#     4  11  21  39  61  90 126 160 207 252 312 374
#     4  11  22  36  57  88 120 152 200 252 300 369
#     4  10  23  37  60  96 120 162 206 255 308 374
#     4  11  19  38  63  83 120 163 198 252 311 373
#     4  10  21  39  60  86 118 162 202 250 306 367
#     4   9  22  39  61  84 122 157 205 252 301 369
#
# _framework density 20.461026
#
# number of rings (size 3 to 8) (size 9 to 14) (size 15 to 20)
#    0.000    1.750    2.500    1.500    0.000    8.000 
#    0.000    2.500    0.000    0.000    0.000    0.000 
#    0.000    0.000    0.000    0.000    0.000    0.000 
#
# Total GULP energy -396784.151210 kJ/mol
# GULP energy per Si atom -12399.504725 kJ/mol
# Density = 2.041446 g / cm^3
# Si number density = 20.461026 Si / 1000 Ang^3
#
#
#
# Elastic Constant Matrix: (Units=GPa)
#
#
# Indices 1 2 3 4 5 6 
#
# 1 60.0280 16.6359 22.4328 0.0000 0.0000 0.0000
# 2 16.6359 113.8493 30.1552 0.0000 0.0000 0.0000
# 3 22.4328 30.1552 83.3434 0.0000 0.0000 0.0000
# 4 0.0000 0.0000 0.0000 35.2435 0.0000 0.0000
# 5 0.0000 0.0000 0.0000 0.0000 32.0276 0.0000
# 6 0.0000 0.0000 0.0000 0.0000 0.0000 26.9152
#
#
#
# Elastic Compliance Matrix: (Units=1/GPa)
#
#
# Indices 1 2 3 4 5 6 
#
# 1 0.018767 -0.001553 -0.004489 0.000000 0.000000 0.000000
# 2 -0.001553 0.009843 -0.003143 0.000000 0.000000 0.000000
# 3 -0.004489 -0.003143 0.014344 0.000000 0.000000 0.000000
# 4 0.000000 0.000000 0.000000 0.028374 0.000000 0.000000
# 5 0.000000 0.000000 0.000000 0.000000 0.031223 0.000000
# 6 0.000000 0.000000 0.000000 0.000000 0.000000 0.037154
#
#
# Mechanical properties :
#
#
# Convention : Reuss Voigt Hill
#
# Bulk Modulus (GPa) = 40.67930 43.96315 42.32122
# Shear Modulus (GPa) = 30.07136 31.37038 30.72087
#
# Velocity S-wave (km/s) = 3.83781 3.91983 3.87904
# Velocity P-wave (km/s) = 6.28991 6.48226 6.38681
#
# Compressibility (1/GPa) = 0.02458253
#
# Stress axis : x y z
#
# Youngs Moduli (GPa) = 53.28485 101.59431 69.71439
#
# Poissons Ratio (x) = 0.15780 0.31297
# Poissons Ratio (y) = 0.08276 0.21914
# Poissons Ratio (z) = 0.23922 0.31935
#
# Static dielectric constant tensor:
#      x y z
#    x 3.527990 0.000000 0.000000 
#    y 0.000000 3.821120 0.000000 
#    z 0.000000 0.000000 3.637290 
# 
# 
# High freq. dielectric constant tensor:
#      x y z
#    x 1.788900 0.000000 0.000000 
#    y 0.000000 1.802280 0.000000 
#    z 0.000000 0.000000 1.798960 
# 
# From -- ./inp_files/11614.got.cif
#   From: 2010.03.12/outbox.cif.g09.slc.cpg/sg20_6_cif.got.tgz:11614.got - 2010.04.14 01:38:04.
