data_PCOD8159215
_publ_section_title
;
Structure prediction by ZEFSAII (Michael W. Deem and Ramdas Pophale) SiO2 
 PCOD8159215
Probable space group: C 2 2 21
;
_chemical_formula_sum "Si O2"
_cell_formula_units_Z 32
_cell_length_a 7.259132
_cell_length_b 35.982592
_cell_length_c 5.231632
_cell_angle_alpha 90.000000
_cell_angle_beta 90.000000
_cell_angle_gamma 90.000000
_cell_volume 1366.514756
_symmetry_space_group_name_H-M "C 2 2 21"
_symmetry_group_IT_number 20
_symmetry_cell_setting 'orthorhombic'
loop_
_space_group_symop_operation_xyz
x,y,z
-x,-y,1/2+z
x,-y,-z
-x,y,1/2-z
1/2+x,1/2+y,z
1/2-x,1/2-y,1/2+z
1/2+x,1/2-y,-z
1/2-x,1/2+y,1/2-z
loop_
_atom_site_type_symbol
_atom_site_label
_atom_site_fract_x
_atom_site_fract_y
_atom_site_fract_z
Si Si1 0.295932 0.229012 0.341152
Si Si2 0.295707 0.648847 0.015978
Si Si3 0.294112 0.383316 0.487324
Si Si4 0.622130 0.958720 0.499171
O O1 0.500000 0.218853 0.250000
O O2 0.310073 0.256520 0.586730
O O3 0.190485 0.193130 0.452598
O O4 0.189516 0.631743 0.260109
O O5 0.496721 0.630360 0.999403
O O6 0.193257 0.636053 0.756156
O O7 0.284119 0.428135 0.483251
O O8 0.500000 0.952476 0.750000
O O9 0.711668 0.000000 0.500000
O O10 0.500000 0.953448 0.250000
#
# Coordination Sequence:
#
# PCOD8159215 Si02
#       4
#     8   8   8   8
#     4  12  28  46  73 100 135 182 229 297 369 427
#     4  10  23  41  64  95 127 170 227 282 336 417
#     4  10  21  39  67  91 133 178 222 281 339 403
#     4  10  21  38  62  98 140 182 228 280 339 407
#
# _framework density 23.41724
#
# number of rings (size 3 to 8) (size 9 to 14) (size 15 to 20)
#    0.000    1.500    0.000    3.750   10.500    3.000 
#    0.000    5.000    0.000    0.000    0.000    0.000 
#    0.000    0.000    0.000    0.000    0.000    0.000 
#
# Total GULP energy -198265.184381 kJ/mol
# GULP energy per Si atom -12391.574024 kJ/mol
# Density = 2.336394 g / cm^3
# Si number density = 23.417240 Si / 1000 Ang^3
#
#
#
# Elastic Constant Matrix: (Units=GPa)
#
#
# Indices 1 2 3 4 5 6 
#
# 1 64.9763 58.5461 17.4455 0.0000 0.0000 0.0000
# 2 58.5461 218.6050 76.5687 0.0000 0.0000 0.0000
# 3 17.4455 76.5687 254.9942 0.0000 0.0000 0.0000
# 4 0.0000 0.0000 0.0000 47.3858 0.0000 0.0000
# 5 0.0000 0.0000 0.0000 0.0000 10.1490 0.0000
# 6 0.0000 0.0000 0.0000 0.0000 0.0000 50.4560
#
#
#
# Elastic Compliance Matrix: (Units=1/GPa)
#
#
# Indices 1 2 3 4 5 6 
#
# 1 0.020302 -0.005533 0.000272 0.000000 0.000000 0.000000
# 2 -0.005533 0.006620 -0.001609 0.000000 0.000000 0.000000
# 3 0.000272 -0.001609 0.004386 0.000000 0.000000 0.000000
# 4 0.000000 0.000000 0.000000 0.021103 0.000000 0.000000
# 5 0.000000 0.000000 0.000000 0.000000 0.098532 0.000000
# 6 0.000000 0.000000 0.000000 0.000000 0.000000 0.019819
#
#
# Mechanical properties :
#
#
# Convention : Reuss Voigt Hill
#
# Bulk Modulus (GPa) = 56.91785 93.74402 75.33094
# Shear Modulus (GPa) = 26.26617 47.33248 36.79932
#
# Velocity S-wave (km/s) = 3.35275 4.50073 3.96847
# Velocity P-wave (km/s) = 6.27269 8.19315 7.29638
#
# Compressibility (1/GPa) = 0.01756918
#
# Stress axis : x y z
#
# Youngs Moduli (GPa) = 49.25556 151.06025 227.98517
#
# Poissons Ratio (x) = 0.83577 -0.06209
# Poissons Ratio (y) = 0.27252 0.36689
# Poissons Ratio (z) = -0.01341 0.24310
#
# Static dielectric constant tensor:
#      x y z
#    x 3.534290 0.000000 0.000000 
#    y 0.000000 4.393740 0.000000 
#    z 0.000000 0.000000 5.025610 
# 
# 
# High freq. dielectric constant tensor:
#      x y z
#    x 1.884770 0.000000 0.000000 
#    y 0.000000 1.932390 0.000000 
#    z 0.000000 0.000000 1.974380 
# 
# From -- ./inp_files/700.got.cif
#   From: 2010.03.12/outbox.cif.g09.slc.cpg/sg20_1_cif.got.tgz:700.got - 2010.04.14 01:38:04.
