data_PCOD8159351
_publ_section_title
;
Structure prediction by ZEFSAII (Michael W. Deem and Ramdas Pophale) SiO2 
 PCOD8159351
Probable space group: C 2 2 21
;
_chemical_formula_sum "Si O2"
_cell_formula_units_Z 40
_cell_length_a 22.667857
_cell_length_b 8.758768
_cell_length_c 10.071221
_cell_angle_alpha 90.000000
_cell_angle_beta 90.000000
_cell_angle_gamma 90.000000
_cell_volume 1999.565401
_symmetry_space_group_name_H-M "C 2 2 21"
_symmetry_group_IT_number 20
_symmetry_cell_setting 'orthorhombic'
loop_
_space_group_symop_operation_xyz
x,y,z
-x,-y,1/2+z
x,-y,-z
-x,y,1/2-z
1/2+x,1/2+y,z
1/2-x,1/2-y,1/2+z
1/2+x,1/2-y,-z
1/2-x,1/2+y,1/2-z
loop_
_atom_site_type_symbol
_atom_site_label
_atom_site_fract_x
_atom_site_fract_y
_atom_site_fract_z
Si Si1 0.369155 0.348522 0.766635
Si Si2 0.879235 0.678488 0.512959
Si Si3 0.269849 0.342571 0.578118
Si Si4 0.638153 0.824750 0.537788
Si Si5 0.430969 0.669863 0.740094
O O1 0.400887 0.237974 0.658000
O O2 0.299962 0.365985 0.723573
O O3 0.375020 0.278315 0.911088
O O4 0.399365 0.511408 0.768495
O O5 0.890302 0.500000 0.500000
O O6 0.809455 0.719277 0.496255
O O7 0.917073 0.769089 0.405678
O O8 0.270762 0.500000 0.500000
O O9 0.203170 0.284513 0.594646
O O10 0.590659 0.791926 0.651284
O O11 0.632688 0.000000 0.500000
O O12 0.500000 0.645052 0.750000
#
# Coordination Sequence:
#
# PCOD8159351 Si02
#       5
#     8   8   8   8   8
#     4  10  22  42  64  95 129 177 218 266 324 395
#     4  10  21  40  68  95 127 173 216 272 332 380
#     4   9  20  40  67  95 136 164 214 265 337 396
#     4  11  25  41  66 104 135 167 218 279 332 385
#     4  12  26  45  67  94 135 182 226 265 323 402
#
# _framework density 20.004346999999999
#
# number of rings (size 3 to 8) (size 9 to 14) (size 15 to 20)
#    1.200    0.400    2.000    2.400    2.800    5.600 
#    0.000    2.000    0.000    0.000    0.000    0.000 
#    0.000    0.000    0.000    0.000    0.000    0.000 
#
# Total GULP energy -247921.980315 kJ/mol
# GULP energy per Si atom -12396.099016 kJ/mol
# Density = 1.995882 g / cm^3
# Si number density = 20.004347 Si / 1000 Ang^3
#
#
#
# Elastic Constant Matrix: (Units=GPa)
#
#
# Indices 1 2 3 4 5 6 
#
# 1 96.6904 48.8473 53.2585 0.0000 0.0000 0.0000
# 2 48.8473 91.7271 -3.4432 0.0000 0.0000 0.0000
# 3 53.2585 -3.4432 73.8824 0.0000 0.0000 0.0000
# 4 0.0000 0.0000 0.0000 33.8555 0.0000 0.0000
# 5 0.0000 0.0000 0.0000 0.0000 56.2085 0.0000
# 6 0.0000 0.0000 0.0000 0.0000 0.0000 -9.7157
#
#
#
# Elastic Compliance Matrix: (Units=1/GPa)
#
#
# Indices 1 2 3 4 5 6 
#
# 1 0.033869 -0.018986 -0.025300 0.000000 0.000000 0.000000
# 2 -0.018986 0.021564 0.014691 0.000000 0.000000 0.000000
# 3 -0.025300 0.014691 0.032457 0.000000 0.000000 0.000000
# 4 0.000000 0.000000 0.000000 0.029537 0.000000 0.000000
# 5 0.000000 0.000000 0.000000 0.000000 0.017791 0.000000
# 6 0.000000 0.000000 0.000000 0.000000 0.000000 -0.102927
#
#
# Mechanical properties :
#
#
# Convention : Reuss Voigt Hill
#
# Bulk Modulus (GPa) = 34.84168 51.06945 42.95556
# Shear Modulus (GPa) = 49.48105 26.97882 38.22994
#
# Velocity S-wave (km/s) = 4.97884 3.67638 4.37633
# Velocity P-wave (km/s) = 7.10680 6.60345 6.85975
#
# Compressibility (1/GPa) = 0.02870126
#
# Stress axis : x y z
#
# Youngs Moduli (GPa) = 29.52512 46.37345 30.80984
#
# Poissons Ratio (x) = 0.88045 0.77948
# Poissons Ratio (y) = 0.56057 -0.45263
# Poissons Ratio (z) = 0.74698 -0.68128
#
# Static dielectric constant tensor:
#      x y z
#    x 3.605090 0.000000 0.000000 
#    y 0.000000 2.542400 0.000000 
#    z 0.000000 0.000000 3.821750 
# 
# 
# High freq. dielectric constant tensor:
#      x y z
#    x 1.763530 0.000000 0.000000 
#    y 0.000000 1.789210 0.000000 
#    z 0.000000 0.000000 1.785000 
# 
# From -- ./inp_files/10501.got.cif
#   From: 2010.03.12/outbox.cif.g09.slc.cpg/sg20_6_cif.got.tgz:10501.got - 2010.04.14 01:38:04.
