data_PCOD8159903
_publ_section_title
;
Structure prediction by ZEFSAII (Michael W. Deem and Ramdas Pophale) SiO2 
 PCOD8159903
Probable space group: C 2 2 21
;
_chemical_formula_sum "Si O2"
_cell_formula_units_Z 64
_cell_length_a 16.820067
_cell_length_b 8.451246
_cell_length_c 22.109329
_cell_angle_alpha 90.000000
_cell_angle_beta 90.000000
_cell_angle_gamma 90.000000
_cell_volume 3142.852702
_symmetry_space_group_name_H-M "C 2 2 21"
_symmetry_group_IT_number 20
_symmetry_cell_setting 'orthorhombic'
loop_
_space_group_symop_operation_xyz
x,y,z
-x,-y,1/2+z
x,-y,-z
-x,y,1/2-z
1/2+x,1/2+y,z
1/2-x,1/2-y,1/2+z
1/2+x,1/2-y,-z
1/2-x,1/2+y,1/2-z
loop_
_atom_site_type_symbol
_atom_site_label
_atom_site_fract_x
_atom_site_fract_y
_atom_site_fract_z
Si Si1 0.140813 0.420979 0.182481
Si Si2 0.744293 0.665056 0.367577
Si Si3 0.859186 0.579021 0.817518
Si Si4 0.332914 0.409459 0.059013
Si Si5 0.499999 0.089264 0.907512
Si Si6 0.744293 0.334945 0.867577
Si Si7 0.500001 0.252436 0.465352
Si Si8 0.167086 0.090541 0.940987
O O1 0.180286 0.587644 0.165464
O O2 0.104556 0.432440 0.250000
O O3 0.076126 0.375543 0.132839
O O4 0.205911 0.282500 0.180956
O O5 0.705911 0.782500 0.319044
O O6 0.678331 0.535326 0.386619
O O7 0.776559 0.759193 0.426890
O O8 0.819713 0.412356 0.834535
O O9 0.923874 0.624457 0.867160
O O10 0.276559 0.259192 0.073110
O O11 0.424090 0.357733 0.051612
O O12 0.301156 0.500000 0.000000
O O13 0.499999 0.907642 0.927396
O O14 0.499999 0.210164 0.963597
O O15 0.678331 0.464674 0.886620
O O16 0.424090 0.357731 0.448388
O O17 0.198843 0.000000 0.000000
#
# Coordination Sequence:
#
# PCOD8159903 Si02
#       8
#     8   8   8   8   8   8   8   8
#     4  11  22  42  64  87 120 161 205 253 301 356
#     4  10  23  38  61  94 122 152 211 247 305 365
#     4  11  22  42  64  87 120 161 205 253 301 356
#     4  11  21  38  60  91 127 163 194 250 307 367
#     4  11  23  40  61  91 120 162 202 248 301 368
#     4  10  23  38  61  94 122 152 211 247 305 365
#     4  11  23  40  61  89 127 157 200 248 305 360
#     4  11  21  38  60  91 127 163 194 250 307 367
#
# _framework density 20.363665000000001
#
# number of rings (size 3 to 8) (size 9 to 14) (size 15 to 20)
#    0.000    1.250    2.500    3.750    0.000    3.000 
#    0.000    0.000    0.000    0.000    0.000    0.000 
#    0.000    0.000    0.000    0.000    0.000    0.000 
#
# Total GULP energy -396795.840876 kJ/mol
# GULP energy per Si atom -12399.870027 kJ/mol
# Density = 2.031732 g / cm^3
# Si number density = 20.363665 Si / 1000 Ang^3
#
#
#
# Elastic Constant Matrix: (Units=GPa)
#
#
# Indices 1 2 3 4 5 6 
#
# 1 107.2257 44.7291 47.0312 0.0000 0.0000 0.0000
# 2 44.7291 102.8269 33.9924 0.0000 0.0000 0.0000
# 3 47.0312 33.9924 114.0773 0.0000 0.0000 0.0000
# 4 0.0000 0.0000 0.0000 19.7203 0.0000 0.0000
# 5 0.0000 0.0000 0.0000 0.0000 33.4500 0.0000
# 6 0.0000 0.0000 0.0000 0.0000 0.0000 37.9349
#
#
#
# Elastic Compliance Matrix: (Units=1/GPa)
#
#
# Indices 1 2 3 4 5 6 
#
# 1 0.012877 -0.004267 -0.004037 0.000000 0.000000 0.000000
# 2 -0.004267 0.012201 -0.001877 0.000000 0.000000 0.000000
# 3 -0.004037 -0.001877 0.010990 0.000000 0.000000 0.000000
# 4 0.000000 0.000000 0.000000 0.050709 0.000000 0.000000
# 5 0.000000 0.000000 0.000000 0.000000 0.029895 0.000000
# 6 0.000000 0.000000 0.000000 0.000000 0.000000 0.026361
#
#
# Mechanical properties :
#
#
# Convention : Reuss Voigt Hill
#
# Bulk Modulus (GPa) = 63.66825 63.95950 63.81387
# Shear Modulus (GPa) = 29.65061 31.44618 30.54840
#
# Velocity S-wave (km/s) = 3.81997 3.93393 3.87737
# Velocity P-wave (km/s) = 7.12669 7.21881 7.17290
#
# Compressibility (1/GPa) = 0.01570641
#
# Stress axis : x y z
#
# Youngs Moduli (GPa) = 77.65867 81.95735 90.99397
#
# Poissons Ratio (x) = 0.34969 0.36738
# Poissons Ratio (y) = 0.33134 0.17077
# Poissons Ratio (z) = 0.31354 0.15381
#
# Static dielectric constant tensor:
#      x y z
#    x 3.584040 0.000000 0.000000 
#    y 0.000000 3.878640 0.000000 
#    z 0.000000 0.000000 3.559230 
# 
# 
# High freq. dielectric constant tensor:
#      x y z
#    x 1.789860 0.000000 0.000000 
#    y 0.000000 1.812970 0.000000 
#    z 0.000000 0.000000 1.786770 
# 
# From -- ./inp_files/29373.got.cif
#   From: 2010.03.12/outbox.cif.g09.slc.cpg/sg20_15_cif.got.tgz:29373.got - 2010.04.14 01:38:04.
