data_PCOD8159561
_publ_section_title
;
Structure prediction by ZEFSAII (Michael W. Deem and Ramdas Pophale) SiO2 
 PCOD8159561
Probable space group: C 2 2 21
;
_chemical_formula_sum "Si O2"
_cell_formula_units_Z 40
_cell_length_a 9.706971
_cell_length_b 11.478056
_cell_length_c 16.075005
_cell_angle_alpha 90.000000
_cell_angle_beta 90.000000
_cell_angle_gamma 90.000000
_cell_volume 1791.031351
_symmetry_space_group_name_H-M "C 2 2 21"
_symmetry_group_IT_number 20
_symmetry_cell_setting 'orthorhombic'
loop_
_space_group_symop_operation_xyz
x,y,z
-x,-y,1/2+z
x,-y,-z
-x,y,1/2-z
1/2+x,1/2+y,z
1/2-x,1/2-y,1/2+z
1/2+x,1/2-y,-z
1/2-x,1/2+y,1/2-z
loop_
_atom_site_type_symbol
_atom_site_label
_atom_site_fract_x
_atom_site_fract_y
_atom_site_fract_z
Si Si1 0.249999 0.405707 0.092655
Si Si2 0.749999 0.212528 0.073589
Si Si3 0.526986 0.078658 0.153010
Si Si4 0.750002 0.146029 0.421174
Si Si5 0.473012 0.578658 0.153010
O O1 0.113091 0.464444 0.129216
O O2 0.249997 0.271423 0.125240
O O3 0.386906 0.464443 0.129219
O O4 0.250000 0.398809 0.991085
O O5 0.612374 0.196339 0.128828
O O6 0.887625 0.196339 0.128828
O O7 0.749999 0.333544 0.022189
O O8 0.500000 0.080791 0.250000
O O9 0.383914 0.072974 0.103467
O O10 0.883917 0.072972 0.396534
O O11 0.500000 0.580794 0.250000
#
# Coordination Sequence:
#
# PCOD8159561 Si02
#       5
#     8   8   8   8   8
#     4   9  23  41  61  81 125 152 189 240 293 336
#     4   9  21  43  59  81 125 153 186 244 289 338
#     4  11  20  38  63  87 117 153 193 243 288 336
#     4  10  22  37  65  83 116 157 199 227 290 350
#     4  11  20  38  63  87 117 153 193 243 288 336
#
# _framework density 22.333503
#
# number of rings (size 3 to 8) (size 9 to 14) (size 15 to 20)
#    1.200    0.800    0.000    6.000    0.000    1.600 
#    0.000    8.000    0.000    0.000    0.000    0.000 
#    0.000    0.000    0.000    0.000    0.000    0.000 
#
# Total GULP energy -247917.731820 kJ/mol
# GULP energy per Si atom -12395.886591 kJ/mol
# Density = 2.228267 g / cm^3
# Si number density = 22.333503 Si / 1000 Ang^3
#
#
#
# Elastic Constant Matrix: (Units=GPa)
#
#
# Indices 1 2 3 4 5 6 
#
# 1 190.4187 38.8268 50.2170 0.0000 0.0000 0.0000
# 2 38.8268 58.9816 23.2937 0.0000 0.0000 0.0000
# 3 50.2170 23.2937 144.2697 0.0000 0.0000 0.0000
# 4 0.0000 0.0000 0.0000 0.0439 0.0000 0.0000
# 5 0.0000 0.0000 0.0000 0.0000 45.0785 0.0000
# 6 0.0000 0.0000 0.0000 0.0000 0.0000 18.7625
#
#
#
# Elastic Compliance Matrix: (Units=1/GPa)
#
#
# Indices 1 2 3 4 5 6 
#
# 1 0.006416 -0.003569 -0.001657 0.000000 0.000000 0.000000
# 2 -0.003569 0.020095 -0.002002 0.000000 0.000000 0.000000
# 3 -0.001657 -0.002002 0.007832 0.000000 0.000000 0.000000
# 4 0.000000 0.000000 0.000000 22.788348 0.000000 0.000000
# 5 0.000000 0.000000 0.000000 0.000000 0.022184 0.000000
# 6 0.000000 0.000000 0.000000 0.000000 0.000000 0.053298
#
#
# Mechanical properties :
#
#
# Convention : Reuss Voigt Hill
#
# Bulk Modulus (GPa) = 50.28762 68.70500 59.49631
# Shear Modulus (GPa) = 0.21816 31.53248 15.87532
#
# Velocity S-wave (km/s) = 0.31288 3.76159 2.66903
# Velocity P-wave (km/s) = 4.76404 7.04954 6.01632
#
# Compressibility (1/GPa) = 0.01988561
#
# Stress axis : x y z
#
# Youngs Moduli (GPa) = 155.85079 49.76409 127.68930
#
# Poissons Ratio (x) = 0.17763 0.21159
# Poissons Ratio (y) = 0.55629 0.25564
# Poissons Ratio (z) = 0.25826 0.09963
#
# Static dielectric constant tensor:
#      x y z
#    x 4.038210 0.000000 0.000000 
#    y 0.000000 3.643350 0.000000 
#    z 0.000000 0.000000 3.880260 
# 
# 
# High freq. dielectric constant tensor:
#      x y z
#    x 1.891380 0.000000 0.000000 
#    y 0.000000 1.857460 0.000000 
#    z 0.000000 0.000000 1.874180 
# 
# From -- ./inp_files/18548.got.cif
#   From: 2010.03.12/outbox.cif.g09.slc.cpg/sg20_10_cif.got.tgz:18548.got - 2010.04.14 01:38:04.
