data_PCOD8159079
_publ_section_title
;
Structure prediction by ZEFSAII (Michael W. Deem and Ramdas Pophale) SiO2 
 PCOD8159079
Probable space group: C 2 2 21
;
_chemical_formula_sum "Si O2"
_cell_formula_units_Z 32
_cell_length_a 10.962720
_cell_length_b 9.054317
_cell_length_c 14.813509
_cell_angle_alpha 90.000000
_cell_angle_beta 90.000000
_cell_angle_gamma 90.000000
_cell_volume 1470.388045
_symmetry_space_group_name_H-M "C 2 2 21"
_symmetry_group_IT_number 20
_symmetry_cell_setting 'orthorhombic'
loop_
_space_group_symop_operation_xyz
x,y,z
-x,-y,1/2+z
x,-y,-z
-x,y,1/2-z
1/2+x,1/2+y,z
1/2-x,1/2-y,1/2+z
1/2+x,1/2-y,-z
1/2-x,1/2+y,1/2-z
loop_
_atom_site_type_symbol
_atom_site_label
_atom_site_fract_x
_atom_site_fract_y
_atom_site_fract_z
Si Si1 0.587440 0.000000 0.000000
Si Si2 0.500000 0.299201 0.750000
Si Si3 0.195049 0.253938 0.119546
Si Si4 0.472416 0.808824 0.849463
Si Si5 0.026286 0.999335 0.902274
O O1 0.673532 0.874546 0.041897
O O2 0.499324 0.065780 0.077123
O O3 0.388289 0.203510 0.708447
O O4 0.445458 0.407117 0.829349
O O5 0.335178 0.250995 0.145077
O O6 0.154245 0.090659 0.085962
O O7 0.500000 0.872275 0.750000
O O8 0.555374 0.664363 0.868120
O O9 0.959409 0.000000 0.000000
#
# Coordination Sequence:
#
# PCOD8159079 Si02
#       5
#     4   4   8   8   8
#     4  12  28  42  70 112 136 184 234 288 358 410
#     4   8  20  44  66  96 132 182 218 284 346 390
#     4  10  25  46  68  99 141 180 225 298 336 417
#     4  12  26  45  72 106 137 188 237 281 353 419
#     4  10  20  45  69  93 131 183 228 271 348 404
#
# _framework density 21.762961000000001
#
# number of rings (size 3 to 8) (size 9 to 14) (size 15 to 20)
#    1.500    0.000    3.750    0.000    5.250    4.000 
#    4.500    0.000    0.000    0.000    0.000    0.000 
#    0.000    0.000    0.000    0.000    0.000    0.000 
#
# Total GULP energy -198222.228321 kJ/mol
# GULP energy per Si atom -12388.889270 kJ/mol
# Density = 2.171343 g / cm^3
# Si number density = 21.762961 Si / 1000 Ang^3
#
#
#
# Elastic Constant Matrix: (Units=GPa)
#
#
# Indices 1 2 3 4 5 6 
#
# 1 104.2191 38.5923 51.8975 0.0000 0.0000 0.0000
# 2 38.5923 105.4337 43.9099 0.0000 0.0000 0.0000
# 3 51.8975 43.9099 183.4213 0.0000 0.0000 0.0000
# 4 0.0000 0.0000 0.0000 50.4407 0.0000 0.0000
# 5 0.0000 0.0000 0.0000 0.0000 23.5073 0.0000
# 6 0.0000 0.0000 0.0000 0.0000 0.0000 12.1685
#
#
#
# Elastic Compliance Matrix: (Units=1/GPa)
#
#
# Indices 1 2 3 4 5 6 
#
# 1 0.012148 -0.003349 -0.002635 0.000000 0.000000 0.000000
# 2 -0.003349 0.011458 -0.001795 0.000000 0.000000 0.000000
# 3 -0.002635 -0.001795 0.006627 0.000000 0.000000 0.000000
# 4 0.000000 0.000000 0.000000 0.019825 0.000000 0.000000
# 5 0.000000 0.000000 0.000000 0.000000 0.042540 0.000000
# 6 0.000000 0.000000 0.000000 0.000000 0.000000 0.082179
#
#
# Mechanical properties :
#
#
# Convention : Reuss Voigt Hill
#
# Bulk Modulus (GPa) = 68.14891 73.54151 70.84521
# Shear Modulus (GPa) = 25.61104 34.46827 30.03965
#
# Velocity S-wave (km/s) = 3.43420 3.98402 3.71928
# Velocity P-wave (km/s) = 6.86346 7.41813 7.14618
#
# Compressibility (1/GPa) = 0.01467375
#
# Stress axis : x y z
#
# Youngs Moduli (GPa) = 82.32094 87.27378 150.88847
#
# Poissons Ratio (x) = 0.29227 0.39764
# Poissons Ratio (y) = 0.27568 0.27092
# Poissons Ratio (z) = 0.21695 0.15670
#
# Static dielectric constant tensor:
#      x y z
#    x 3.313280 0.000000 0.000000 
#    y 0.000000 3.874270 0.000000 
#    z 0.000000 0.000000 4.144250 
# 
# 
# High freq. dielectric constant tensor:
#      x y z
#    x 1.806070 0.000000 0.000000 
#    y 0.000000 1.857890 0.000000 
#    z 0.000000 0.000000 1.874350 
# 
# From -- ./inp_files/19509.got.cif
#   From: 2010.03.12/outbox.cif.g09.slc.cpg/sg20_10_cif.got.tgz:19509.got - 2010.04.14 01:38:04.
