data_PCOD8159380
_publ_section_title
;
Structure prediction by ZEFSAII (Michael W. Deem and Ramdas Pophale) SiO2 
 PCOD8159380
Probable space group: C 2 2 21
;
_chemical_formula_sum "Si O2"
_cell_formula_units_Z 60
_cell_length_a 12.052718
_cell_length_b 29.647861
_cell_length_c 7.907170
_cell_angle_alpha 90.000000
_cell_angle_beta 90.000000
_cell_angle_gamma 90.000000
_cell_volume 2825.526841
_symmetry_space_group_name_H-M "C 2 2 21"
_symmetry_group_IT_number 20
_symmetry_cell_setting 'orthorhombic'
loop_
_space_group_symop_operation_xyz
x,y,z
-x,-y,1/2+z
x,-y,-z
-x,y,1/2-z
1/2+x,1/2+y,z
1/2-x,1/2-y,1/2+z
1/2+x,1/2-y,-z
1/2-x,1/2+y,1/2-z
loop_
_atom_site_type_symbol
_atom_site_label
_atom_site_fract_x
_atom_site_fract_y
_atom_site_fract_z
Si Si1 0.990149 0.690787 0.951007
Si Si2 0.746029 0.836521 0.416228
Si Si3 0.096733 0.870422 0.583731
Si Si4 0.385242 0.410253 0.549720
Si Si5 0.527424 0.709232 0.939545
Si Si6 0.674999 0.873494 0.081183
Si Si7 0.228845 0.000000 0.000000
Si Si8 0.879444 0.525879 0.679510
O O1 0.866728 0.676907 0.013532
O O2 0.000000 0.694748 0.750000
O O3 0.074421 0.651846 0.016660
O O4 0.017369 0.737903 0.036070
O O5 0.783868 0.887872 0.449429
O O6 0.843746 0.802914 0.472720
O O7 0.717602 0.837106 0.218404
O O8 0.098582 0.882432 0.779118
O O9 0.221686 0.882809 0.537307
O O10 0.009757 0.901710 0.473126
O O11 0.059349 0.818037 0.558797
O O12 0.356606 0.462098 0.562824
O O13 0.500000 0.694847 0.750000
O O14 0.628915 0.920522 0.153495
O O15 0.297432 0.011379 0.831221
O O16 0.856007 0.500000 0.500000
O O17 0.000000 0.512976 0.750000
#
# Coordination Sequence:
#
# PCOD8159380 Si02
#       8
#     8   8   8   8   8   8   4   8
#     4  10  25  38  63  97 128 177 223 277 337 412
#     4  10  21  41  64  90 134 172 216 278 345 395
#     4  10  23  44  65  96 135 177 226 272 359 411
#     4  10  23  43  67  98 132 177 218 293 343 412
#     4  11  23  39  65  96 130 177 230 281 337 417
#     4  11  22  45  66  95 138 178 223 277 348 418
#     4  12  24  46  72 106 140 176 248 286 348 430
#     4  12  25  44  74 103 139 188 234 292 357 424
#
# _framework density 21.234977000000001
#
# number of rings (size 3 to 8) (size 9 to 14) (size 15 to 20)
#    0.000    1.333    3.333    2.000    5.600    1.067 
#    6.000    0.667    0.000    0.000    0.000    0.000 
#    0.000    0.000    0.000    0.000    0.000    0.000 
#
# Total GULP energy -371717.505720 kJ/mol
# GULP energy per Si atom -12390.583524 kJ/mol
# Density = 2.118665 g / cm^3
# Si number density = 21.234977 Si / 1000 Ang^3
#
#
#
# Elastic Constant Matrix: (Units=GPa)
#
#
# Indices 1 2 3 4 5 6 
#
# 1 157.7521 54.0319 29.1506 0.0000 0.0000 0.0000
# 2 54.0319 114.5648 17.8385 0.0000 0.0000 0.0000
# 3 29.1506 17.8385 66.2857 0.0000 0.0000 0.0000
# 4 0.0000 0.0000 0.0000 29.2506 0.0000 0.0000
# 5 0.0000 0.0000 0.0000 0.0000 25.9377 0.0000
# 6 0.0000 0.0000 0.0000 0.0000 0.0000 31.3284
#
#
#
# Elastic Compliance Matrix: (Units=1/GPa)
#
#
# Indices 1 2 3 4 5 6 
#
# 1 0.007968 -0.003353 -0.002602 0.000000 0.000000 0.000000
# 2 -0.003353 0.010521 -0.001357 0.000000 0.000000 0.000000
# 3 -0.002602 -0.001357 0.016596 0.000000 0.000000 0.000000
# 4 0.000000 0.000000 0.000000 0.034187 0.000000 0.000000
# 5 0.000000 0.000000 0.000000 0.000000 0.038554 0.000000
# 6 0.000000 0.000000 0.000000 0.000000 0.000000 0.031920
#
#
# Mechanical properties :
#
#
# Convention : Reuss Voigt Hill
#
# Bulk Modulus (GPa) = 48.87179 60.07164 54.47171
# Shear Modulus (GPa) = 31.01921 33.14210 32.08065
#
# Velocity S-wave (km/s) = 3.82614 3.95490 3.89105
# Velocity P-wave (km/s) = 6.52563 7.01465 6.77455
#
# Compressibility (1/GPa) = 0.02046170
#
# Stress axis : x y z
#
# Youngs Moduli (GPa) = 125.49772 95.04531 60.25684
#
# Poissons Ratio (x) = 0.31868 0.15678
# Poissons Ratio (y) = 0.42078 0.08176
# Poissons Ratio (z) = 0.32653 0.12897
#
# Static dielectric constant tensor:
#      x y z
#    x 4.816770 0.000000 0.000000 
#    y 0.000000 3.760400 0.000000 
#    z 0.000000 0.000000 3.685890 
# 
# 
# High freq. dielectric constant tensor:
#      x y z
#    x 1.856480 0.000000 0.000000 
#    y 0.000000 1.828170 0.000000 
#    z 0.000000 0.000000 1.819180 
# 
# From -- ./inp_files/7639.got.cif
#   From: 2010.03.12/outbox.cif.g09.slc.cpg/sg20_4_cif.got.tgz:7639.got - 2010.04.14 01:38:04.
