data_PCOD8159949
_publ_section_title
;
Structure prediction by ZEFSAII (Michael W. Deem and Ramdas Pophale) SiO2 
 PCOD8159949
Probable space group: C 2 2 21
;
_chemical_formula_sum "Si O2"
_cell_formula_units_Z 32
_cell_length_a 18.376676
_cell_length_b 5.160076
_cell_length_c 13.202199
_cell_angle_alpha 90.000000
_cell_angle_beta 90.000000
_cell_angle_gamma 90.000000
_cell_volume 1251.899111
_symmetry_space_group_name_H-M "C 2 2 21"
_symmetry_group_IT_number 20
_symmetry_cell_setting 'orthorhombic'
loop_
_space_group_symop_operation_xyz
x,y,z
-x,-y,1/2+z
x,-y,-z
-x,y,1/2-z
1/2+x,1/2+y,z
1/2-x,1/2-y,1/2+z
1/2+x,1/2-y,-z
1/2-x,1/2+y,1/2-z
loop_
_atom_site_type_symbol
_atom_site_label
_atom_site_fract_x
_atom_site_fract_y
_atom_site_fract_z
Si Si1 0.501140 0.633878 0.129610
Si Si2 0.939721 0.361701 0.663564
Si Si3 0.871192 0.000000 0.000000
Si Si4 0.217818 0.500000 0.500000
Si Si5 0.218810 0.198963 0.796730
O O1 0.500000 0.588462 0.250000
O O2 0.539267 0.371698 0.087140
O O3 0.419171 0.637685 0.087632
O O4 0.553159 0.873909 0.098651
O O5 0.861893 0.314963 0.715057
O O6 0.000000 0.409062 0.750000
O O7 0.826380 0.248410 0.957243
O O8 0.267619 0.389630 0.411091
O O9 0.272209 0.441514 0.772397
#
# Coordination Sequence:
#
# PCOD8159949 Si02
#       5
#     8   8   4   4   8
#     4  10  23  41  73 109 149 192 265 322 394 455
#     4  10  23  43  75 110 151 194 267 318 395 465
#     4  12  26  47  76 117 158 216 258 344 394 491
#     4  12  30  47  78 119 166 206 284 310 422 499
#     4  12  28  49  81 116 165 215 262 337 409 482
#
# _framework density 25.561167000000001
#
# number of rings (size 3 to 8) (size 9 to 14) (size 15 to 20)
#    0.000    1.000    0.000    4.500   21.000    1.000 
#    0.000    2.500    0.000    0.000    0.000    0.000 
#    0.000    0.000    0.000    0.000    0.000    0.000 
#
# Total GULP energy -198286.479778 kJ/mol
# GULP energy per Si atom -12392.904986 kJ/mol
# Density = 2.550299 g / cm^3
# Si number density = 25.561167 Si / 1000 Ang^3
#
#
#
# Elastic Constant Matrix: (Units=GPa)
#
#
# Indices 1 2 3 4 5 6 
#
# 1 132.1604 46.2875 39.0522 0.0000 0.0000 0.0000
# 2 46.2875 243.3236 30.2782 0.0000 0.0000 0.0000
# 3 39.0522 30.2782 79.5242 0.0000 0.0000 0.0000
# 4 0.0000 0.0000 0.0000 51.1840 0.0000 0.0000
# 5 0.0000 0.0000 0.0000 0.0000 30.0562 0.0000
# 6 0.0000 0.0000 0.0000 0.0000 0.0000 51.8145
#
#
#
# Elastic Compliance Matrix: (Units=1/GPa)
#
#
# Indices 1 2 3 4 5 6 
#
# 1 0.009198 -0.001247 -0.004042 0.000000 0.000000 0.000000
# 2 -0.001247 0.004483 -0.001095 0.000000 0.000000 0.000000
# 3 -0.004042 -0.001095 0.014977 0.000000 0.000000 0.000000
# 4 0.000000 0.000000 0.000000 0.019537 0.000000 0.000000
# 5 0.000000 0.000000 0.000000 0.000000 0.033271 0.000000
# 6 0.000000 0.000000 0.000000 0.000000 0.000000 0.019300
#
#
# Mechanical properties :
#
#
# Convention : Reuss Voigt Hill
#
# Bulk Modulus (GPa) = 62.93100 76.24933 69.59017
# Shear Modulus (GPa) = 42.07733 49.23695 45.65714
#
# Velocity S-wave (km/s) = 4.06167 4.39366 4.23092
# Velocity P-wave (km/s) = 6.83150 7.45881 7.15204
#
# Compressibility (1/GPa) = 0.01589042
#
# Stress axis : x y z
#
# Youngs Moduli (GPa) = 108.72428 223.05837 66.77119
#
# Poissons Ratio (x) = 0.27808 0.26989
# Poissons Ratio (y) = 0.13555 0.07309
# Poissons Ratio (z) = 0.43947 0.24418
#
# Static dielectric constant tensor:
#      x y z
#    x 4.239640 0.000000 0.000000 
#    y 0.000000 6.841640 0.000000 
#    z 0.000000 0.000000 4.259730 
# 
# 
# High freq. dielectric constant tensor:
#      x y z
#    x 2.000700 0.000000 0.000000 
#    y 0.000000 2.068660 0.000000 
#    z 0.000000 0.000000 2.014880 
# 
# From -- ./inp_files/21055.got.cif
#   From: 2010.03.12/outbox.cif.g09.slc.cpg/sg20_11_cif.got.tgz:21055.got - 2010.04.14 01:38:04.
