data_PCOD8159882
_publ_section_title
;
Structure prediction by ZEFSAII (Michael W. Deem and Ramdas Pophale) SiO2 
 PCOD8159882
Probable space group: C 2 2 21
;
_chemical_formula_sum "Si O2"
_cell_formula_units_Z 32
_cell_length_a 16.381793
_cell_length_b 7.646178
_cell_length_c 12.114289
_cell_angle_alpha 90.000000
_cell_angle_beta 90.000000
_cell_angle_gamma 90.000000
_cell_volume 1517.412886
_symmetry_space_group_name_H-M "C 2 2 21"
_symmetry_group_IT_number 20
_symmetry_cell_setting 'orthorhombic'
loop_
_space_group_symop_operation_xyz
x,y,z
-x,-y,1/2+z
x,-y,-z
-x,y,1/2-z
1/2+x,1/2+y,z
1/2-x,1/2-y,1/2+z
1/2+x,1/2-y,-z
1/2-x,1/2+y,1/2-z
loop_
_atom_site_type_symbol
_atom_site_label
_atom_site_fract_x
_atom_site_fract_y
_atom_site_fract_z
Si Si1 0.344102 0.702443 0.301458
Si Si2 0.000000 0.430857 0.250000
Si Si3 0.911847 0.000000 0.500000
Si Si4 0.527625 0.266664 0.366926
Si Si5 0.801748 0.065202 0.881750
O O1 0.425473 0.811222 0.283674
O O2 0.353988 0.566675 0.402079
O O3 0.270119 0.831942 0.323067
O O4 0.324934 0.602297 0.189545
O O5 0.020719 0.555858 0.355310
O O6 0.968465 0.838422 0.462054
O O7 0.500000 0.355911 0.250000
O O8 0.620207 0.310749 0.396885
O O9 0.770353 0.000000 0.000000
#
# Coordination Sequence:
#
# PCOD8159882 Si02
#       5
#     8   4   4   8   8
#     4  12  27  46  70 107 142 188 236 295 355 432
#     4  10  24  46  72  96 146 184 238 284 346 428
#     4  12  24  44  76  98 146 186 238 292 360 416
#     4  10  22  46  68 103 137 186 233 288 344 427
#     4  12  27  45  72 103 147 183 237 296 358 418
#
# _framework density 21.088526000000002
#
# number of rings (size 3 to 8) (size 9 to 14) (size 15 to 20)
#    0.750    0.000    3.750    3.000    7.000    0.000 
#    0.000    0.000    0.000    0.000    0.000    0.000 
#    0.000    0.000    0.000    0.000    0.000    0.000 
#
# Total GULP energy -198467.110375 kJ/mol
# GULP energy per Si atom -12404.194398 kJ/mol
# Density = 2.104053 g / cm^3
# Si number density = 21.088526 Si / 1000 Ang^3
#
#
#
# Elastic Constant Matrix: (Units=GPa)
#
#
# Indices 1 2 3 4 5 6 
#
# 1 91.7879 35.5025 10.8357 0.0000 0.0000 0.0000
# 2 35.5025 118.1397 41.7390 0.0000 0.0000 0.0000
# 3 10.8357 41.7390 106.0449 0.0000 0.0000 0.0000
# 4 0.0000 0.0000 0.0000 18.3111 0.0000 0.0000
# 5 0.0000 0.0000 0.0000 0.0000 21.7423 0.0000
# 6 0.0000 0.0000 0.0000 0.0000 0.0000 47.6333
#
#
#
# Elastic Compliance Matrix: (Units=1/GPa)
#
#
# Indices 1 2 3 4 5 6 
#
# 1 0.012332 -0.003788 0.000231 0.000000 0.000000 0.000000
# 2 -0.003788 0.010995 -0.003941 0.000000 0.000000 0.000000
# 3 0.000231 -0.003941 0.010957 0.000000 0.000000 0.000000
# 4 0.000000 0.000000 0.000000 0.054612 0.000000 0.000000
# 5 0.000000 0.000000 0.000000 0.000000 0.045993 0.000000
# 6 0.000000 0.000000 0.000000 0.000000 0.000000 0.020994
#
#
# Mechanical properties :
#
#
# Convention : Reuss Voigt Hill
#
# Bulk Modulus (GPa) = 51.84075 54.68075 53.26075
# Shear Modulus (GPa) = 28.19947 32.73038 30.46492
#
# Velocity S-wave (km/s) = 3.66073 3.94388 3.80494
# Velocity P-wave (km/s) = 6.51949 6.83552 6.67938
#
# Compressibility (1/GPa) = 0.01928984
#
# Stress axis : x y z
#
# Youngs Moduli (GPa) = 81.08698 90.95071 91.26252
#
# Poissons Ratio (x) = 0.34448 -0.02105
# Poissons Ratio (y) = 0.30712 0.35963
# Poissons Ratio (z) = -0.01870 0.35840
#
# Static dielectric constant tensor:
#      x y z
#    x 4.029170 0.000000 0.000000 
#    y 0.000000 3.781520 0.000000 
#    z 0.000000 0.000000 3.401390 
# 
# 
# High freq. dielectric constant tensor:
#      x y z
#    x 1.833730 0.000000 0.000000 
#    y 0.000000 1.830500 0.000000 
#    z 0.000000 0.000000 1.831470 
# 
# From -- ./inp_files/12527.got.cif
#   From: 2010.03.12/outbox.cif.g09.slc.cpg/sg20_7_cif.got.tgz:12527.got - 2010.04.14 01:38:04.
