data_PCOD8159621
_publ_section_title
;
Structure prediction by ZEFSAII (Michael W. Deem and Ramdas Pophale) SiO2 
 PCOD8159621
Probable space group: C 2 2 21
;
_chemical_formula_sum "Si O2"
_cell_formula_units_Z 60
_cell_length_a 16.530495
_cell_length_b 8.326051
_cell_length_c 18.969434
_cell_angle_alpha 90.000000
_cell_angle_beta 90.000000
_cell_angle_gamma 90.000000
_cell_volume 2610.834231
_symmetry_space_group_name_H-M "C 2 2 21"
_symmetry_group_IT_number 20
_symmetry_cell_setting 'orthorhombic'
loop_
_space_group_symop_operation_xyz
x,y,z
-x,-y,1/2+z
x,-y,-z
-x,y,1/2-z
1/2+x,1/2+y,z
1/2-x,1/2-y,1/2+z
1/2+x,1/2-y,-z
1/2-x,1/2+y,1/2-z
loop_
_atom_site_type_symbol
_atom_site_label
_atom_site_fract_x
_atom_site_fract_y
_atom_site_fract_z
Si Si1 0.017209 0.095012 0.669899
Si Si2 0.845525 0.500000 0.500000
Si Si3 0.840684 0.689661 0.143876
Si Si4 0.564323 0.335652 0.036104
Si Si5 0.223569 0.535505 0.852872
Si Si6 0.868608 0.816967 0.852377
Si Si7 0.905533 0.322580 0.002944
Si Si8 0.592694 0.950688 0.257139
O O1 0.071827 0.252472 0.671496
O O2 0.000000 0.044566 0.750000
O O3 0.937568 0.131928 0.621358
O O4 0.069376 0.959441 0.630092
O O5 0.892561 0.332561 0.516582
O O6 0.786788 0.461177 0.436112
O O7 0.837718 0.679332 0.058877
O O8 0.843000 0.522227 0.185377
O O9 0.767324 0.799819 0.170975
O O10 0.472145 0.313648 0.010398
O O11 0.600321 0.500000 0.000000
O O12 0.279759 0.383981 0.832736
O O13 0.134632 0.526389 0.818594
O O14 0.907727 0.732110 0.783831
O O15 0.862892 0.705439 0.921910
O O16 0.946206 0.500000 0.000000
O O17 0.500000 0.013775 0.250000
#
# Coordination Sequence:
#
# PCOD8159621 Si02
#       8
#     8   4   8   8   8   8   8   8
#     4  10  22  39  68 105 142 182 236 296 367 440
#     4  12  28  46  72 102 148 198 248 310 368 432
#     4  10  23  42  68  98 135 186 230 295 359 431
#     4  11  24  42  68 109 152 187 241 315 371 429
#     4  11  27  48  66 100 152 184 245 300 374 438
#     4  11  23  45  73 103 143 195 234 305 373 442
#     4  11  20  39  73 104 138 184 256 294 367 446
#     4  12  26  42  73 107 140 189 247 300 364 448
#
# _framework density 22.981161
#
# number of rings (size 3 to 8) (size 9 to 14) (size 15 to 20)
#    0.000    1.067    3.333    2.400    7.467    1.067 
#    2.400    0.000    0.000    0.000    0.000    0.000 
#    0.000    0.000    0.000    0.000    0.000    0.000 
#
# Total GULP energy -371727.998904 kJ/mol
# GULP energy per Si atom -12390.933297 kJ/mol
# Density = 2.292885 g / cm^3
# Si number density = 22.981161 Si / 1000 Ang^3
#
#
#
# Elastic Constant Matrix: (Units=GPa)
#
#
# Indices 1 2 3 4 5 6 
#
# 1 77.4036 29.2291 36.5153 0.0000 0.0000 0.0000
# 2 29.2291 105.6845 25.0982 0.0000 0.0000 0.0000
# 3 36.5153 25.0982 128.7816 0.0000 0.0000 0.0000
# 4 0.0000 0.0000 0.0000 37.6207 0.0000 0.0000
# 5 0.0000 0.0000 0.0000 0.0000 32.9300 0.0000
# 6 0.0000 0.0000 0.0000 0.0000 0.0000 21.0163
#
#
#
# Elastic Compliance Matrix: (Units=1/GPa)
#
#
# Indices 1 2 3 4 5 6 
#
# 1 0.016078 -0.003527 -0.003871 0.000000 0.000000 0.000000
# 2 -0.003527 0.010695 -0.001084 0.000000 0.000000 0.000000
# 3 -0.003871 -0.001084 0.009074 0.000000 0.000000 0.000000
# 4 0.000000 0.000000 0.000000 0.026581 0.000000 0.000000
# 5 0.000000 0.000000 0.000000 0.000000 0.030367 0.000000
# 6 0.000000 0.000000 0.000000 0.000000 0.000000 0.047582
#
#
# Mechanical properties :
#
#
# Convention : Reuss Voigt Hill
#
# Bulk Modulus (GPa) = 52.96253 54.83944 53.90099
# Shear Modulus (GPa) = 30.55551 33.04854 31.80202
#
# Velocity S-wave (km/s) = 3.65031 3.79630 3.72402
# Velocity P-wave (km/s) = 6.39237 6.56738 6.48047
#
# Compressibility (1/GPa) = 0.01888127
#
# Stress axis : x y z
#
# Youngs Moduli (GPa) = 62.19864 93.50050 110.20411
#
# Poissons Ratio (x) = 0.32979 0.42663
# Poissons Ratio (y) = 0.21939 0.11949
# Poissons Ratio (z) = 0.24079 0.10138
#
# Static dielectric constant tensor:
#      x y z
#    x 3.640860 0.000000 0.000000 
#    y 0.000000 4.264440 0.000000 
#    z 0.000000 0.000000 4.057140 
# 
# 
# High freq. dielectric constant tensor:
#      x y z
#    x 1.872180 0.000000 0.000000 
#    y 0.000000 1.924500 0.000000 
#    z 0.000000 0.000000 1.913340 
# 
# From -- ./inp_files/25290.got.cif
#   From: 2010.03.12/outbox.cif.g09.slc.cpg/sg20_13_cif.got.tgz:25290.got - 2010.04.14 01:38:04.
