data_PCOD8159876
_publ_section_title
;
Structure prediction by ZEFSAII (Michael W. Deem and Ramdas Pophale) SiO2 
 PCOD8159876
Probable space group: C 2 2 21
;
_chemical_formula_sum "Si O2"
_cell_formula_units_Z 40
_cell_length_a 21.062056
_cell_length_b 7.759604
_cell_length_c 9.084902
_cell_angle_alpha 90.000000
_cell_angle_beta 90.000000
_cell_angle_gamma 90.000000
_cell_volume 1484.774733
_symmetry_space_group_name_H-M "C 2 2 21"
_symmetry_group_IT_number 20
_symmetry_cell_setting 'orthorhombic'
loop_
_space_group_symop_operation_xyz
x,y,z
-x,-y,1/2+z
x,-y,-z
-x,y,1/2-z
1/2+x,1/2+y,z
1/2-x,1/2-y,1/2+z
1/2+x,1/2-y,-z
1/2-x,1/2+y,1/2-z
loop_
_atom_site_type_symbol
_atom_site_label
_atom_site_fract_x
_atom_site_fract_y
_atom_site_fract_z
Si Si1 0.966759 0.179138 0.104500
Si Si2 0.617954 0.880276 0.789218
Si Si3 0.792561 0.802894 0.518983
Si Si4 0.169066 0.305827 0.344736
Si Si5 0.000000 0.147499 0.750000
Si Si6 0.028514 0.500000 0.000000
O O1 0.890751 0.185539 0.116929
O O2 0.989052 0.319309 0.976871
O O3 0.000000 0.257876 0.250000
O O4 0.990774 0.975664 0.103119
O O5 0.666951 0.811894 0.908487
O O6 0.568925 0.734730 0.742564
O O7 0.652062 0.987376 0.657969
O O8 0.573319 0.029096 0.859824
O O9 0.800776 0.743810 0.686826
O O10 0.719345 0.774606 0.474046
O O11 0.813975 0.000000 0.500000
#
# Coordination Sequence:
#
# PCOD8159876 Si02
#       6
#     8   8   8   8   4   4
#     4  10  22  45  73 113 153 190 261 322 400 475
#     4  12  22  44  73 109 155 204 254 324 408 476
#     4  12  27  45  78 104 154 208 263 328 397 472
#     4  12  25  51  74 115 153 209 266 327 402 486
#     4  10  24  42  74 114 154 202 260 322 402 486
#     4  12  22  40  82 108 148 202 254 336 412 460
#
# _framework density 26.940111000000002
#
# number of rings (size 3 to 8) (size 9 to 14) (size 15 to 20)
#    0.600    0.000    4.000    3.600    4.200    0.000 
#    3.600    2.000    4.400    0.000    0.000    0.000 
#    0.000    0.000    0.000    0.000    0.000    0.000 
#
# Total GULP energy -247795.482839 kJ/mol
# GULP energy per Si atom -12389.774142 kJ/mol
# Density = 2.687879 g / cm^3
# Si number density = 26.940111 Si / 1000 Ang^3
#
#
#
# Elastic Constant Matrix: (Units=GPa)
#
#
# Indices 1 2 3 4 5 6 
#
# 1 178.7588 57.2391 46.2173 0.0000 0.0000 0.0000
# 2 57.2391 173.7779 -0.2219 0.0000 0.0000 0.0000
# 3 46.2173 -0.2219 56.1880 0.0000 0.0000 0.0000
# 4 0.0000 0.0000 0.0000 -1.5815 0.0000 0.0000
# 5 0.0000 0.0000 0.0000 0.0000 38.4573 0.0000
# 6 0.0000 0.0000 0.0000 0.0000 0.0000 40.1076
#
#
#
# Elastic Compliance Matrix: (Units=1/GPa)
#
#
# Indices 1 2 3 4 5 6 
#
# 1 0.008212 -0.002714 -0.006766 0.000000 0.000000 0.000000
# 2 -0.002714 0.006651 0.002258 0.000000 0.000000 0.000000
# 3 -0.006766 0.002258 0.023371 0.000000 0.000000 0.000000
# 4 0.000000 0.000000 0.000000 -0.632319 0.000000 0.000000
# 5 0.000000 0.000000 0.000000 0.000000 0.026003 0.000000
# 6 0.000000 0.000000 0.000000 0.000000 0.000000 0.024933
#
#
# Mechanical properties :
#
#
# Convention : Reuss Voigt Hill
#
# Bulk Modulus (GPa) = 42.02930 68.35485 55.19207
# Shear Modulus (GPa) = -9.60106 35.76271 13.08082
#
# Velocity S-wave (km/s) = -1.88987 3.64743 2.20591
# Velocity P-wave (km/s) = 3.29739 6.57010 5.19803
#
# Compressibility (1/GPa) = 0.02379293
#
# Stress axis : x y z
#
# Youngs Moduli (GPa) = 121.76892 150.34955 42.78730
#
# Poissons Ratio (x) = 0.40799 0.28949
# Poissons Ratio (y) = 0.33043 -0.09663
# Poissons Ratio (z) = 0.82385 -0.33954
#
# Static dielectric constant tensor:
#      x y z
#    x 4.903980 0.000000 0.000000 
#    y 0.000000 4.984910 0.000000 
#    z 0.000000 0.000000 5.412360 
# 
# 
# High freq. dielectric constant tensor:
#      x y z
#    x 2.086840 0.000000 0.000000 
#    y 0.000000 2.100360 0.000000 
#    z 0.000000 0.000000 2.123660 
# 
# From -- ./inp_files/15583.got.cif
#   From: 2010.03.12/outbox.cif.g09.slc.cpg/sg20_8_cif.got.tgz:15583.got - 2010.04.14 01:38:04.
