data_PCOD8159866
_publ_section_title
;
Structure prediction by ZEFSAII (Michael W. Deem and Ramdas Pophale) SiO2 
 PCOD8159866
Probable space group: C 2 2 21
;
_chemical_formula_sum "Si O2"
_cell_formula_units_Z 48
_cell_length_a 17.289149
_cell_length_b 17.424370
_cell_length_c 7.774895
_cell_angle_alpha 90.000000
_cell_angle_beta 90.000000
_cell_angle_gamma 90.000000
_cell_volume 2342.206783
_symmetry_space_group_name_H-M "C 2 2 21"
_symmetry_group_IT_number 20
_symmetry_cell_setting 'orthorhombic'
loop_
_space_group_symop_operation_xyz
x,y,z
-x,-y,1/2+z
x,-y,-z
-x,y,1/2-z
1/2+x,1/2+y,z
1/2-x,1/2-y,1/2+z
1/2+x,1/2-y,-z
1/2-x,1/2+y,1/2-z
loop_
_atom_site_type_symbol
_atom_site_label
_atom_site_fract_x
_atom_site_fract_y
_atom_site_fract_z
Si Si1 0.418537 0.810773 0.487091
Si Si2 0.109645 0.500000 0.500000
Si Si3 0.310377 0.895204 0.235547
Si Si4 0.227742 0.000000 0.500000
Si Si5 0.500000 0.704998 0.250000
Si Si6 0.669710 0.345915 0.669077
Si Si7 0.727456 0.278854 0.026290
Si Si8 0.000000 0.578674 0.250000
O O1 0.381128 0.850198 0.320280
O O2 0.486144 0.755693 0.420042
O O3 0.351466 0.763373 0.582158
O O4 0.454659 0.871362 0.613662
O O5 0.161665 0.571573 0.553966
O O6 0.060048 0.522128 0.336057
O O7 0.281882 0.962189 0.358265
O O8 0.242388 0.837136 0.183301
O O9 0.180290 0.933192 0.599540
O O10 0.422431 0.657259 0.205670
O O11 0.702898 0.285604 0.525575
O O12 0.716949 0.324072 0.844523
#
# Coordination Sequence:
#
# PCOD8159866 Si02
#       8
#     8   4   8   4   4   8   8   4
#     4  11  23  40  67  93 128 169 219 277 320 399
#     4  12  26  39  58  91 136 174 204 264 342 415
#     4  12  23  41  66  93 130 169 221 277 328 389
#     4  12  24  43  64 101 134 170 226 278 336 391
#     4  10  22  45  64  99 130 172 222 274 332 385
#     4  11  23  42  71  99 136 177 222 282 335 399
#     4  11  22  42  70  96 125 174 229 268 324 393
#     4  12  26  39  58  91 136 172 208 258 350 409
#
# _framework density 20.493494999999999
#
# number of rings (size 3 to 8) (size 9 to 14) (size 15 to 20)
#    0.000    0.667    5.000    4.000    2.333    1.333 
#    0.000    3.333    0.000    0.000    0.000    0.000 
#    0.000    0.000    0.000    0.000    0.000    0.000 
#
# Total GULP energy -297479.889645 kJ/mol
# GULP energy per Si atom -12394.995402 kJ/mol
# Density = 2.044685 g / cm^3
# Si number density = 20.493495 Si / 1000 Ang^3
#
#
#
# Elastic Constant Matrix: (Units=GPa)
#
#
# Indices 1 2 3 4 5 6 
#
# 1 98.1672 35.4122 25.9850 0.0000 0.0000 0.0000
# 2 35.4122 110.0269 31.8377 0.0000 0.0000 0.0000
# 3 25.9850 31.8377 67.0952 0.0000 0.0000 0.0000
# 4 0.0000 0.0000 0.0000 58.8304 0.0000 0.0000
# 5 0.0000 0.0000 0.0000 0.0000 44.5817 0.0000
# 6 0.0000 0.0000 0.0000 0.0000 0.0000 -3.4765
#
#
#
# Elastic Compliance Matrix: (Units=1/GPa)
#
#
# Indices 1 2 3 4 5 6 
#
# 1 0.012123 -0.002948 -0.003296 0.000000 0.000000 0.000000
# 2 -0.002948 0.011252 -0.004198 0.000000 0.000000 0.000000
# 3 -0.003296 -0.004198 0.018173 0.000000 0.000000 0.000000
# 4 0.000000 0.000000 0.000000 0.016998 0.000000 0.000000
# 5 0.000000 0.000000 0.000000 0.000000 0.022431 0.000000
# 6 0.000000 0.000000 0.000000 0.000000 0.000000 -0.287647
#
#
# Mechanical properties :
#
#
# Convention : Reuss Voigt Hill
#
# Bulk Modulus (GPa) = 48.39323 51.30658 49.84990
# Shear Modulus (GPa) = -27.94856 32.12409 2.08776
#
# Velocity S-wave (km/s) = -3.69694 3.96349 1.01042
# Velocity P-wave (km/s) = 2.33282 6.78495 5.07334
#
# Compressibility (1/GPa) = 0.02066405
#
# Stress axis : x y z
#
# Youngs Moduli (GPa) = 82.49066 88.87226 55.02803
#
# Poissons Ratio (x) = 0.26199 0.18138
# Poissons Ratio (y) = 0.24317 0.23099
# Poissons Ratio (z) = 0.27190 0.37305
#
# Static dielectric constant tensor:
#      x y z
#    x 3.659010 0.000000 0.000000 
#    y 0.000000 3.902760 0.000000 
#    z 0.000000 0.000000 3.830630 
# 
# 
# High freq. dielectric constant tensor:
#      x y z
#    x 1.797420 0.000000 0.000000 
#    y 0.000000 1.808250 0.000000 
#    z 0.000000 0.000000 1.810260 
# 
# From -- ./inp_files/8503.got.cif
#   From: 2010.03.12/outbox.cif.g09.slc.cpg/sg20_5_cif.got.tgz:8503.got - 2010.04.14 01:38:04.
