data_PCOD8159755
_publ_section_title
;
Structure prediction by ZEFSAII (Michael W. Deem and Ramdas Pophale) SiO2 
 PCOD8159755
Probable space group: C 2 2 21
;
_chemical_formula_sum "Si O2"
_cell_formula_units_Z 64
_cell_length_a 10.881336
_cell_length_b 8.910133
_cell_length_c 31.757635
_cell_angle_alpha 90.000000
_cell_angle_beta 90.000000
_cell_angle_gamma 90.000000
_cell_volume 3079.034538
_symmetry_space_group_name_H-M "C 2 2 21"
_symmetry_group_IT_number 20
_symmetry_cell_setting 'orthorhombic'
loop_
_space_group_symop_operation_xyz
x,y,z
-x,-y,1/2+z
x,-y,-z
-x,y,1/2-z
1/2+x,1/2+y,z
1/2-x,1/2-y,1/2+z
1/2+x,1/2-y,-z
1/2-x,1/2+y,1/2-z
loop_
_atom_site_type_symbol
_atom_site_label
_atom_site_fract_x
_atom_site_fract_y
_atom_site_fract_z
Si Si1 0.135715 0.437277 0.237403
Si Si2 0.123862 0.784078 0.226744
Si Si3 0.035832 0.787385 0.966320
Si Si4 0.642848 0.077803 0.858185
Si Si5 0.491880 0.375478 0.440131
Si Si6 0.230554 0.731803 0.421568
Si Si7 0.604724 0.079338 0.596553
Si Si8 0.820742 0.250327 0.632266
O O1 0.141494 0.615582 0.242976
O O2 0.250647 0.372790 0.263448
O O3 0.152105 0.382237 0.190174
O O4 0.000000 0.376788 0.250000
O O5 0.107840 0.789533 0.175857
O O6 0.000000 0.849935 0.250000
O O7 0.177748 0.738917 0.960702
O O8 0.939229 0.676772 0.943710
O O9 0.033078 0.949992 0.944674
O O10 0.010696 0.787129 0.015638
O O11 0.691719 0.229758 0.879737
O O12 0.506651 0.033505 0.873528
O O13 0.716570 0.925656 0.868797
O O14 0.628420 0.359327 0.423063
O O15 0.399494 0.297465 0.408122
O O16 0.173623 0.566329 0.421507
O O17 0.691931 0.166998 0.628518
#
# Coordination Sequence:
#
# PCOD8159755 Si02
#       8
#     8   8   8   8   8   8   8   8
#     4  10  22  42  65  92 131 167 210 272 319 385
#     4  10  24  42  64  95 129 167 216 265 328 388
#     4  10  25  42  60  95 126 166 211 262 318 383
#     4  10  23  40  63  94 125 167 217 252 325 380
#     4  11  23  41  64  90 128 166 208 261 321 374
#     4  11  23  41  64  91 124 167 208 258 317 376
#     4  11  22  42  65  92 125 165 213 264 314 384
#     4  11  22  41  65  91 128 169 208 265 319 383
#
# _framework density 20.785734999999999
#
# number of rings (size 3 to 8) (size 9 to 14) (size 15 to 20)
#    0.000    1.500    2.500    1.500    3.500    3.000 
#    0.000    0.000    0.000    0.000    0.000    0.000 
#    0.000    0.000    0.000    0.000    0.000    0.000 
#
# Total GULP energy -396700.695251 kJ/mol
# GULP energy per Si atom -12396.896727 kJ/mol
# Density = 2.073843 g / cm^3
# Si number density = 20.785735 Si / 1000 Ang^3
#
#
#
# Elastic Constant Matrix: (Units=GPa)
#
#
# Indices 1 2 3 4 5 6 
#
# 1 100.0219 25.0975 26.5580 0.0000 0.0000 0.0000
# 2 25.0975 53.5681 46.9603 0.0000 0.0000 0.0000
# 3 26.5580 46.9603 96.6141 0.0000 0.0000 0.0000
# 4 0.0000 0.0000 0.0000 24.4899 0.0000 0.0000
# 5 0.0000 0.0000 0.0000 0.0000 16.9516 0.0000
# 6 0.0000 0.0000 0.0000 0.0000 0.0000 35.1668
#
#
#
# Elastic Compliance Matrix: (Units=1/GPa)
#
#
# Indices 1 2 3 4 5 6 
#
# 1 0.011378 -0.004511 -0.000935 0.000000 0.000000 0.000000
# 2 -0.004511 0.034317 -0.015440 0.000000 0.000000 0.000000
# 3 -0.000935 -0.015440 0.018112 0.000000 0.000000 0.000000
# 4 0.000000 0.000000 0.000000 0.040833 0.000000 0.000000
# 5 0.000000 0.000000 0.000000 0.000000 0.058992 0.000000
# 6 0.000000 0.000000 0.000000 0.000000 0.000000 0.028436
#
#
# Mechanical properties :
#
#
# Convention : Reuss Voigt Hill
#
# Bulk Modulus (GPa) = 45.38270 49.71509 47.54889
# Shear Modulus (GPa) = 20.73099 25.42754 23.07927
#
# Velocity S-wave (km/s) = 3.16154 3.50139 3.33579
# Velocity P-wave (km/s) = 5.93364 6.34950 6.14509
#
# Compressibility (1/GPa) = 0.02203483
#
# Stress axis : x y z
#
# Youngs Moduli (GPa) = 87.88890 29.14028 55.21127
#
# Poissons Ratio (x) = 0.13145 0.05162
# Poissons Ratio (y) = 0.39648 0.85246
# Poissons Ratio (z) = 0.08218 0.44993
#
# Static dielectric constant tensor:
#      x y z
#    x 3.972790 0.000000 0.000000 
#    y 0.000000 3.682820 0.000000 
#    z 0.000000 0.000000 3.725300 
# 
# 
# High freq. dielectric constant tensor:
#      x y z
#    x 1.826760 0.000000 0.000000 
#    y 0.000000 1.811170 0.000000 
#    z 0.000000 0.000000 1.816690 
# 
# From -- ./inp_files/31221.got.cif
#   From: 2010.03.12/outbox.cif.g09.slc.cpg/sg20_16_cif.got.tgz:31221.got - 2010.04.14 01:38:04.
