data_PCOD8159791
_publ_section_title
;
Structure prediction by ZEFSAII (Michael W. Deem and Ramdas Pophale) SiO2 
 PCOD8159791
Probable space group: C 2 2 21
;
_chemical_formula_sum "Si O2"
_cell_formula_units_Z 60
_cell_length_a 11.878076
_cell_length_b 19.440786
_cell_length_c 12.242118
_cell_angle_alpha 90.000000
_cell_angle_beta 90.000000
_cell_angle_gamma 90.000000
_cell_volume 2826.939282
_symmetry_space_group_name_H-M "C 2 2 21"
_symmetry_group_IT_number 20
_symmetry_cell_setting 'orthorhombic'
loop_
_space_group_symop_operation_xyz
x,y,z
-x,-y,1/2+z
x,-y,-z
-x,y,1/2-z
1/2+x,1/2+y,z
1/2-x,1/2-y,1/2+z
1/2+x,1/2-y,-z
1/2-x,1/2+y,1/2-z
loop_
_atom_site_type_symbol
_atom_site_label
_atom_site_fract_x
_atom_site_fract_y
_atom_site_fract_z
Si Si1 0.091997 0.806664 0.027470
Si Si2 0.266660 0.080218 0.317612
Si Si3 0.275767 0.019804 0.883733
Si Si4 0.915689 0.199810 0.154289
Si Si5 0.355129 0.500000 0.000000
Si Si6 0.471031 0.167935 0.373451
Si Si7 0.464841 0.433281 0.367200
Si Si8 0.335422 0.838603 0.046216
O O1 0.092068 0.727996 0.061780
O O2 0.066935 0.852697 0.134891
O O3 0.215894 0.827584 0.983758
O O4 0.996013 0.827981 0.941371
O O5 0.176336 0.142983 0.305853
O O6 0.384443 0.105456 0.366633
O O7 0.300297 0.037868 0.207950
O O8 0.221742 0.025687 0.402771
O O9 0.141630 0.020925 0.899000
O O10 0.327984 0.097134 0.867002
O O11 0.329801 0.000000 0.000000
O O12 0.857268 0.270524 0.117155
O O13 0.000000 0.219736 0.250000
O O14 0.433969 0.440448 0.047192
O O15 0.500000 0.191339 0.250000
O O16 0.578739 0.147382 0.446405
O O17 0.500000 0.460642 0.250000
#
# Coordination Sequence:
#
# PCOD8159791 Si02
#       8
#     8   8   8   8   4   8   8   8
#     4  10  22  42  70  99 135 175 230 293 350 416
#     4  12  26  46  69 106 140 187 235 292 356 427
#     4  11  24  41  71 102 138 187 235 289 350 423
#     4  11  25  42  72 103 134 175 229 299 354 417
#     4  12  24  42  62 102 142 178 232 286 356 412
#     4  11  24  46  71 100 137 185 237 284 347 430
#     4  11  21  37  62 100 139 173 222 287 357 405
#     4  10  24  48  66 103 140 184 235 284 359 422
#
# _framework density 21.224367000000001
#
# number of rings (size 3 to 8) (size 9 to 14) (size 15 to 20)
#    0.000    1.067    4.667    1.200    7.467    0.000 
#    8.400    0.000    0.000    0.000    0.000    0.000 
#    0.000    0.000    0.000    0.000    0.000    0.000 
#
# Total GULP energy -371703.638841 kJ/mol
# GULP energy per Si atom -12390.121295 kJ/mol
# Density = 2.117606 g / cm^3
# Si number density = 21.224367 Si / 1000 Ang^3
#
#
#
# Elastic Constant Matrix: (Units=GPa)
#
#
# Indices 1 2 3 4 5 6 
#
# 1 123.0611 58.4538 40.3669 0.0000 0.0000 0.0000
# 2 58.4538 128.6324 53.0904 0.0000 0.0000 0.0000
# 3 40.3669 53.0904 105.5676 0.0000 0.0000 0.0000
# 4 0.0000 0.0000 0.0000 34.9521 0.0000 0.0000
# 5 0.0000 0.0000 0.0000 0.0000 31.4580 0.0000
# 6 0.0000 0.0000 0.0000 0.0000 0.0000 72.9354
#
#
#
# Elastic Compliance Matrix: (Units=1/GPa)
#
#
# Indices 1 2 3 4 5 6 
#
# 1 0.010713 -0.004010 -0.002080 0.000000 0.000000 0.000000
# 2 -0.004010 0.011311 -0.004155 0.000000 0.000000 0.000000
# 3 -0.002080 -0.004155 0.012358 0.000000 0.000000 0.000000
# 4 0.000000 0.000000 0.000000 0.028611 0.000000 0.000000
# 5 0.000000 0.000000 0.000000 0.000000 0.031788 0.000000
# 6 0.000000 0.000000 0.000000 0.000000 0.000000 0.013711
#
#
# Mechanical properties :
#
#
# Convention : Reuss Voigt Hill
#
# Bulk Modulus (GPa) = 71.98387 73.45369 72.71878
# Shear Modulus (GPa) = 37.42182 41.55909 39.49045
#
# Velocity S-wave (km/s) = 4.20355 4.42982 4.31817
# Velocity P-wave (km/s) = 7.58611 7.80050 7.69405
#
# Compressibility (1/GPa) = 0.01389200
#
# Stress axis : x y z
#
# Youngs Moduli (GPa) = 93.34510 88.40774 80.92205
#
# Poissons Ratio (x) = 0.35450 0.16831
# Poissons Ratio (y) = 0.37430 0.33625
# Poissons Ratio (z) = 0.19414 0.36735
#
# Static dielectric constant tensor:
#      x y z
#    x 3.922810 0.000000 0.000000 
#    y 0.000000 3.855000 0.000000 
#    z 0.000000 0.000000 3.780960 
# 
# 
# High freq. dielectric constant tensor:
#      x y z
#    x 1.837120 0.000000 0.000000 
#    y 0.000000 1.841420 0.000000 
#    z 0.000000 0.000000 1.822800 
# 
# From -- ./inp_files/14395.got.cif
#   From: 2010.03.12/outbox.cif.g09.slc.cpg/sg20_8_cif.got.tgz:14395.got - 2010.04.14 01:38:04.
