data_PCOD8159991
_publ_section_title
;
Structure prediction by ZEFSAII (Michael W. Deem and Ramdas Pophale) SiO2 
 PCOD8159991
Probable space group: C 2 2 21
;
_chemical_formula_sum "Si O2"
_cell_formula_units_Z 64
_cell_length_a 30.310658
_cell_length_b 8.666712
_cell_length_c 11.951430
_cell_angle_alpha 90.000000
_cell_angle_beta 90.000000
_cell_angle_gamma 90.000000
_cell_volume 3139.565886
_symmetry_space_group_name_H-M "C 2 2 21"
_symmetry_group_IT_number 20
_symmetry_cell_setting 'orthorhombic'
loop_
_space_group_symop_operation_xyz
x,y,z
-x,-y,1/2+z
x,-y,-z
-x,y,1/2-z
1/2+x,1/2+y,z
1/2-x,1/2-y,1/2+z
1/2+x,1/2-y,-z
1/2-x,1/2+y,1/2-z
loop_
_atom_site_type_symbol
_atom_site_label
_atom_site_fract_x
_atom_site_fract_y
_atom_site_fract_z
Si Si1 0.377785 0.174256 0.364384
Si Si2 0.050938 0.172327 0.279367
Si Si3 0.049212 0.819830 0.289543
Si Si4 0.878042 0.687706 0.623349
Si Si5 0.299455 0.811216 0.217561
Si Si6 0.172530 0.820567 0.487862
Si Si7 0.708043 0.172426 0.274324
Si Si8 0.917447 0.321849 0.997607
O O1 0.418324 0.258477 0.305941
O O2 0.374702 0.228025 0.492724
O O3 0.332292 0.224265 0.304692
O O4 0.386178 0.992420 0.354910
O O5 0.081045 0.217023 0.173405
O O6 0.063474 0.281446 0.382075
O O7 0.000000 0.199456 0.250000
O O8 0.061194 0.997448 0.315315
O O9 0.047588 0.713759 0.400550
O O10 0.000000 0.809040 0.250000
O O11 0.831700 0.736513 0.680543
O O12 0.323426 0.766921 0.104161
O O13 0.253837 0.720823 0.220000
O O14 0.290351 0.990859 0.213902
O O15 0.205304 0.753140 0.395046
O O16 0.122488 0.785549 0.453539
O O17 0.182604 0.000000 0.500000
O O18 0.903055 0.500000 0.000000
#
# Coordination Sequence:
#
# PCOD8159991 Si02
#       8
#     8   8   8   8   8   8   8   8
#     4  10  23  43  65  92 129 171 214 262 318 380
#     4  11  25  43  65  95 130 169 213 264 322 382
#     4  11  25  43  65  95 130 169 213 264 322 382
#     4  10  23  43  65  92 129 171 214 262 318 380
#     4  11  24  42  66  97 131 170 216 266 322 385
#     4  12  24  42  68  95 128 169 216 272 327 380
#     4  11  24  42  66  97 131 170 216 266 322 385
#     4  12  24  42  68  95 126 167 216 270 325 384
#
# _framework density 20.384985
#
# number of rings (size 3 to 8) (size 9 to 14) (size 15 to 20)
#    0.000    1.000    2.500    3.750    3.500    3.500 
#    0.000    0.000    0.000    0.000    0.000    0.000 
#    0.000    0.000    0.000    0.000    0.000    0.000 
#
# Total GULP energy -396952.308330 kJ/mol
# GULP energy per Si atom -12404.759635 kJ/mol
# Density = 2.033859 g / cm^3
# Si number density = 20.384985 Si / 1000 Ang^3
#
#
#
# Elastic Constant Matrix: (Units=GPa)
#
#
# Indices 1 2 3 4 5 6 
#
# 1 103.0174 53.9343 33.3539 0.0000 0.0000 0.0000
# 2 53.9343 82.4965 40.0155 0.0000 0.0000 0.0000
# 3 33.3539 40.0155 126.2568 0.0000 0.0000 0.0000
# 4 0.0000 0.0000 0.0000 32.4812 0.0000 0.0000
# 5 0.0000 0.0000 0.0000 0.0000 15.9595 0.0000
# 6 0.0000 0.0000 0.0000 0.0000 0.0000 32.6947
#
#
#
# Elastic Compliance Matrix: (Units=1/GPa)
#
#
# Indices 1 2 3 4 5 6 
#
# 1 0.014865 -0.009233 -0.001001 0.000000 0.000000 0.000000
# 2 -0.009233 0.020059 -0.003918 0.000000 0.000000 0.000000
# 3 -0.001001 -0.003918 0.009427 0.000000 0.000000 0.000000
# 4 0.000000 0.000000 0.000000 0.030787 0.000000 0.000000
# 5 0.000000 0.000000 0.000000 0.000000 0.062659 0.000000
# 6 0.000000 0.000000 0.000000 0.000000 0.000000 0.030586
#
#
# Mechanical properties :
#
#
# Convention : Reuss Voigt Hill
#
# Bulk Modulus (GPa) = 62.31932 62.93091 62.62511
# Shear Modulus (GPa) = 24.74829 28.52489 26.63659
#
# Velocity S-wave (km/s) = 3.48810 3.74479 3.61872
# Velocity P-wave (km/s) = 6.84543 7.04529 6.94608
#
# Compressibility (1/GPa) = 0.01604639
#
# Stress axis : x y z
#
# Youngs Moduli (GPa) = 67.27230 49.85407 106.08349
#
# Poissons Ratio (x) = 0.46030 0.10616
# Poissons Ratio (y) = 0.62112 0.41565
# Poissons Ratio (z) = 0.06732 0.19534
#
# Static dielectric constant tensor:
#      x y z
#    x 3.768360 0.000000 0.000000 
#    y 0.000000 3.984630 0.000000 
#    z 0.000000 0.000000 3.809870 
# 
# 
# High freq. dielectric constant tensor:
#      x y z
#    x 1.804230 0.000000 0.000000 
#    y 0.000000 1.803360 0.000000 
#    z 0.000000 0.000000 1.810200 
# 
# From -- ./inp_files/13373.got.cif
#   From: 2010.03.12/outbox.cif.g09.slc.cpg/sg20_7_cif.got.tgz:13373.got - 2010.04.14 01:38:04.
