data_PCOD8159180
_publ_section_title
;
Structure prediction by ZEFSAII (Michael W. Deem and Ramdas Pophale) SiO2 
 PCOD8159180
Probable space group: C 2 2 21
;
_chemical_formula_sum "Si O2"
_cell_formula_units_Z 28
_cell_length_a 7.648994
_cell_length_b 11.392386
_cell_length_c 11.723924
_cell_angle_alpha 90.000000
_cell_angle_beta 90.000000
_cell_angle_gamma 90.000000
_cell_volume 1021.626163
_symmetry_space_group_name_H-M "C 2 2 21"
_symmetry_group_IT_number 20
_symmetry_cell_setting 'orthorhombic'
loop_
_space_group_symop_operation_xyz
x,y,z
-x,-y,1/2+z
x,-y,-z
-x,y,1/2-z
1/2+x,1/2+y,z
1/2-x,1/2-y,1/2+z
1/2+x,1/2-y,-z
1/2-x,1/2+y,1/2-z
loop_
_atom_site_type_symbol
_atom_site_label
_atom_site_fract_x
_atom_site_fract_y
_atom_site_fract_z
Si Si1 0.805287 0.957624 0.335042
Si Si2 0.500000 0.333630 0.750000
Si Si3 0.987227 0.343119 0.044005
Si Si4 0.858510 0.845486 0.105660
O O1 0.629509 0.953423 0.411318
O O2 0.798563 0.854007 0.238454
O O3 0.973905 0.929555 0.415768
O O4 0.830532 0.082720 0.273780
O O5 0.531550 0.260200 0.636670
O O6 0.188429 0.383772 0.030604
O O7 0.910583 0.288761 0.927003
#
# Coordination Sequence:
#
# PCOD8159180 Si02
#       4
#     8   4   8   8
#     4  10  23  42  60  98 128 161 226 257 308 397
#     4  10  24  40  72  88 128 176 202 270 320 374
#     4  12  20  42  68  91 131 170 209 267 325 364
#     4  10  21  37  67  91 127 171 206 269 316 378
#
# _framework density 27.407285999999999
#
# number of rings (size 3 to 8) (size 9 to 14) (size 15 to 20)
#    0.000    1.714    5.714    0.000    0.000    4.571 
#    0.000   11.429   12.571    0.000    0.000    0.000 
#    0.000    0.000    0.000    0.000    0.000    0.000 
#
# Total GULP energy -173483.138463 kJ/mol
# GULP energy per Si atom -12391.652747 kJ/mol
# Density = 2.734491 g / cm^3
# Si number density = 27.407286 Si / 1000 Ang^3
#
#
#
# Elastic Constant Matrix: (Units=GPa)
#
#
# Indices 1 2 3 4 5 6 
#
# 1 185.1483 -15.0554 -8.9085 0.0000 0.0000 0.0000
# 2 -15.0554 85.8618 29.4945 0.0000 0.0000 0.0000
# 3 -8.9085 29.4945 83.4070 0.0000 0.0000 0.0000
# 4 0.0000 0.0000 0.0000 58.3559 0.0000 0.0000
# 5 0.0000 0.0000 0.0000 0.0000 37.0948 0.0000
# 6 0.0000 0.0000 0.0000 0.0000 0.0000 11.8635
#
#
#
# Elastic Compliance Matrix: (Units=1/GPa)
#
#
# Indices 1 2 3 4 5 6 
#
# 1 0.005485 0.000866 0.000280 0.000000 0.000000 0.000000
# 2 0.000866 0.013394 -0.004644 0.000000 0.000000 0.000000
# 3 0.000280 -0.004644 0.013661 0.000000 0.000000 0.000000
# 4 0.000000 0.000000 0.000000 0.017136 0.000000 0.000000
# 5 0.000000 0.000000 0.000000 0.000000 0.026958 0.000000
# 6 0.000000 0.000000 0.000000 0.000000 0.000000 0.084292
#
#
# Mechanical properties :
#
#
# Convention : Reuss Voigt Hill
#
# Bulk Modulus (GPa) = 39.14949 40.60869 39.87909
# Shear Modulus (GPa) = 28.33869 44.72195 36.53032
#
# Velocity S-wave (km/s) = 3.21905 4.04388 3.65481
# Velocity P-wave (km/s) = 5.30393 6.05416 5.69142
#
# Compressibility (1/GPa) = 0.02554312
#
# Stress axis : x y z
#
# Youngs Moduli (GPa) = 182.31780 74.66245 73.19881
#
# Poissons Ratio (x) = -0.06463 -0.02047
# Poissons Ratio (y) = -0.15783 0.33992
# Poissons Ratio (z) = -0.05100 0.34672
#
# Static dielectric constant tensor:
#      x y z
#    x 5.277330 0.000000 0.000000 
#    y 0.000000 4.712350 0.000000 
#    z 0.000000 0.000000 4.843090 
# 
# 
# High freq. dielectric constant tensor:
#      x y z
#    x 2.109330 0.000000 0.000000 
#    y 0.000000 2.087570 0.000000 
#    z 0.000000 0.000000 2.099490 
# 
# From -- ./inp_files/18109.got.cif
#   From: 2010.03.12/outbox.cif.g09.slc.cpg/sg20_10_cif.got.tgz:18109.got - 2010.04.14 01:38:04.
