data_PCOD8159740
_publ_section_title
;
Structure prediction by ZEFSAII (Michael W. Deem and Ramdas Pophale) SiO2 
 PCOD8159740
Probable space group: C 2 2 21
;
_chemical_formula_sum "Si O2"
_cell_formula_units_Z 48
_cell_length_a 10.660088
_cell_length_b 13.569004
_cell_length_c 15.707314
_cell_angle_alpha 90.000000
_cell_angle_beta 90.000000
_cell_angle_gamma 90.000000
_cell_volume 2272.012341
_symmetry_space_group_name_H-M "C 2 2 21"
_symmetry_group_IT_number 20
_symmetry_cell_setting 'orthorhombic'
loop_
_space_group_symop_operation_xyz
x,y,z
-x,-y,1/2+z
x,-y,-z
-x,y,1/2-z
1/2+x,1/2+y,z
1/2-x,1/2-y,1/2+z
1/2+x,1/2-y,-z
1/2-x,1/2+y,1/2-z
loop_
_atom_site_type_symbol
_atom_site_label
_atom_site_fract_x
_atom_site_fract_y
_atom_site_fract_z
Si Si1 0.168186 0.104989 0.632192
Si Si2 0.601160 0.647063 0.934201
Si Si3 0.500000 0.014463 0.250000
Si Si4 0.253354 0.677265 0.395469
Si Si5 0.235925 0.979917 0.196906
Si Si6 0.677414 0.000000 0.000000
Si Si7 0.971755 0.354455 0.592449
O O1 0.243893 0.209442 0.637451
O O2 0.147186 0.061776 0.727499
O O3 0.244958 0.020465 0.584692
O O4 0.039866 0.107479 0.578206
O O5 0.700484 0.574854 0.890352
O O6 0.600098 0.752777 0.888558
O O7 0.639242 0.660431 0.033303
O O8 0.552045 0.082574 0.175767
O O9 0.380860 0.950667 0.218423
O O10 0.278585 0.598537 0.318623
O O11 0.116564 0.655414 0.434288
O O12 0.592532 0.904011 0.988403
#
# Coordination Sequence:
#
# PCOD8159740 Si02
#       7
#     8   8   4   8   8   4   8
#     4  11  25  43  67  98 136 176 223 277 337 405
#     4  11  24  43  67  99 132 179 215 274 340 401
#     4  10  22  42  62  98 126 170 230 280 312 394
#     4  10  24  44  66  99 132 175 225 275 330 400
#     4  11  24  40  70  92 132 172 225 270 331 399
#     4  12  22  42  66  98 132 170 228 274 332 384
#     4  10  23  40  70  91 130 174 223 268 327 392
#
# _framework density 21.126645
#
# number of rings (size 3 to 8) (size 9 to 14) (size 15 to 20)
#    0.000    1.333    3.333    1.000   14.000    0.000 
#    0.000    0.000    3.667    0.000    0.000    0.000 
#    0.000    0.000    0.000    0.000    0.000    0.000 
#
# Total GULP energy -297443.655916 kJ/mol
# GULP energy per Si atom -12393.485663 kJ/mol
# Density = 2.107856 g / cm^3
# Si number density = 21.126645 Si / 1000 Ang^3
#
#
#
# Elastic Constant Matrix: (Units=GPa)
#
#
# Indices 1 2 3 4 5 6 
#
# 1 84.1416 48.2183 32.0732 0.0000 0.0000 0.0000
# 2 48.2183 108.4247 31.4497 0.0000 0.0000 0.0000
# 3 32.0732 31.4497 88.6386 0.0000 0.0000 0.0000
# 4 0.0000 0.0000 0.0000 27.2425 0.0000 0.0000
# 5 0.0000 0.0000 0.0000 0.0000 34.2014 0.0000
# 6 0.0000 0.0000 0.0000 0.0000 0.0000 28.6813
#
#
#
# Elastic Compliance Matrix: (Units=1/GPa)
#
#
# Indices 1 2 3 4 5 6 
#
# 1 0.017070 -0.006465 -0.003883 0.000000 0.000000 0.000000
# 2 -0.006465 0.012730 -0.002177 0.000000 0.000000 0.000000
# 3 -0.003883 -0.002177 0.013459 0.000000 0.000000 0.000000
# 4 0.000000 0.000000 0.000000 0.036707 0.000000 0.000000
# 5 0.000000 0.000000 0.000000 0.000000 0.029239 0.000000
# 6 0.000000 0.000000 0.000000 0.000000 0.000000 0.034866
#
#
# Mechanical properties :
#
#
# Convention : Reuss Voigt Hill
#
# Bulk Modulus (GPa) = 54.91916 56.07637 55.49777
# Shear Modulus (GPa) = 28.54055 29.32262 28.93158
#
# Velocity S-wave (km/s) = 3.67948 3.72956 3.70460
# Velocity P-wave (km/s) = 6.64102 6.71913 6.68019
#
# Compressibility (1/GPa) = 0.01820858
#
# Stress axis : x y z
#
# Youngs Moduli (GPa) = 58.58397 78.55718 74.29856
#
# Poissons Ratio (x) = 0.50786 0.28848
# Poissons Ratio (y) = 0.37874 0.16177
# Poissons Ratio (z) = 0.22746 0.17104
#
# Static dielectric constant tensor:
#      x y z
#    x 3.852680 0.000000 0.000000 
#    y 0.000000 3.982100 0.000000 
#    z 0.000000 0.000000 3.693010 
# 
# 
# High freq. dielectric constant tensor:
#      x y z
#    x 1.825430 0.000000 0.000000 
#    y 0.000000 1.832730 0.000000 
#    z 0.000000 0.000000 1.820110 
# 
# From -- ./inp_files/19999.got.cif
#   From: 2010.03.12/outbox.cif.g09.slc.cpg/sg20_10_cif.got.tgz:19999.got - 2010.04.14 01:38:04.
