data_PCOD8159797
_publ_section_title
;
Structure prediction by ZEFSAII (Michael W. Deem and Ramdas Pophale) SiO2 
 PCOD8159797
Probable space group: C 2 2 21
;
_chemical_formula_sum "Si O2"
_cell_formula_units_Z 32
_cell_length_a 13.315926
_cell_length_b 6.459809
_cell_length_c 15.771768
_cell_angle_alpha 90.000000
_cell_angle_beta 90.000000
_cell_angle_gamma 90.000000
_cell_volume 1356.661280
_symmetry_space_group_name_H-M "C 2 2 21"
_symmetry_group_IT_number 20
_symmetry_cell_setting 'orthorhombic'
loop_
_space_group_symop_operation_xyz
x,y,z
-x,-y,1/2+z
x,-y,-z
-x,y,1/2-z
1/2+x,1/2+y,z
1/2-x,1/2-y,1/2+z
1/2+x,1/2-y,-z
1/2-x,1/2+y,1/2-z
loop_
_atom_site_type_symbol
_atom_site_label
_atom_site_fract_x
_atom_site_fract_y
_atom_site_fract_z
Si Si1 0.000000 0.469936 0.750000
Si Si2 0.241198 0.008934 0.628803
Si Si3 0.931608 0.762269 0.610374
Si Si4 0.660289 0.348867 0.200110
Si Si5 0.431728 0.500000 0.000000
O O1 0.998099 0.617132 0.832251
O O2 0.097138 0.326737 0.751576
O O3 0.327112 0.151348 0.586215
O O4 0.232380 0.055774 0.728793
O O5 0.273550 0.765950 0.626695
O O6 0.138019 0.055815 0.580084
O O7 0.995626 0.808547 0.525243
O O8 0.910259 0.978900 0.658049
#
# Coordination Sequence:
#
# PCOD8159797 Si02
#       5
#     4   8   8   8   4
#     4  10  22  42  74 100 134 184 246 300 352 430
#     4  11  25  45  75 104 143 192 245 299 359 433
#     4  11  25  45  69 107 145 189 242 297 367 443
#     4  11  22  46  74 103 136 192 251 296 349 441
#     4  12  28  44  70 108 154 190 232 308 386 420
#
# _framework density 23.587316000000001
#
# number of rings (size 3 to 8) (size 9 to 14) (size 15 to 20)
#    0.000    1.000    2.500    3.750    7.000    0.000 
#    0.000    5.000    0.000    0.000    0.000    0.000 
#    0.000    0.000    0.000    0.000    0.000    0.000 
#
# Total GULP energy -198394.796359 kJ/mol
# GULP energy per Si atom -12399.674772 kJ/mol
# Density = 2.353363 g / cm^3
# Si number density = 23.587316 Si / 1000 Ang^3
#
#
#
# Elastic Constant Matrix: (Units=GPa)
#
#
# Indices 1 2 3 4 5 6 
#
# 1 108.9164 30.8048 23.2342 0.0000 0.0000 0.0000
# 2 30.8048 117.7734 17.8612 0.0000 0.0000 0.0000
# 3 23.2342 17.8612 51.2536 0.0000 0.0000 0.0000
# 4 0.0000 0.0000 0.0000 17.1064 0.0000 0.0000
# 5 0.0000 0.0000 0.0000 0.0000 57.6328 0.0000
# 6 0.0000 0.0000 0.0000 0.0000 0.0000 30.2836
#
#
#
# Elastic Compliance Matrix: (Units=1/GPa)
#
#
# Indices 1 2 3 4 5 6 
#
# 1 0.010665 -0.002171 -0.004078 0.000000 0.000000 0.000000
# 2 -0.002171 0.009407 -0.002294 0.000000 0.000000 0.000000
# 3 -0.004078 -0.002294 0.022159 0.000000 0.000000 0.000000
# 4 0.000000 0.000000 0.000000 0.058458 0.000000 0.000000
# 5 0.000000 0.000000 0.000000 0.000000 0.017351 0.000000
# 6 0.000000 0.000000 0.000000 0.000000 0.000000 0.033021
#
#
# Mechanical properties :
#
#
# Convention : Reuss Voigt Hill
#
# Bulk Modulus (GPa) = 39.77009 46.86043 43.31526
# Shear Modulus (GPa) = 28.32398 34.74078 31.53238
#
# Velocity S-wave (km/s) = 3.46904 3.84195 3.66024
# Velocity P-wave (km/s) = 5.73960 6.29211 6.02220
#
# Compressibility (1/GPa) = 0.02514452
#
# Stress axis : x y z
#
# Youngs Moduli (GPa) = 93.76131 106.30781 45.12857
#
# Poissons Ratio (x) = 0.23081 0.18404
# Poissons Ratio (y) = 0.20357 0.10352
# Poissons Ratio (z) = 0.38238 0.24386
#
# Static dielectric constant tensor:
#      x y z
#    x 4.308900 0.000000 0.000000 
#    y 0.000000 4.597530 0.000000 
#    z 0.000000 0.000000 4.026600 
# 
# 
# High freq. dielectric constant tensor:
#      x y z
#    x 1.948200 0.000000 0.000000 
#    y 0.000000 1.941320 0.000000 
#    z 0.000000 0.000000 1.912410 
# 
# From -- ./inp_files/22514.got.cif
#   From: 2010.03.12/outbox.cif.g09.slc.cpg/sg20_12_cif.got.tgz:22514.got - 2010.04.14 01:38:04.
