data_PCOD8159799
_publ_section_title
;
Structure prediction by ZEFSAII (Michael W. Deem and Ramdas Pophale) SiO2 
 PCOD8159799
Probable space group: C 2 2 21
;
_chemical_formula_sum "Si O2"
_cell_formula_units_Z 48
_cell_length_a 22.341941
_cell_length_b 14.236032
_cell_length_c 7.403025
_cell_angle_alpha 90.000000
_cell_angle_beta 90.000000
_cell_angle_gamma 90.000000
_cell_volume 2354.610477
_symmetry_space_group_name_H-M "C 2 2 21"
_symmetry_group_IT_number 20
_symmetry_cell_setting 'orthorhombic'
loop_
_space_group_symop_operation_xyz
x,y,z
-x,-y,1/2+z
x,-y,-z
-x,y,1/2-z
1/2+x,1/2+y,z
1/2-x,1/2-y,1/2+z
1/2+x,1/2-y,-z
1/2-x,1/2+y,1/2-z
loop_
_atom_site_type_symbol
_atom_site_label
_atom_site_fract_x
_atom_site_fract_y
_atom_site_fract_z
Si Si1 0.232504 0.089761 0.894191
Si Si2 0.204766 0.294143 0.932142
Si Si3 0.500000 0.146382 0.250000
Si Si4 0.382415 0.218389 0.096643
Si Si5 0.178417 0.105207 0.531228
Si Si6 0.056992 0.500000 0.000000
Si Si7 0.643425 0.893177 0.248928
O O1 0.235009 0.193041 0.989247
O O2 0.184249 0.112886 0.744676
O O3 0.295020 0.056479 0.806884
O O4 0.207161 0.000000 0.000000
O O5 0.171122 0.302677 0.739952
O O6 0.259562 0.369473 0.926836
O O7 0.158431 0.316081 0.094649
O O8 0.445328 0.214537 0.199646
O O9 0.483966 0.083590 0.425033
O O10 0.373435 0.318437 0.994095
O O11 0.384782 0.144912 0.933134
O O12 0.156293 0.000000 0.500000
O O13 0.098208 0.530464 0.831475
#
# Coordination Sequence:
#
# PCOD8159799 Si02
#       7
#     8   8   4   8   8   4   8
#     4  10  23  33  62  95 135 172 204 261 329 387
#     4  10  22  43  58  98 137 165 213 270 319 393
#     4  12  26  46  66  88 134 164 228 270 324 390
#     4  11  24  43  66  90 131 179 205 273 330 378
#     4  10  23  37  64  96 129 171 220 261 322 393
#     4  12  26  44  66  98 120 170 228 270 318 398
#     4  11  24  38  66  90 133 168 212 264 321 384
#
# _framework density 20.385538
#
# number of rings (size 3 to 8) (size 9 to 14) (size 15 to 20)
#    0.000    1.333    3.333    1.000   11.667    0.000 
#    0.000    0.000    0.000    6.000    0.000    0.000 
#    0.000    0.000    0.000    0.000    0.000    0.000 
#
# Total GULP energy -297402.755212 kJ/mol
# GULP energy per Si atom -12391.781467 kJ/mol
# Density = 2.033914 g / cm^3
# Si number density = 20.385538 Si / 1000 Ang^3
#
#
#
# Elastic Constant Matrix: (Units=GPa)
#
#
# Indices 1 2 3 4 5 6 
#
# 1 89.5423 39.4274 30.5392 0.0000 0.0000 0.0000
# 2 39.4274 103.0130 26.0915 0.0000 0.0000 0.0000
# 3 30.5392 26.0915 86.7227 0.0000 0.0000 0.0000
# 4 0.0000 0.0000 0.0000 38.2215 0.0000 0.0000
# 5 0.0000 0.0000 0.0000 0.0000 23.6409 0.0000
# 6 0.0000 0.0000 0.0000 0.0000 0.0000 26.7612
#
#
#
# Elastic Compliance Matrix: (Units=1/GPa)
#
#
# Indices 1 2 3 4 5 6 
#
# 1 0.014455 -0.004593 -0.003708 0.000000 0.000000 0.000000
# 2 -0.004593 0.011968 -0.001983 0.000000 0.000000 0.000000
# 3 -0.003708 -0.001983 0.013434 0.000000 0.000000 0.000000
# 4 0.000000 0.000000 0.000000 0.026163 0.000000 0.000000
# 5 0.000000 0.000000 0.000000 0.000000 0.042300 0.000000
# 6 0.000000 0.000000 0.000000 0.000000 0.000000 0.037368
#
#
# Mechanical properties :
#
#
# Convention : Reuss Voigt Hill
#
# Bulk Modulus (GPa) = 51.84872 52.37714 52.11293
# Shear Modulus (GPa) = 28.95431 29.93938 29.44684
#
# Velocity S-wave (km/s) = 3.77282 3.83646 3.80478
# Velocity P-wave (km/s) = 6.66845 6.73600 6.70231
#
# Compressibility (1/GPa) = 0.01928688
#
# Stress axis : x y z
#
# Youngs Moduli (GPa) = 69.17901 83.55704 74.44038
#
# Poissons Ratio (x) = 0.38381 0.27606
# Poissons Ratio (y) = 0.31776 0.14763
# Poissons Ratio (z) = 0.25655 0.16571
#
# Static dielectric constant tensor:
#      x y z
#    x 3.467610 0.000000 0.000000 
#    y 0.000000 4.383710 0.000000 
#    z 0.000000 0.000000 3.396570 
# 
# 
# High freq. dielectric constant tensor:
#      x y z
#    x 1.760710 0.000000 0.000000 
#    y 0.000000 1.794160 0.000000 
#    z 0.000000 0.000000 1.811100 
# 
# From -- ./inp_files/10082.got.cif
#   From: 2010.03.12/outbox.cif.g09.slc.cpg/sg20_6_cif.got.tgz:10082.got - 2010.04.14 01:38:04.
