data_PCOD8159688
_publ_section_title
;
Structure prediction by ZEFSAII (Michael W. Deem and Ramdas Pophale) SiO2 
 PCOD8159688
Probable space group: C 2 2 21
;
_chemical_formula_sum "Si O2"
_cell_formula_units_Z 60
_cell_length_a 9.942716
_cell_length_b 9.981894
_cell_length_c 29.999280
_cell_angle_alpha 90.000000
_cell_angle_beta 90.000000
_cell_angle_gamma 90.000000
_cell_volume 2977.342658
_symmetry_space_group_name_H-M "C 2 2 21"
_symmetry_group_IT_number 20
_symmetry_cell_setting 'orthorhombic'
loop_
_space_group_symop_operation_xyz
x,y,z
-x,-y,1/2+z
x,-y,-z
-x,y,1/2-z
1/2+x,1/2+y,z
1/2-x,1/2-y,1/2+z
1/2+x,1/2-y,-z
1/2-x,1/2+y,1/2-z
loop_
_atom_site_type_symbol
_atom_site_label
_atom_site_fract_x
_atom_site_fract_y
_atom_site_fract_z
Si Si1 0.688077 0.678299 0.178216
Si Si2 0.542728 0.746716 0.089211
Si Si3 0.500000 0.582988 0.250000
Si Si4 0.729646 0.636939 0.389524
Si Si5 0.325862 0.590155 0.634031
Si Si6 0.258553 0.439107 0.547029
Si Si7 0.882841 0.083092 0.829371
Si Si8 0.457316 0.031687 0.450218
O O1 0.587768 0.729980 0.140165
O O2 0.605457 0.678166 0.224309
O O3 0.734442 0.525476 0.166577
O O4 0.816855 0.773756 0.182044
O O5 0.407680 0.659477 0.082982
O O6 0.657084 0.695533 0.055407
O O7 0.514959 0.899513 0.078464
O O8 0.583046 0.489217 0.283354
O O9 0.755208 0.766629 0.357816
O O10 0.720773 0.506374 0.358206
O O11 0.849295 0.623532 0.425240
O O12 0.298348 0.549925 0.583234
O O13 0.484544 0.607215 0.641651
O O14 0.299248 0.500000 0.500000
O O15 0.101859 0.394835 0.547929
O O16 0.405167 0.000000 0.500000
#
# Coordination Sequence:
#
# PCOD8159688 Si02
#       8
#     8   8   4   8   8   8   8   8
#     4  10  22  45  68  90 134 169 207 269 329 389
#     4  11  22  42  64  90 127 176 218 261 332 382
#     4  10  22  42  66 100 128 162 216 270 324 398
#     4  12  23  40  67  95 126 177 220 264 324 388
#     4  10  23  39  64  93 126 168 216 263 315 385
#     4  10  22  41  59  88 129 172 215 270 320 370
#     4  11  23  44  66  98 127 167 210 270 323 391
#     4  11  26  39  60  99 134 170 226 277 314 384
#
# _framework density 20.152197000000001
#
# number of rings (size 3 to 8) (size 9 to 14) (size 15 to 20)
#    0.000    1.333    6.667    0.000    5.600    2.667 
#    0.000    0.000    0.000    0.000    0.000    0.000 
#    0.000    0.000    0.000    0.000    0.000    0.000 
#
# Total GULP energy -372036.598611 kJ/mol
# GULP energy per Si atom -12401.219954 kJ/mol
# Density = 2.010633 g / cm^3
# Si number density = 20.152197 Si / 1000 Ang^3
#
#
#
# Elastic Constant Matrix: (Units=GPa)
#
#
# Indices 1 2 3 4 5 6 
#
# 1 102.4871 38.8437 32.9131 0.0000 0.0000 0.0000
# 2 38.8437 89.7599 4.7020 0.0000 0.0000 0.0000
# 3 32.9131 4.7020 88.7434 0.0000 0.0000 0.0000
# 4 0.0000 0.0000 0.0000 18.4339 0.0000 0.0000
# 5 0.0000 0.0000 0.0000 0.0000 21.4799 0.0000
# 6 0.0000 0.0000 0.0000 0.0000 0.0000 40.7175
#
#
#
# Elastic Compliance Matrix: (Units=1/GPa)
#
#
# Indices 1 2 3 4 5 6 
#
# 1 0.013351 -0.005533 -0.004658 0.000000 0.000000 0.000000
# 2 -0.005533 0.013465 0.001339 0.000000 0.000000 0.000000
# 3 -0.004658 0.001339 0.012925 0.000000 0.000000 0.000000
# 4 0.000000 0.000000 0.000000 0.054248 0.000000 0.000000
# 5 0.000000 0.000000 0.000000 0.000000 0.046555 0.000000
# 6 0.000000 0.000000 0.000000 0.000000 0.000000 0.024559
#
#
# Mechanical properties :
#
#
# Convention : Reuss Voigt Hill
#
# Bulk Modulus (GPa) = 45.38198 48.21201 46.79699
# Shear Modulus (GPa) = 26.29443 29.76170 28.02807
#
# Velocity S-wave (km/s) = 3.61611 3.84715 3.73342
# Velocity P-wave (km/s) = 6.32483 6.61135 6.46968
#
# Compressibility (1/GPa) = 0.02203518
#
# Stress axis : x y z
#
# Youngs Moduli (GPa) = 74.90349 74.26501 77.36855
#
# Poissons Ratio (x) = 0.41094 0.36040
# Poissons Ratio (y) = 0.41447 -0.10358
# Poissons Ratio (z) = 0.34892 -0.09942
#
# Static dielectric constant tensor:
#      x y z
#    x 3.741480 0.000000 0.000000 
#    y 0.000000 3.752130 0.000000 
#    z 0.000000 0.000000 3.593370 
# 
# 
# High freq. dielectric constant tensor:
#      x y z
#    x 1.791440 0.000000 0.000000 
#    y 0.000000 1.785690 0.000000 
#    z 0.000000 0.000000 1.779090 
# 
# From -- ./inp_files/31029.got.cif
#   From: 2010.03.12/outbox.cif.g09.slc.cpg/sg20_16_cif.got.tgz:31029.got - 2010.04.14 01:38:04.
