data_PCOD8159531
_publ_section_title
;
Structure prediction by ZEFSAII (Michael W. Deem and Ramdas Pophale) SiO2 
 PCOD8159531
Probable space group: C 2 2 21
;
_chemical_formula_sum "Si O2"
_cell_formula_units_Z 40
_cell_length_a 32.604657
_cell_length_b 6.329663
_cell_length_c 10.620960
_cell_angle_alpha 90.000000
_cell_angle_beta 90.000000
_cell_angle_gamma 90.000000
_cell_volume 2191.916456
_symmetry_space_group_name_H-M "C 2 2 21"
_symmetry_group_IT_number 20
_symmetry_cell_setting 'orthorhombic'
loop_
_space_group_symop_operation_xyz
x,y,z
-x,-y,1/2+z
x,-y,-z
-x,y,1/2-z
1/2+x,1/2+y,z
1/2-x,1/2-y,1/2+z
1/2+x,1/2-y,-z
1/2-x,1/2+y,1/2-z
loop_
_atom_site_type_symbol
_atom_site_label
_atom_site_fract_x
_atom_site_fract_y
_atom_site_fract_z
Si Si1 0.295837 0.500000 0.000000
Si Si2 0.747757 0.129371 0.620508
Si Si3 0.935345 0.000000 0.500000
Si Si4 0.314882 0.795464 0.790993
Si Si5 0.528214 0.117134 0.872721
Si Si6 0.109711 0.377613 0.880148
O O1 0.266026 0.633552 0.089989
O O2 0.323585 0.335778 0.080240
O O3 0.787994 0.138970 0.705876
O O4 0.762575 0.000000 0.500000
O O5 0.709748 0.010707 0.685384
O O6 0.964523 0.862290 0.591909
O O7 0.905837 0.854479 0.416322
O O8 0.357814 0.858670 0.730862
O O9 0.500000 0.096508 0.750000
O O10 0.571304 0.014306 0.832015
O O11 0.510985 0.000000 0.000000
O O12 0.129610 0.500000 0.000000
#
# Coordination Sequence:
#
# PCOD8159531 Si02
#       6
#     4   8   4   8   8   8
#     4  10  22  38  50  77 108 148 192 242 283 342
#     4  10  22  35  53  78 105 146 193 237 283 330
#     4   8  18  36  56  91 110 146 190 230 271 348
#     4  11  21  37  55  79 114 148 191 239 285 332
#     4   9  19  39  61  88 120 147 186 233 286 347
#     4   9  21  35  56  85 114 144 188 237 278 332
#
# _framework density 18.24887
#
# number of rings (size 3 to 8) (size 9 to 14) (size 15 to 20)
#    0.000    2.800    2.000    0.000    2.800    6.400 
#    0.000    5.000    0.000    1.200    0.000    0.000 
#    0.000    0.000    0.000    0.000    0.000    0.000 
#
# Total GULP energy -247897.089908 kJ/mol
# GULP energy per Si atom -12394.854495 kJ/mol
# Density = 1.820733 g / cm^3
# Si number density = 18.248870 Si / 1000 Ang^3
#
#
#
# Elastic Constant Matrix: (Units=GPa)
#
#
# Indices 1 2 3 4 5 6 
#
# 1 95.9775 40.3326 67.9866 0.0000 0.0000 0.0000
# 2 40.3326 113.0882 41.1385 0.0000 0.0000 0.0000
# 3 67.9866 41.1385 111.3733 0.0000 0.0000 0.0000
# 4 0.0000 0.0000 0.0000 27.6235 0.0000 0.0000
# 5 0.0000 0.0000 0.0000 0.0000 20.7836 0.0000
# 6 0.0000 0.0000 0.0000 0.0000 0.0000 15.6097
#
#
#
# Elastic Compliance Matrix: (Units=1/GPa)
#
#
# Indices 1 2 3 4 5 6 
#
# 1 0.019190 -0.002984 -0.010612 0.000000 0.000000 0.000000
# 2 -0.002984 0.010679 -0.002123 0.000000 0.000000 0.000000
# 3 -0.010612 -0.002123 0.016241 0.000000 0.000000 0.000000
# 4 0.000000 0.000000 0.000000 0.036201 0.000000 0.000000
# 5 0.000000 0.000000 0.000000 0.000000 0.048115 0.000000
# 6 0.000000 0.000000 0.000000 0.000000 0.000000 0.064063
#
#
# Mechanical properties :
#
#
# Convention : Reuss Voigt Hill
#
# Bulk Modulus (GPa) = 68.15656 68.81716 68.48686
# Shear Modulus (GPa) = 21.66199 24.20211 22.93205
#
# Velocity S-wave (km/s) = 3.44907 3.64569 3.54874
# Velocity P-wave (km/s) = 7.30006 7.45075 7.37579
#
# Compressibility (1/GPa) = 0.01467210
#
# Stress axis : x y z
#
# Youngs Moduli (GPa) = 52.10949 93.64035 61.57127
#
# Poissons Ratio (x) = 0.27939 0.65342
# Poissons Ratio (y) = 0.15548 0.13073
# Poissons Ratio (z) = 0.55301 0.19882
#
# Static dielectric constant tensor:
#      x y z
#    x 2.978820 0.000000 0.000000 
#    y 0.000000 3.695870 0.000000 
#    z 0.000000 0.000000 3.438020 
# 
# 
# High freq. dielectric constant tensor:
#      x y z
#    x 1.672030 0.000000 0.000000 
#    y 0.000000 1.727990 0.000000 
#    z 0.000000 0.000000 1.708790 
# 
# From -- ./inp_files/12192.got.cif
#   From: 2010.03.12/outbox.cif.g09.slc.cpg/sg20_7_cif.got.tgz:12192.got - 2010.04.14 01:38:04.
