data_PCOD8159669
_publ_section_title
;
Structure prediction by ZEFSAII (Michael W. Deem and Ramdas Pophale) SiO2 
 PCOD8159669
Probable space group: C 2 2 21
;
_chemical_formula_sum "Si O2"
_cell_formula_units_Z 64
_cell_length_a 17.882461
_cell_length_b 14.578484
_cell_length_c 12.076534
_cell_angle_alpha 90.000000
_cell_angle_beta 90.000000
_cell_angle_gamma 90.000000
_cell_volume 3148.342409
_symmetry_space_group_name_H-M "C 2 2 21"
_symmetry_group_IT_number 20
_symmetry_cell_setting 'orthorhombic'
loop_
_space_group_symop_operation_xyz
x,y,z
-x,-y,1/2+z
x,-y,-z
-x,y,1/2-z
1/2+x,1/2+y,z
1/2-x,1/2-y,1/2+z
1/2+x,1/2-y,-z
1/2-x,1/2+y,1/2-z
loop_
_atom_site_type_symbol
_atom_site_label
_atom_site_fract_x
_atom_site_fract_y
_atom_site_fract_z
Si Si1 0.201949 0.789381 0.065473
Si Si2 0.892276 0.952551 0.329354
Si Si3 0.983266 0.243209 0.015049
Si Si4 0.361335 0.199379 0.829106
Si Si5 0.439463 0.570443 0.908246
Si Si6 0.575565 0.942695 0.178386
Si Si7 0.092982 0.368023 0.928456
Si Si8 0.625027 0.337762 0.859892
O O1 0.157696 0.874127 0.117858
O O2 0.287403 0.796489 0.098250
O O3 0.168314 0.689284 0.097001
O O4 0.193096 0.797853 0.933091
O O5 0.887404 0.940045 0.197904
O O6 0.974843 0.945255 0.377151
O O7 0.863103 0.053542 0.357202
O O8 0.933243 0.309130 0.091405
O O9 0.045022 0.189387 0.088044
O O10 0.927817 0.171549 0.957279
O O11 0.022034 0.300208 0.914524
O O12 0.360683 0.109339 0.750012
O O13 0.369007 0.293942 0.761262
O O14 0.410990 0.500000 0.000000
O O15 0.500000 0.931023 0.250000
O O16 0.592738 0.050065 0.160108
O O17 0.579180 0.896971 0.057132
#
# Coordination Sequence:
#
# PCOD8159669 Si02
#       8
#     8   8   8   8   8   8   8   8
#     4  11  24  42  61  93 133 179 203 260 328 389
#     4  11  22  37  64  91 130 166 202 252 335 385
#     4  11  20  39  66  98 125 163 214 275 313 373
#     4  12  24  39  69  94 125 172 224 253 315 402
#     4  11  20  34  61 100 126 154 208 268 311 384
#     4  11  21  42  70  94 119 166 224 269 312 375
#     4  10  22  40  67  90 129 167 208 269 326 358
#     4  11  21  42  66  90 131 170 209 263 328 379
#
# _framework density 20.328157999999998
#
# number of rings (size 3 to 8) (size 9 to 14) (size 15 to 20)
#    0.000    1.000    7.500    1.500    1.750    3.000 
#    0.000    2.500    0.000    0.000    0.000    0.000 
#    0.000    0.000    0.000    0.000    0.000    0.000 
#
# Total GULP energy -396642.385284 kJ/mol
# GULP energy per Si atom -12395.074540 kJ/mol
# Density = 2.028189 g / cm^3
# Si number density = 20.328158 Si / 1000 Ang^3
#
#
#
# Elastic Constant Matrix: (Units=GPa)
#
#
# Indices 1 2 3 4 5 6 
#
# 1 75.9503 25.9738 29.9660 0.0000 0.0000 0.0000
# 2 25.9738 127.8355 21.1478 0.0000 0.0000 0.0000
# 3 29.9660 21.1478 70.3264 0.0000 0.0000 0.0000
# 4 0.0000 0.0000 0.0000 37.3002 0.0000 0.0000
# 5 0.0000 0.0000 0.0000 0.0000 23.3285 0.0000
# 6 0.0000 0.0000 0.0000 0.0000 0.0000 17.1280
#
#
#
# Elastic Compliance Matrix: (Units=1/GPa)
#
#
# Indices 1 2 3 4 5 6 
#
# 1 0.016444 -0.002296 -0.006316 0.000000 0.000000 0.000000
# 2 -0.002296 0.008553 -0.001593 0.000000 0.000000 0.000000
# 3 -0.006316 -0.001593 0.017390 0.000000 0.000000 0.000000
# 4 0.000000 0.000000 0.000000 0.026810 0.000000 0.000000
# 5 0.000000 0.000000 0.000000 0.000000 0.042866 0.000000
# 6 0.000000 0.000000 0.000000 0.000000 0.000000 0.058384
#
#
# Mechanical properties :
#
#
# Convention : Reuss Voigt Hill
#
# Bulk Modulus (GPa) = 45.50691 47.58751 46.54721
# Shear Modulus (GPa) = 25.22923 28.68629 26.95776
#
# Velocity S-wave (km/s) = 3.52674 3.76062 3.64556
# Velocity P-wave (km/s) = 6.24649 6.50514 6.37712
#
# Compressibility (1/GPa) = 0.02197468
#
# Stress axis : x y z
#
# Youngs Moduli (GPa) = 60.81314 116.92207 57.50462
#
# Poissons Ratio (x) = 0.26848 0.36321
# Poissons Ratio (y) = 0.13964 0.09163
# Poissons Ratio (z) = 0.38411 0.18631
#
# Static dielectric constant tensor:
#      x y z
#    x 3.408710 0.000000 0.000000 
#    y 0.000000 4.150430 0.000000 
#    z 0.000000 0.000000 3.918780 
# 
# 
# High freq. dielectric constant tensor:
#      x y z
#    x 1.755020 0.000000 0.000000 
#    y 0.000000 1.812090 0.000000 
#    z 0.000000 0.000000 1.797920 
# 
# From -- ./inp_files/15896.got.cif
#   From: 2010.03.12/outbox.cif.g09.slc.cpg/sg20_8_cif.got.tgz:15896.got - 2010.04.14 01:38:04.
