data_PCOD8159662
_publ_section_title
;
Structure prediction by ZEFSAII (Michael W. Deem and Ramdas Pophale) SiO2 
 PCOD8159662
Probable space group: C 2 2 21
;
_chemical_formula_sum "Si O2"
_cell_formula_units_Z 32
_cell_length_a 5.229416
_cell_length_b 17.230969
_cell_length_c 14.732376
_cell_angle_alpha 90.000000
_cell_angle_beta 90.000000
_cell_angle_gamma 90.000000
_cell_volume 1327.503537
_symmetry_space_group_name_H-M "C 2 2 21"
_symmetry_group_IT_number 20
_symmetry_cell_setting 'orthorhombic'
loop_
_space_group_symop_operation_xyz
x,y,z
-x,-y,1/2+z
x,-y,-z
-x,y,1/2-z
1/2+x,1/2+y,z
1/2-x,1/2-y,1/2+z
1/2+x,1/2-y,-z
1/2-x,1/2+y,1/2-z
loop_
_atom_site_type_symbol
_atom_site_label
_atom_site_fract_x
_atom_site_fract_y
_atom_site_fract_z
Si Si1 0.655114 0.343487 0.449943
Si Si2 0.437687 0.500000 0.500000
Si Si3 0.341907 0.219612 0.895253
Si Si4 0.257225 0.518001 0.303715
Si Si5 0.000000 0.165539 0.250000
O O1 0.624967 0.424795 0.504253
O O2 0.660353 0.267909 0.512512
O O3 0.916980 0.340073 0.392088
O O4 0.408449 0.334147 0.384823
O O5 0.258174 0.495188 0.410323
O O6 0.337420 0.280561 0.815050
O O7 0.500000 0.479763 0.250000
O O8 0.292932 0.611778 0.302375
O O9 0.000000 0.493330 0.250000
#
# Coordination Sequence:
#
# PCOD8159662 Si02
#       5
#     8   4   8   8   4
#     4  10  23  40  66  99 127 175 231 278 349 415
#     4  12  24  50  74 102 152 194 228 310 360 436
#     4  10  22  40  65  96 129 172 233 283 337 415
#     4  10  25  42  70 105 137 191 244 286 369 433
#     4  10  22  44  68  96 140 186 232 298 346 426
#
# _framework density 24.105395999999999
#
# number of rings (size 3 to 8) (size 9 to 14) (size 15 to 20)
#    0.750    1.000    2.500    0.000    3.500    8.000 
#    6.750    0.000    0.000    0.000    0.000    0.000 
#    0.000    0.000    0.000    0.000    0.000    0.000 
#
# Total GULP energy -198278.964020 kJ/mol
# GULP energy per Si atom -12392.435251 kJ/mol
# Density = 2.405053 g / cm^3
# Si number density = 24.105396 Si / 1000 Ang^3
#
#
#
# Elastic Constant Matrix: (Units=GPa)
#
#
# Indices 1 2 3 4 5 6 
#
# 1 134.4999 31.3261 35.2196 0.0000 0.0000 0.0000
# 2 31.3261 76.0619 -0.4652 0.0000 0.0000 0.0000
# 3 35.2196 -0.4652 123.7261 0.0000 0.0000 0.0000
# 4 0.0000 0.0000 0.0000 41.8105 0.0000 0.0000
# 5 0.0000 0.0000 0.0000 0.0000 19.2434 0.0000
# 6 0.0000 0.0000 0.0000 0.0000 0.0000 -3.7645
#
#
#
# Elastic Compliance Matrix: (Units=1/GPa)
#
#
# Indices 1 2 3 4 5 6 
#
# 1 0.008972 -0.003711 -0.002568 0.000000 0.000000 0.000000
# 2 -0.003711 0.014682 0.001111 0.000000 0.000000 0.000000
# 3 -0.002568 0.001111 0.008817 0.000000 0.000000 0.000000
# 4 0.000000 0.000000 0.000000 0.023917 0.000000 0.000000
# 5 0.000000 0.000000 0.000000 0.000000 0.051966 0.000000
# 6 0.000000 0.000000 0.000000 0.000000 0.000000 -0.265639
#
#
# Mechanical properties :
#
#
# Convention : Reuss Voigt Hill
#
# Bulk Modulus (GPa) = 45.17249 51.82763 48.50006
# Shear Modulus (GPa) = -35.82398 29.33838 -3.24280
#
# Velocity S-wave (km/s) = -3.85923 3.49246 -1.16111
# Velocity P-wave (km/s) = 1.03824 6.14900 4.28557
#
# Compressibility (1/GPa) = 0.02213737
#
# Stress axis : x y z
#
# Youngs Moduli (GPa) = 111.46311 68.10960 113.41103
#
# Poissons Ratio (x) = 0.25273 0.29121
# Poissons Ratio (y) = 0.41360 -0.12605
# Poissons Ratio (z) = 0.28621 -0.07570
#
# Static dielectric constant tensor:
#      x y z
#    x 4.494430 0.000000 0.000000 
#    y 0.000000 4.223520 0.000000 
#    z 0.000000 0.000000 5.010560 
# 
# 
# High freq. dielectric constant tensor:
#      x y z
#    x 1.949970 0.000000 0.000000 
#    y 0.000000 1.958430 0.000000 
#    z 0.000000 0.000000 1.933390 
# 
# From -- ./inp_files/17456.got.cif
#   From: 2010.03.12/outbox.cif.g09.slc.cpg/sg20_9_cif.got.tgz:17456.got - 2010.04.14 01:38:04.
