data_PCOD8159570
_publ_section_title
;
Structure prediction by ZEFSAII (Michael W. Deem and Ramdas Pophale) SiO2 
 PCOD8159570
Probable space group: C 2 2 21
;
_chemical_formula_sum "Si O2"
_cell_formula_units_Z 64
_cell_length_a 11.218161
_cell_length_b 16.030134
_cell_length_c 17.539413
_cell_angle_alpha 90.000000
_cell_angle_beta 90.000000
_cell_angle_gamma 90.000000
_cell_volume 3154.088507
_symmetry_space_group_name_H-M "C 2 2 21"
_symmetry_group_IT_number 20
_symmetry_cell_setting 'orthorhombic'
loop_
_space_group_symop_operation_xyz
x,y,z
-x,-y,1/2+z
x,-y,-z
-x,y,1/2-z
1/2+x,1/2+y,z
1/2-x,1/2-y,1/2+z
1/2+x,1/2-y,-z
1/2-x,1/2+y,1/2-z
loop_
_atom_site_type_symbol
_atom_site_label
_atom_site_fract_x
_atom_site_fract_y
_atom_site_fract_z
Si Si1 0.792564 0.438393 0.100561
Si Si2 0.111886 0.756813 0.426392
Si Si3 0.964482 0.503954 0.661973
Si Si4 0.073319 0.316370 0.826710
Si Si5 0.691766 0.221848 0.696592
Si Si6 0.212905 0.110068 0.068294
Si Si7 0.003051 0.771435 0.916934
Si Si8 0.686934 0.153635 0.862157
O O1 0.762567 0.365166 0.159705
O O2 0.723418 0.525405 0.118767
O O3 0.933280 0.459521 0.106556
O O4 0.753154 0.408080 0.017713
O O5 0.195308 0.679230 0.400642
O O6 0.177964 0.839453 0.393838
O O7 0.982762 0.746996 0.388257
O O8 0.094962 0.764844 0.516542
O O9 0.933689 0.409677 0.640111
O O10 0.844453 0.556897 0.648162
O O11 0.000000 0.513660 0.750000
O O12 0.208989 0.292528 0.812905
O O13 0.000000 0.307663 0.750000
O O14 0.571227 0.259679 0.660786
O O15 0.667940 0.205657 0.784769
O O16 0.076288 0.141568 0.076577
O O17 0.097910 0.696097 0.923723
#
# Coordination Sequence:
#
# PCOD8159570 Si02
#       8
#     8   8   8   8   8   8   8   8
#     4  11  20  39  64  90 123 166 216 260 313 388
#     4  11  21  39  61  93 126 166 207 262 325 376
#     4  11  20  37  62  91 119 157 214 267 312 375
#     4  11  24  39  61  94 129 161 211 268 321 385
#     4  12  22  41  65  94 125 173 209 264 328 379
#     4  10  22  38  61  96 121 164 214 261 315 381
#     4  11  23  39  65  93 126 169 213 262 315 394
#     4  11  22  39  65  93 126 159 216 268 320 383
#
# _framework density 20.291122999999999
#
# number of rings (size 3 to 8) (size 9 to 14) (size 15 to 20)
#    0.000    1.000    6.250    1.125    1.750    0.000 
#    0.000    3.750    0.000    0.000    0.000    0.000 
#    0.000    0.000    0.000    0.000    0.000    0.000 
#
# Total GULP energy -396774.037805 kJ/mol
# GULP energy per Si atom -12399.188681 kJ/mol
# Density = 2.024494 g / cm^3
# Si number density = 20.291123 Si / 1000 Ang^3
#
#
#
# Elastic Constant Matrix: (Units=GPa)
#
#
# Indices 1 2 3 4 5 6 
#
# 1 97.6256 47.0781 25.3767 0.0000 0.0000 0.0000
# 2 47.0781 97.8855 14.7766 0.0000 0.0000 0.0000
# 3 25.3767 14.7766 69.3538 0.0000 0.0000 0.0000
# 4 0.0000 0.0000 0.0000 20.4192 0.0000 0.0000
# 5 0.0000 0.0000 0.0000 0.0000 37.0113 0.0000
# 6 0.0000 0.0000 0.0000 0.0000 0.0000 39.9129
#
#
#
# Elastic Compliance Matrix: (Units=1/GPa)
#
#
# Indices 1 2 3 4 5 6 
#
# 1 0.014284 -0.006283 -0.003888 0.000000 0.000000 0.000000
# 2 -0.006283 0.013319 -0.000539 0.000000 0.000000 0.000000
# 3 -0.003888 -0.000539 0.015956 0.000000 0.000000 0.000000
# 4 0.000000 0.000000 0.000000 0.048974 0.000000 0.000000
# 5 0.000000 0.000000 0.000000 0.000000 0.027019 0.000000
# 6 0.000000 0.000000 0.000000 0.000000 0.000000 0.025055
#
#
# Mechanical properties :
#
#
# Convention : Reuss Voigt Hill
#
# Bulk Modulus (GPa) = 45.16727 48.81418 46.99072
# Shear Modulus (GPa) = 28.83430 31.31090 30.07260
#
# Velocity S-wave (km/s) = 3.77375 3.93247 3.85393
# Velocity P-wave (km/s) = 6.42621 6.68792 6.55837
#
# Compressibility (1/GPa) = 0.02213993
#
# Stress axis : x y z
#
# Youngs Moduli (GPa) = 70.01059 75.08028 62.67160
#
# Poissons Ratio (x) = 0.47171 0.24365
# Poissons Ratio (y) = 0.43986 0.03377
# Poissons Ratio (z) = 0.27218 0.04046
#
# Static dielectric constant tensor:
#      x y z
#    x 3.705470 0.000000 0.000000 
#    y 0.000000 3.893580 0.000000 
#    z 0.000000 0.000000 3.647580 
# 
# 
# High freq. dielectric constant tensor:
#      x y z
#    x 1.784240 0.000000 0.000000 
#    y 0.000000 1.786740 0.000000 
#    z 0.000000 0.000000 1.789980 
# 
# From -- ./inp_files/24437.got.cif
#   From: 2010.03.12/outbox.cif.g09.slc.cpg/sg20_13_cif.got.tgz:24437.got - 2010.04.14 01:38:04.
