data_PCOD8159457
_publ_section_title
;
Structure prediction by ZEFSAII (Michael W. Deem and Ramdas Pophale) SiO2 
 PCOD8159457
Probable space group: C 2 2 21
;
_chemical_formula_sum "Si O2"
_cell_formula_units_Z 56
_cell_length_a 8.448869
_cell_length_b 23.907984
_cell_length_c 12.684903
_cell_angle_alpha 90.000000
_cell_angle_beta 90.000000
_cell_angle_gamma 90.000000
_cell_volume 2562.292371
_symmetry_space_group_name_H-M "C 2 2 21"
_symmetry_group_IT_number 20
_symmetry_cell_setting 'orthorhombic'
loop_
_space_group_symop_operation_xyz
x,y,z
-x,-y,1/2+z
x,-y,-z
-x,y,1/2-z
1/2+x,1/2+y,z
1/2-x,1/2-y,1/2+z
1/2+x,1/2-y,-z
1/2-x,1/2+y,1/2-z
loop_
_atom_site_type_symbol
_atom_site_label
_atom_site_fract_x
_atom_site_fract_y
_atom_site_fract_z
Si Si1 0.829670 0.780319 0.061679
Si Si2 0.324602 0.710149 0.284360
Si Si3 0.188744 0.774390 0.113968
Si Si4 0.315252 0.028049 0.767493
Si Si5 0.597749 0.392549 0.355079
Si Si6 0.778059 0.896769 0.455492
Si Si7 0.172405 0.596372 0.303963
O O1 0.709929 0.728742 0.095464
O O2 0.789117 0.841914 0.106848
O O3 0.009558 0.766297 0.082316
O O4 0.796377 0.775652 0.937185
O O5 0.500000 0.722747 0.250000
O O6 0.206368 0.757170 0.235451
O O7 0.281870 0.645957 0.259960
O O8 0.259452 0.835984 0.093445
O O9 0.500000 0.033859 0.750000
O O10 0.211428 0.055760 0.673856
O O11 0.289380 0.054949 0.881262
O O12 0.261185 0.963425 0.767143
O O13 0.500000 0.374009 0.250000
O O14 0.471563 0.405260 0.450190
O O15 0.690311 0.902300 0.568204
O O16 0.000000 0.605313 0.250000
#
# Coordination Sequence:
#
# PCOD8159457 Si02
#       7
#     8   8   8   8   8   8   8
#     4  11  21  40  61  93 129 163 215 261 326 396
#     4  12  25  40  60  94 133 173 216 275 336 401
#     4  11  23  37  66  94 128 171 214 265 332 401
#     4  10  22  41  69 100 131 171 230 282 335 396
#     4   9  20  39  68  95 129 171 219 273 328 395
#     4  10  21  42  70  96 129 179 221 270 344 400
#     4  11  24  45  66  95 136 179 225 285 343 397
#
# _framework density 21.855429999999998
#
# number of rings (size 3 to 8) (size 9 to 14) (size 15 to 20)
#    0.000    1.429    1.429    5.143    2.000    5.143 
#    0.000    0.000    0.000    0.000    0.000    0.000 
#    0.000    0.000    0.000    0.000    0.000    0.000 
#
# Total GULP energy -346879.313404 kJ/mol
# GULP energy per Si atom -12388.546907 kJ/mol
# Density = 2.180569 g / cm^3
# Si number density = 21.855430 Si / 1000 Ang^3
#
#
#
# Elastic Constant Matrix: (Units=GPa)
#
#
# Indices 1 2 3 4 5 6 
#
# 1 82.5327 40.5436 33.8524 0.0000 0.0000 0.0000
# 2 40.5436 148.4943 27.4909 0.0000 0.0000 0.0000
# 3 33.8524 27.4909 59.0008 0.0000 0.0000 0.0000
# 4 0.0000 0.0000 0.0000 36.9670 0.0000 0.0000
# 5 0.0000 0.0000 0.0000 0.0000 45.0945 0.0000
# 6 0.0000 0.0000 0.0000 0.0000 0.0000 33.2326
#
#
#
# Elastic Compliance Matrix: (Units=1/GPa)
#
#
# Indices 1 2 3 4 5 6 
#
# 1 0.017068 -0.003116 -0.008341 0.000000 0.000000 0.000000
# 2 -0.003116 0.007939 -0.001911 0.000000 0.000000 0.000000
# 3 -0.008341 -0.001911 0.022625 0.000000 0.000000 0.000000
# 4 0.000000 0.000000 0.000000 0.027051 0.000000 0.000000
# 5 0.000000 0.000000 0.000000 0.000000 0.022176 0.000000
# 6 0.000000 0.000000 0.000000 0.000000 0.000000 0.030091
#
#
# Mechanical properties :
#
#
# Convention : Reuss Voigt Hill
#
# Bulk Modulus (GPa) = 47.85698 54.86686 51.36192
# Shear Modulus (GPa) = 31.12302 35.60154 33.36228
#
# Velocity S-wave (km/s) = 3.77774 4.04041 3.91128
# Velocity P-wave (km/s) = 6.40102 6.85022 6.62942
#
# Compressibility (1/GPa) = 0.02089559
#
# Stress axis : x y z
#
# Youngs Moduli (GPa) = 58.58752 125.96284 44.19817
#
# Poissons Ratio (x) = 0.39250 0.36867
# Poissons Ratio (y) = 0.18256 0.08447
# Poissons Ratio (z) = 0.48870 0.24074
#
# Static dielectric constant tensor:
#      x y z
#    x 3.795610 0.000000 0.000000 
#    y 0.000000 4.094990 0.000000 
#    z 0.000000 0.000000 4.162070 
# 
# 
# High freq. dielectric constant tensor:
#      x y z
#    x 1.850510 0.000000 0.000000 
#    y 0.000000 1.866090 0.000000 
#    z 0.000000 0.000000 1.867600 
# 
# From -- ./inp_files/19188.got.cif
#   From: 2010.03.12/outbox.cif.g09.slc.cpg/sg20_10_cif.got.tgz:19188.got - 2010.04.14 01:38:04.
