data_PCOD8159406
_publ_section_title
;
Structure prediction by ZEFSAII (Michael W. Deem and Ramdas Pophale) SiO2 
 PCOD8159406
Probable space group: C 2 2 21
;
_chemical_formula_sum "Si O2"
_cell_formula_units_Z 48
_cell_length_a 27.273488
_cell_length_b 5.362725
_cell_length_c 14.488215
_cell_angle_alpha 90.000000
_cell_angle_beta 90.000000
_cell_angle_gamma 90.000000
_cell_volume 2119.049454
_symmetry_space_group_name_H-M "C 2 2 21"
_symmetry_group_IT_number 20
_symmetry_cell_setting 'orthorhombic'
loop_
_space_group_symop_operation_xyz
x,y,z
-x,-y,1/2+z
x,-y,-z
-x,y,1/2-z
1/2+x,1/2+y,z
1/2-x,1/2-y,1/2+z
1/2+x,1/2-y,-z
1/2-x,1/2+y,1/2-z
loop_
_atom_site_type_symbol
_atom_site_label
_atom_site_fract_x
_atom_site_fract_y
_atom_site_fract_z
Si Si1 0.355027 0.248279 0.651523
Si Si2 0.251477 0.281820 0.191664
Si Si3 0.657049 0.245748 0.441384
Si Si4 0.000000 0.786174 0.750000
Si Si5 0.933656 0.127432 0.637170
Si Si6 0.411423 0.013403 0.202970
Si Si7 0.584959 0.000000 0.000000
O O1 0.297377 0.267772 0.632060
O O2 0.378800 0.515161 0.629517
O O3 0.366980 0.159208 0.756947
O O4 0.379860 0.047650 0.585841
O O5 0.243159 0.548381 0.240144
O O6 0.298438 0.306518 0.126866
O O7 0.646638 0.500000 0.500000
O O8 0.671385 0.000000 0.500000
O O9 0.607969 0.171249 0.384491
O O10 0.040058 0.649451 0.684451
O O11 0.026540 0.922215 0.835578
O O12 0.934800 0.310321 0.721793
O O13 0.946746 0.264200 0.538350
#
# Coordination Sequence:
#
# PCOD8159406 Si02
#       7
#     8   8   8   4   8   8   4
#     4  10  22  39  69  98 145 183 239 300 368 427
#     4  12  25  45  73 109 141 201 257 293 359 443
#     4  12  28  46  73 108 157 198 245 307 368 445
#     4  10  22  40  82  98 130 192 254 298 364 472
#     4  10  21  41  72  99 137 183 239 303 377 440
#     4  10  22  45  71 102 133 192 244 300 374 436
#     4  10  22  38  64 108 136 186 226 318 372 428
#
# _framework density 22.651662999999999
#
# number of rings (size 3 to 8) (size 9 to 14) (size 15 to 20)
#    0.000    1.333    1.667    3.000    8.167    1.333 
#    0.000    0.000   44.000    0.000    0.000    0.000 
#    0.000    0.000    0.000    0.000    0.000    0.000 
#
# Total GULP energy -297320.497942 kJ/mol
# GULP energy per Si atom -12388.354081 kJ/mol
# Density = 2.260011 g / cm^3
# Si number density = 22.651663 Si / 1000 Ang^3
#
#
#
# Elastic Constant Matrix: (Units=GPa)
#
#
# Indices 1 2 3 4 5 6 
#
# 1 147.9789 46.6907 54.6300 0.0000 0.0000 0.0000
# 2 46.6907 135.8306 54.5123 0.0000 0.0000 0.0000
# 3 54.6300 54.5123 108.3884 0.0000 0.0000 0.0000
# 4 0.0000 0.0000 0.0000 46.2281 0.0000 0.0000
# 5 0.0000 0.0000 0.0000 0.0000 12.6719 0.0000
# 6 0.0000 0.0000 0.0000 0.0000 0.0000 -19.7947
#
#
#
# Elastic Compliance Matrix: (Units=1/GPa)
#
#
# Indices 1 2 3 4 5 6 
#
# 1 0.008544 -0.001514 -0.003545 0.000000 0.000000 0.000000
# 2 -0.001514 0.009492 -0.004011 0.000000 0.000000 0.000000
# 3 -0.003545 -0.004011 0.013030 0.000000 0.000000 0.000000
# 4 0.000000 0.000000 0.000000 0.021632 0.000000 0.000000
# 5 0.000000 0.000000 0.000000 0.000000 0.078915 0.000000
# 6 0.000000 0.000000 0.000000 0.000000 0.000000 -0.050519
#
#
# Mechanical properties :
#
#
# Convention : Reuss Voigt Hill
#
# Bulk Modulus (GPa) = 77.36037 78.20710 77.78373
# Shear Modulus (GPa) = 48.28914 23.57872 35.93393
#
# Velocity S-wave (km/s) = 4.62217 3.22984 3.98725
# Velocity P-wave (km/s) = 7.91910 6.96492 7.45729
#
# Compressibility (1/GPa) = 0.01292652
#
# Stress axis : x y z
#
# Youngs Moduli (GPa) = 117.03851 105.34894 76.74681
#
# Poissons Ratio (x) = 0.15954 0.27205
# Poissons Ratio (y) = 0.17724 0.30781
# Poissons Ratio (z) = 0.41488 0.42252
#
# Static dielectric constant tensor:
#      x y z
#    x 4.039120 0.000000 0.000000 
#    y 0.000000 4.796360 0.000000 
#    z 0.000000 0.000000 4.316970 
# 
# 
# High freq. dielectric constant tensor:
#      x y z
#    x 1.886810 0.000000 0.000000 
#    y 0.000000 1.919440 0.000000 
#    z 0.000000 0.000000 1.879220 
# 
# From -- ./inp_files/22181.got.cif
#   From: 2010.03.12/outbox.cif.g09.slc.cpg/sg20_12_cif.got.tgz:22181.got - 2010.04.14 01:38:04.
