data_PCOD8159508
_publ_section_title
;
Structure prediction by ZEFSAII (Michael W. Deem and Ramdas Pophale) SiO2 
 PCOD8159508
Probable space group: C 2 2 21
;
_chemical_formula_sum "Si O2"
_cell_formula_units_Z 48
_cell_length_a 11.487549
_cell_length_b 9.501437
_cell_length_c 21.162858
_cell_angle_alpha 90.000000
_cell_angle_beta 90.000000
_cell_angle_gamma 90.000000
_cell_volume 2309.888347
_symmetry_space_group_name_H-M "C 2 2 21"
_symmetry_group_IT_number 20
_symmetry_cell_setting 'orthorhombic'
loop_
_space_group_symop_operation_xyz
x,y,z
-x,-y,1/2+z
x,-y,-z
-x,y,1/2-z
1/2+x,1/2+y,z
1/2-x,1/2-y,1/2+z
1/2+x,1/2-y,-z
1/2-x,1/2+y,1/2-z
loop_
_atom_site_type_symbol
_atom_site_label
_atom_site_fract_x
_atom_site_fract_y
_atom_site_fract_z
Si Si1 0.465841 0.391749 0.318234
Si Si2 0.152688 0.262526 0.073080
Si Si3 0.965331 0.500000 0.500000
Si Si4 0.788950 0.413145 0.132683
Si Si5 0.596573 0.824671 0.601125
Si Si6 0.191817 0.000000 0.000000
Si Si7 0.521811 0.704581 0.321817
O O1 0.500000 0.329896 0.250000
O O2 0.327978 0.415758 0.325890
O O3 0.501249 0.277648 0.369811
O O4 0.537120 0.536502 0.327011
O O5 0.291047 0.264942 0.081173
O O6 0.092220 0.251544 0.140732
O O7 0.118098 0.411081 0.044757
O O8 0.114851 0.126220 0.030239
O O9 0.044170 0.391956 0.538263
O O10 0.865618 0.551540 0.150421
O O11 0.861989 0.273427 0.148472
O O12 0.767135 0.429135 0.056932
O O13 0.500000 0.752781 0.250000
#
# Coordination Sequence:
#
# PCOD8159508 Si02
#       7
#     8   8   4   8   8   4   8
#     4  11  26  44  69 100 132 180 228 274 341 408
#     4  11  24  43  69  98 135 173 223 279 332 408
#     4  12  25  44  67 100 134 177 224 273 352 398
#     4  11  23  45  69  96 140 174 221 287 337 400
#     4  11  24  44  66  98 134 173 221 280 336 405
#     4  10  21  44  71  94 138 175 216 281 344 388
#     4  11  25  45  68  97 137 181 222 278 340 398
#
# _framework density 20.780225999999999
#
# number of rings (size 3 to 8) (size 9 to 14) (size 15 to 20)
#    0.000    1.000    5.000    3.000    2.333    3.333 
#    0.000    0.000    0.000    0.000    0.000    0.000 
#    0.000    0.000    0.000    0.000    0.000    0.000 
#
# Total GULP energy -297539.910497 kJ/mol
# GULP energy per Si atom -12397.496271 kJ/mol
# Density = 2.073293 g / cm^3
# Si number density = 20.780226 Si / 1000 Ang^3
#
#
#
# Elastic Constant Matrix: (Units=GPa)
#
#
# Indices 1 2 3 4 5 6 
#
# 1 95.8505 48.8902 35.2364 0.0000 0.0000 0.0000
# 2 48.8902 88.9557 54.7252 0.0000 0.0000 0.0000
# 3 35.2364 54.7252 126.9772 0.0000 0.0000 0.0000
# 4 0.0000 0.0000 0.0000 39.9713 0.0000 0.0000
# 5 0.0000 0.0000 0.0000 0.0000 22.5990 0.0000
# 6 0.0000 0.0000 0.0000 0.0000 0.0000 17.8853
#
#
#
# Elastic Compliance Matrix: (Units=1/GPa)
#
#
# Indices 1 2 3 4 5 6 
#
# 1 0.014557 -0.007505 -0.000805 0.000000 0.000000 0.000000
# 2 -0.007505 0.019167 -0.006178 0.000000 0.000000 0.000000
# 3 -0.000805 -0.006178 0.010761 0.000000 0.000000 0.000000
# 4 0.000000 0.000000 0.000000 0.025018 0.000000 0.000000
# 5 0.000000 0.000000 0.000000 0.000000 0.044250 0.000000
# 6 0.000000 0.000000 0.000000 0.000000 0.000000 0.055912
#
#
# Mechanical properties :
#
#
# Convention : Reuss Voigt Hill
#
# Bulk Modulus (GPa) = 64.47840 65.49854 64.98847
# Shear Modulus (GPa) = 24.53247 27.61989 26.07618
#
# Velocity S-wave (km/s) = 3.43967 3.64970 3.54624
# Velocity P-wave (km/s) = 6.84625 7.02485 6.93612
#
# Compressibility (1/GPa) = 0.01550907
#
# Stress axis : x y z
#
# Youngs Moduli (GPa) = 68.69504 52.17236 92.92460
#
# Poissons Ratio (x) = 0.39158 0.07479
# Poissons Ratio (y) = 0.51559 0.57409
# Poissons Ratio (z) = 0.05529 0.32232
#
# Static dielectric constant tensor:
#      x y z
#    x 3.701680 0.000000 0.000000 
#    y 0.000000 4.029480 0.000000 
#    z 0.000000 0.000000 3.823200 
# 
# 
# High freq. dielectric constant tensor:
#      x y z
#    x 1.809080 0.000000 0.000000 
#    y 0.000000 1.818230 0.000000 
#    z 0.000000 0.000000 1.813150 
# 
# From -- ./inp_files/29105.got.cif
#   From: 2010.03.12/outbox.cif.g09.slc.cpg/sg20_15_cif.got.tgz:29105.got - 2010.04.14 01:38:04.
