data_PCOD8159983
_publ_section_title
;
Structure prediction by ZEFSAII (Michael W. Deem and Ramdas Pophale) SiO2 
 PCOD8159983
Probable space group: C 2 2 21
;
_chemical_formula_sum "Si O2"
_cell_formula_units_Z 64
_cell_length_a 30.910622
_cell_length_b 11.891570
_cell_length_c 8.701412
_cell_angle_alpha 90.000000
_cell_angle_beta 90.000000
_cell_angle_gamma 90.000000
_cell_volume 3198.428697
_symmetry_space_group_name_H-M "C 2 2 21"
_symmetry_group_IT_number 20
_symmetry_cell_setting 'orthorhombic'
loop_
_space_group_symop_operation_xyz
x,y,z
-x,-y,1/2+z
x,-y,-z
-x,y,1/2-z
1/2+x,1/2+y,z
1/2-x,1/2-y,1/2+z
1/2+x,1/2-y,-z
1/2-x,1/2+y,1/2-z
loop_
_atom_site_type_symbol
_atom_site_label
_atom_site_fract_x
_atom_site_fract_y
_atom_site_fract_z
Si Si1 0.703242 0.768991 0.181941
Si Si2 0.066399 0.500000 0.183016
Si Si3 0.956565 0.265672 0.182222
Si Si4 0.335842 0.000000 0.682232
Si Si5 0.872382 0.870023 0.819964
Si Si6 0.456565 0.765672 0.817778
Si Si7 0.296758 0.231009 0.318059
Si Si8 0.372382 0.370023 0.180036
O O1 0.687518 0.889259 0.246648
O O2 0.670247 0.672575 0.233842
O O3 0.750000 0.750000 0.250000
O O4 0.706034 0.768509 1.000000
O O5 0.043687 0.390905 0.251050
O O6 0.115476 0.500000 0.242998
O O7 0.043687 0.609095 0.251050
O O8 0.062606 0.500000 0.000000
O O9 0.914603 0.196845 0.239398
O O10 0.000000 0.207200 0.250000
O O11 0.958874 0.267489 0.000000
O O12 0.335213 0.000000 0.500000
O O13 0.312482 0.889259 0.746648
O O14 0.879262 0.000000 0.779077
O O15 0.865322 0.851323 1.000000
O O16 0.500000 0.707200 0.750000
O O17 0.414603 0.696845 0.760602
O O18 0.329753 0.327425 0.266158
#
# Coordination Sequence:
#
# PCOD8159983 Si02
#       8
#     8   8   8   8   8   8   8   8
#     4  11  23  41  63  92 123 159 201 246 299 359
#     4  11  20  38  63  89 122 158 198 247 301 355
#     4  11  23  39  61  90 121 157 200 247 300 360
#     4   9  20  38  62  87 121 158 193 243 302 349
#     4  10  23  43  63  86 120 160 201 250 302 353
#     4  11  23  39  61  90 121 157 200 247 300 360
#     4  11  23  41  63  92 123 159 201 246 299 359
#     4  10  23  43  63  86 120 160 201 250 302 353
#
# _framework density 20.009824999999999
#
# number of rings (size 3 to 8) (size 9 to 14) (size 15 to 20)
#    0.000    1.500    2.500    2.250    1.750    2.000 
#    0.000    1.875    0.000    0.000    0.000    0.000 
#    0.000    0.000    0.000    0.000    0.000    0.000 
#
# Total GULP energy -396919.781837 kJ/mol
# GULP energy per Si atom -12403.743182 kJ/mol
# Density = 1.996428 g / cm^3
# Si number density = 20.009825 Si / 1000 Ang^3
#
#
#
# Elastic Constant Matrix: (Units=GPa)
#
#
# Indices 1 2 3 4 5 6 
#
# 1 178.9630 51.8953 46.0671 0.0000 0.0000 0.0000
# 2 51.8953 111.7990 32.4249 0.0000 0.0000 0.0000
# 3 46.0671 32.4249 65.8606 0.0000 0.0000 0.0000
# 4 0.0000 0.0000 0.0000 25.0866 0.0000 0.0000
# 5 0.0000 0.0000 0.0000 0.0000 38.7993 0.0000
# 6 0.0000 0.0000 0.0000 0.0000 0.0000 25.2123
#
#
#
# Elastic Compliance Matrix: (Units=1/GPa)
#
#
# Indices 1 2 3 4 5 6 
#
# 1 0.007255 -0.002212 -0.003986 0.000000 0.000000 0.000000
# 2 -0.002212 0.011109 -0.003922 0.000000 0.000000 0.000000
# 3 -0.003986 -0.003922 0.019902 0.000000 0.000000 0.000000
# 4 0.000000 0.000000 0.000000 0.039862 0.000000 0.000000
# 5 0.000000 0.000000 0.000000 0.000000 0.025774 0.000000
# 6 0.000000 0.000000 0.000000 0.000000 0.000000 0.039663
#
#
# Mechanical properties :
#
#
# Convention : Reuss Voigt Hill
#
# Bulk Modulus (GPa) = 55.47209 68.59968 62.03588
# Shear Modulus (GPa) = 29.44410 32.90200 31.17305
#
# Velocity S-wave (km/s) = 3.84015 4.05939 3.95129
# Velocity P-wave (km/s) = 6.88803 7.50526 7.20326
#
# Compressibility (1/GPa) = 0.01802708
#
# Stress axis : x y z
#
# Youngs Moduli (GPa) = 137.83447 90.01875 50.24502
#
# Poissons Ratio (x) = 0.19909 0.20027
# Poissons Ratio (y) = 0.30485 0.19707
# Poissons Ratio (z) = 0.54938 0.35307
#
# Static dielectric constant tensor:
#      x y z
#    x 3.870710 0.000000 0.000000 
#    y 0.000000 4.075520 0.000000 
#    z 0.000000 0.000000 3.496950 
# 
# 
# High freq. dielectric constant tensor:
#      x y z
#    x 1.802630 0.000000 0.000000 
#    y 0.000000 1.782390 0.000000 
#    z 0.000000 0.000000 1.772640 
# 
# From -- ./inp_files/11610.got.cif
#   From: 2010.03.12/outbox.cif.g09.slc.cpg/sg20_6_cif.got.tgz:11610.got - 2010.04.14 01:38:04.
