data_PCOD8159745
_publ_section_title
;
Structure prediction by ZEFSAII (Michael W. Deem and Ramdas Pophale) SiO2 
 PCOD8159745
Probable space group: C 2 2 21
;
_chemical_formula_sum "Si O2"
_cell_formula_units_Z 48
_cell_length_a 9.581517
_cell_length_b 9.616943
_cell_length_c 26.781229
_cell_angle_alpha 90.000000
_cell_angle_beta 90.000000
_cell_angle_gamma 90.000000
_cell_volume 2467.753744
_symmetry_space_group_name_H-M "C 2 2 21"
_symmetry_group_IT_number 20
_symmetry_cell_setting 'orthorhombic'
loop_
_space_group_symop_operation_xyz
x,y,z
-x,-y,1/2+z
x,-y,-z
-x,y,1/2-z
1/2+x,1/2+y,z
1/2-x,1/2-y,1/2+z
1/2+x,1/2-y,-z
1/2-x,1/2+y,1/2-z
loop_
_atom_site_type_symbol
_atom_site_label
_atom_site_fract_x
_atom_site_fract_y
_atom_site_fract_z
Si Si1 0.207671 0.517801 0.056405
Si Si2 0.977795 0.018219 0.442408
Si Si3 0.361384 0.836318 0.718383
Si Si4 0.645208 0.153815 0.778238
Si Si5 0.523252 0.229118 0.114093
Si Si6 0.794748 0.236721 0.383803
O O1 0.364826 0.579763 0.059914
O O2 0.091533 0.615210 0.079235
O O3 0.204007 0.370688 0.082352
O O4 0.161090 0.500000 0.000000
O O5 0.875568 0.119459 0.413594
O O6 0.930618 0.000000 0.500000
O O7 0.967547 0.873868 0.413877
O O8 0.500000 0.841919 0.750000
O O9 0.253017 0.735426 0.744318
O O10 0.390724 0.766373 0.665223
O O11 0.303249 0.994536 0.712825
O O12 0.500000 0.157307 0.750000
O O13 0.630573 0.231481 0.831199
O O14 0.363700 0.186411 0.125786
#
# Coordination Sequence:
#
# PCOD8159745 Si02
#       6
#     8   8   8   8   8   8
#     4  10  22  42  64  89 125 165 209 259 314 370
#     4  10  24  41  62  94 127 162 209 257 308 372
#     4  11  24  44  62  91 127 157 210 258 311 372
#     4  11  26  40  63  92 121 163 207 257 309 374
#     4  11  23  39  65  91 122 166 201 258 314 366
#     4  11  23  41  62  93 126 158 210 256 308 376
#
# _framework density 19.450887000000002
#
# number of rings (size 3 to 8) (size 9 to 14) (size 15 to 20)
#    0.000    1.333    3.333    1.000    4.667    2.667 
#    0.000    0.000    0.000    0.000    0.000    0.000 
#    0.000    0.000    0.000    0.000    0.000    0.000 
#
# Total GULP energy -297652.548491 kJ/mol
# GULP energy per Si atom -12402.189520 kJ/mol
# Density = 1.940662 g / cm^3
# Si number density = 19.450887 Si / 1000 Ang^3
#
#
#
# Elastic Constant Matrix: (Units=GPa)
#
#
# Indices 1 2 3 4 5 6 
#
# 1 86.8212 53.5613 50.3602 0.0000 0.0000 0.0000
# 2 53.5613 90.3490 48.0070 0.0000 0.0000 0.0000
# 3 50.3602 48.0070 166.5382 0.0000 0.0000 0.0000
# 4 0.0000 0.0000 0.0000 38.0354 0.0000 0.0000
# 5 0.0000 0.0000 0.0000 0.0000 39.0936 0.0000
# 6 0.0000 0.0000 0.0000 0.0000 0.0000 25.7821
#
#
#
# Elastic Compliance Matrix: (Units=1/GPa)
#
#
# Indices 1 2 3 4 5 6 
#
# 1 0.019354 -0.009877 -0.003006 0.000000 0.000000 0.000000
# 2 -0.009877 0.018110 -0.002234 0.000000 0.000000 0.000000
# 3 -0.003006 -0.002234 0.007557 0.000000 0.000000 0.000000
# 4 0.000000 0.000000 0.000000 0.026291 0.000000 0.000000
# 5 0.000000 0.000000 0.000000 0.000000 0.025580 0.000000
# 6 0.000000 0.000000 0.000000 0.000000 0.000000 0.038787
#
#
# Mechanical properties :
#
#
# Convention : Reuss Voigt Hill
#
# Bulk Modulus (GPa) = 67.61427 71.95171 69.78299
# Shear Modulus (GPa) = 29.26675 33.36755 31.31715
#
# Velocity S-wave (km/s) = 3.88319 4.14632 4.01691
# Velocity P-wave (km/s) = 7.41232 7.74561 7.58080
#
# Compressibility (1/GPa) = 0.01478978
#
# Stress axis : x y z
#
# Youngs Moduli (GPa) = 51.66768 55.21683 132.32008
#
# Poissons Ratio (x) = 0.54537 0.39769
# Poissons Ratio (y) = 0.51031 0.29559
# Poissons Ratio (z) = 0.15529 0.12335
#
# Static dielectric constant tensor:
#      x y z
#    x 3.630020 0.000000 0.000000 
#    y 0.000000 3.575890 0.000000 
#    z 0.000000 0.000000 3.865230 
# 
# 
# High freq. dielectric constant tensor:
#      x y z
#    x 1.759950 0.000000 0.000000 
#    y 0.000000 1.759900 0.000000 
#    z 0.000000 0.000000 1.783310 
# 
# From -- ./inp_files/30940.got.cif
#   From: 2010.03.12/outbox.cif.g09.slc.cpg/sg20_16_cif.got.tgz:30940.got - 2010.04.14 01:38:04.
