data_PCOD8159231
_publ_section_title
;
Structure prediction by ZEFSAII (Michael W. Deem and Ramdas Pophale) SiO2 
 PCOD8159231
Probable space group: C 2 2 21
;
_chemical_formula_sum "Si O2"
_cell_formula_units_Z 56
_cell_length_a 11.664634
_cell_length_b 12.415355
_cell_length_c 18.675047
_cell_angle_alpha 90.000000
_cell_angle_beta 90.000000
_cell_angle_gamma 90.000000
_cell_volume 2704.530990
_symmetry_space_group_name_H-M "C 2 2 21"
_symmetry_group_IT_number 20
_symmetry_cell_setting 'orthorhombic'
loop_
_space_group_symop_operation_xyz
x,y,z
-x,-y,1/2+z
x,-y,-z
-x,y,1/2-z
1/2+x,1/2+y,z
1/2-x,1/2-y,1/2+z
1/2+x,1/2-y,-z
1/2-x,1/2+y,1/2-z
loop_
_atom_site_type_symbol
_atom_site_label
_atom_site_fract_x
_atom_site_fract_y
_atom_site_fract_z
Si Si1 0.944692 0.500000 0.000000
Si Si2 0.766747 0.963516 0.811853
Si Si3 0.956722 0.567405 0.642136
Si Si4 0.440874 0.687198 0.381973
Si Si5 0.808254 0.692875 0.059751
Si Si6 0.000000 0.953419 0.750000
Si Si7 0.901403 0.621948 0.203190
Si Si8 0.650696 0.387984 0.539737
O O1 0.860202 0.398678 0.991160
O O2 0.034586 0.519807 0.937153
O O3 0.888986 0.016175 0.784507
O O4 0.715193 0.886737 0.749455
O O5 0.784247 0.891516 0.883515
O O6 0.673385 0.054965 0.828978
O O7 0.980501 0.693752 0.641749
O O8 0.052245 0.500332 0.686625
O O9 0.318623 0.667785 0.416122
O O10 0.445603 0.617873 0.311219
O O11 0.521035 0.645535 0.445490
O O12 0.884222 0.694864 0.132638
O O13 0.798157 0.803411 0.016534
O O14 0.000000 0.681005 0.250000
O O15 0.655873 0.500000 0.500000
#
# Coordination Sequence:
#
# PCOD8159231 Si02
#       8
#     4   8   8   8   8   4   8   8
#     4  10  22  40  62 102 126 166 230 282 328 390
#     4  10  21  40  64  93 134 174 221 272 329 402
#     4  10  21  38  68  96 124 173 224 278 332 388
#     4  11  23  39  67  91 130 173 220 274 335 407
#     4  11  22  41  68  94 136 174 222 278 342 390
#     4  10  22  40  58  90 132 174 216 268 334 412
#     4   9  20  39  67  97 131 166 226 285 327 392
#     4  11  25  42  62  96 134 178 220 270 338 408
#
# _framework density 20.705994
#
# number of rings (size 3 to 8) (size 9 to 14) (size 15 to 20)
#    0.000    1.714    2.857    0.857    7.000    1.143 
#    0.000    0.000   14.143    0.000    0.000    0.000 
#    0.000    0.000    0.000    0.000    0.000    0.000 
#
# Total GULP energy -346937.132735 kJ/mol
# GULP energy per Si atom -12390.611883 kJ/mol
# Density = 2.065887 g / cm^3
# Si number density = 20.705994 Si / 1000 Ang^3
#
#
#
# Elastic Constant Matrix: (Units=GPa)
#
#
# Indices 1 2 3 4 5 6 
#
# 1 129.2343 19.7369 49.4871 0.0000 0.0000 0.0000
# 2 19.7369 75.7087 27.3020 0.0000 0.0000 0.0000
# 3 49.4871 27.3020 123.3254 0.0000 0.0000 0.0000
# 4 0.0000 0.0000 0.0000 20.8157 0.0000 0.0000
# 5 0.0000 0.0000 0.0000 0.0000 38.1207 0.0000
# 6 0.0000 0.0000 0.0000 0.0000 0.0000 22.6493
#
#
#
# Elastic Compliance Matrix: (Units=1/GPa)
#
#
# Indices 1 2 3 4 5 6 
#
# 1 0.009236 -0.001164 -0.003448 0.000000 0.000000 0.000000
# 2 -0.001164 0.014501 -0.002743 0.000000 0.000000 0.000000
# 3 -0.003448 -0.002743 0.010100 0.000000 0.000000 0.000000
# 4 0.000000 0.000000 0.000000 0.048041 0.000000 0.000000
# 5 0.000000 0.000000 0.000000 0.000000 0.026232 0.000000
# 6 0.000000 0.000000 0.000000 0.000000 0.000000 0.044151
#
#
# Mechanical properties :
#
#
# Convention : Reuss Voigt Hill
#
# Bulk Modulus (GPa) = 52.28645 57.92450 55.10548
# Shear Modulus (GPa) = 28.84360 31.76663 30.30511
#
# Velocity S-wave (km/s) = 3.73635 3.92110 3.82984
# Velocity P-wave (km/s) = 6.62725 6.96675 6.79912
#
# Compressibility (1/GPa) = 0.01912541
#
# Stress axis : x y z
#
# Youngs Moduli (GPa) = 108.26957 68.95946 99.01290
#
# Poissons Ratio (x) = 0.08029 0.34144
# Poissons Ratio (y) = 0.12605 0.27161
# Poissons Ratio (z) = 0.37337 0.18917
#
# Static dielectric constant tensor:
#      x y z
#    x 3.965270 0.000000 0.000000 
#    y 0.000000 3.452480 0.000000 
#    z 0.000000 0.000000 4.135160 
# 
# 
# High freq. dielectric constant tensor:
#      x y z
#    x 1.822980 0.000000 0.000000 
#    y 0.000000 1.770470 0.000000 
#    z 0.000000 0.000000 1.839120 
# 
# From -- ./inp_files/27226.got.cif
#   From: 2010.03.12/outbox.cif.g09.slc.cpg/sg20_14_cif.got.tgz:27226.got - 2010.04.14 01:38:04.
