data_PCOD8159280
_publ_section_title
;
Structure prediction by ZEFSAII (Michael W. Deem and Ramdas Pophale) SiO2 
 PCOD8159280
Probable space group: C 2 2 21
;
_chemical_formula_sum "Si O2"
_cell_formula_units_Z 40
_cell_length_a 23.846559
_cell_length_b 7.875202
_cell_length_c 9.019476
_cell_angle_alpha 90.000000
_cell_angle_beta 90.000000
_cell_angle_gamma 90.000000
_cell_volume 1693.825746
_symmetry_space_group_name_H-M "C 2 2 21"
_symmetry_group_IT_number 20
_symmetry_cell_setting 'orthorhombic'
loop_
_space_group_symop_operation_xyz
x,y,z
-x,-y,1/2+z
x,-y,-z
-x,y,1/2-z
1/2+x,1/2+y,z
1/2-x,1/2-y,1/2+z
1/2+x,1/2-y,-z
1/2-x,1/2+y,1/2-z
loop_
_atom_site_type_symbol
_atom_site_label
_atom_site_fract_x
_atom_site_fract_y
_atom_site_fract_z
Si Si1 0.752487 0.520494 0.333845
Si Si2 0.556733 0.189586 0.830945
Si Si3 0.832622 0.681431 0.832739
Si Si4 0.555657 0.212426 0.170211
Si Si5 0.146520 0.157855 0.613060
O O1 0.776853 0.500000 0.500000
O O2 0.807182 0.498142 0.226668
O O3 0.720420 0.695459 0.305982
O O4 0.706263 0.371920 0.309439
O O5 0.500000 0.253783 0.750000
O O6 0.613865 0.256376 0.756674
O O7 0.561879 0.988005 0.815309
O O8 0.554267 0.260959 0.997447
O O9 0.850404 0.674840 0.006088
O O10 0.500000 0.276796 0.250000
O O11 0.603825 0.314821 0.253959
O O12 0.132708 0.000000 0.500000
#
# Coordination Sequence:
#
# PCOD8159280 Si02
#       5
#     8   8   8   8   8
#     4   9  22  40  59  93 129 167 213 265 321 384
#     4  10  22  38  65  98 128 164 215 267 330 392
#     4  10  21  40  65  91 128 170 212 269 322 390
#     4  10  21  39  65  93 129 169 212 273 324 387
#     4   9  21  42  60  88 133 172 217 267 323 391
#
# _framework density 23.615181
#
# number of rings (size 3 to 8) (size 9 to 14) (size 15 to 20)
#    0.000    2.800    0.000    1.200    5.600    4.000 
#    3.600   20.000    0.000    0.000    0.000    0.000 
#    0.000    0.000    0.000    0.000    0.000    0.000 
#
# Total GULP energy -247800.526953 kJ/mol
# GULP energy per Si atom -12390.026348 kJ/mol
# Density = 2.356143 g / cm^3
# Si number density = 23.615181 Si / 1000 Ang^3
#
#
#
# Elastic Constant Matrix: (Units=GPa)
#
#
# Indices 1 2 3 4 5 6 
#
# 1 127.3138 8.9649 87.8576 0.0000 0.0000 0.0000
# 2 8.9649 7.8495 10.8168 0.0000 0.0000 0.0000
# 3 87.8576 10.8168 162.5119 0.0000 0.0000 0.0000
# 4 0.0000 0.0000 0.0000 32.4614 0.0000 0.0000
# 5 0.0000 0.0000 0.0000 0.0000 52.3501 0.0000
# 6 0.0000 0.0000 0.0000 0.0000 0.0000 -1.1638
#
#
#
# Elastic Compliance Matrix: (Units=1/GPa)
#
#
# Indices 1 2 3 4 5 6 
#
# 1 0.012746 -0.005573 -0.006520 0.000000 0.000000 0.000000
# 2 -0.005573 0.142698 -0.006485 0.000000 0.000000 0.000000
# 3 -0.006520 -0.006485 0.010110 0.000000 0.000000 0.000000
# 4 0.000000 0.000000 0.000000 0.030806 0.000000 0.000000
# 5 0.000000 0.000000 0.000000 0.000000 0.019102 0.000000
# 6 0.000000 0.000000 0.000000 0.000000 0.000000 -0.859260
#
#
# Mechanical properties :
#
#
# Convention : Reuss Voigt Hill
#
# Bulk Modulus (GPa) = 7.78828 56.99487 32.39157
# Shear Modulus (GPa) = -8.86774 29.39859 10.26543
#
# Velocity S-wave (km/s) = -1.93991 3.53214 2.08720
# Velocity P-wave (km/s) = 1.30863 6.38921 4.42207
#
# Compressibility (1/GPa) = 0.12839812
#
# Stress axis : x y z
#
# Youngs Moduli (GPa) = 78.45308 7.00781 98.91241
#
# Poissons Ratio (x) = 0.03905 0.64492
# Poissons Ratio (y) = 0.43721 0.64146
# Poissons Ratio (z) = 0.51152 0.04545
#
# Static dielectric constant tensor:
#      x y z
#    x 4.279030 0.000000 0.000000 
#    y 0.000000 3.974610 0.000000 
#    z 0.000000 0.000000 4.293110 
# 
# 
# High freq. dielectric constant tensor:
#      x y z
#    x 1.942700 0.000000 0.000000 
#    y 0.000000 1.920790 0.000000 
#    z 0.000000 0.000000 1.938110 
# 
# From -- ./inp_files/10512.got.cif
#   From: 2010.03.12/outbox.cif.g09.slc.cpg/sg20_6_cif.got.tgz:10512.got - 2010.04.14 01:38:04.
