data_PCOD8159203
_publ_section_title
;
Structure prediction by ZEFSAII (Michael W. Deem and Ramdas Pophale) SiO2 
 PCOD8159203
Probable space group: C 2 2 21
;
_chemical_formula_sum "Si O2"
_cell_formula_units_Z 56
_cell_length_a 19.650368
_cell_length_b 11.168149
_cell_length_c 12.096837
_cell_angle_alpha 90.000000
_cell_angle_beta 90.000000
_cell_angle_gamma 90.000000
_cell_volume 2654.750530
_symmetry_space_group_name_H-M "C 2 2 21"
_symmetry_group_IT_number 20
_symmetry_cell_setting 'orthorhombic'
loop_
_space_group_symop_operation_xyz
x,y,z
-x,-y,1/2+z
x,-y,-z
-x,y,1/2-z
1/2+x,1/2+y,z
1/2-x,1/2-y,1/2+z
1/2+x,1/2-y,-z
1/2-x,1/2+y,1/2-z
loop_
_atom_site_type_symbol
_atom_site_label
_atom_site_fract_x
_atom_site_fract_y
_atom_site_fract_z
Si Si1 0.524674 0.246617 0.480869
Si Si2 0.917690 0.000000 0.000000
Si Si3 0.375036 0.927708 0.888424
Si Si4 0.299795 0.000000 0.500000
Si Si5 0.309861 0.398164 0.840387
Si Si6 0.606581 0.823113 0.309646
Si Si7 0.775290 0.097068 0.404552
Si Si8 0.115144 0.289702 0.069324
O O1 0.535822 0.387990 0.464839
O O2 0.564398 0.171657 0.384602
O O3 0.549090 0.202312 0.600657
O O4 0.443505 0.223541 0.476252
O O5 0.872925 0.969147 0.892996
O O6 0.302698 0.857867 0.885023
O O7 0.378818 0.033565 0.797042
O O8 0.383290 0.000000 0.000000
O O9 0.256359 0.921205 0.585784
O O10 0.349676 0.917614 0.430276
O O11 0.325317 0.254334 0.841363
O O12 0.301151 0.448116 0.715584
O O13 0.581757 0.774226 0.190844
O O14 0.824167 0.197663 0.452761
O O15 0.774862 0.000000 0.500000
#
# Coordination Sequence:
#
# PCOD8159203 Si02
#       8
#     8   4   8   4   8   8   8   8
#     4  10  21  38  61  89 123 170 208 252 311 384
#     4   9  20  38  66  88 125 164 208 250 309 386
#     4   9  19  34  62  85 115 156 205 252 302 373
#     4  11  24  36  60  94 131 156 200 264 321 364
#     4   9  20  39  63  92 119 160 204 260 316 375
#     4   9  19  39  63  87 116 165 214 247 310 379
#     4  10  22  39  64  91 120 158 209 262 313 372
#     4  11  24  37  59  92 125 163 204 264 313 374
#
# _framework density 21.094260999999999
#
# number of rings (size 3 to 8) (size 9 to 14) (size 15 to 20)
#    0.000    2.286    0.000    1.286   14.000    0.000 
#    0.000    1.429    0.000    3.429    0.000    0.000 
#    0.000    0.000    0.000    0.000    0.000    0.000 
#
# Total GULP energy -346959.477698 kJ/mol
# GULP energy per Si atom -12391.409918 kJ/mol
# Density = 2.104625 g / cm^3
# Si number density = 21.094261 Si / 1000 Ang^3
#
#
#
# Elastic Constant Matrix: (Units=GPa)
#
#
# Indices 1 2 3 4 5 6 
#
# 1 133.2296 70.1573 20.3529 0.0000 0.0000 0.0000
# 2 70.1573 131.6315 25.7124 0.0000 0.0000 0.0000
# 3 20.3529 25.7124 67.1254 0.0000 0.0000 0.0000
# 4 0.0000 0.0000 0.0000 23.7771 0.0000 0.0000
# 5 0.0000 0.0000 0.0000 0.0000 21.2570 0.0000
# 6 0.0000 0.0000 0.0000 0.0000 0.0000 101.3595
#
#
#
# Elastic Compliance Matrix: (Units=1/GPa)
#
#
# Indices 1 2 3 4 5 6 
#
# 1 0.010512 -0.005383 -0.001125 0.000000 0.000000 0.000000
# 2 -0.005383 0.010968 -0.002569 0.000000 0.000000 0.000000
# 3 -0.001125 -0.002569 0.016223 0.000000 0.000000 0.000000
# 4 0.000000 0.000000 0.000000 0.042057 0.000000 0.000000
# 5 0.000000 0.000000 0.000000 0.000000 0.047043 0.000000
# 6 0.000000 0.000000 0.000000 0.000000 0.000000 0.009866
#
#
# Mechanical properties :
#
#
# Convention : Reuss Voigt Hill
#
# Bulk Modulus (GPa) = 51.15635 62.71466 56.93551
# Shear Modulus (GPa) = 30.99028 43.66297 37.32663
#
# Velocity S-wave (km/s) = 3.83709 4.55455 4.21112
# Velocity P-wave (km/s) = 6.62834 7.57983 7.12000
#
# Compressibility (1/GPa) = 0.01954792
#
# Stress axis : x y z
#
# Youngs Moduli (GPa) = 95.12517 91.17512 61.64161
#
# Poissons Ratio (x) = 0.49081 0.06937
# Poissons Ratio (y) = 0.51207 0.15836
# Poissons Ratio (z) = 0.10706 0.23423
#
# Static dielectric constant tensor:
#      x y z
#    x 3.823590 0.000000 0.000000 
#    y 0.000000 4.086920 0.000000 
#    z 0.000000 0.000000 3.724520 
# 
# 
# High freq. dielectric constant tensor:
#      x y z
#    x 1.823230 0.000000 0.000000 
#    y 0.000000 1.820000 0.000000 
#    z 0.000000 0.000000 1.811140 
# 
# From -- ./inp_files/16355.got.cif
#   From: 2010.03.12/outbox.cif.g09.slc.cpg/sg20_9_cif.got.tgz:16355.got - 2010.04.14 01:38:04.
