data_PCOD8159576
_publ_section_title
;
Structure prediction by ZEFSAII (Michael W. Deem and Ramdas Pophale) SiO2 
 PCOD8159576
Probable space group: C 2 2 21
;
_chemical_formula_sum "Si O2"
_cell_formula_units_Z 32
_cell_length_a 9.699975
_cell_length_b 26.963049
_cell_length_c 5.126279
_cell_angle_alpha 90.000000
_cell_angle_beta 90.000000
_cell_angle_gamma 90.000000
_cell_volume 1340.731630
_symmetry_space_group_name_H-M "C 2 2 21"
_symmetry_group_IT_number 20
_symmetry_cell_setting 'orthorhombic'
loop_
_space_group_symop_operation_xyz
x,y,z
-x,-y,1/2+z
x,-y,-z
-x,y,1/2-z
1/2+x,1/2+y,z
1/2-x,1/2-y,1/2+z
1/2+x,1/2-y,-z
1/2-x,1/2+y,1/2-z
loop_
_atom_site_type_symbol
_atom_site_label
_atom_site_fract_x
_atom_site_fract_y
_atom_site_fract_z
Si Si1 0.851718 0.058553 0.771922
Si Si2 0.500000 0.913692 0.750000
Si Si3 0.838073 0.766941 0.750053
Si Si4 0.789364 0.120405 0.284019
Si Si5 0.639774 0.000000 0.000000
O O1 0.848807 0.101001 0.555127
O O2 0.000000 0.032565 0.750000
O O3 0.739769 0.013714 0.752345
O O4 0.829483 0.083715 0.053180
O O5 0.375841 0.877605 0.827311
O O6 0.544821 0.951608 0.977140
O O7 0.753692 0.753958 0.487862
O O8 0.848218 0.825896 0.777903
O O9 0.000000 0.747484 0.750000
#
# Coordination Sequence:
#
# PCOD8159576 Si02
#       5
#     8   4   8   8   4
#     4  11  23  41  66  96 137 185 235 285 352 420
#     4  10  22  40  66  94 138 178 236 276 354 408
#     4  12  27  48  77 109 148 188 248 312 383 452
#     4  11  25  44  70  95 138 185 235 291 357 437
#     4  10  22  38  64 102 136 184 230 298 334 414
#
# _framework density 23.867564999999999
#
# number of rings (size 3 to 8) (size 9 to 14) (size 15 to 20)
#    0.000    1.000    0.000    6.000    3.500   10.000 
#    0.000    0.000    0.000    0.000    0.000    0.000 
#    0.000    0.000    0.000    0.000    0.000    0.000 
#
# Total GULP energy -198216.464027 kJ/mol
# GULP energy per Si atom -12388.529002 kJ/mol
# Density = 2.381324 g / cm^3
# Si number density = 23.867565 Si / 1000 Ang^3
#
#
#
# Elastic Constant Matrix: (Units=GPa)
#
#
# Indices 1 2 3 4 5 6 
#
# 1 201.0988 6.2697 41.3457 0.0000 0.0000 0.0000
# 2 6.2697 66.6909 12.2304 0.0000 0.0000 0.0000
# 3 41.3457 12.2304 113.5598 0.0000 0.0000 0.0000
# 4 0.0000 0.0000 0.0000 27.2130 0.0000 0.0000
# 5 0.0000 0.0000 0.0000 0.0000 -46.7760 0.0000
# 6 0.0000 0.0000 0.0000 0.0000 0.0000 33.2434
#
#
#
# Elastic Compliance Matrix: (Units=1/GPa)
#
#
# Indices 1 2 3 4 5 6 
#
# 1 0.005376 -0.000149 -0.001941 0.000000 0.000000 0.000000
# 2 -0.000149 0.015301 -0.001594 0.000000 0.000000 0.000000
# 3 -0.001941 -0.001594 0.009684 0.000000 0.000000 0.000000
# 4 0.000000 0.000000 0.000000 0.036747 0.000000 0.000000
# 5 0.000000 0.000000 0.000000 0.000000 -0.021378 0.000000
# 6 0.000000 0.000000 0.000000 0.000000 0.000000 0.030081
#
#
# Mechanical properties :
#
#
# Convention : Reuss Voigt Hill
#
# Bulk Modulus (GPa) = 43.49140 55.67122 49.58131
# Shear Modulus (GPa) = 55.03908 24.16966 39.60437
#
# Velocity S-wave (km/s) = 4.80731 3.18568 4.07792
# Velocity P-wave (km/s) = 7.00537 6.07512 6.55676
#
# Compressibility (1/GPa) = 0.02299305
#
# Stress axis : x y z
#
# Youngs Moduli (GPa) = 185.99487 65.35592 103.25886
#
# Poissons Ratio (x) = 0.00977 0.20047
# Poissons Ratio (y) = 0.02779 0.16454
# Poissons Ratio (z) = 0.36109 0.10414
#
# Static dielectric constant tensor:
#      x y z
#    x 5.399300 0.000000 0.000000 
#    y 0.000000 4.154430 0.000000 
#    z 0.000000 0.000000 4.240990 
# 
# 
# High freq. dielectric constant tensor:
#      x y z
#    x 1.982080 0.000000 0.000000 
#    y 0.000000 1.930890 0.000000 
#    z 0.000000 0.000000 1.945170 
# 
# From -- ./inp_files/601.got.cif
#   From: 2010.03.12/outbox.cif.g09.slc.cpg/sg20_1_cif.got.tgz:601.got - 2010.04.14 01:38:04.
