data_PCOD8159204
_publ_section_title
;
Structure prediction by ZEFSAII (Michael W. Deem and Ramdas Pophale) SiO2 
 PCOD8159204
Probable space group: C 2 2 21
;
_chemical_formula_sum "Si O2"
_cell_formula_units_Z 40
_cell_length_a 8.885065
_cell_length_b 11.931732
_cell_length_c 18.154234
_cell_angle_alpha 90.000000
_cell_angle_beta 90.000000
_cell_angle_gamma 90.000000
_cell_volume 1924.606855
_symmetry_space_group_name_H-M "C 2 2 21"
_symmetry_group_IT_number 20
_symmetry_cell_setting 'orthorhombic'
loop_
_space_group_symop_operation_xyz
x,y,z
-x,-y,1/2+z
x,-y,-z
-x,y,1/2-z
1/2+x,1/2+y,z
1/2-x,1/2-y,1/2+z
1/2+x,1/2-y,-z
1/2-x,1/2+y,1/2-z
loop_
_atom_site_type_symbol
_atom_site_label
_atom_site_fract_x
_atom_site_fract_y
_atom_site_fract_z
Si Si1 0.455352 0.521961 0.831521
Si Si2 0.961418 0.397787 0.166616
Si Si3 0.248118 0.049137 0.080218
Si Si4 0.332234 0.690753 0.217354
Si Si5 0.737030 0.721498 0.636168
O O1 0.500000 0.560755 0.750000
O O2 0.597714 0.471530 0.873178
O O3 0.318446 0.427959 0.826086
O O4 0.396812 0.632016 0.873807
O O5 0.896271 0.499623 0.119512
O O6 0.829651 0.301479 0.165948
O O7 0.000000 0.437352 0.250000
O O8 0.109101 0.347767 0.128287
O O9 0.273447 0.183480 0.073257
O O10 0.226962 0.000000 0.000000
O O11 0.500000 0.685726 0.250000
O O12 0.219653 0.710170 0.285834
#
# Coordination Sequence:
#
# PCOD8159204 Si02
#       5
#     8   8   8   8   8
#     4  11  19  40  68  91 123 161 217 261 310 377
#     4   9  19  40  64  85 125 164 207 266 308 365
#     4  12  25  41  61  94 134 165 204 265 324 376
#     4   8  15  33  63  86 117 150 196 261 303 344
#     4  10  21  38  61  90 120 164 206 258 316 366
#
# _framework density 20.783466000000001
#
# number of rings (size 3 to 8) (size 9 to 14) (size 15 to 20)
#    0.000    2.400    6.000    2.400    0.000    2.400 
#    3.600    1.000    0.000    0.000    0.000    0.000 
#    0.000    0.000    0.000    0.000    0.000    0.000 
#
# Total GULP energy -247808.640177 kJ/mol
# GULP energy per Si atom -12390.432009 kJ/mol
# Density = 2.073616 g / cm^3
# Si number density = 20.783466 Si / 1000 Ang^3
#
#
#
# Elastic Constant Matrix: (Units=GPa)
#
#
# Indices 1 2 3 4 5 6 
#
# 1 44.3248 32.1856 11.9477 0.0000 0.0000 0.0000
# 2 32.1856 97.0108 7.4358 0.0000 0.0000 0.0000
# 3 11.9477 7.4358 50.3631 0.0000 0.0000 0.0000
# 4 0.0000 0.0000 0.0000 18.0347 0.0000 0.0000
# 5 0.0000 0.0000 0.0000 0.0000 16.7888 0.0000
# 6 0.0000 0.0000 0.0000 0.0000 0.0000 12.6255
#
#
#
# Elastic Compliance Matrix: (Units=1/GPa)
#
#
# Indices 1 2 3 4 5 6 
#
# 1 0.031406 -0.009961 -0.005980 0.000000 0.000000 0.000000
# 2 -0.009961 0.013586 0.000357 0.000000 0.000000 0.000000
# 3 -0.005980 0.000357 0.021222 0.000000 0.000000 0.000000
# 4 0.000000 0.000000 0.000000 0.055449 0.000000 0.000000
# 5 0.000000 0.000000 0.000000 0.000000 0.059563 0.000000
# 6 0.000000 0.000000 0.000000 0.000000 0.000000 0.079205
#
#
# Mechanical properties :
#
#
# Convention : Reuss Voigt Hill
#
# Bulk Modulus (GPa) = 28.53424 32.75969 30.64697
# Shear Modulus (GPa) = 16.48646 18.83177 17.65911
#
# Velocity S-wave (km/s) = 2.81952 3.01340 2.91807
# Velocity P-wave (km/s) = 4.93545 5.28243 5.11189
#
# Compressibility (1/GPa) = 0.03504561
#
# Stress axis : x y z
#
# Youngs Moduli (GPa) = 31.84131 73.60722 47.12174
#
# Poissons Ratio (x) = 0.73322 0.28177
# Poissons Ratio (y) = 0.31718 -0.01684
# Poissons Ratio (z) = 0.19040 -0.02630
#
# Static dielectric constant tensor:
#      x y z
#    x 3.440900 0.000000 0.000000 
#    y 0.000000 4.796870 0.000000 
#    z 0.000000 0.000000 3.443380 
# 
# 
# High freq. dielectric constant tensor:
#      x y z
#    x 1.785470 0.000000 0.000000 
#    y 0.000000 1.838010 0.000000 
#    z 0.000000 0.000000 1.757820 
# 
# From -- ./inp_files/23145.got.cif
#   From: 2010.03.12/outbox.cif.g09.slc.cpg/sg20_12_cif.got.tgz:23145.got - 2010.04.14 01:38:04.
