data_PCOD8159636
_publ_section_title
;
Structure prediction by ZEFSAII (Michael W. Deem and Ramdas Pophale) SiO2 
 PCOD8159636
Probable space group: C 2 2 21
;
_chemical_formula_sum "Si O2"
_cell_formula_units_Z 56
_cell_length_a 14.092865
_cell_length_b 14.635785
_cell_length_c 12.007798
_cell_angle_alpha 90.000000
_cell_angle_beta 90.000000
_cell_angle_gamma 90.000000
_cell_volume 2476.730123
_symmetry_space_group_name_H-M "C 2 2 21"
_symmetry_group_IT_number 20
_symmetry_cell_setting 'orthorhombic'
loop_
_space_group_symop_operation_xyz
x,y,z
-x,-y,1/2+z
x,-y,-z
-x,y,1/2-z
1/2+x,1/2+y,z
1/2-x,1/2-y,1/2+z
1/2+x,1/2-y,-z
1/2-x,1/2+y,1/2-z
loop_
_atom_site_type_symbol
_atom_site_label
_atom_site_fract_x
_atom_site_fract_y
_atom_site_fract_z
Si Si1 0.877237 0.105794 0.005319
Si Si2 0.316702 0.335779 0.752451
Si Si3 0.549296 0.631016 0.855366
Si Si4 0.401355 0.982371 0.291709
Si Si5 0.119167 0.679884 0.145651
Si Si6 0.692206 0.826323 0.092126
Si Si7 0.226617 0.008309 0.873708
O O1 0.806612 0.159823 0.920585
O O2 0.985920 0.114585 0.965600
O O3 0.871715 0.146985 0.130901
O O4 0.845353 0.000000 0.000000
O O5 0.205402 0.327462 0.769624
O O6 0.343364 0.241708 0.689979
O O7 0.333387 0.420955 0.669410
O O8 0.500000 0.580604 0.750000
O O9 0.549304 0.738309 0.823546
O O10 0.656367 0.595036 0.867904
O O11 0.500000 0.938795 0.250000
O O12 0.429895 0.081008 0.343804
O O13 0.322313 0.978051 0.195315
O O14 0.358387 0.923143 0.390969
O O15 0.155187 0.709789 0.024537
O O16 0.260364 0.000000 0.000000
#
# Coordination Sequence:
#
# PCOD8159636 Si02
#       7
#     8   8   8   8   8   8   8
#     4  11  23  42  69  99 138 183 227 285 356 424
#     4  10  22  41  65  95 132 175 221 274 339 412
#     4  12  23  40  68  98 131 172 223 279 344 416
#     4  11  24  42  64  89 124 169 219 273 332 400
#     4  10  22  40  62  90 125 166 216 270 329 398
#     4  11  22  41  65  91 127 171 218 271 330 403
#     4  11  24  42  64  94 131 168 216 280 342 407
#
# _framework density 22.610457
#
# number of rings (size 3 to 8) (size 9 to 14) (size 15 to 20)
#    0.000    1.143    0.000    8.143    0.000    4.571 
#    0.000    3.571    0.000    0.000    0.000    0.000 
#    0.000    0.000    0.000    0.000    0.000    0.000 
#
# Total GULP energy -347084.386584 kJ/mol
# GULP energy per Si atom -12395.870949 kJ/mol
# Density = 2.255900 g / cm^3
# Si number density = 22.610457 Si / 1000 Ang^3
#
#
#
# Elastic Constant Matrix: (Units=GPa)
#
#
# Indices 1 2 3 4 5 6 
#
# 1 111.7445 30.2048 39.7871 0.0000 0.0000 0.0000
# 2 30.2048 117.1268 48.3793 0.0000 0.0000 0.0000
# 3 39.7871 48.3793 93.1862 0.0000 0.0000 0.0000
# 4 0.0000 0.0000 0.0000 41.9606 0.0000 0.0000
# 5 0.0000 0.0000 0.0000 0.0000 20.8818 0.0000
# 6 0.0000 0.0000 0.0000 0.0000 0.0000 21.6358
#
#
#
# Elastic Compliance Matrix: (Units=1/GPa)
#
#
# Indices 1 2 3 4 5 6 
#
# 1 0.010665 -0.001107 -0.003979 0.000000 0.000000 0.000000
# 2 -0.001107 0.010983 -0.005230 0.000000 0.000000 0.000000
# 3 -0.003979 -0.005230 0.015145 0.000000 0.000000 0.000000
# 4 0.000000 0.000000 0.000000 0.023832 0.000000 0.000000
# 5 0.000000 0.000000 0.000000 0.000000 0.047889 0.000000
# 6 0.000000 0.000000 0.000000 0.000000 0.000000 0.046220
#
#
# Mechanical properties :
#
#
# Convention : Reuss Voigt Hill
#
# Bulk Modulus (GPa) = 61.87104 62.08885 61.97994
# Shear Modulus (GPa) = 27.66231 30.47474 29.06853
#
# Velocity S-wave (km/s) = 3.50155 3.67524 3.58945
# Velocity P-wave (km/s) = 6.61597 6.74757 6.68210
#
# Compressibility (1/GPa) = 0.01616265
#
# Stress axis : x y z
#
# Youngs Moduli (GPa) = 93.76592 91.04760 66.02799
#
# Poissons Ratio (x) = 0.10077 0.26272
# Poissons Ratio (y) = 0.10378 0.34530
# Poissons Ratio (z) = 0.37309 0.47614
#
# Static dielectric constant tensor:
#      x y z
#    x 3.830520 0.000000 0.000000 
#    y 0.000000 4.209910 0.000000 
#    z 0.000000 0.000000 4.019930 
# 
# 
# High freq. dielectric constant tensor:
#      x y z
#    x 1.878950 0.000000 0.000000 
#    y 0.000000 1.894940 0.000000 
#    z 0.000000 0.000000 1.901340 
# 
# From -- ./inp_files/15129.got.cif
#   From: 2010.03.12/outbox.cif.g09.slc.cpg/sg20_8_cif.got.tgz:15129.got - 2010.04.14 01:38:04.
