data_PCOD8159145
_publ_section_title
;
Structure prediction by ZEFSAII (Michael W. Deem and Ramdas Pophale) SiO2 
 PCOD8159145
Probable space group: C 2 2 21
;
_chemical_formula_sum "Si O2"
_cell_formula_units_Z 48
_cell_length_a 17.053565
_cell_length_b 8.566914
_cell_length_c 18.385025
_cell_angle_alpha 90.000000
_cell_angle_beta 90.000000
_cell_angle_gamma 90.000000
_cell_volume 2685.986421
_symmetry_space_group_name_H-M "C 2 2 21"
_symmetry_group_IT_number 20
_symmetry_cell_setting 'orthorhombic'
loop_
_space_group_symop_operation_xyz
x,y,z
-x,-y,1/2+z
x,-y,-z
-x,y,1/2-z
1/2+x,1/2+y,z
1/2-x,1/2-y,1/2+z
1/2+x,1/2-y,-z
1/2-x,1/2+y,1/2-z
loop_
_atom_site_type_symbol
_atom_site_label
_atom_site_fract_x
_atom_site_fract_y
_atom_site_fract_z
Si Si1 0.413724 0.585503 0.924977
Si Si2 0.731074 0.475113 0.327759
Si Si3 0.786839 0.872612 0.672184
Si Si4 0.808590 0.349103 0.544760
Si Si5 0.406347 0.560264 0.579743
Si Si6 0.317103 0.854409 0.955303
O O1 0.357235 0.546526 0.857294
O O2 0.502120 0.554807 0.900701
O O3 0.390737 0.500000 0.000000
O O4 0.398752 0.766826 0.941796
O O5 0.783300 0.316647 0.324028
O O6 0.727849 0.552053 0.249501
O O7 0.769166 0.597844 0.381323
O O8 0.716988 0.925103 0.619201
O O9 0.866763 0.944652 0.638557
O O10 0.840953 0.500000 0.500000
O O11 0.877101 0.238663 0.576263
O O12 0.747878 0.257166 0.492852
O O13 0.387312 0.500000 0.500000
O O14 0.343897 0.000000 0.000000
#
# Coordination Sequence:
#
# PCOD8159145 Si02
#       6
#     8   8   8   8   8   8
#     4  10  21  37  57  83 115 151 188 229 293 343
#     4  11  22  36  61  83 113 153 197 239 287 349
#     4  11  21  36  56  89 110 152 196 238 287 338
#     4  12  18  36  61  86 112 150 193 242 280 340
#     4  11  21  36  58  85 115 149 190 235 286 342
#     4  11  19  36  60  86 113 148 193 244 278 341
#
# _framework density 17.870529999999999
#
# number of rings (size 3 to 8) (size 9 to 14) (size 15 to 20)
#    0.000    1.000    8.333    1.000    0.000    1.333 
#    0.000    0.000    0.000    4.000    0.000    0.000 
#    0.000    0.000    0.000    0.000    0.000    0.000 
#
# Total GULP energy -297383.440871 kJ/mol
# GULP energy per Si atom -12390.976703 kJ/mol
# Density = 1.782986 g / cm^3
# Si number density = 17.870530 Si / 1000 Ang^3
#
#
#
# Elastic Constant Matrix: (Units=GPa)
#
#
# Indices 1 2 3 4 5 6 
#
# 1 78.2948 54.6605 49.9745 0.0000 0.0000 0.0000
# 2 54.6605 102.2012 57.7809 0.0000 0.0000 0.0000
# 3 49.9745 57.7809 140.5326 0.0000 0.0000 0.0000
# 4 0.0000 0.0000 0.0000 40.7981 0.0000 0.0000
# 5 0.0000 0.0000 0.0000 0.0000 22.2821 0.0000
# 6 0.0000 0.0000 0.0000 0.0000 0.0000 29.2642
#
#
#
# Elastic Compliance Matrix: (Units=1/GPa)
#
#
# Indices 1 2 3 4 5 6 
#
# 1 0.021887 -0.009518 -0.003870 0.000000 0.000000 0.000000
# 2 -0.009518 0.016887 -0.003559 0.000000 0.000000 0.000000
# 3 -0.003870 -0.003559 0.009955 0.000000 0.000000 0.000000
# 4 0.000000 0.000000 0.000000 0.024511 0.000000 0.000000
# 5 0.000000 0.000000 0.000000 0.000000 0.044879 0.000000
# 6 0.000000 0.000000 0.000000 0.000000 0.000000 0.034171
#
#
# Mechanical properties :
#
#
# Convention : Reuss Voigt Hill
#
# Bulk Modulus (GPa) = 67.40178 71.76227 69.58202
# Shear Modulus (GPa) = 26.16027 29.04305 27.60166
#
# Velocity S-wave (km/s) = 3.83022 4.03574 3.93432
# Velocity P-wave (km/s) = 7.57359 7.87148 7.72397
#
# Compressibility (1/GPa) = 0.01483640
#
# Stress axis : x y z
#
# Youngs Moduli (GPa) = 45.68860 59.21675 100.45177
#
# Poissons Ratio (x) = 0.56364 0.38873
# Poissons Ratio (y) = 0.43487 0.35746
# Poissons Ratio (z) = 0.17681 0.21072
#
# Static dielectric constant tensor:
#      x y z
#    x 3.108300 0.000000 0.000000 
#    y 0.000000 3.519190 0.000000 
#    z 0.000000 0.000000 3.381530 
# 
# 
# High freq. dielectric constant tensor:
#      x y z
#    x 1.667250 0.000000 0.000000 
#    y 0.000000 1.706470 0.000000 
#    z 0.000000 0.000000 1.699270 
# 
# From -- ./inp_files/21256.got.cif
#   From: 2010.03.12/outbox.cif.g09.slc.cpg/sg20_11_cif.got.tgz:21256.got - 2010.04.14 01:38:04.
