data_PCOD8159461
_publ_section_title
;
Structure prediction by ZEFSAII (Michael W. Deem and Ramdas Pophale) SiO2 
 PCOD8159461
Probable space group: C 2 2 21
;
_chemical_formula_sum "Si O2"
_cell_formula_units_Z 36
_cell_length_a 8.507997
_cell_length_b 12.783182
_cell_length_c 14.063715
_cell_angle_alpha 90.000000
_cell_angle_beta 90.000000
_cell_angle_gamma 90.000000
_cell_volume 1529.559435
_symmetry_space_group_name_H-M "C 2 2 21"
_symmetry_group_IT_number 20
_symmetry_cell_setting 'orthorhombic'
loop_
_space_group_symop_operation_xyz
x,y,z
-x,-y,1/2+z
x,-y,-z
-x,y,1/2-z
1/2+x,1/2+y,z
1/2-x,1/2-y,1/2+z
1/2+x,1/2-y,-z
1/2-x,1/2+y,1/2-z
loop_
_atom_site_type_symbol
_atom_site_label
_atom_site_fract_x
_atom_site_fract_y
_atom_site_fract_z
Si Si1 0.164346 0.140373 0.717523
Si Si2 0.900928 0.524688 0.841370
Si Si3 0.305546 0.660349 0.343702
Si Si4 0.139017 0.914515 0.636474
Si Si5 0.128062 0.500000 0.000000
O O1 0.277073 0.113945 0.808534
O O2 0.251346 0.219653 0.644501
O O3 0.000000 0.192474 0.750000
O O4 0.116192 0.036808 0.660278
O O5 0.815970 0.423174 0.887100
O O6 0.000000 0.489225 0.750000
O O7 0.022525 0.562803 0.922340
O O8 0.302845 0.644492 0.229744
O O9 0.473493 0.638122 0.393212
O O10 0.265175 0.910247 0.550980
#
# Coordination Sequence:
#
# PCOD8159461 Si02
#       5
#     8   8   8   8   4
#     4  11  21  42  74  99 138 188 235 294 352 420
#     4  11  22  42  68 103 136 187 234 285 362 415
#     4  10  21  42  71  96 132 189 233 281 356 416
#     4  10  22  42  64 103 137 181 229 287 348 417
#     4  12  24  40  70 100 150 180 232 302 348 430
#
# _framework density 23.536187999999999
#
# number of rings (size 3 to 8) (size 9 to 14) (size 15 to 20)
#    0.000    1.333    8.889    0.667    3.111    0.889 
#    0.000    4.444    0.000    0.000    0.000    0.000 
#    0.000    0.000    0.000    0.000    0.000    0.000 
#
# Total GULP energy -223078.946477 kJ/mol
# GULP energy per Si atom -12393.274804 kJ/mol
# Density = 2.348262 g / cm^3
# Si number density = 23.536188 Si / 1000 Ang^3
#
#
#
# Elastic Constant Matrix: (Units=GPa)
#
#
# Indices 1 2 3 4 5 6 
#
# 1 188.0658 43.6228 46.9904 0.0000 0.0000 0.0000
# 2 43.6228 98.9051 -1.6964 0.0000 0.0000 0.0000
# 3 46.9904 -1.6964 77.0684 0.0000 0.0000 0.0000
# 4 0.0000 0.0000 0.0000 10.7708 0.0000 0.0000
# 5 0.0000 0.0000 0.0000 0.0000 52.0729 0.0000
# 6 0.0000 0.0000 0.0000 0.0000 0.0000 19.1459
#
#
#
# Elastic Compliance Matrix: (Units=1/GPa)
#
#
# Indices 1 2 3 4 5 6 
#
# 1 0.007182 -0.003244 -0.004450 0.000000 0.000000 0.000000
# 2 -0.003244 0.011580 0.002233 0.000000 0.000000 0.000000
# 3 -0.004450 0.002233 0.015738 0.000000 0.000000 0.000000
# 4 0.000000 0.000000 0.000000 0.092844 0.000000 0.000000
# 5 0.000000 0.000000 0.000000 0.000000 0.019204 0.000000
# 6 0.000000 0.000000 0.000000 0.000000 0.000000 0.052230
#
#
# Mechanical properties :
#
#
# Convention : Reuss Voigt Hill
#
# Bulk Modulus (GPa) = 42.41467 60.20810 51.31139
# Shear Modulus (GPa) = 22.98225 34.73942 28.86084
#
# Velocity S-wave (km/s) = 3.12823 3.84604 3.50556
# Velocity P-wave (km/s) = 5.57745 6.73493 6.18334
#
# Compressibility (1/GPa) = 0.02357675
#
# Stress axis : x y z
#
# Youngs Moduli (GPa) = 139.24371 86.35787 63.54029
#
# Poissons Ratio (x) = 0.28013 0.28277
# Poissons Ratio (y) = 0.45169 -0.14187
# Poissons Ratio (z) = 0.61967 -0.19281
#
# Static dielectric constant tensor:
#      x y z
#    x 4.995860 0.000000 0.000000 
#    y 0.000000 3.940310 0.000000 
#    z 0.000000 0.000000 4.094610 
# 
# 
# High freq. dielectric constant tensor:
#      x y z
#    x 1.960790 0.000000 0.000000 
#    y 0.000000 1.905020 0.000000 
#    z 0.000000 0.000000 1.888480 
# 
# From -- ./inp_files/23258.got.cif
#   From: 2010.03.12/outbox.cif.g09.slc.cpg/sg20_12_cif.got.tgz:23258.got - 2010.04.14 01:38:04.
