data_PCOD8159350
_publ_section_title
;
Structure prediction by ZEFSAII (Michael W. Deem and Ramdas Pophale) SiO2 
 PCOD8159350
Probable space group: C 2 2 21
;
_chemical_formula_sum "Si O2"
_cell_formula_units_Z 60
_cell_length_a 24.334132
_cell_length_b 11.259923
_cell_length_c 9.522572
_cell_angle_alpha 90.000000
_cell_angle_beta 90.000000
_cell_angle_gamma 90.000000
_cell_volume 2609.189038
_symmetry_space_group_name_H-M "C 2 2 21"
_symmetry_group_IT_number 20
_symmetry_cell_setting 'orthorhombic'
loop_
_space_group_symop_operation_xyz
x,y,z
-x,-y,1/2+z
x,-y,-z
-x,y,1/2-z
1/2+x,1/2+y,z
1/2-x,1/2-y,1/2+z
1/2+x,1/2-y,-z
1/2-x,1/2+y,1/2-z
loop_
_atom_site_type_symbol
_atom_site_label
_atom_site_fract_x
_atom_site_fract_y
_atom_site_fract_z
Si Si1 0.479464 0.772590 0.899721
Si Si2 0.210827 0.193147 0.373237
Si Si3 0.912017 0.748616 0.554146
Si Si4 0.062383 0.500000 0.500000
Si Si5 0.140133 0.404520 0.288784
Si Si6 0.654825 0.535012 0.151735
Si Si7 0.123963 0.888778 0.410019
Si Si8 0.829673 0.392581 0.609215
O O1 0.500000 0.727838 0.750000
O O2 0.421684 0.710805 0.929434
O O3 0.523705 0.739923 0.019936
O O4 0.474174 0.916302 0.899656
O O5 0.193306 0.324022 0.321767
O O6 0.199280 0.101378 0.247046
O O7 0.180499 0.157639 0.518300
O O8 0.275765 0.189715 0.396365
O O9 0.898191 0.648163 0.667256
O O10 0.895260 0.877200 0.612858
O O11 0.878704 0.701532 0.416902
O O12 0.100117 0.406229 0.419696
O O13 0.159747 0.539968 0.256479
O O14 0.632921 0.423711 0.245416
O O15 0.681057 0.500000 0.000000
O O16 0.102594 0.000000 0.500000
O O17 0.823200 0.500000 0.500000
#
# Coordination Sequence:
#
# PCOD8159350 Si02
#       8
#     8   8   8   4   8   8   8   8
#     4  12  26  41  67 101 133 180 230 291 350 409
#     4  10  21  45  69  99 137 181 230 282 357 415
#     4  10  24  43  65  97 136 179 228 277 356 409
#     4  12  26  44  66  98 136 180 238 288 342 418
#     4  10  23  45  64 100 132 180 233 283 349 417
#     4  10  21  40  67  98 138 171 228 285 343 423
#     4  10  22  44  71 100 137 181 230 287 351 424
#     4  10  21  42  70  93 136 182 223 288 348 423
#
# _framework density 22.995650000000001
#
# number of rings (size 3 to 8) (size 9 to 14) (size 15 to 20)
#    0.000    1.600    1.333    2.800    4.667    2.667 
#    8.400    0.000    0.000    0.000    0.000    0.000 
#    0.000    0.000    0.000    0.000    0.000    0.000 
#
# Total GULP energy -371900.823111 kJ/mol
# GULP energy per Si atom -12396.694104 kJ/mol
# Density = 2.294331 g / cm^3
# Si number density = 22.995650 Si / 1000 Ang^3
#
#
#
# Elastic Constant Matrix: (Units=GPa)
#
#
# Indices 1 2 3 4 5 6 
#
# 1 77.3413 20.7819 23.4247 0.0000 0.0000 0.0000
# 2 20.7819 72.6780 35.1231 0.0000 0.0000 0.0000
# 3 23.4247 35.1231 101.2376 0.0000 0.0000 0.0000
# 4 0.0000 0.0000 0.0000 32.8576 0.0000 0.0000
# 5 0.0000 0.0000 0.0000 0.0000 19.4322 0.0000
# 6 0.0000 0.0000 0.0000 0.0000 0.0000 25.1009
#
#
#
# Elastic Compliance Matrix: (Units=1/GPa)
#
#
# Indices 1 2 3 4 5 6 
#
# 1 0.014435 -0.003020 -0.002292 0.000000 0.000000 0.000000
# 2 -0.003020 0.017163 -0.005256 0.000000 0.000000 0.000000
# 3 -0.002292 -0.005256 0.012232 0.000000 0.000000 0.000000
# 4 0.000000 0.000000 0.000000 0.030434 0.000000 0.000000
# 5 0.000000 0.000000 0.000000 0.000000 0.051461 0.000000
# 6 0.000000 0.000000 0.000000 0.000000 0.000000 0.039839
#
#
# Mechanical properties :
#
#
# Convention : Reuss Voigt Hill
#
# Bulk Modulus (GPa) = 44.06474 45.54624 44.80549
# Shear Modulus (GPa) = 25.73808 26.93997 26.33902
#
# Velocity S-wave (km/s) = 3.34916 3.42647 3.38803
# Velocity P-wave (km/s) = 5.84463 5.95850 5.90184
#
# Compressibility (1/GPa) = 0.02269388
#
# Stress axis : x y z
#
# Youngs Moduli (GPa) = 69.27380 58.26573 81.75577
#
# Poissons Ratio (x) = 0.17596 0.18742
# Poissons Ratio (y) = 0.20920 0.42968
# Poissons Ratio (z) = 0.15880 0.30622
#
# Static dielectric constant tensor:
#      x y z
#    x 3.815850 0.000000 0.000000 
#    y 0.000000 4.189550 0.000000 
#    z 0.000000 0.000000 4.510090 
# 
# 
# High freq. dielectric constant tensor:
#      x y z
#    x 1.889070 0.000000 0.000000 
#    y 0.000000 1.915860 0.000000 
#    z 0.000000 0.000000 1.914520 
# 
# From -- ./inp_files/11161.got.cif
#   From: 2010.03.12/outbox.cif.g09.slc.cpg/sg20_6_cif.got.tgz:11161.got - 2010.04.14 01:38:04.
