data_PCOD8159471
_publ_section_title
;
Structure prediction by ZEFSAII (Michael W. Deem and Ramdas Pophale) SiO2 
 PCOD8159471
Probable space group: C 2 2 21
;
_chemical_formula_sum "Si O2"
_cell_formula_units_Z 56
_cell_length_a 13.697249
_cell_length_b 23.256285
_cell_length_c 8.438903
_cell_angle_alpha 90.000000
_cell_angle_beta 90.000000
_cell_angle_gamma 90.000000
_cell_volume 2688.188301
_symmetry_space_group_name_H-M "C 2 2 21"
_symmetry_group_IT_number 20
_symmetry_cell_setting 'orthorhombic'
loop_
_space_group_symop_operation_xyz
x,y,z
-x,-y,1/2+z
x,-y,-z
-x,y,1/2-z
1/2+x,1/2+y,z
1/2-x,1/2-y,1/2+z
1/2+x,1/2-y,-z
1/2-x,1/2+y,1/2-z
loop_
_atom_site_type_symbol
_atom_site_label
_atom_site_fract_x
_atom_site_fract_y
_atom_site_fract_z
Si Si1 0.857035 0.255358 0.401736
Si Si2 0.821139 0.798842 0.917434
Si Si3 0.368206 0.500000 0.000000
Si Si4 0.962078 0.627400 0.575649
Si Si5 0.017899 0.168820 0.918100
Si Si6 0.581247 0.951558 0.628579
Si Si7 0.500000 0.441997 0.250000
Si Si8 0.283827 0.910864 0.612308
O O1 0.855104 0.247051 0.213144
O O2 0.745591 0.267535 0.451491
O O3 0.935327 0.305375 0.440533
O O4 0.893894 0.197600 0.486991
O O5 0.753518 0.847764 0.839527
O O6 0.916421 0.828605 0.988665
O O7 0.428161 0.484428 0.157670
O O8 0.304590 0.554912 0.038982
O O9 0.866054 0.590994 0.526423
O O10 0.000000 0.611359 0.750000
O O11 0.046360 0.608554 0.452048
O O12 0.047863 0.101787 0.881700
O O13 0.000000 0.201295 0.750000
O O14 0.500000 0.975345 0.750000
O O15 0.679292 0.939532 0.725812
O O16 0.603672 0.000000 0.500000
#
# Coordination Sequence:
#
# PCOD8159471 Si02
#       8
#     8   8   4   8   8   8   4   8
#     4  11  24  39  69  96 136 180 215 282 329 413
#     4  11  22  42  63 100 130 170 226 268 340 396
#     4  12  24  50  68  96 126 176 228 284 344 388
#     4  10  22  39  63 100 134 179 214 258 333 405
#     4  10  21  43  63  92 129 171 214 276 336 390
#     4  10  22  39  61  95 131 176 210 264 329 391
#     4  10  26  46  72  92 128 174 224 284 338 406
#     4  10  24  41  65  94 135 166 220 282 317 401
#
# _framework density 20.831875
#
# number of rings (size 3 to 8) (size 9 to 14) (size 15 to 20)
#    0.429    1.143    1.429    2.571    6.000    6.286 
#    3.857    0.000    0.000    0.000    0.000    0.000 
#    0.000    0.000    0.000    0.000    0.000    0.000 
#
# Total GULP energy -347100.096713 kJ/mol
# GULP energy per Si atom -12396.432025 kJ/mol
# Density = 2.078446 g / cm^3
# Si number density = 20.831875 Si / 1000 Ang^3
#
#
#
# Elastic Constant Matrix: (Units=GPa)
#
#
# Indices 1 2 3 4 5 6 
#
# 1 84.1491 33.8475 43.3729 0.0000 0.0000 0.0000
# 2 33.8475 81.0487 37.4623 0.0000 0.0000 0.0000
# 3 43.3729 37.4623 119.0570 0.0000 0.0000 0.0000
# 4 0.0000 0.0000 0.0000 44.4859 0.0000 0.0000
# 5 0.0000 0.0000 0.0000 0.0000 38.5607 0.0000
# 6 0.0000 0.0000 0.0000 0.0000 0.0000 20.2283
#
#
#
# Elastic Compliance Matrix: (Units=1/GPa)
#
#
# Indices 1 2 3 4 5 6 
#
# 1 0.016011 -0.004670 -0.004364 0.000000 0.000000 0.000000
# 2 -0.004670 0.015800 -0.003270 0.000000 0.000000 0.000000
# 3 -0.004364 -0.003270 0.011018 0.000000 0.000000 0.000000
# 4 0.000000 0.000000 0.000000 0.022479 0.000000 0.000000
# 5 0.000000 0.000000 0.000000 0.000000 0.025933 0.000000
# 6 0.000000 0.000000 0.000000 0.000000 0.000000 0.049436
#
#
# Mechanical properties :
#
#
# Convention : Reuss Voigt Hill
#
# Bulk Modulus (GPa) = 54.87893 57.06890 55.97392
# Shear Modulus (GPa) = 29.17863 31.95978 30.56920
#
# Velocity S-wave (km/s) = 3.74662 3.92111 3.83485
# Velocity P-wave (km/s) = 6.71693 6.92492 6.82172
#
# Compressibility (1/GPa) = 0.01822193
#
# Stress axis : x y z
#
# Youngs Moduli (GPa) = 62.45696 63.29101 90.75990
#
# Poissons Ratio (x) = 0.29554 0.39604
# Poissons Ratio (y) = 0.29165 0.29683
# Poissons Ratio (z) = 0.27253 0.20699
#
# Static dielectric constant tensor:
#      x y z
#    x 3.659680 0.000000 0.000000 
#    y 0.000000 3.710970 0.000000 
#    z 0.000000 0.000000 3.803630 
# 
# 
# High freq. dielectric constant tensor:
#      x y z
#    x 1.807930 0.000000 0.000000 
#    y 0.000000 1.814850 0.000000 
#    z 0.000000 0.000000 1.818710 
# 
# From -- ./inp_files/8785.got.cif
#   From: 2010.03.12/outbox.cif.g09.slc.cpg/sg20_5_cif.got.tgz:8785.got - 2010.04.14 01:38:04.
