data_PCOD8159727
_publ_section_title
;
Structure prediction by ZEFSAII (Michael W. Deem and Ramdas Pophale) SiO2 
 PCOD8159727
Probable space group: C 2 2 21
;
_chemical_formula_sum "Si O2"
_cell_formula_units_Z 60
_cell_length_a 8.417587
_cell_length_b 22.003834
_cell_length_c 15.398476
_cell_angle_alpha 90.000000
_cell_angle_beta 90.000000
_cell_angle_gamma 90.000000
_cell_volume 2852.093206
_symmetry_space_group_name_H-M "C 2 2 21"
_symmetry_group_IT_number 20
_symmetry_cell_setting 'orthorhombic'
loop_
_space_group_symop_operation_xyz
x,y,z
-x,-y,1/2+z
x,-y,-z
-x,y,1/2-z
1/2+x,1/2+y,z
1/2-x,1/2-y,1/2+z
1/2+x,1/2-y,-z
1/2-x,1/2+y,1/2-z
loop_
_atom_site_type_symbol
_atom_site_label
_atom_site_fract_x
_atom_site_fract_y
_atom_site_fract_z
Si Si1 0.786125 0.639061 0.635296
Si Si2 0.201163 0.495053 0.398740
Si Si3 0.984325 0.314451 0.004851
Si Si4 0.940817 0.112331 0.582203
Si Si5 0.292817 0.265715 0.388539
Si Si6 0.293544 0.626277 0.403774
Si Si7 0.000000 0.562281 0.750000
Si Si8 0.168925 0.236787 0.216219
O O1 0.913461 0.635471 0.557103
O O2 0.624802 0.605872 0.606754
O O3 0.757610 0.711057 0.654092
O O4 0.853666 0.604191 0.719110
O O5 0.142642 0.500000 0.500000
O O6 0.347018 0.448256 0.392243
O O7 0.269783 0.559258 0.365035
O O8 0.059211 0.477320 0.332696
O O9 0.097154 0.268589 0.955471
O O10 0.875593 0.351991 0.939938
O O11 0.882302 0.273286 0.070704
O O12 0.863464 0.168177 0.634532
O O13 0.925534 0.125540 0.479366
O O14 0.283421 0.228068 0.299301
O O15 0.350832 0.672139 0.329858
O O16 0.000000 0.260667 0.250000
#
# Coordination Sequence:
#
# PCOD8159727 Si02
#       8
#     8   8   8   8   8   8   4   8
#     4  12  22  41  67 100 125 164 223 277 337 389
#     4  10  23  47  68  94 136 179 228 279 335 395
#     4  11  22  38  65  92 132 171 217 271 333 411
#     4  10  22  41  70  92 127 176 230 277 326 397
#     4  11  22  38  61  97 129 170 215 270 340 401
#     4  10  24  45  63  91 133 177 215 270 337 403
#     4  12  24  42  72  98 132 172 220 288 338 396
#     4  12  24  37  61  93 135 165 204 271 340 399
#
# _framework density 21.037178999999998
#
# number of rings (size 3 to 8) (size 9 to 14) (size 15 to 20)
#    0.000    1.067    2.000    6.400    1.867    4.800 
#    2.400    6.000    0.000    0.000    0.000    0.000 
#    0.000    0.000    0.000    0.000    0.000    0.000 
#
# Total GULP energy -372074.138499 kJ/mol
# GULP energy per Si atom -12402.471283 kJ/mol
# Density = 2.098930 g / cm^3
# Si number density = 21.037179 Si / 1000 Ang^3
#
#
#
# Elastic Constant Matrix: (Units=GPa)
#
#
# Indices 1 2 3 4 5 6 
#
# 1 119.7673 32.1614 58.9378 0.0000 0.0000 0.0000
# 2 32.1614 115.7585 52.8850 0.0000 0.0000 0.0000
# 3 58.9378 52.8850 97.1584 0.0000 0.0000 0.0000
# 4 0.0000 0.0000 0.0000 35.4322 0.0000 0.0000
# 5 0.0000 0.0000 0.0000 0.0000 16.6213 0.0000
# 6 0.0000 0.0000 0.0000 0.0000 0.0000 25.0160
#
#
#
# Elastic Compliance Matrix: (Units=1/GPa)
#
#
# Indices 1 2 3 4 5 6 
#
# 1 0.011903 -0.000011 -0.007214 0.000000 0.000000 0.000000
# 2 -0.000011 0.011498 -0.006252 0.000000 0.000000 0.000000
# 3 -0.007214 -0.006252 0.018072 0.000000 0.000000 0.000000
# 4 0.000000 0.000000 0.000000 0.028223 0.000000 0.000000
# 5 0.000000 0.000000 0.000000 0.000000 0.060164 0.000000
# 6 0.000000 0.000000 0.000000 0.000000 0.000000 0.039974
#
#
# Mechanical properties :
#
#
# Convention : Reuss Voigt Hill
#
# Bulk Modulus (GPa) = 68.88012 68.96142 68.92077
# Shear Modulus (GPa) = 24.79821 27.99389 26.39605
#
# Velocity S-wave (km/s) = 3.43706 3.65181 3.54606
# Velocity P-wave (km/s) = 6.96881 7.11568 7.04263
#
# Compressibility (1/GPa) = 0.01451798
#
# Stress axis : x y z
#
# Youngs Moduli (GPa) = 84.01468 86.97218 55.33482
#
# Poissons Ratio (x) = 0.00096 0.39921
# Poissons Ratio (y) = 0.00093 0.34594
# Poissons Ratio (z) = 0.60611 0.54374
#
# Static dielectric constant tensor:
#      x y z
#    x 3.704570 0.000000 0.000000 
#    y 0.000000 3.973470 0.000000 
#    z 0.000000 0.000000 3.894190 
# 
# 
# High freq. dielectric constant tensor:
#      x y z
#    x 1.819620 0.000000 0.000000 
#    y 0.000000 1.816200 0.000000 
#    z 0.000000 0.000000 1.828330 
# 
# From -- ./inp_files/19320.got.cif
#   From: 2010.03.12/outbox.cif.g09.slc.cpg/sg20_10_cif.got.tgz:19320.got - 2010.04.14 01:38:04.
