data_PCOD8159008
_publ_section_title
;
Structure prediction by ZEFSAII (Michael W. Deem and Ramdas Pophale) SiO2 
 PCOD8159008
Probable space group: C 2 2 21
;
_chemical_formula_sum "Si O2"
_cell_formula_units_Z 60
_cell_length_a 10.894839
_cell_length_b 10.749943
_cell_length_c 21.632073
_cell_angle_alpha 90.000000
_cell_angle_beta 90.000000
_cell_angle_gamma 90.000000
_cell_volume 2533.524556
_symmetry_space_group_name_H-M "C 2 2 21"
_symmetry_group_IT_number 20
_symmetry_cell_setting 'orthorhombic'
loop_
_space_group_symop_operation_xyz
x,y,z
-x,-y,1/2+z
x,-y,-z
-x,y,1/2-z
1/2+x,1/2+y,z
1/2-x,1/2-y,1/2+z
1/2+x,1/2-y,-z
1/2-x,1/2+y,1/2-z
loop_
_atom_site_type_symbol
_atom_site_label
_atom_site_fract_x
_atom_site_fract_y
_atom_site_fract_z
Si Si1 0.277221 0.206096 0.855499
Si Si2 0.403691 0.771461 0.022085
Si Si3 0.033436 0.905994 0.127176
Si Si4 0.873268 0.510259 0.782071
Si Si5 0.520535 0.500000 0.500000
Si Si6 0.212696 0.992458 0.666512
Si Si7 0.885422 0.440206 0.436561
Si Si8 0.424820 0.137846 0.106519
O O1 0.303162 0.190895 0.927933
O O2 0.386826 0.146427 0.814592
O O3 0.254245 0.348456 0.840937
O O4 0.162968 0.113863 0.838733
O O5 0.540624 0.813903 0.045221
O O6 0.397032 0.622540 0.013460
O O7 0.359645 0.845780 0.960427
O O8 0.986368 0.767270 0.120174
O O9 0.934408 0.986061 0.166114
O O10 0.058994 0.971260 0.060966
O O11 0.765211 0.527778 0.732735
O O12 0.840418 0.406317 0.835389
O O13 0.000000 0.471397 0.750000
O O14 0.269905 0.077836 0.610462
O O15 0.835670 0.500000 0.500000
O O16 0.973200 0.531589 0.398769
#
# Coordination Sequence:
#
# PCOD8159008 Si02
#       8
#     8   8   8   8   4   8   8   8
#     4  12  25  47  74 101 151 190 239 321 366 448
#     4  10  21  42  73 107 143 185 245 307 377 436
#     4  11  25  44  67 107 144 188 241 294 380 435
#     4  12  25  47  72  99 139 192 250 300 375 449
#     4  10  22  44  64 110 152 180 238 310 368 454
#     4  12  26  46  71 103 145 196 243 303 369 454
#     4  10  20  41  75 101 134 188 241 294 365 440
#     4  10  21  43  71 104 135 187 249 294 366 444
#
# _framework density 23.682421999999999
#
# number of rings (size 3 to 8) (size 9 to 14) (size 15 to 20)
#    0.000    1.067    5.333    0.000    2.800    1.600 
#    4.800    0.000    0.000    0.000    0.000    0.000 
#    0.000    0.000    0.000    0.000    0.000    0.000 
#
# Total GULP energy -371751.446466 kJ/mol
# GULP energy per Si atom -12391.714882 kJ/mol
# Density = 2.362852 g / cm^3
# Si number density = 23.682422 Si / 1000 Ang^3
#
#
#
# Elastic Constant Matrix: (Units=GPa)
#
#
# Indices 1 2 3 4 5 6 
#
# 1 67.2244 39.1070 24.7493 0.0000 0.0000 0.0000
# 2 39.1070 105.2175 55.1065 0.0000 0.0000 0.0000
# 3 24.7493 55.1065 139.6434 0.0000 0.0000 0.0000
# 4 0.0000 0.0000 0.0000 29.2114 0.0000 0.0000
# 5 0.0000 0.0000 0.0000 0.0000 20.3516 0.0000
# 6 0.0000 0.0000 0.0000 0.0000 0.0000 28.9180
#
#
#
# Elastic Compliance Matrix: (Units=1/GPa)
#
#
# Indices 1 2 3 4 5 6 
#
# 1 0.019039 -0.006692 -0.000733 0.000000 0.000000 0.000000
# 2 -0.006692 0.014332 -0.004470 0.000000 0.000000 0.000000
# 3 -0.000733 -0.004470 0.009055 0.000000 0.000000 0.000000
# 4 0.000000 0.000000 0.000000 0.034233 0.000000 0.000000
# 5 0.000000 0.000000 0.000000 0.000000 0.049136 0.000000
# 6 0.000000 0.000000 0.000000 0.000000 0.000000 0.034580
#
#
# Mechanical properties :
#
#
# Convention : Reuss Voigt Hill
#
# Bulk Modulus (GPa) = 53.66151 61.11231 57.38691
# Shear Modulus (GPa) = 26.26348 28.57105 27.41726
#
# Velocity S-wave (km/s) = 3.33376 3.47713 3.40620
# Velocity P-wave (km/s) = 6.12589 6.47931 6.30508
#
# Compressibility (1/GPa) = 0.01863533
#
# Stress axis : x y z
#
# Youngs Moduli (GPa) = 52.52483 69.77160 110.43631
#
# Poissons Ratio (x) = 0.46692 0.08099
# Poissons Ratio (y) = 0.35150 0.49364
# Poissons Ratio (z) = 0.03852 0.31187
#
# Static dielectric constant tensor:
#      x y z
#    x 4.081340 0.000000 0.000000 
#    y 0.000000 4.336590 0.000000 
#    z 0.000000 0.000000 4.587200 
# 
# 
# High freq. dielectric constant tensor:
#      x y z
#    x 1.908350 0.000000 0.000000 
#    y 0.000000 1.937070 0.000000 
#    z 0.000000 0.000000 1.951070 
# 
# From -- ./inp_files/27255.got.cif
#   From: 2010.03.12/outbox.cif.g09.slc.cpg/sg20_14_cif.got.tgz:27255.got - 2010.04.14 01:38:04.
