data_PCOD8159920
_publ_section_title
;
Structure prediction by ZEFSAII (Michael W. Deem and Ramdas Pophale) SiO2 
 PCOD8159920
Probable space group: C 2 2 21
;
_chemical_formula_sum "Si O2"
_cell_formula_units_Z 64
_cell_length_a 11.436901
_cell_length_b 17.933342
_cell_length_c 15.044894
_cell_angle_alpha 90.000000
_cell_angle_beta 90.000000
_cell_angle_gamma 90.000000
_cell_volume 3085.735699
_symmetry_space_group_name_H-M "C 2 2 21"
_symmetry_group_IT_number 20
_symmetry_cell_setting 'orthorhombic'
loop_
_space_group_symop_operation_xyz
x,y,z
-x,-y,1/2+z
x,-y,-z
-x,y,1/2-z
1/2+x,1/2+y,z
1/2-x,1/2-y,1/2+z
1/2+x,1/2-y,-z
1/2-x,1/2+y,1/2-z
loop_
_atom_site_type_symbol
_atom_site_label
_atom_site_fract_x
_atom_site_fract_y
_atom_site_fract_z
Si Si1 0.604059 0.415883 0.493475
Si Si2 0.496612 0.206095 0.652291
Si Si3 0.747363 0.787644 0.428061
Si Si4 0.474644 0.141761 0.147745
Si Si5 0.963398 0.127859 0.347002
Si Si6 0.989669 0.809481 0.349296
Si Si7 0.655718 0.142872 0.997479
Si Si8 0.758827 0.575172 0.056063
O O1 0.556839 0.500000 0.500000
O O2 0.574380 0.377658 0.587416
O O3 0.537112 0.371956 0.415622
O O4 0.744062 0.417910 0.477140
O O5 0.500000 0.168647 0.750000
O O6 0.627830 0.223948 0.623640
O O7 0.426826 0.284811 0.657445
O O8 0.434140 0.149307 0.584723
O O9 0.772021 0.719257 0.493639
O O10 0.743273 0.861562 0.483816
O O11 0.852405 0.794177 0.358674
O O12 0.500000 0.124010 0.250000
O O13 0.443907 0.230040 0.134974
O O14 0.368954 0.087985 0.120276
O O15 0.586154 0.121088 0.086699
O O16 0.857352 0.077474 0.383513
O O17 0.000000 0.097910 0.250000
O O18 0.000000 0.840365 0.250000
O O19 0.769569 0.500000 0.000000
#
# Coordination Sequence:
#
# PCOD8159920 Si02
#       8
#     8   8   8   8   8   8   8   8
#     4  12  25  42  60  92 134 172 213 261 337 404
#     4  11  23  39  67  99 127 169 222 277 330 394
#     4  11  21  42  63  91 127 165 220 270 332 391
#     4  10  23  42  71  97 124 167 226 278 333 399
#     4  11  24  40  65  94 126 167 217 272 327 395
#     4  10  23  40  69  99 128 170 221 282 335 395
#     4  11  22  41  65  91 130 168 212 277 333 384
#     4  12  24  42  65  93 130 177 221 267 333 406
#
# _framework density 20.740597000000001
#
# number of rings (size 3 to 8) (size 9 to 14) (size 15 to 20)
#    0.000    1.000    5.000    1.875    3.500    3.000 
#    0.000    0.625    0.000    0.000    0.000    0.000 
#    0.000    0.000    0.000    0.000    0.000    0.000 
#
# Total GULP energy -396821.265824 kJ/mol
# GULP energy per Si atom -12400.664557 kJ/mol
# Density = 2.069339 g / cm^3
# Si number density = 20.740597 Si / 1000 Ang^3
#
#
#
# Elastic Constant Matrix: (Units=GPa)
#
#
# Indices 1 2 3 4 5 6 
#
# 1 130.1375 33.0694 57.1221 0.0000 0.0000 0.0000
# 2 33.0694 71.9641 39.3266 0.0000 0.0000 0.0000
# 3 57.1221 39.3266 157.0093 0.0000 0.0000 0.0000
# 4 0.0000 0.0000 0.0000 15.5834 0.0000 0.0000
# 5 0.0000 0.0000 0.0000 0.0000 11.6710 0.0000
# 6 0.0000 0.0000 0.0000 0.0000 0.0000 25.3619
#
#
#
# Elastic Compliance Matrix: (Units=1/GPa)
#
#
# Indices 1 2 3 4 5 6 
#
# 1 0.009644 -0.002913 -0.002779 0.000000 0.000000 0.000000
# 2 -0.002913 0.016979 -0.003193 0.000000 0.000000 0.000000
# 3 -0.002779 -0.003193 0.008180 0.000000 0.000000 0.000000
# 4 0.000000 0.000000 0.000000 0.064171 0.000000 0.000000
# 5 0.000000 0.000000 0.000000 0.000000 0.085682 0.000000
# 6 0.000000 0.000000 0.000000 0.000000 0.000000 0.039429
#
#
# Mechanical properties :
#
#
# Convention : Reuss Voigt Hill
#
# Bulk Modulus (GPa) = 58.70918 68.68299 63.69609
# Shear Modulus (GPa) = 20.19923 25.82945 23.01434
#
# Velocity S-wave (km/s) = 3.12412 3.53279 3.33472
# Velocity P-wave (km/s) = 6.43283 7.05889 6.75312
#
# Compressibility (1/GPa) = 0.01703311
#
# Stress axis : x y z
#
# Youngs Moduli (GPa) = 103.68864 58.89491 122.25123
#
# Poissons Ratio (x) = 0.17157 0.33974
# Poissons Ratio (y) = 0.30206 0.39035
# Poissons Ratio (z) = 0.28816 0.18805
#
# Static dielectric constant tensor:
#      x y z
#    x 5.110520 0.000000 0.000000 
#    y 0.000000 3.736670 0.000000 
#    z 0.000000 0.000000 3.860990 
# 
# 
# High freq. dielectric constant tensor:
#      x y z
#    x 1.820310 0.000000 0.000000 
#    y 0.000000 1.787140 0.000000 
#    z 0.000000 0.000000 1.818350 
# 
# From -- ./inp_files/20277.got.cif
#   From: 2010.03.12/outbox.cif.g09.slc.cpg/sg20_11_cif.got.tgz:20277.got - 2010.04.14 01:38:04.
