data_PCOD8159702
_publ_section_title
;
Structure prediction by ZEFSAII (Michael W. Deem and Ramdas Pophale) SiO2 
 PCOD8159702
Probable space group: C 2 2 21
;
_chemical_formula_sum "Si O2"
_cell_formula_units_Z 60
_cell_length_a 10.626814
_cell_length_b 11.000496
_cell_length_c 24.542150
_cell_angle_alpha 90.000000
_cell_angle_beta 90.000000
_cell_angle_gamma 90.000000
_cell_volume 2868.982855
_symmetry_space_group_name_H-M "C 2 2 21"
_symmetry_group_IT_number 20
_symmetry_cell_setting 'orthorhombic'
loop_
_space_group_symop_operation_xyz
x,y,z
-x,-y,1/2+z
x,-y,-z
-x,y,1/2-z
1/2+x,1/2+y,z
1/2-x,1/2-y,1/2+z
1/2+x,1/2-y,-z
1/2-x,1/2+y,1/2-z
loop_
_atom_site_type_symbol
_atom_site_label
_atom_site_fract_x
_atom_site_fract_y
_atom_site_fract_z
Si Si1 0.147946 0.203983 0.337002
Si Si2 0.500000 0.560220 0.250000
Si Si3 0.357892 0.948896 0.616167
Si Si4 0.660766 0.599153 0.823228
Si Si5 0.475035 0.871865 0.972975
Si Si6 0.952561 0.292492 0.415111
Si Si7 0.022769 0.296411 0.685957
Si Si8 0.236782 0.376343 0.616326
O O1 0.045875 0.146869 0.297624
O O2 0.217864 0.091638 0.367411
O O3 0.243092 0.293637 0.304783
O O4 0.079662 0.290004 0.380488
O O5 0.381670 0.480630 0.271093
O O6 0.401126 0.868081 0.564598
O O7 0.452987 0.919522 0.665996
O O8 0.368991 0.088993 0.598870
O O9 0.536671 0.675108 0.843376
O O10 0.727504 0.516472 0.869431
O O11 0.351784 0.852564 0.935895
O O12 0.502686 0.778179 0.021963
O O13 0.452158 0.000000 0.000000
O O14 0.870705 0.178339 0.397927
O O15 0.169354 0.311924 0.668751
O O16 0.000000 0.282532 0.750000
#
# Coordination Sequence:
#
# PCOD8159702 Si02
#       8
#     8   4   8   8   8   8   8   8
#     4  11  25  43  65  94 135 170 217 270 321 388
#     4  12  26  40  60 104 128 176 224 254 330 386
#     4   9  22  40  64  92 126 172 216 264 327 387
#     4  11  24  43  64  92 135 171 215 272 315 390
#     4   9  20  43  65  91 126 173 219 270 333 394
#     4  11  23  41  69  98 127 171 221 272 329 394
#     4  10  22  41  64  93 132 180 216 266 329 386
#     4  11  24  42  67  99 133 172 222 273 335 389
#
# _framework density 20.913336000000001
#
# number of rings (size 3 to 8) (size 9 to 14) (size 15 to 20)
#    0.000    1.600    2.000    2.400    7.467    1.067 
#    4.800    0.000    0.000    0.000    0.000    0.000 
#    0.000    0.000    0.000    0.000    0.000    0.000 
#
# Total GULP energy -371737.309462 kJ/mol
# GULP energy per Si atom -12391.243649 kJ/mol
# Density = 2.086574 g / cm^3
# Si number density = 20.913336 Si / 1000 Ang^3
#
#
#
# Elastic Constant Matrix: (Units=GPa)
#
#
# Indices 1 2 3 4 5 6 
#
# 1 84.7607 28.7662 41.7345 0.0000 0.0000 0.0000
# 2 28.7662 81.5892 32.9956 0.0000 0.0000 0.0000
# 3 41.7345 32.9956 109.5442 0.0000 0.0000 0.0000
# 4 0.0000 0.0000 0.0000 29.5605 0.0000 0.0000
# 5 0.0000 0.0000 0.0000 0.0000 39.2154 0.0000
# 6 0.0000 0.0000 0.0000 0.0000 0.0000 24.6706
#
#
#
# Elastic Compliance Matrix: (Units=1/GPa)
#
#
# Indices 1 2 3 4 5 6 
#
# 1 0.015337 -0.003467 -0.004799 0.000000 0.000000 0.000000
# 2 -0.003467 0.014740 -0.003119 0.000000 0.000000 0.000000
# 3 -0.004799 -0.003119 0.011897 0.000000 0.000000 0.000000
# 4 0.000000 0.000000 0.000000 0.033829 0.000000 0.000000
# 5 0.000000 0.000000 0.000000 0.000000 0.025500 0.000000
# 6 0.000000 0.000000 0.000000 0.000000 0.000000 0.040534
#
#
# Mechanical properties :
#
#
# Convention : Reuss Voigt Hill
#
# Bulk Modulus (GPa) = 52.07150 53.65407 52.86279
# Shear Modulus (GPa) = 29.23825 30.18248 29.71037
#
# Velocity S-wave (km/s) = 3.74313 3.80309 3.77323
# Velocity P-wave (km/s) = 6.60561 6.70789 6.65695
#
# Compressibility (1/GPa) = 0.01920436
#
# Stress axis : x y z
#
# Youngs Moduli (GPa) = 65.19992 67.84161 84.05763
#
# Poissons Ratio (x) = 0.23519 0.40340
# Poissons Ratio (y) = 0.22603 0.26218
# Poissons Ratio (z) = 0.31290 0.21160
#
# Static dielectric constant tensor:
#      x y z
#    x 3.815100 0.000000 0.000000 
#    y 0.000000 3.737140 0.000000 
#    z 0.000000 0.000000 4.576770 
# 
# 
# High freq. dielectric constant tensor:
#      x y z
#    x 1.822940 0.000000 0.000000 
#    y 0.000000 1.813870 0.000000 
#    z 0.000000 0.000000 1.811500 
# 
# From -- ./inp_files/27278.got.cif
#   From: 2010.03.12/outbox.cif.g09.slc.cpg/sg20_14_cif.got.tgz:27278.got - 2010.04.14 01:38:04.
