data_PCOD8159428
_publ_section_title
;
Structure prediction by ZEFSAII (Michael W. Deem and Ramdas Pophale) SiO2 
 PCOD8159428
Probable space group: C 2 2 21
;
_chemical_formula_sum "Si O2"
_cell_formula_units_Z 44
_cell_length_a 18.467361
_cell_length_b 8.492162
_cell_length_c 13.936062
_cell_angle_alpha 90.000000
_cell_angle_beta 90.000000
_cell_angle_gamma 90.000000
_cell_volume 2185.562241
_symmetry_space_group_name_H-M "C 2 2 21"
_symmetry_group_IT_number 20
_symmetry_cell_setting 'orthorhombic'
loop_
_space_group_symop_operation_xyz
x,y,z
-x,-y,1/2+z
x,-y,-z
-x,y,1/2-z
1/2+x,1/2+y,z
1/2-x,1/2-y,1/2+z
1/2+x,1/2-y,-z
1/2-x,1/2+y,1/2-z
loop_
_atom_site_type_symbol
_atom_site_label
_atom_site_fract_x
_atom_site_fract_y
_atom_site_fract_z
Si Si1 0.415668 0.500000 0.500000
Si Si2 0.706446 0.634003 0.131522
Si Si3 0.692361 0.675933 0.494574
Si Si4 0.530954 0.749464 0.529484
Si Si5 0.040838 0.545028 0.653395
Si Si6 0.303744 0.860428 0.193690
O O1 0.368280 0.414497 0.581060
O O2 0.468412 0.624482 0.551317
O O3 0.693385 0.778536 0.203085
O O4 0.736313 0.479809 0.186291
O O5 0.762009 0.693616 0.051252
O O6 0.724937 0.500000 0.500000
O O7 0.610806 0.673852 0.536128
O O8 0.698989 0.722037 0.383898
O O9 0.521655 0.821178 0.423540
O O10 0.518462 0.876702 0.612331
O O11 0.125569 0.535230 0.675981
O O12 0.000000 0.587945 0.750000
#
# Coordination Sequence:
#
# PCOD8159428 Si02
#       6
#     4   8   8   8   8   8
#     4  12  24  44  64 104 138 166 226 296 324 378
#     4  12  24  43  68 102 140 172 225 285 337 393
#     4  11  21  44  68  91 129 187 216 266 342 409
#     4  10  22  41  68  90 132 173 222 270 333 399
#     4  10  21  42  65  91 128 179 222 265 334 400
#     4  11  23  41  67  97 132 178 226 274 335 410
#
# _framework density 20.13212
#
# number of rings (size 3 to 8) (size 9 to 14) (size 15 to 20)
#    0.000    1.091    4.545    2.182    0.000    1.455 
#    9.818    0.909    0.000    0.000    0.000    0.000 
#    0.000    0.000    0.000    0.000    0.000    0.000 
#
# Total GULP energy -272882.255085 kJ/mol
# GULP energy per Si atom -12403.738867 kJ/mol
# Density = 2.008630 g / cm^3
# Si number density = 20.132120 Si / 1000 Ang^3
#
#
#
# Elastic Constant Matrix: (Units=GPa)
#
#
# Indices 1 2 3 4 5 6 
#
# 1 113.2984 44.2375 27.6707 0.0000 0.0000 0.0000
# 2 44.2375 98.8452 10.8776 0.0000 0.0000 0.0000
# 3 27.6707 10.8776 78.7941 0.0000 0.0000 0.0000
# 4 0.0000 0.0000 0.0000 27.8860 0.0000 0.0000
# 5 0.0000 0.0000 0.0000 0.0000 23.5569 0.0000
# 6 0.0000 0.0000 0.0000 0.0000 0.0000 24.0909
#
#
#
# Elastic Compliance Matrix: (Units=1/GPa)
#
#
# Indices 1 2 3 4 5 6 
#
# 1 0.011521 -0.004784 -0.003385 0.000000 0.000000 0.000000
# 2 -0.004784 0.012259 -0.000013 0.000000 0.000000 0.000000
# 3 -0.003385 -0.000013 0.013882 0.000000 0.000000 0.000000
# 4 0.000000 0.000000 0.000000 0.035860 0.000000 0.000000
# 5 0.000000 0.000000 0.000000 0.000000 0.042450 0.000000
# 6 0.000000 0.000000 0.000000 0.000000 0.000000 0.041509
#
#
# Mechanical properties :
#
#
# Convention : Reuss Voigt Hill
#
# Bulk Modulus (GPa) = 46.95103 50.72327 48.83715
# Shear Modulus (GPa) = 27.63278 28.98355 28.30816
#
# Velocity S-wave (km/s) = 3.70884 3.79841 3.75389
# Velocity P-wave (km/s) = 6.45854 6.66987 6.56505
#
# Compressibility (1/GPa) = 0.02129879
#
# Stress axis : x y z
#
# Youngs Moduli (GPa) = 86.79952 81.57252 72.03607
#
# Poissons Ratio (x) = 0.39020 0.24388
# Poissons Ratio (y) = 0.41521 0.00090
# Poissons Ratio (z) = 0.29386 0.00102
#
# Static dielectric constant tensor:
#      x y z
#    x 3.647430 0.000000 0.000000 
#    y 0.000000 3.626510 0.000000 
#    z 0.000000 0.000000 3.879000 
# 
# 
# High freq. dielectric constant tensor:
#      x y z
#    x 1.786030 0.000000 0.000000 
#    y 0.000000 1.795680 0.000000 
#    z 0.000000 0.000000 1.784160 
# 
# From -- ./inp_files/21194.got.cif
#   From: 2010.03.12/outbox.cif.g09.slc.cpg/sg20_11_cif.got.tgz:21194.got - 2010.04.14 01:38:04.
