data_PCOD8159998
_publ_section_title
;
Structure prediction by ZEFSAII (Michael W. Deem and Ramdas Pophale) SiO2 
 PCOD8159998
Probable space group: C 2 2 21
;
_chemical_formula_sum "Si O2"
_cell_formula_units_Z 60
_cell_length_a 9.367274
_cell_length_b 24.055581
_cell_length_c 12.619276
_cell_angle_alpha 90.000000
_cell_angle_beta 90.000000
_cell_angle_gamma 90.000000
_cell_volume 2843.567314
_symmetry_space_group_name_H-M "C 2 2 21"
_symmetry_group_IT_number 20
_symmetry_cell_setting 'orthorhombic'
loop_
_space_group_symop_operation_xyz
x,y,z
-x,-y,1/2+z
x,-y,-z
-x,y,1/2-z
1/2+x,1/2+y,z
1/2-x,1/2-y,1/2+z
1/2+x,1/2-y,-z
1/2-x,1/2+y,1/2-z
loop_
_atom_site_type_symbol
_atom_site_label
_atom_site_fract_x
_atom_site_fract_y
_atom_site_fract_z
Si Si1 0.000000 0.466143 0.750000
Si Si2 0.768664 0.481556 0.390906
Si Si3 0.471312 0.664693 0.985883
Si Si4 0.818661 0.556399 0.056358
Si Si5 0.993954 0.062855 0.129326
Si Si6 0.265156 0.147627 0.890841
Si Si7 0.719031 0.143168 0.853798
Si Si8 0.484780 0.767967 0.129473
O O1 0.871500 0.504012 0.706385
O O2 0.924042 0.430238 0.843373
O O3 0.842234 0.500000 0.500000
O O4 0.610084 0.509089 0.380657
O O5 0.758052 0.416048 0.407057
O O6 0.428121 0.614710 0.064876
O O7 0.523245 0.717875 0.052570
O O8 0.599382 0.645849 0.912614
O O9 0.347055 0.680340 0.902668
O O10 0.653974 0.548843 0.091355
O O11 0.868850 0.500000 0.000000
O O12 0.842722 0.605944 0.972597
O O13 0.000000 0.082360 0.250000
O O14 0.283121 0.129342 0.770042
O O15 0.326120 0.210536 0.899544
O O16 0.578464 0.176467 0.887520
O O17 0.500000 0.746335 0.250000
#
# Coordination Sequence:
#
# PCOD8159998 Si02
#       8
#     4   8   8   8   8   8   8   8
#     4  12  26  40  64  92 144 180 218 276 334 424
#     4  12  25  42  65 100 136 178 224 271 336 412
#     4  11  22  42  68  94 128 171 222 284 330 395
#     4  11  24  41  64  92 134 176 220 274 336 404
#     4  11  23  42  64  97 132 174 224 274 338 406
#     4  10  24  41  65  96 129 171 223 273 337 396
#     4  11  24  40  67  98 131 173 223 279 333 402
#     4  10  23  43  67  93 127 174 221 274 341 400
#
# _framework density 21.100256999999999
#
# number of rings (size 3 to 8) (size 9 to 14) (size 15 to 20)
#    0.000    1.067    2.667    3.200    8.400    0.000 
#    0.000    0.000    5.867    0.000    0.000    0.000 
#    0.000    0.000    0.000    0.000    0.000    0.000 
#
# Total GULP energy -371872.979214 kJ/mol
# GULP energy per Si atom -12395.765974 kJ/mol
# Density = 2.105223 g / cm^3
# Si number density = 21.100257 Si / 1000 Ang^3
#
#
#
# Elastic Constant Matrix: (Units=GPa)
#
#
# Indices 1 2 3 4 5 6 
#
# 1 82.9013 24.9992 42.8519 0.0000 0.0000 0.0000
# 2 24.9992 92.5961 38.4418 0.0000 0.0000 0.0000
# 3 42.8519 38.4418 117.6918 0.0000 0.0000 0.0000
# 4 0.0000 0.0000 0.0000 23.7675 0.0000 0.0000
# 5 0.0000 0.0000 0.0000 0.0000 41.6658 0.0000
# 6 0.0000 0.0000 0.0000 0.0000 0.0000 19.7367
#
#
#
# Elastic Compliance Matrix: (Units=1/GPa)
#
#
# Indices 1 2 3 4 5 6 
#
# 1 0.015201 -0.002090 -0.004852 0.000000 0.000000 0.000000
# 2 -0.002090 0.012781 -0.003414 0.000000 0.000000 0.000000
# 3 -0.004852 -0.003414 0.011379 0.000000 0.000000 0.000000
# 4 0.000000 0.000000 0.000000 0.042074 0.000000 0.000000
# 5 0.000000 0.000000 0.000000 0.000000 0.024001 0.000000
# 6 0.000000 0.000000 0.000000 0.000000 0.000000 0.050667
#
#
# Mechanical properties :
#
#
# Convention : Reuss Voigt Hill
#
# Bulk Modulus (GPa) = 53.62155 56.19720 54.90937
# Shear Modulus (GPa) = 27.31799 29.49375 28.40587
#
# Velocity S-wave (km/s) = 3.60206 3.74276 3.67309
# Velocity P-wave (km/s) = 6.53970 6.73564 6.63840
#
# Compressibility (1/GPa) = 0.01864922
#
# Stress axis : x y z
#
# Youngs Moduli (GPa) = 65.78642 78.24113 87.88498
#
# Poissons Ratio (x) = 0.16349 0.42643
# Poissons Ratio (y) = 0.13746 0.30003
# Poissons Ratio (z) = 0.31920 0.26711
#
# Static dielectric constant tensor:
#      x y z
#    x 3.848710 0.000000 0.000000 
#    y 0.000000 3.625020 0.000000 
#    z 0.000000 0.000000 4.052350 
# 
# 
# High freq. dielectric constant tensor:
#      x y z
#    x 1.836160 0.000000 0.000000 
#    y 0.000000 1.807130 0.000000 
#    z 0.000000 0.000000 1.844660 
# 
# From -- ./inp_files/13287.got.cif
#   From: 2010.03.12/outbox.cif.g09.slc.cpg/sg20_7_cif.got.tgz:13287.got - 2010.04.14 01:38:04.
