data_PCOD8159505
_publ_section_title
;
Structure prediction by ZEFSAII (Michael W. Deem and Ramdas Pophale) SiO2 
 PCOD8159505
Probable space group: C 2 2 21
;
_chemical_formula_sum "Si O2"
_cell_formula_units_Z 56
_cell_length_a 14.726759
_cell_length_b 8.320602
_cell_length_c 21.077866
_cell_angle_alpha 90.000000
_cell_angle_beta 90.000000
_cell_angle_gamma 90.000000
_cell_volume 2582.786857
_symmetry_space_group_name_H-M "C 2 2 21"
_symmetry_group_IT_number 20
_symmetry_cell_setting 'orthorhombic'
loop_
_space_group_symop_operation_xyz
x,y,z
-x,-y,1/2+z
x,-y,-z
-x,y,1/2-z
1/2+x,1/2+y,z
1/2-x,1/2-y,1/2+z
1/2+x,1/2-y,-z
1/2-x,1/2+y,1/2-z
loop_
_atom_site_type_symbol
_atom_site_label
_atom_site_fract_x
_atom_site_fract_y
_atom_site_fract_z
Si Si1 0.759359 0.814699 0.986276
Si Si2 0.020769 0.115361 0.681580
Si Si3 0.857672 0.081410 0.359228
Si Si4 0.902183 0.209564 0.230436
Si Si5 0.323543 0.108545 0.881676
Si Si6 0.571861 0.317432 0.986538
Si Si7 0.414084 0.820827 0.933128
O O1 0.809670 0.774820 0.920153
O O2 0.663481 0.726731 0.977022
O O3 0.817372 0.745028 0.043922
O O4 0.743851 0.000000 0.000000
O O5 0.000000 0.197705 0.750000
O O6 0.068180 0.237634 0.634374
O O7 0.925052 0.067789 0.650656
O O8 0.082938 0.957068 0.692238
O O9 0.843608 0.180689 0.294180
O O10 0.904772 0.200117 0.411532
O O11 0.762340 0.009975 0.381496
O O12 0.850440 0.342245 0.189240
O O13 0.000000 0.280324 0.250000
O O14 0.403464 0.010791 0.918380
O O15 0.542387 0.500000 0.000000
O O16 0.490967 0.205611 0.013087
#
# Coordination Sequence:
#
# PCOD8159505 Si02
#       7
#     8   8   8   8   8   8   8
#     4  12  26  43  65 102 137 180 233 286 346 421
#     4   9  20  41  66  93 130 184 226 269 351 408
#     4  10  21  44  70  93 141 177 223 279 351 399
#     4   9  23  43  66  91 132 184 228 280 338 413
#     4  12  24  44  66 102 137 176 237 289 346 412
#     4  12  22  45  71 102 140 177 226 289 351 409
#     4  12  24  39  72  99 134 183 221 290 348 411
#
# _framework density 21.682005
#
# number of rings (size 3 to 8) (size 9 to 14) (size 15 to 20)
#    0.000    1.429    4.286    1.714    4.000    4.000 
#    2.571    0.000    0.000    0.000    0.000    0.000 
#    0.000    0.000    0.000    0.000    0.000    0.000 
#
# Total GULP energy -347090.983429 kJ/mol
# GULP energy per Si atom -12396.106551 kJ/mol
# Density = 2.163266 g / cm^3
# Si number density = 21.682005 Si / 1000 Ang^3
#
#
#
# Elastic Constant Matrix: (Units=GPa)
#
#
# Indices 1 2 3 4 5 6 
#
# 1 87.4774 50.9152 51.6617 0.0000 0.0000 0.0000
# 2 50.9152 51.0318 48.3080 0.0000 0.0000 0.0000
# 3 51.6617 48.3080 127.4990 0.0000 0.0000 0.0000
# 4 0.0000 0.0000 0.0000 39.1447 0.0000 0.0000
# 5 0.0000 0.0000 0.0000 0.0000 40.3706 0.0000
# 6 0.0000 0.0000 0.0000 0.0000 0.0000 20.1879
#
#
#
# Elastic Compliance Matrix: (Units=1/GPa)
#
#
# Indices 1 2 3 4 5 6 
#
# 1 0.027373 -0.026213 -0.001160 0.000000 0.000000 0.000000
# 2 -0.026213 0.055657 -0.010466 0.000000 0.000000 0.000000
# 3 -0.001160 -0.010466 0.012279 0.000000 0.000000 0.000000
# 4 0.000000 0.000000 0.000000 0.025546 0.000000 0.000000
# 5 0.000000 0.000000 0.000000 0.000000 0.024771 0.000000
# 6 0.000000 0.000000 0.000000 0.000000 0.000000 0.049535
#
#
# Mechanical properties :
#
#
# Convention : Reuss Voigt Hill
#
# Bulk Modulus (GPa) = 50.94121 63.08643 57.01382
# Shear Modulus (GPa) = 18.02571 27.61552 22.82062
#
# Velocity S-wave (km/s) = 2.88647 3.57271 3.24777
# Velocity P-wave (km/s) = 5.88682 6.79547 6.35740
#
# Compressibility (1/GPa) = 0.01963047
#
# Stress axis : x y z
#
# Youngs Moduli (GPa) = 36.53177 17.96734 81.44229
#
# Poissons Ratio (x) = 0.47098 0.09444
# Poissons Ratio (y) = 0.95761 0.85240
# Poissons Ratio (z) = 0.04236 0.18805
#
# Static dielectric constant tensor:
#      x y z
#    x 3.880710 0.000000 0.000000 
#    y 0.000000 3.606780 0.000000 
#    z 0.000000 0.000000 4.180340 
# 
# 
# High freq. dielectric constant tensor:
#      x y z
#    x 1.851120 0.000000 0.000000 
#    y 0.000000 1.825000 0.000000 
#    z 0.000000 0.000000 1.871110 
# 
# From -- ./inp_files/27581.got.cif
#   From: 2010.03.12/outbox.cif.g09.slc.cpg/sg20_14_cif.got.tgz:27581.got - 2010.04.14 01:38:04.
