data_PCOD8159258
_publ_section_title
;
Structure prediction by ZEFSAII (Michael W. Deem and Ramdas Pophale) SiO2 
 PCOD8159258
Probable space group: C 2 2 21
;
_chemical_formula_sum "Si O2"
_cell_formula_units_Z 52
_cell_length_a 6.579704
_cell_length_b 19.132911
_cell_length_c 21.247854
_cell_angle_alpha 90.000000
_cell_angle_beta 90.000000
_cell_angle_gamma 90.000000
_cell_volume 2674.868777
_symmetry_space_group_name_H-M "C 2 2 21"
_symmetry_group_IT_number 20
_symmetry_cell_setting 'orthorhombic'
loop_
_space_group_symop_operation_xyz
x,y,z
-x,-y,1/2+z
x,-y,-z
-x,y,1/2-z
1/2+x,1/2+y,z
1/2-x,1/2-y,1/2+z
1/2+x,1/2-y,-z
1/2-x,1/2+y,1/2-z
loop_
_atom_site_type_symbol
_atom_site_label
_atom_site_fract_x
_atom_site_fract_y
_atom_site_fract_z
Si Si1 0.622420 0.135216 0.689764
Si Si2 0.107703 0.384107 0.918294
Si Si3 0.900873 0.072718 0.974138
Si Si4 0.132976 0.755232 0.587071
Si Si5 0.500000 0.430047 0.250000
Si Si6 0.198108 0.524586 0.850285
Si Si7 0.782802 0.827858 0.526780
O O1 0.500000 0.164993 0.750000
O O2 0.621610 0.193290 0.636315
O O3 0.509065 0.065312 0.665715
O O4 0.856187 0.118598 0.706660
O O5 0.197689 0.311492 0.890972
O O6 0.138585 0.445797 0.868098
O O7 0.871523 0.376311 0.934397
O O8 0.214563 0.402325 0.983596
O O9 0.818318 0.066603 0.903907
O O10 0.085255 0.126877 0.977528
O O11 0.988008 0.000000 0.000000
O O12 0.172113 0.729669 0.515636
O O13 0.915524 0.792984 0.582055
O O14 0.648404 0.478882 0.291305
#
# Coordination Sequence:
#
# PCOD8159258 Si02
#       7
#     8   8   8   8   4   8   8
#     4  10  23  40  64  88 117 163 215 263 305 371
#     4  10  22  37  55  90 126 160 198 246 315 374
#     4   9  20  35  57  91 120 153 194 241 306 375
#     4  11  22  37  59  90 125 163 203 249 310 376
#     4  10  22  42  66  86 114 158 216 260 316 346
#     4  10  21  39  62  89 121 157 210 261 305 370
#     4  11  21  34  58  88 126 161 193 246 311 371
#
# _framework density 19.440204000000001
#
# number of rings (size 3 to 8) (size 9 to 14) (size 15 to 20)
#    0.000    1.846    1.538    1.846    2.154    9.231 
#    1.385    0.000    5.077    0.000    0.000    0.000 
#    0.000    0.000    0.000    0.000    0.000    0.000 
#
# Total GULP energy -322449.155216 kJ/mol
# GULP energy per Si atom -12401.890585 kJ/mol
# Density = 1.939596 g / cm^3
# Si number density = 19.440204 Si / 1000 Ang^3
#
#
#
# Elastic Constant Matrix: (Units=GPa)
#
#
# Indices 1 2 3 4 5 6 
#
# 1 126.9657 61.7628 42.3734 0.0000 0.0000 0.0000
# 2 61.7628 109.1009 47.3348 0.0000 0.0000 0.0000
# 3 42.3734 47.3348 85.5464 0.0000 0.0000 0.0000
# 4 0.0000 0.0000 0.0000 33.7494 0.0000 0.0000
# 5 0.0000 0.0000 0.0000 0.0000 21.0277 0.0000
# 6 0.0000 0.0000 0.0000 0.0000 0.0000 20.2745
#
#
#
# Elastic Compliance Matrix: (Units=1/GPa)
#
#
# Indices 1 2 3 4 5 6 
#
# 1 0.011329 -0.005236 -0.002715 0.000000 0.000000 0.000000
# 2 -0.005236 0.014481 -0.005419 0.000000 0.000000 0.000000
# 3 -0.002715 -0.005419 0.016033 0.000000 0.000000 0.000000
# 4 0.000000 0.000000 0.000000 0.029630 0.000000 0.000000
# 5 0.000000 0.000000 0.000000 0.000000 0.047556 0.000000
# 6 0.000000 0.000000 0.000000 0.000000 0.000000 0.049323
#
#
# Mechanical properties :
#
#
# Convention : Reuss Voigt Hill
#
# Bulk Modulus (GPa) = 66.20875 69.39499 67.80187
# Shear Modulus (GPa) = 24.98425 26.35311 25.66868
#
# Velocity S-wave (km/s) = 3.58884 3.68584 3.63766
# Velocity P-wave (km/s) = 7.16272 7.34085 7.25233
#
# Compressibility (1/GPa) = 0.01510374
#
# Stress axis : x y z
#
# Youngs Moduli (GPa) = 88.26899 69.05582 62.37233
#
# Poissons Ratio (x) = 0.36156 0.16931
# Poissons Ratio (y) = 0.46215 0.33801
# Poissons Ratio (z) = 0.23961 0.37423
#
# Static dielectric constant tensor:
#      x y z
#    x 3.676140 0.000000 0.000000 
#    y 0.000000 3.671950 0.000000 
#    z 0.000000 0.000000 3.435890 
# 
# 
# High freq. dielectric constant tensor:
#      x y z
#    x 1.770200 0.000000 0.000000 
#    y 0.000000 1.756470 0.000000 
#    z 0.000000 0.000000 1.742990 
# 
# From -- ./inp_files/26112.got.cif
#   From: 2010.03.12/outbox.cif.g09.slc.cpg/sg20_14_cif.got.tgz:26112.got - 2010.04.14 01:38:04.
