data_PCOD8159566
_publ_section_title
;
Structure prediction by ZEFSAII (Michael W. Deem and Ramdas Pophale) SiO2 
 PCOD8159566
Probable space group: C 2 2 21
;
_chemical_formula_sum "Si O2"
_cell_formula_units_Z 32
_cell_length_a 20.658477
_cell_length_b 14.080009
_cell_length_c 5.194103
_cell_angle_alpha 90.000000
_cell_angle_beta 90.000000
_cell_angle_gamma 90.000000
_cell_volume 1510.816749
_symmetry_space_group_name_H-M "C 2 2 21"
_symmetry_group_IT_number 20
_symmetry_cell_setting 'orthorhombic'
loop_
_space_group_symop_operation_xyz
x,y,z
-x,-y,1/2+z
x,-y,-z
-x,y,1/2-z
1/2+x,1/2+y,z
1/2-x,1/2-y,1/2+z
1/2+x,1/2-y,-z
1/2-x,1/2+y,1/2-z
loop_
_atom_site_type_symbol
_atom_site_label
_atom_site_fract_x
_atom_site_fract_y
_atom_site_fract_z
Si Si1 0.441398 0.101952 0.410037
Si Si2 0.645324 0.767202 0.189416
Si Si3 0.826982 0.941391 0.745624
Si Si4 0.188656 0.355742 0.701346
O O1 0.500000 0.149965 0.250000
O O2 0.422042 0.174491 0.643647
O O3 0.377357 0.083115 0.235963
O O4 0.467205 0.000000 0.500000
O O5 0.632393 0.656671 0.245857
O O6 0.687405 0.807912 0.423129
O O7 0.689799 0.776607 0.931141
O O8 0.750051 0.923623 0.728010
O O9 0.850658 0.000000 0.500000
O O10 0.844152 0.000000 0.000000
#
# Coordination Sequence:
#
# PCOD8159566 Si02
#       4
#     8   8   8   8
#     4  10  25  38  64  95 129 169 212 262 325 397
#     4  10  23  40  59  93 129 170 211 267 322 384
#     4  12  23  37  64  93 130 171 221 264 322 386
#     4  10  22  38  60  89 132 167 208 265 317 387
#
# _framework density 21.180599000000001
#
# number of rings (size 3 to 8) (size 9 to 14) (size 15 to 20)
#    1.500    0.000    0.000    5.250    7.000    0.000 
#    0.000    0.000    0.000    0.000    6.500    0.000 
#    0.000    0.000    0.000    0.000    0.000    0.000 
#
# Total GULP energy -198276.291442 kJ/mol
# GULP energy per Si atom -12392.268215 kJ/mol
# Density = 2.113239 g / cm^3
# Si number density = 21.180599 Si / 1000 Ang^3
#
#
#
# Elastic Constant Matrix: (Units=GPa)
#
#
# Indices 1 2 3 4 5 6 
#
# 1 56.8306 25.6074 18.1299 0.0000 0.0000 0.0000
# 2 25.6074 130.2367 60.9804 0.0000 0.0000 0.0000
# 3 18.1299 60.9804 168.7965 0.0000 0.0000 0.0000
# 4 0.0000 0.0000 0.0000 33.6592 0.0000 0.0000
# 5 0.0000 0.0000 0.0000 0.0000 -12.6919 0.0000
# 6 0.0000 0.0000 0.0000 0.0000 0.0000 14.1772
#
#
#
# Elastic Compliance Matrix: (Units=1/GPa)
#
#
# Indices 1 2 3 4 5 6 
#
# 1 0.019407 -0.003418 -0.000850 0.000000 0.000000 0.000000
# 2 -0.003418 0.009844 -0.003189 0.000000 0.000000 0.000000
# 3 -0.000850 -0.003189 0.007168 0.000000 0.000000 0.000000
# 4 0.000000 0.000000 0.000000 0.029710 0.000000 0.000000
# 5 0.000000 0.000000 0.000000 0.000000 -0.078790 0.000000
# 6 0.000000 0.000000 0.000000 0.000000 0.000000 0.070536
#
#
# Mechanical properties :
#
#
# Convention : Reuss Voigt Hill
#
# Bulk Modulus (GPa) = 46.50064 62.81104 54.65584
# Shear Modulus (GPa) = 62.53463 23.77197 43.15330
#
# Velocity S-wave (km/s) = 5.43954 3.35378 4.51865
# Velocity P-wave (km/s) = 7.83923 6.68704 7.28594
#
# Compressibility (1/GPa) = 0.02150508
#
# Stress axis : x y z
#
# Youngs Moduli (GPa) = 51.52679 101.58900 139.51598
#
# Poissons Ratio (x) = 0.34724 0.11854
# Poissons Ratio (y) = 0.17612 0.44492
# Poissons Ratio (z) = 0.04378 0.32397
#
# Static dielectric constant tensor:
#      x y z
#    x 3.402870 0.000000 0.000000 
#    y 0.000000 3.672010 0.000000 
#    z 0.000000 0.000000 3.958300 
# 
# 
# High freq. dielectric constant tensor:
#      x y z
#    x 1.796710 0.000000 0.000000 
#    y 0.000000 1.817570 0.000000 
#    z 0.000000 0.000000 1.847450 
# 
# From -- ./inp_files/2419.got.cif
#   From: 2010.03.12/outbox.cif.g09.slc.cpg/sg20_2_cif.got.tgz:2419.got - 2010.04.14 01:38:04.
