data_PCOD8159426
_publ_section_title
;
Structure prediction by ZEFSAII (Michael W. Deem and Ramdas Pophale) SiO2 
 PCOD8159426
Probable space group: C 2 2 21
;
_chemical_formula_sum "Si O2"
_cell_formula_units_Z 40
_cell_length_a 5.068720
_cell_length_b 12.321649
_cell_length_c 26.169653
_cell_angle_alpha 90.000000
_cell_angle_beta 90.000000
_cell_angle_gamma 90.000000
_cell_volume 1634.425383
_symmetry_space_group_name_H-M "C 2 2 21"
_symmetry_group_IT_number 20
_symmetry_cell_setting 'orthorhombic'
loop_
_space_group_symop_operation_xyz
x,y,z
-x,-y,1/2+z
x,-y,-z
-x,y,1/2-z
1/2+x,1/2+y,z
1/2-x,1/2-y,1/2+z
1/2+x,1/2-y,-z
1/2-x,1/2+y,1/2-z
loop_
_atom_site_type_symbol
_atom_site_label
_atom_site_fract_x
_atom_site_fract_y
_atom_site_fract_z
Si Si1 0.950673 0.469142 0.192513
Si Si2 0.568549 0.762361 0.033527
Si Si3 0.208772 0.013136 0.556560
Si Si4 0.099787 0.642004 0.392717
Si Si5 0.025589 0.123593 0.646728
O O1 0.875427 0.573870 0.159020
O O2 0.192058 0.398660 0.171865
O O3 0.000000 0.508778 0.250000
O O4 0.696070 0.391778 0.189848
O O5 0.627430 0.665594 0.075391
O O6 0.604333 0.879377 0.059865
O O7 0.773691 0.750408 0.986577
O O8 0.985384 0.035321 0.599934
O O9 0.081225 0.000000 0.500000
O O10 0.393421 0.910792 0.567967
O O11 0.985994 0.757848 0.375982
#
# Coordination Sequence:
#
# PCOD8159426 Si02
#       5
#     8   8   8   8   8
#     4  11  25  46  72 100 131 177 233 293 353 408
#     4  11  24  41  64  97 138 184 224 270 332 398
#     4  10  21  42  65 100 135 184 224 267 327 413
#     4  10  24  45  69  99 141 179 228 279 340 404
#     4  10  25  45  67 101 139 171 230 286 337 413
#
# _framework density 24.473434000000001
#
# number of rings (size 3 to 8) (size 9 to 14) (size 15 to 20)
#    0.000    1.600    2.000    0.600    2.800   14.400 
#    0.000    0.000    0.000    0.000    0.000    0.000 
#    0.000    0.000    0.000    0.000    0.000    0.000 
#
# Total GULP energy -247999.381794 kJ/mol
# GULP energy per Si atom -12399.969090 kJ/mol
# Density = 2.441773 g / cm^3
# Si number density = 24.473434 Si / 1000 Ang^3
#
#
#
# Elastic Constant Matrix: (Units=GPa)
#
#
# Indices 1 2 3 4 5 6 
#
# 1 70.2051 22.0552 15.2495 0.0000 0.0000 0.0000
# 2 22.0552 118.9379 38.4518 0.0000 0.0000 0.0000
# 3 15.2495 38.4518 144.9223 0.0000 0.0000 0.0000
# 4 0.0000 0.0000 0.0000 37.5522 0.0000 0.0000
# 5 0.0000 0.0000 0.0000 0.0000 34.2224 0.0000
# 6 0.0000 0.0000 0.0000 0.0000 0.0000 18.1389
#
#
#
# Elastic Compliance Matrix: (Units=1/GPa)
#
#
# Indices 1 2 3 4 5 6 
#
# 1 0.015240 -0.002524 -0.000934 0.000000 0.000000 0.000000
# 2 -0.002524 0.009615 -0.002285 0.000000 0.000000 0.000000
# 3 -0.000934 -0.002285 0.007605 0.000000 0.000000 0.000000
# 4 0.000000 0.000000 0.000000 0.026630 0.000000 0.000000
# 5 0.000000 0.000000 0.000000 0.000000 0.029221 0.000000
# 6 0.000000 0.000000 0.000000 0.000000 0.000000 0.055130
#
#
# Mechanical properties :
#
#
# Convention : Reuss Voigt Hill
#
# Bulk Modulus (GPa) = 47.68135 53.95312 50.81724
# Shear Modulus (GPa) = 30.87997 35.20329 33.04163
#
# Velocity S-wave (km/s) = 3.55600 3.79678 3.67836
# Velocity P-wave (km/s) = 6.03203 6.42761 6.23296
#
# Compressibility (1/GPa) = 0.02097256
#
# Stress axis : x y z
#
# Youngs Moduli (GPa) = 65.61772 104.00785 131.49407
#
# Poissons Ratio (x) = 0.26252 0.12280
# Poissons Ratio (y) = 0.16562 0.30052
# Poissons Ratio (z) = 0.06128 0.23770
#
# Static dielectric constant tensor:
#      x y z
#    x 4.060310 0.000000 0.000000 
#    y 0.000000 4.669430 0.000000 
#    z 0.000000 0.000000 4.526100 
# 
# 
# High freq. dielectric constant tensor:
#      x y z
#    x 1.962660 0.000000 0.000000 
#    y 0.000000 1.993610 0.000000 
#    z 0.000000 0.000000 1.969470 
# 
# From -- ./inp_files/29221.got.cif
#   From: 2010.03.12/outbox.cif.g09.slc.cpg/sg20_15_cif.got.tgz:29221.got - 2010.04.14 01:38:04.
