data_PCOD8159854
_publ_section_title
;
Structure prediction by ZEFSAII (Michael W. Deem and Ramdas Pophale) SiO2 
 PCOD8159854
Probable space group: C 2 2 21
;
_chemical_formula_sum "Si O2"
_cell_formula_units_Z 32
_cell_length_a 10.770091
_cell_length_b 13.242457
_cell_length_c 8.985952
_cell_angle_alpha 90.000000
_cell_angle_beta 90.000000
_cell_angle_gamma 90.000000
_cell_volume 1281.598642
_symmetry_space_group_name_H-M "C 2 2 21"
_symmetry_group_IT_number 20
_symmetry_cell_setting 'orthorhombic'
loop_
_space_group_symop_operation_xyz
x,y,z
-x,-y,1/2+z
x,-y,-z
-x,y,1/2-z
1/2+x,1/2+y,z
1/2-x,1/2-y,1/2+z
1/2+x,1/2-y,-z
1/2-x,1/2+y,1/2-z
loop_
_atom_site_type_symbol
_atom_site_label
_atom_site_fract_x
_atom_site_fract_y
_atom_site_fract_z
Si Si1 0.425079 0.590235 0.102604
Si Si2 0.118207 0.216611 0.664214
Si Si3 0.150387 0.590875 0.165525
Si Si4 0.886570 0.366363 0.339901
O O1 0.500000 0.614744 0.250000
O O2 0.291649 0.554510 0.156485
O O3 0.482063 0.500000 0.000000
O O4 0.407751 0.693633 0.008920
O O5 0.121358 0.337750 0.692543
O O6 0.251467 0.171805 0.719520
O O7 0.000000 0.166963 0.750000
O O8 0.084824 0.484470 0.186310
O O9 0.107704 0.653693 0.018126
O O10 0.000000 0.311202 0.250000
#
# Coordination Sequence:
#
# PCOD8159854 Si02
#       4
#     8   8   8   8
#     4  11  23  45  76 111 156 203 255 317 389 465
#     4  11  24  43  73 111 151 197 253 315 378 460
#     4  10  22  44  73 107 152 192 257 315 384 465
#     4  10  22  44  71 102 148 201 246 317 384 453
#
# _framework density 24.968814999999999
#
# number of rings (size 3 to 8) (size 9 to 14) (size 15 to 20)
#    0.000    1.500    5.000    1.500    0.000    9.000 
#    0.000    5.000    0.000    0.000    0.000    0.000 
#    0.000    0.000    0.000    0.000    0.000    0.000 
#
# Total GULP energy -198232.616194 kJ/mol
# GULP energy per Si atom -12389.538512 kJ/mol
# Density = 2.491198 g / cm^3
# Si number density = 24.968815 Si / 1000 Ang^3
#
#
#
# Elastic Constant Matrix: (Units=GPa)
#
#
# Indices 1 2 3 4 5 6 
#
# 1 163.2553 -11.7069 69.9514 0.0000 0.0000 0.0000
# 2 -11.7069 100.8527 52.5142 0.0000 0.0000 0.0000
# 3 69.9514 52.5142 126.4823 0.0000 0.0000 0.0000
# 4 0.0000 0.0000 0.0000 44.0377 0.0000 0.0000
# 5 0.0000 0.0000 0.0000 0.0000 46.4154 0.0000
# 6 0.0000 0.0000 0.0000 0.0000 0.0000 27.6101
#
#
#
# Elastic Compliance Matrix: (Units=1/GPa)
#
#
# Indices 1 2 3 4 5 6 
#
# 1 0.009656 0.004978 -0.007407 0.000000 0.000000 0.000000
# 2 0.004978 0.015216 -0.009071 0.000000 0.000000 0.000000
# 3 -0.007407 -0.009071 0.015769 0.000000 0.000000 0.000000
# 4 0.000000 0.000000 0.000000 0.022708 0.000000 0.000000
# 5 0.000000 0.000000 0.000000 0.000000 0.021545 0.000000
# 6 0.000000 0.000000 0.000000 0.000000 0.000000 0.036219
#
#
# Mechanical properties :
#
#
# Convention : Reuss Voigt Hill
#
# Bulk Modulus (GPa) = 56.68503 68.01194 62.34848
# Shear Modulus (GPa) = 33.33501 42.26809 37.80155
#
# Velocity S-wave (km/s) = 3.65782 4.11887 3.89517
# Velocity P-wave (km/s) = 6.37112 7.06527 6.72715
#
# Compressibility (1/GPa) = 0.01764134
#
# Stress axis : x y z
#
# Youngs Moduli (GPa) = 103.56184 65.71877 63.41662
#
# Poissons Ratio (x) = -0.32713 0.46973
# Poissons Ratio (y) = -0.51550 0.57523
# Poissons Ratio (z) = 0.76708 0.59611
#
# Static dielectric constant tensor:
#      x y z
#    x 4.777920 0.000000 0.000000 
#    y 0.000000 4.202100 0.000000 
#    z 0.000000 0.000000 4.331150 
# 
# 
# High freq. dielectric constant tensor:
#      x y z
#    x 2.013700 0.000000 0.000000 
#    y 0.000000 1.990330 0.000000 
#    z 0.000000 0.000000 1.977340 
# 
# From -- ./inp_files/6885.got.cif
#   From: 2010.03.12/outbox.cif.g09.slc.cpg/sg20_4_cif.got.tgz:6885.got - 2010.04.14 01:38:04.
