data_PCOD8159120
_publ_section_title
;
Structure prediction by ZEFSAII (Michael W. Deem and Ramdas Pophale) SiO2 
 PCOD8159120
Probable space group: C 2 2 21
;
_chemical_formula_sum "Si O2"
_cell_formula_units_Z 60
_cell_length_a 24.069319
_cell_length_b 14.771417
_cell_length_c 8.120843
_cell_angle_alpha 90.000000
_cell_angle_beta 90.000000
_cell_angle_gamma 90.000000
_cell_volume 2887.267855
_symmetry_space_group_name_H-M "C 2 2 21"
_symmetry_group_IT_number 20
_symmetry_cell_setting 'orthorhombic'
loop_
_space_group_symop_operation_xyz
x,y,z
-x,-y,1/2+z
x,-y,-z
-x,y,1/2-z
1/2+x,1/2+y,z
1/2-x,1/2-y,1/2+z
1/2+x,1/2-y,-z
1/2-x,1/2+y,1/2-z
loop_
_atom_site_type_symbol
_atom_site_label
_atom_site_fract_x
_atom_site_fract_y
_atom_site_fract_z
Si Si1 0.229750 0.862775 0.256752
Si Si2 0.018535 0.900957 0.931268
Si Si3 0.617513 0.682866 0.896283
Si Si4 0.151641 0.624075 0.164977
Si Si5 0.553839 0.939787 0.657751
Si Si6 0.569018 0.263827 0.433491
Si Si7 0.734351 0.000000 0.000000
Si Si8 0.687557 0.215910 0.491459
O O1 0.176929 0.865189 0.134589
O O2 0.232901 0.963573 0.338513
O O3 0.224427 0.796459 0.414517
O O4 0.283112 0.832418 0.147067
O O5 0.000000 0.916322 0.750000
O O6 0.082543 0.868580 0.961478
O O7 0.979343 0.819558 0.985608
O O8 0.007617 0.000000 0.000000
O O9 0.628235 0.788770 0.933403
O O10 0.581968 0.678401 0.729727
O O11 0.103030 0.552571 0.206924
O O12 0.178487 0.646606 0.341942
O O13 0.197267 0.584920 0.046578
O O14 0.500000 0.978338 0.750000
O O15 0.545332 0.835594 0.605354
O O16 0.568256 0.000000 0.500000
O O17 0.626044 0.254232 0.542151
#
# Coordination Sequence:
#
# PCOD8159120 Si02
#       8
#     8   8   8   8   8   8   4   8
#     4  10  21  39  64  95 129 168 227 264 329 388
#     4  12  25  43  68  98 124 164 218 276 337 400
#     4   9  20  45  64  86 129 172 207 265 334 389
#     4   9  22  39  62  87 130 174 207 267 330 379
#     4  10  21  36  57  89 126 167 211 256 317 390
#     4   9  20  41  66  86 124 169 206 265 328 381
#     4  12  24  36  62  96 130 172 222 280 312 398
#     4   9  20  41  65  88 125 177 208 267 326 398
#
# _framework density 20.780894
#
# number of rings (size 3 to 8) (size 9 to 14) (size 15 to 20)
#    0.000    2.667    0.000    4.400    4.667    2.667 
#   12.000    0.000    0.000    0.000    0.000    0.000 
#    0.000    0.000    0.000    0.000    0.000    0.000 
#
# Total GULP energy -371646.050174 kJ/mol
# GULP energy per Si atom -12388.201672 kJ/mol
# Density = 2.073360 g / cm^3
# Si number density = 20.780894 Si / 1000 Ang^3
#
#
#
# Elastic Constant Matrix: (Units=GPa)
#
#
# Indices 1 2 3 4 5 6 
#
# 1 114.4591 40.0621 41.5951 0.0000 0.0000 0.0000
# 2 40.0621 64.5548 29.5428 0.0000 0.0000 0.0000
# 3 41.5951 29.5428 55.9876 0.0000 0.0000 0.0000
# 4 0.0000 0.0000 0.0000 28.4413 0.0000 0.0000
# 5 0.0000 0.0000 0.0000 0.0000 27.4133 0.0000
# 6 0.0000 0.0000 0.0000 0.0000 0.0000 11.4274
#
#
#
# Elastic Compliance Matrix: (Units=1/GPa)
#
#
# Indices 1 2 3 4 5 6 
#
# 1 0.013011 -0.004813 -0.007127 0.000000 0.000000 0.000000
# 2 -0.004813 0.022203 -0.008140 0.000000 0.000000 0.000000
# 3 -0.007127 -0.008140 0.027451 0.000000 0.000000 0.000000
# 4 0.000000 0.000000 0.000000 0.035160 0.000000 0.000000
# 5 0.000000 0.000000 0.000000 0.000000 0.036479 0.000000
# 6 0.000000 0.000000 0.000000 0.000000 0.000000 0.087509
#
#
# Mechanical properties :
#
#
# Convention : Reuss Voigt Hill
#
# Bulk Modulus (GPa) = 44.43359 50.82239 47.62799
# Shear Modulus (GPa) = 18.55463 21.70983 20.13223
#
# Velocity S-wave (km/s) = 2.99133 3.23569 3.11591
# Velocity P-wave (km/s) = 5.77574 6.20234 5.99283
#
# Compressibility (1/GPa) = 0.02250549
#
# Stress axis : x y z
#
# Youngs Moduli (GPa) = 76.85594 45.03923 36.42857
#
# Poissons Ratio (x) = 0.21678 0.25962
# Poissons Ratio (y) = 0.36992 0.29652
# Poissons Ratio (z) = 0.54774 0.36661
#
# Static dielectric constant tensor:
#      x y z
#    x 4.021540 0.000000 0.000000 
#    y 0.000000 3.631190 0.000000 
#    z 0.000000 0.000000 3.354870 
# 
# 
# High freq. dielectric constant tensor:
#      x y z
#    x 1.823730 0.000000 0.000000 
#    y 0.000000 1.806010 0.000000 
#    z 0.000000 0.000000 1.793690 
# 
# From -- ./inp_files/10762.got.cif
#   From: 2010.03.12/outbox.cif.g09.slc.cpg/sg20_6_cif.got.tgz:10762.got - 2010.04.14 01:38:04.
