data_PCOD8159449
_publ_section_title
;
Structure prediction by ZEFSAII (Michael W. Deem and Ramdas Pophale) SiO2 
 PCOD8159449
Probable space group: C 2 2 21
;
_chemical_formula_sum "Si O2"
_cell_formula_units_Z 32
_cell_length_a 21.413617
_cell_length_b 8.685282
_cell_length_c 7.664592
_cell_angle_alpha 90.000000
_cell_angle_beta 90.000000
_cell_angle_gamma 90.000000
_cell_volume 1425.486131
_symmetry_space_group_name_H-M "C 2 2 21"
_symmetry_group_IT_number 20
_symmetry_cell_setting 'orthorhombic'
loop_
_space_group_symop_operation_xyz
x,y,z
-x,-y,1/2+z
x,-y,-z
-x,y,1/2-z
1/2+x,1/2+y,z
1/2-x,1/2-y,1/2+z
1/2+x,1/2-y,-z
1/2-x,1/2+y,1/2-z
loop_
_atom_site_type_symbol
_atom_site_label
_atom_site_fract_x
_atom_site_fract_y
_atom_site_fract_z
Si Si1 0.169699 0.724710 0.725081
Si Si2 0.500000 0.856739 0.750000
Si Si3 0.291458 0.451218 0.297506
Si Si4 0.403849 0.325935 0.452422
Si Si5 0.595915 0.000000 0.500000
O O1 0.230758 0.628220 0.783294
O O2 0.138480 0.645462 0.556234
O O3 0.191587 0.899002 0.680291
O O4 0.121189 0.727197 0.884383
O O5 0.532122 0.751235 0.894852
O O6 0.553417 0.959851 0.664853
O O7 0.280619 0.500000 0.500000
O O8 0.350256 0.331892 0.300833
O O9 0.421408 0.500000 0.500000
#
# Coordination Sequence:
#
# PCOD8159449 Si02
#       5
#     8   4   8   8   4
#     4  10  21  42  68  98 133 164 218 267 328 385
#     4  12  26  44  64  90 134 178 216 264 316 384
#     4   9  20  40  64 102 132 162 209 269 327 386
#     4   9  23  43  65  95 129 170 218 266 320 386
#     4  12  26  42  64  96 130 176 220 262 318 390
#
# _framework density 22.448481999999998
#
# number of rings (size 3 to 8) (size 9 to 14) (size 15 to 20)
#    0.000    2.500    1.250    1.500    3.500    4.000 
#    4.500   10.000    0.000    0.000    0.000    0.000 
#    0.000    0.000    0.000    0.000    0.000    0.000 
#
# Total GULP energy -198359.755366 kJ/mol
# GULP energy per Si atom -12397.484710 kJ/mol
# Density = 2.239739 g / cm^3
# Si number density = 22.448482 Si / 1000 Ang^3
#
#
#
# Elastic Constant Matrix: (Units=GPa)
#
#
# Indices 1 2 3 4 5 6 
#
# 1 86.6740 33.2556 15.8882 0.0000 0.0000 0.0000
# 2 33.2556 87.3223 38.9152 0.0000 0.0000 0.0000
# 3 15.8882 38.9152 45.8253 0.0000 0.0000 0.0000
# 4 0.0000 0.0000 0.0000 38.6434 0.0000 0.0000
# 5 0.0000 0.0000 0.0000 0.0000 28.6182 0.0000
# 6 0.0000 0.0000 0.0000 0.0000 0.0000 22.7114
#
#
#
# Elastic Compliance Matrix: (Units=1/GPa)
#
#
# Indices 1 2 3 4 5 6 
#
# 1 0.013519 -0.004923 -0.000507 0.000000 0.000000 0.000000
# 2 -0.004923 0.020217 -0.015462 0.000000 0.000000 0.000000
# 3 -0.000507 -0.015462 0.035128 0.000000 0.000000 0.000000
# 4 0.000000 0.000000 0.000000 0.025878 0.000000 0.000000
# 5 0.000000 0.000000 0.000000 0.000000 0.034943 0.000000
# 6 0.000000 0.000000 0.000000 0.000000 0.000000 0.044031
#
#
# Mechanical properties :
#
#
# Convention : Reuss Voigt Hill
#
# Bulk Modulus (GPa) = 36.92542 43.99328 40.45935
# Shear Modulus (GPa) = 22.26920 26.77879 24.52400
#
# Velocity S-wave (km/s) = 3.15304 3.45758 3.30882
# Velocity P-wave (km/s) = 5.45346 5.96488 5.71490
#
# Compressibility (1/GPa) = 0.02708161
#
# Stress axis : x y z
#
# Youngs Moduli (GPa) = 73.96901 49.46302 28.46731
#
# Poissons Ratio (x) = 0.24349 0.01443
# Poissons Ratio (y) = 0.36413 0.44016
# Poissons Ratio (z) = 0.03749 0.76479
#
# Static dielectric constant tensor:
#      x y z
#    x 4.256810 0.000000 0.000000 
#    y 0.000000 4.092860 0.000000 
#    z 0.000000 0.000000 3.675840 
# 
# 
# High freq. dielectric constant tensor:
#      x y z
#    x 1.895720 0.000000 0.000000 
#    y 0.000000 1.887910 0.000000 
#    z 0.000000 0.000000 1.859510 
# 
# From -- ./inp_files/5823.got.cif
#   From: 2010.03.12/outbox.cif.g09.slc.cpg/sg20_3_cif.got.tgz:5823.got - 2010.04.14 01:38:04.
