data_PCOD8159275
_publ_section_title
;
Structure prediction by ZEFSAII (Michael W. Deem and Ramdas Pophale) SiO2 
 PCOD8159275
Probable space group: C 2 2 21
;
_chemical_formula_sum "Si O2"
_cell_formula_units_Z 40
_cell_length_a 15.094411
_cell_length_b 14.273249
_cell_length_c 7.283355
_cell_angle_alpha 90.000000
_cell_angle_beta 90.000000
_cell_angle_gamma 90.000000
_cell_volume 1569.171790
_symmetry_space_group_name_H-M "C 2 2 21"
_symmetry_group_IT_number 20
_symmetry_cell_setting 'orthorhombic'
loop_
_space_group_symop_operation_xyz
x,y,z
-x,-y,1/2+z
x,-y,-z
-x,y,1/2-z
1/2+x,1/2+y,z
1/2-x,1/2-y,1/2+z
1/2+x,1/2-y,-z
1/2-x,1/2+y,1/2-z
loop_
_atom_site_type_symbol
_atom_site_label
_atom_site_fract_x
_atom_site_fract_y
_atom_site_fract_z
Si Si1 0.742064 0.773409 0.474493
Si Si2 0.457094 0.731168 0.052835
Si Si3 0.191969 0.396605 0.819553
Si Si4 0.000000 0.084120 0.750000
Si Si5 0.692147 0.545719 0.811352
Si Si6 0.500000 0.875350 0.750000
O O1 0.646659 0.737591 0.410008
O O2 0.801854 0.677161 0.490529
O O3 0.735140 0.828713 0.664211
O O4 0.787941 0.842638 0.320588
O O5 0.500000 0.725657 0.250000
O O6 0.485066 0.640995 0.936471
O O7 0.491553 0.818864 0.937793
O O8 0.249225 0.491667 0.843412
O O9 0.091672 0.432782 0.776656
O O10 0.911336 0.022673 0.723960
O O11 0.724934 0.500000 0.000000
#
# Coordination Sequence:
#
# PCOD8159275 Si02
#       6
#     8   8   8   4   8   4
#     4  10  21  39  64  96 132 173 230 269 343 407
#     4  10  22  38  72  99 132 178 223 276 336 404
#     4  10  22  41  69  95 134 182 220 288 341 398
#     4  11  24  46  66 103 140 180 226 277 342 415
#     4  10  23  42  69  97 139 178 224 292 339 396
#     4   9  20  42  64  97 132 176 232 273 342 399
#
# _framework density 25.491152
#
# number of rings (size 3 to 8) (size 9 to 14) (size 15 to 20)
#    0.000    2.000    0.000    3.600    8.400    1.600 
#    1.800    3.000    0.000    0.000    0.000    0.000 
#    0.000    0.000    0.000    0.000    0.000    0.000 
#
# Total GULP energy -247828.424755 kJ/mol
# GULP energy per Si atom -12391.421238 kJ/mol
# Density = 2.543313 g / cm^3
# Si number density = 25.491152 Si / 1000 Ang^3
#
#
#
# Elastic Constant Matrix: (Units=GPa)
#
#
# Indices 1 2 3 4 5 6 
#
# 1 200.5497 39.3703 12.9711 0.0000 0.0000 0.0000
# 2 39.3703 96.3978 -9.1831 0.0000 0.0000 0.0000
# 3 12.9711 -9.1831 97.2568 0.0000 0.0000 0.0000
# 4 0.0000 0.0000 0.0000 12.0286 0.0000 0.0000
# 5 0.0000 0.0000 0.0000 0.0000 34.1323 0.0000
# 6 0.0000 0.0000 0.0000 0.0000 0.0000 49.0629
#
#
#
# Elastic Compliance Matrix: (Units=1/GPa)
#
#
# Indices 1 2 3 4 5 6 
#
# 1 0.005508 -0.002340 -0.000956 0.000000 0.000000 0.000000
# 2 -0.002340 0.011462 0.001394 0.000000 0.000000 0.000000
# 3 -0.000956 0.001394 0.010541 0.000000 0.000000 0.000000
# 4 0.000000 0.000000 0.000000 0.083135 0.000000 0.000000
# 5 0.000000 0.000000 0.000000 0.000000 0.029298 0.000000
# 6 0.000000 0.000000 0.000000 0.000000 0.000000 0.020382
#
#
# Mechanical properties :
#
#
# Convention : Reuss Voigt Hill
#
# Bulk Modulus (GPa) = 42.17965 53.39121 47.78543
# Shear Modulus (GPa) = 29.06438 42.44780 35.75609
#
# Velocity S-wave (km/s) = 3.38031 4.08511 3.74931
# Velocity P-wave (km/s) = 5.64075 6.57581 6.12615
#
# Compressibility (1/GPa) = 0.02370811
#
# Stress axis : x y z
#
# Youngs Moduli (GPa) = 181.56921 87.24197 94.86619
#
# Poissons Ratio (x) = 0.20418 0.09065
# Poissons Ratio (y) = 0.42494 -0.13228
# Poissons Ratio (z) = 0.17349 -0.12165
#
# Static dielectric constant tensor:
#      x y z
#    x 4.626960 0.000000 0.000000 
#    y 0.000000 4.651100 0.000000 
#    z 0.000000 0.000000 4.576830 
# 
# 
# High freq. dielectric constant tensor:
#      x y z
#    x 2.026600 0.000000 0.000000 
#    y 0.000000 1.998070 0.000000 
#    z 0.000000 0.000000 2.026930 
# 
# From -- ./inp_files/8151.got.cif
#   From: 2010.03.12/outbox.cif.g09.slc.cpg/sg20_5_cif.got.tgz:8151.got - 2010.04.14 01:38:04.
