data_PCOD8159436
_publ_section_title
;
Structure prediction by ZEFSAII (Michael W. Deem and Ramdas Pophale) SiO2 
 PCOD8159436
Probable space group: C 2 2 21
;
_chemical_formula_sum "Si O2"
_cell_formula_units_Z 48
_cell_length_a 16.948920
_cell_length_b 8.537543
_cell_length_c 14.337352
_cell_angle_alpha 90.000000
_cell_angle_beta 90.000000
_cell_angle_gamma 90.000000
_cell_volume 2074.645420
_symmetry_space_group_name_H-M "C 2 2 21"
_symmetry_group_IT_number 20
_symmetry_cell_setting 'orthorhombic'
loop_
_space_group_symop_operation_xyz
x,y,z
-x,-y,1/2+z
x,-y,-z
-x,y,1/2-z
1/2+x,1/2+y,z
1/2-x,1/2-y,1/2+z
1/2+x,1/2-y,-z
1/2-x,1/2+y,1/2-z
loop_
_atom_site_type_symbol
_atom_site_label
_atom_site_fract_x
_atom_site_fract_y
_atom_site_fract_z
Si Si1 0.699373 0.073332 0.595739
Si Si2 0.432520 0.853820 0.441240
Si Si3 0.989750 0.068633 0.142529
Si Si4 0.682846 0.437872 0.599205
Si Si5 0.163466 0.536005 0.207169
Si Si6 0.370135 0.336036 0.397169
O O1 0.676525 0.252761 0.598143
O O2 0.656565 0.988578 0.682254
O O3 0.794156 0.051514 0.603169
O O4 0.667289 0.000000 0.500000
O O5 0.500966 0.732028 0.413371
O O6 0.390035 0.910235 0.346994
O O7 0.369321 0.765601 0.507530
O O8 0.468812 0.000000 0.500000
O O9 0.000000 0.106112 0.250000
O O10 0.903598 0.995151 0.123745
O O11 0.052190 0.940713 0.108031
O O12 0.712657 0.500000 0.500000
O O13 0.745813 0.491779 0.676323
O O14 0.134246 0.712961 0.188189
#
# Coordination Sequence:
#
# PCOD8159436 Si02
#       6
#     8   8   8   8   8   8
#     4  11  23  39  64  94 128 166 209 263 323 382
#     4  10  21  42  67  88 123 173 217 254 311 391
#     4  12  24  40  63  94 130 168 208 260 322 381
#     4  11  24  40  63  96 128 160 208 271 319 366
#     4  10  22  43  65  91 123 167 218 264 314 380
#     4  10  22  40  65  93 124 172 217 256 314 392
#
# _framework density 23.136482999999998
#
# number of rings (size 3 to 8) (size 9 to 14) (size 15 to 20)
#    0.000    1.333    0.000    7.000    0.000    8.667 
#    0.000    6.667    0.000    0.000    0.000    0.000 
#    0.000    0.000    0.000    0.000    0.000    0.000 
#
# Total GULP energy -297682.311692 kJ/mol
# GULP energy per Si atom -12403.429654 kJ/mol
# Density = 2.308382 g / cm^3
# Si number density = 23.136483 Si / 1000 Ang^3
#
#
#
# Elastic Constant Matrix: (Units=GPa)
#
#
# Indices 1 2 3 4 5 6 
#
# 1 98.8476 23.8241 7.6034 0.0000 0.0000 0.0000
# 2 23.8241 87.0124 44.8190 0.0000 0.0000 0.0000
# 3 7.6034 44.8190 170.0862 0.0000 0.0000 0.0000
# 4 0.0000 0.0000 0.0000 41.5100 0.0000 0.0000
# 5 0.0000 0.0000 0.0000 0.0000 25.0950 0.0000
# 6 0.0000 0.0000 0.0000 0.0000 0.0000 28.4496
#
#
#
# Elastic Compliance Matrix: (Units=1/GPa)
#
#
# Indices 1 2 3 4 5 6 
#
# 1 0.010849 -0.003148 0.000345 0.000000 0.000000 0.000000
# 2 -0.003148 0.014211 -0.003604 0.000000 0.000000 0.000000
# 3 0.000345 -0.003604 0.006814 0.000000 0.000000 0.000000
# 4 0.000000 0.000000 0.000000 0.024091 0.000000 0.000000
# 5 0.000000 0.000000 0.000000 0.000000 0.039849 0.000000
# 6 0.000000 0.000000 0.000000 0.000000 0.000000 0.035150
#
#
# Mechanical properties :
#
#
# Convention : Reuss Voigt Hill
#
# Bulk Modulus (GPa) = 52.46955 56.49325 54.48140
# Shear Modulus (GPa) = 33.30452 37.65757 35.48104
#
# Velocity S-wave (km/s) = 3.79816 4.03876 3.92031
# Velocity P-wave (km/s) = 6.47783 6.79847 6.64008
#
# Compressibility (1/GPa) = 0.01905867
#
# Stress axis : x y z
#
# Youngs Moduli (GPa) = 92.17630 70.36872 146.76444
#
# Poissons Ratio (x) = 0.22151 -0.05056
# Poissons Ratio (y) = 0.29016 0.52893
# Poissons Ratio (z) = -0.03176 0.25361
#
# Static dielectric constant tensor:
#      x y z
#    x 4.126940 0.000000 0.000000 
#    y 0.000000 4.172930 0.000000 
#    z 0.000000 0.000000 4.160890 
# 
# 
# High freq. dielectric constant tensor:
#      x y z
#    x 1.905310 0.000000 0.000000 
#    y 0.000000 1.915840 0.000000 
#    z 0.000000 0.000000 1.922740 
# 
# From -- ./inp_files/21268.got.cif
#   From: 2010.03.12/outbox.cif.g09.slc.cpg/sg20_11_cif.got.tgz:21268.got - 2010.04.14 01:38:04.
