data_PCOD8159066
_publ_section_title
;
Structure prediction by ZEFSAII (Michael W. Deem and Ramdas Pophale) SiO2 
 PCOD8159066
Probable space group: C 2 2 21
;
_chemical_formula_sum "Si O2"
_cell_formula_units_Z 40
_cell_length_a 8.857807
_cell_length_b 21.885467
_cell_length_c 9.087832
_cell_angle_alpha 90.000000
_cell_angle_beta 90.000000
_cell_angle_gamma 90.000000
_cell_volume 1761.742054
_symmetry_space_group_name_H-M "C 2 2 21"
_symmetry_group_IT_number 20
_symmetry_cell_setting 'orthorhombic'
loop_
_space_group_symop_operation_xyz
x,y,z
-x,-y,1/2+z
x,-y,-z
-x,y,1/2-z
1/2+x,1/2+y,z
1/2-x,1/2-y,1/2+z
1/2+x,1/2-y,-z
1/2-x,1/2+y,1/2-z
loop_
_atom_site_type_symbol
_atom_site_label
_atom_site_fract_x
_atom_site_fract_y
_atom_site_fract_z
Si Si1 0.177597 0.172772 0.270188
Si Si2 0.758186 0.226181 0.921917
Si Si3 0.827148 0.448051 0.791591
Si Si4 0.500000 0.835107 0.250000
Si Si5 0.500000 0.352284 0.250000
Si Si6 0.761065 0.575361 0.872839
O O1 0.226750 0.218210 0.403115
O O2 0.261303 0.202035 0.125920
O O3 0.235127 0.103639 0.298419
O O4 0.000000 0.170327 0.250000
O O5 0.592597 0.205462 0.866680
O O6 0.894133 0.188695 0.850989
O O7 0.776212 0.517924 0.757782
O O8 0.000000 0.439007 0.750000
O O9 0.790301 0.442956 0.961742
O O10 0.613717 0.875353 0.340568
O O11 0.404339 0.395661 0.357678
#
# Coordination Sequence:
#
# PCOD8159066 Si02
#       6
#     8   8   8   4   4   8
#     4  12  28  44  69 103 142 184 234 289 347 419
#     4  11  26  43  71  98 141 183 233 290 346 413
#     4  11  24  42  69  99 136 180 229 283 343 414
#     4  10  20  44  66  96 134 174 230 278 348 404
#     4  10  24  44  68 100 136 186 226 292 348 414
#     4  10  22  43  69  96 135 178 229 282 345 414
#
# _framework density 22.704796999999999
#
# number of rings (size 3 to 8) (size 9 to 14) (size 15 to 20)
#    0.000    1.200    2.000    2.400   11.200    0.000 
#    0.000    0.000    0.000    0.000    0.000    0.000 
#    0.000    0.000    0.000    0.000    0.000    0.000 
#
# Total GULP energy -247957.489110 kJ/mol
# GULP energy per Si atom -12397.874455 kJ/mol
# Density = 2.265312 g / cm^3
# Si number density = 22.704797 Si / 1000 Ang^3
#
#
#
# Elastic Constant Matrix: (Units=GPa)
#
#
# Indices 1 2 3 4 5 6 
#
# 1 155.9785 46.3778 26.5037 0.0000 0.0000 0.0000
# 2 46.3778 101.3253 2.3840 0.0000 0.0000 0.0000
# 3 26.5037 2.3840 61.2699 0.0000 0.0000 0.0000
# 4 0.0000 0.0000 0.0000 15.2382 0.0000 0.0000
# 5 0.0000 0.0000 0.0000 0.0000 27.9739 0.0000
# 6 0.0000 0.0000 0.0000 0.0000 0.0000 -3.9693
#
#
#
# Elastic Compliance Matrix: (Units=1/GPa)
#
#
# Indices 1 2 3 4 5 6 
#
# 1 0.008051 -0.003607 -0.003343 0.000000 0.000000 0.000000
# 2 -0.003607 0.011494 0.001113 0.000000 0.000000 0.000000
# 3 -0.003343 0.001113 0.017724 0.000000 0.000000 0.000000
# 4 0.000000 0.000000 0.000000 0.065624 0.000000 0.000000
# 5 0.000000 0.000000 0.000000 0.000000 0.035748 0.000000
# 6 0.000000 0.000000 0.000000 0.000000 0.000000 -0.251936
#
#
# Mechanical properties :
#
#
# Convention : Reuss Voigt Hill
#
# Bulk Modulus (GPa) = 39.06763 52.12275 45.59519
# Shear Modulus (GPa) = -53.71147 24.06914 -14.82117
#
# Velocity S-wave (km/s) = -4.86907 3.25944 -2.55772
# Velocity P-wave (km/s) = 3.79029 6.09687 3.37680
#
# Compressibility (1/GPa) = 0.02559664
#
# Stress axis : x y z
#
# Youngs Moduli (GPa) = 124.20095 87.00340 56.42131
#
# Poissons Ratio (x) = 0.31379 0.18859
# Poissons Ratio (y) = 0.44794 -0.06279
# Poissons Ratio (z) = 0.41514 -0.09683
#
# Static dielectric constant tensor:
#      x y z
#    x 4.785830 0.000000 0.000000 
#    y 0.000000 4.907430 0.000000 
#    z 0.000000 0.000000 4.057060 
# 
# 
# High freq. dielectric constant tensor:
#      x y z
#    x 1.907300 0.000000 0.000000 
#    y 0.000000 1.919800 0.000000 
#    z 0.000000 0.000000 1.880840 
# 
# From -- ./inp_files/6135.got.cif
#   From: 2010.03.12/outbox.cif.g09.slc.cpg/sg20_4_cif.got.tgz:6135.got - 2010.04.14 01:38:04.
