data_PCOD8159191
_publ_section_title
;
Structure prediction by ZEFSAII (Michael W. Deem and Ramdas Pophale) SiO2 
 PCOD8159191
Probable space group: C 2 2 21
;
_chemical_formula_sum "Si O2"
_cell_formula_units_Z 60
_cell_length_a 23.480300
_cell_length_b 14.422962
_cell_length_c 8.293588
_cell_angle_alpha 90.000000
_cell_angle_beta 90.000000
_cell_angle_gamma 90.000000
_cell_volume 2808.668981
_symmetry_space_group_name_H-M "C 2 2 21"
_symmetry_group_IT_number 20
_symmetry_cell_setting 'orthorhombic'
loop_
_space_group_symop_operation_xyz
x,y,z
-x,-y,1/2+z
x,-y,-z
-x,y,1/2-z
1/2+x,1/2+y,z
1/2-x,1/2-y,1/2+z
1/2+x,1/2-y,-z
1/2-x,1/2+y,1/2-z
loop_
_atom_site_type_symbol
_atom_site_label
_atom_site_fract_x
_atom_site_fract_y
_atom_site_fract_z
Si Si1 0.862978 0.870163 0.376817
Si Si2 0.830733 0.959228 0.826101
Si Si3 0.342497 0.794448 0.847880
Si Si4 0.122021 0.751990 0.689067
Si Si5 0.794877 0.574284 0.371879
Si Si6 0.000000 0.783887 0.750000
Si Si7 0.013814 0.898448 0.057113
Si Si8 0.284277 0.750378 0.425356
O O1 0.872450 0.790137 0.244116
O O2 0.920504 0.876207 0.478693
O O3 0.811197 0.842598 0.494693
O O4 0.856491 0.972257 0.305550
O O5 0.862263 0.860991 0.817950
O O6 0.762986 0.962048 0.789340
O O7 0.843887 0.000000 0.000000
O O8 0.345140 0.894365 0.753656
O O9 0.275268 0.774635 0.848661
O O10 0.372988 0.801142 0.018998
O O11 0.170946 0.706066 0.798557
O O12 0.059851 0.728612 0.767811
O O13 0.819682 0.500000 0.500000
O O14 0.772198 0.668707 0.450869
O O15 0.016350 0.835880 0.580504
O O16 0.000000 0.881273 0.250000
O O17 0.995773 0.000000 0.000000
#
# Coordination Sequence:
#
# PCOD8159191 Si02
#       8
#     8   8   8   8   8   4   8   8
#     4  11  23  37  56  84 124 171 210 258 309 373
#     4  11  20  34  57  87 127 173 216 249 305 375
#     4  11  20  38  62  86 119 165 210 260 333 382
#     4  12  22  39  60  88 125 171 213 268 312 371
#     4  10  21  38  59  88 124 161 205 264 325 390
#     4  12  26  42  58  90 130 172 232 260 306 378
#     4  12  25  40  58  84 127 177 223 267 303 358
#     4  11  21  39  58  89 125 162 208 265 325 379
#
# _framework density 21.362432999999999
#
# number of rings (size 3 to 8) (size 9 to 14) (size 15 to 20)
#    0.000    0.800    6.000    3.200    0.000    0.000 
#    0.000    2.000    0.000    0.000    0.000    1.867 
#    0.000    0.000    0.000    0.000    0.000    0.000 
#
# Total GULP energy -371674.308842 kJ/mol
# GULP energy per Si atom -12389.143628 kJ/mol
# Density = 2.131381 g / cm^3
# Si number density = 21.362433 Si / 1000 Ang^3
#
#
#
# Elastic Constant Matrix: (Units=GPa)
#
#
# Indices 1 2 3 4 5 6 
#
# 1 74.3451 10.5579 11.7776 0.0000 0.0000 0.0000
# 2 10.5579 51.8053 15.4994 0.0000 0.0000 0.0000
# 3 11.7776 15.4994 110.7101 0.0000 0.0000 0.0000
# 4 0.0000 0.0000 0.0000 36.6106 0.0000 0.0000
# 5 0.0000 0.0000 0.0000 0.0000 33.2086 0.0000
# 6 0.0000 0.0000 0.0000 0.0000 0.0000 17.5159
#
#
#
# Elastic Compliance Matrix: (Units=1/GPa)
#
#
# Indices 1 2 3 4 5 6 
#
# 1 0.013987 -0.002511 -0.001137 0.000000 0.000000 0.000000
# 2 -0.002511 0.020598 -0.002617 0.000000 0.000000 0.000000
# 3 -0.001137 -0.002617 0.009520 0.000000 0.000000 0.000000
# 4 0.000000 0.000000 0.000000 0.027314 0.000000 0.000000
# 5 0.000000 0.000000 0.000000 0.000000 0.030113 0.000000
# 6 0.000000 0.000000 0.000000 0.000000 0.000000 0.057091
#
#
# Mechanical properties :
#
#
# Convention : Reuss Voigt Hill
#
# Bulk Modulus (GPa) = 31.66828 34.72562 33.19695
# Shear Modulus (GPa) = 27.52149 30.73538 29.12844
#
# Velocity S-wave (km/s) = 3.59320 3.79721 3.69661
# Velocity P-wave (km/s) = 5.66315 5.95952 5.81322
#
# Compressibility (1/GPa) = 0.03157734
#
# Stress axis : x y z
#
# Youngs Moduli (GPa) = 71.49307 48.54947 105.04394
#
# Poissons Ratio (x) = 0.12189 0.11939
# Poissons Ratio (y) = 0.17949 0.27486
# Poissons Ratio (z) = 0.08125 0.12703
#
# Static dielectric constant tensor:
#      x y z
#    x 3.790060 0.000000 0.000000 
#    y 0.000000 3.849090 0.000000 
#    z 0.000000 0.000000 4.345740 
# 
# 
# High freq. dielectric constant tensor:
#      x y z
#    x 1.821760 0.000000 0.000000 
#    y 0.000000 1.796730 0.000000 
#    z 0.000000 0.000000 1.865570 
# 
# From -- ./inp_files/10757.got.cif
#   From: 2010.03.12/outbox.cif.g09.slc.cpg/sg20_6_cif.got.tgz:10757.got - 2010.04.14 01:38:04.
