data_PCOD8159922
_publ_section_title
;
Structure prediction by ZEFSAII (Michael W. Deem and Ramdas Pophale) SiO2 
 PCOD8159922
Probable space group: C 2 2 21
;
_chemical_formula_sum "Si O2"
_cell_formula_units_Z 32
_cell_length_a 14.681705
_cell_length_b 8.492115
_cell_length_c 12.026380
_cell_angle_alpha 90.000000
_cell_angle_beta 90.000000
_cell_angle_gamma 90.000000
_cell_volume 1499.433752
_symmetry_space_group_name_H-M "C 2 2 21"
_symmetry_group_IT_number 20
_symmetry_cell_setting 'orthorhombic'
loop_
_space_group_symop_operation_xyz
x,y,z
-x,-y,1/2+z
x,-y,-z
-x,y,1/2-z
1/2+x,1/2+y,z
1/2-x,1/2-y,1/2+z
1/2+x,1/2-y,-z
1/2-x,1/2+y,1/2-z
loop_
_atom_site_type_symbol
_atom_site_label
_atom_site_fract_x
_atom_site_fract_y
_atom_site_fract_z
Si Si1 0.327958 0.327297 0.200253
Si Si2 0.439610 0.816392 0.991742
Si Si3 0.374272 0.340240 0.440040
Si Si4 0.790491 0.170187 0.133661
O O1 0.389164 0.373005 0.308050
O O2 0.237543 0.233720 0.243078
O O3 0.300869 0.482594 0.131941
O O4 0.385745 0.213583 0.122070
O O5 0.384381 0.752499 0.097924
O O6 0.535402 0.727811 0.994866
O O7 0.458196 0.000000 0.000000
O O8 0.345468 0.500000 0.500000
O O9 0.289271 0.218760 0.454234
#
# Coordination Sequence:
#
# PCOD8159922 Si02
#       4
#     8   8   8   8
#     4  10  23  43  67 102 132 185 223 286 344 417
#     4  12  24  43  65  97 143 182 232 289 343 405
#     4  10  24  43  68 100 135 180 228 283 343 413
#     4  10  23  40  74  92 142 173 233 281 348 408
#
# _framework density 21.341390000000001
#
# number of rings (size 3 to 8) (size 9 to 14) (size 15 to 20)
#    1.500    0.000    0.000    5.250    3.500    2.000 
#    0.000    0.000    0.000    0.000    0.000    0.000 
#    0.000    0.000    0.000    0.000    0.000    0.000 
#
# Total GULP energy -198381.237627 kJ/mol
# GULP energy per Si atom -12398.827352 kJ/mol
# Density = 2.129282 g / cm^3
# Si number density = 21.341390 Si / 1000 Ang^3
#
#
#
# Elastic Constant Matrix: (Units=GPa)
#
#
# Indices 1 2 3 4 5 6 
#
# 1 119.2886 44.6237 5.1575 0.0000 0.0000 0.0000
# 2 44.6237 109.8737 31.5478 0.0000 0.0000 0.0000
# 3 5.1575 31.5478 48.9478 0.0000 0.0000 0.0000
# 4 0.0000 0.0000 0.0000 42.5855 0.0000 0.0000
# 5 0.0000 0.0000 0.0000 0.0000 32.5093 0.0000
# 6 0.0000 0.0000 0.0000 0.0000 0.0000 35.8638
#
#
#
# Elastic Compliance Matrix: (Units=1/GPa)
#
#
# Indices 1 2 3 4 5 6 
#
# 1 0.010030 -0.004626 0.001925 0.000000 0.000000 0.000000
# 2 -0.004626 0.013302 -0.008086 0.000000 0.000000 0.000000
# 3 0.001925 -0.008086 0.025439 0.000000 0.000000 0.000000
# 4 0.000000 0.000000 0.000000 0.023482 0.000000 0.000000
# 5 0.000000 0.000000 0.000000 0.000000 0.030760 0.000000
# 6 0.000000 0.000000 0.000000 0.000000 0.000000 0.027883
#
#
# Mechanical properties :
#
#
# Convention : Reuss Voigt Hill
#
# Bulk Modulus (GPa) = 36.76974 48.97422 42.87198
# Shear Modulus (GPa) = 30.95262 35.31047 33.13154
#
# Velocity S-wave (km/s) = 3.81249 4.07203 3.94439
# Velocity P-wave (km/s) = 6.05366 6.71613 6.39348
#
# Compressibility (1/GPa) = 0.02719628
#
# Stress axis : x y z
#
# Youngs Moduli (GPa) = 99.69618 75.17654 39.31030
#
# Poissons Ratio (x) = 0.34780 -0.07567
# Poissons Ratio (y) = 0.46124 0.31786
# Poissons Ratio (z) = -0.19191 0.60787
#
# Static dielectric constant tensor:
#      x y z
#    x 3.721170 0.000000 0.000000 
#    y 0.000000 3.702370 0.000000 
#    z 0.000000 0.000000 3.775640 
# 
# 
# High freq. dielectric constant tensor:
#      x y z
#    x 1.831650 0.000000 0.000000 
#    y 0.000000 1.841850 0.000000 
#    z 0.000000 0.000000 1.836100 
# 
# From -- ./inp_files/15497.got.cif
#   From: 2010.03.12/outbox.cif.g09.slc.cpg/sg20_8_cif.got.tgz:15497.got - 2010.04.14 01:38:04.
