data_PCOD8159487
_publ_section_title
;
Structure prediction by ZEFSAII (Michael W. Deem and Ramdas Pophale) SiO2 
 PCOD8159487
Probable space group: C 2 2 21
;
_chemical_formula_sum "Si O2"
_cell_formula_units_Z 40
_cell_length_a 8.620402
_cell_length_b 9.007898
_cell_length_c 22.875764
_cell_angle_alpha 90.000000
_cell_angle_beta 90.000000
_cell_angle_gamma 90.000000
_cell_volume 1776.342008
_symmetry_space_group_name_H-M "C 2 2 21"
_symmetry_group_IT_number 20
_symmetry_cell_setting 'orthorhombic'
loop_
_space_group_symop_operation_xyz
x,y,z
-x,-y,1/2+z
x,-y,-z
-x,y,1/2-z
1/2+x,1/2+y,z
1/2-x,1/2-y,1/2+z
1/2+x,1/2-y,-z
1/2-x,1/2+y,1/2-z
loop_
_atom_site_type_symbol
_atom_site_label
_atom_site_fract_x
_atom_site_fract_y
_atom_site_fract_z
Si Si1 0.266822 0.240654 0.918092
Si Si2 0.321728 0.073062 0.130152
Si Si3 0.158874 0.579497 0.182646
Si Si4 0.329363 0.246309 0.723770
Si Si5 0.519608 0.164380 0.482871
O O1 0.254407 0.386117 0.877090
O O2 0.117160 0.232200 0.959761
O O3 0.271002 0.097169 0.876562
O O4 0.416251 0.247704 0.959763
O O5 0.476251 0.080897 0.169746
O O6 0.184608 0.158761 0.163931
O O7 0.347860 0.147373 0.066806
O O8 0.199521 0.704264 0.230062
O O9 0.210270 0.422472 0.208261
O O10 0.500000 0.268362 0.750000
O O11 0.458527 0.000000 0.500000
#
# Coordination Sequence:
#
# PCOD8159487 Si02
#       5
#     8   8   8   8   8
#     4  10  21  43  69  93 129 170 209 260 316 373
#     4  10  23  45  64  91 132 168 207 262 319 375
#     4  11  24  43  65  91 130 169 209 264 320 376
#     4  12  25  41  65  95 126 165 216 264 315 378
#     4   9  21  40  65  96 131 166 207 260 316 374
#
# _framework density 22.518186
#
# number of rings (size 3 to 8) (size 9 to 14) (size 15 to 20)
#    0.000    1.600    0.000    4.200    0.000   11.200 
#    0.000   14.000    0.000    0.000    0.000    0.000 
#    0.000    0.000    0.000    0.000    0.000    0.000 
#
# Total GULP energy -248042.156756 kJ/mol
# GULP energy per Si atom -12402.107838 kJ/mol
# Density = 2.246693 g / cm^3
# Si number density = 22.518186 Si / 1000 Ang^3
#
#
#
# Elastic Constant Matrix: (Units=GPa)
#
#
# Indices 1 2 3 4 5 6 
#
# 1 85.1650 73.7496 52.3523 0.0000 0.0000 0.0000
# 2 73.7496 123.9610 77.3322 0.0000 0.0000 0.0000
# 3 52.3523 77.3322 123.7910 0.0000 0.0000 0.0000
# 4 0.0000 0.0000 0.0000 41.6999 0.0000 0.0000
# 5 0.0000 0.0000 0.0000 0.0000 50.6311 0.0000
# 6 0.0000 0.0000 0.0000 0.0000 0.0000 29.1170
#
#
#
# Elastic Compliance Matrix: (Units=1/GPa)
#
#
# Indices 1 2 3 4 5 6 
#
# 1 0.024537 -0.013312 -0.002060 0.000000 0.000000 0.000000
# 2 -0.013312 0.020441 -0.007140 0.000000 0.000000 0.000000
# 3 -0.002060 -0.007140 0.013410 0.000000 0.000000 0.000000
# 4 0.000000 0.000000 0.000000 0.023981 0.000000 0.000000
# 5 0.000000 0.000000 0.000000 0.000000 0.019751 0.000000
# 6 0.000000 0.000000 0.000000 0.000000 0.000000 0.034344
#
#
# Mechanical properties :
#
#
# Convention : Reuss Voigt Hill
#
# Bulk Modulus (GPa) = 74.83728 82.19834 78.51781
# Shear Modulus (GPa) = 26.89006 32.92181 29.90593
#
# Velocity S-wave (km/s) = 3.45939 3.82777 3.64824
# Velocity P-wave (km/s) = 7.01875 7.49120 7.25882
#
# Compressibility (1/GPa) = 0.01336232
#
# Stress axis : x y z
#
# Youngs Moduli (GPa) = 40.75554 48.92079 74.57304
#
# Poissons Ratio (x) = 0.65125 0.15365
# Poissons Ratio (y) = 0.54255 0.53243
# Poissons Ratio (z) = 0.08397 0.34928
#
# Static dielectric constant tensor:
#      x y z
#    x 3.831550 0.000000 0.000000 
#    y 0.000000 3.936230 0.000000 
#    z 0.000000 0.000000 4.503050 
# 
# 
# High freq. dielectric constant tensor:
#      x y z
#    x 1.870310 0.000000 0.000000 
#    y 0.000000 1.876040 0.000000 
#    z 0.000000 0.000000 1.920450 
# 
# From -- ./inp_files/28593.got.cif
#   From: 2010.03.12/outbox.cif.g09.slc.cpg/sg20_15_cif.got.tgz:28593.got - 2010.04.14 01:38:04.
