data_PCOD8159619
_publ_section_title
;
Structure prediction by ZEFSAII (Michael W. Deem and Ramdas Pophale) SiO2 
 PCOD8159619
Probable space group: C 2 2 21
;
_chemical_formula_sum "Si O2"
_cell_formula_units_Z 64
_cell_length_a 14.859243
_cell_length_b 8.883370
_cell_length_c 22.738534
_cell_angle_alpha 90.000000
_cell_angle_beta 90.000000
_cell_angle_gamma 90.000000
_cell_volume 3001.489978
_symmetry_space_group_name_H-M "C 2 2 21"
_symmetry_group_IT_number 20
_symmetry_cell_setting 'orthorhombic'
loop_
_space_group_symop_operation_xyz
x,y,z
-x,-y,1/2+z
x,-y,-z
-x,y,1/2-z
1/2+x,1/2+y,z
1/2-x,1/2-y,1/2+z
1/2+x,1/2-y,-z
1/2-x,1/2+y,1/2-z
loop_
_atom_site_type_symbol
_atom_site_label
_atom_site_fract_x
_atom_site_fract_y
_atom_site_fract_z
Si Si1 0.315917 0.780101 0.124586
Si Si2 0.349076 0.550976 0.622169
Si Si3 0.103818 0.986308 0.248216
Si Si4 0.398275 0.838462 0.244321
Si Si5 0.815726 0.249249 0.434453
Si Si6 0.366411 0.174487 0.999161
Si Si7 0.542098 0.330207 0.023420
Si Si8 0.258390 0.971784 0.333744
O O1 0.251088 0.911014 0.100895
O O2 0.377309 0.850592 0.175270
O O3 0.373396 0.746979 0.065953
O O4 0.252995 0.644863 0.148041
O O5 0.354887 0.590323 0.690848
O O6 0.359315 0.374807 0.608624
O O7 0.418697 0.658879 0.588968
O O8 0.160469 0.927395 0.305041
O O9 0.000000 0.937598 0.250000
O O10 0.112606 0.164863 0.237815
O O11 0.500000 0.896684 0.250000
O O12 0.334175 0.945184 0.283863
O O13 0.729460 0.197298 0.470846
O O14 0.895374 0.279076 0.482148
O O15 0.785595 0.387814 0.393694
O O16 0.443870 0.262479 0.033883
O O17 0.391988 0.000000 0.000000
O O18 0.540901 0.500000 0.000000
#
# Coordination Sequence:
#
# PCOD8159619 Si02
#       8
#     8   8   8   8   8   8   8   8
#     4  11  24  42  67  95 135 168 218 271 326 391
#     4  11  20  45  65  89 135 174 215 263 330 397
#     4  10  22  39  67  94 129 170 220 265 329 393
#     4  10  22  42  65  97 129 174 213 266 334 389
#     4  11  23  43  67  90 131 177 217 258 334 389
#     4  12  25  45  66  97 131 178 217 270 337 386
#     4  10  25  41  67  95 127 172 220 271 324 395
#     4  11  24  38  67 100 127 171 222 276 321 386
#
# _framework density 21.322742999999999
#
# number of rings (size 3 to 8) (size 9 to 14) (size 15 to 20)
#    0.000    1.250    5.000    0.375    5.250    3.000 
#    0.000    0.625    0.000    0.000    0.000    0.000 
#    0.000    0.000    0.000    0.000    0.000    0.000 
#
# Total GULP energy -396574.866443 kJ/mol
# GULP energy per Si atom -12392.964576 kJ/mol
# Density = 2.127421 g / cm^3
# Si number density = 21.322743 Si / 1000 Ang^3
#
#
#
# Elastic Constant Matrix: (Units=GPa)
#
#
# Indices 1 2 3 4 5 6 
#
# 1 109.6418 22.6479 18.3939 0.0000 0.0000 0.0000
# 2 22.6479 44.3380 25.7750 0.0000 0.0000 0.0000
# 3 18.3939 25.7750 103.6913 0.0000 0.0000 0.0000
# 4 0.0000 0.0000 0.0000 28.0736 0.0000 0.0000
# 5 0.0000 0.0000 0.0000 0.0000 35.9492 0.0000
# 6 0.0000 0.0000 0.0000 0.0000 0.0000 27.8937
#
#
#
# Elastic Compliance Matrix: (Units=1/GPa)
#
#
# Indices 1 2 3 4 5 6 
#
# 1 0.010229 -0.004874 -0.000603 0.000000 0.000000 0.000000
# 2 -0.004874 0.028687 -0.006266 0.000000 0.000000 0.000000
# 3 -0.000603 -0.006266 0.011309 0.000000 0.000000 0.000000
# 4 0.000000 0.000000 0.000000 0.035621 0.000000 0.000000
# 5 0.000000 0.000000 0.000000 0.000000 0.027817 0.000000
# 6 0.000000 0.000000 0.000000 0.000000 0.000000 0.035850
#
#
# Mechanical properties :
#
#
# Convention : Reuss Voigt Hill
#
# Bulk Modulus (GPa) = 37.40111 43.47830 40.43971
# Shear Modulus (GPa) = 27.48605 31.10693 29.29649
#
# Velocity S-wave (km/s) = 3.59423 3.82365 3.71071
# Velocity P-wave (km/s) = 5.89942 6.31890 6.11276
#
# Compressibility (1/GPa) = 0.02673718
#
# Stress axis : x y z
#
# Youngs Moduli (GPa) = 97.76517 34.85960 88.42885
#
# Poissons Ratio (x) = 0.16992 0.05331
# Poissons Ratio (y) = 0.47654 0.55410
# Poissons Ratio (z) = 0.05894 0.21843
#
# Static dielectric constant tensor:
#      x y z
#    x 3.866750 0.000000 0.000000 
#    y 0.000000 3.549130 0.000000 
#    z 0.000000 0.000000 4.011330 
# 
# 
# High freq. dielectric constant tensor:
#      x y z
#    x 1.841910 0.000000 0.000000 
#    y 0.000000 1.808370 0.000000 
#    z 0.000000 0.000000 1.852160 
# 
# From -- ./inp_files/28900.got.cif
#   From: 2010.03.12/outbox.cif.g09.slc.cpg/sg20_15_cif.got.tgz:28900.got - 2010.04.14 01:38:04.
