data_PCOD8159028
_publ_section_title
;
Structure prediction by ZEFSAII (Michael W. Deem and Ramdas Pophale) SiO2 
 PCOD8159028
Probable space group: C 2 2 21
;
_chemical_formula_sum "Si O2"
_cell_formula_units_Z 48
_cell_length_a 23.231512
_cell_length_b 18.990763
_cell_length_c 5.119264
_cell_angle_alpha 90.000000
_cell_angle_beta 90.000000
_cell_angle_gamma 90.000000
_cell_volume 2258.538078
_symmetry_space_group_name_H-M "C 2 2 21"
_symmetry_group_IT_number 20
_symmetry_cell_setting 'orthorhombic'
loop_
_space_group_symop_operation_xyz
x,y,z
-x,-y,1/2+z
x,-y,-z
-x,y,1/2-z
1/2+x,1/2+y,z
1/2-x,1/2-y,1/2+z
1/2+x,1/2-y,-z
1/2-x,1/2+y,1/2-z
loop_
_atom_site_type_symbol
_atom_site_label
_atom_site_fract_x
_atom_site_fract_y
_atom_site_fract_z
Si Si1 0.208769 0.638807 0.104509
Si Si2 0.500000 0.544354 0.750000
Si Si3 0.384116 0.581450 0.524716
Si Si4 0.342444 0.654856 0.021834
Si Si5 0.353829 0.187261 0.914496
Si Si6 0.938749 0.428664 0.147804
Si Si7 0.346221 0.000000 0.500000
O O1 0.196184 0.674019 0.379916
O O2 0.275069 0.654970 0.072231
O O3 0.170496 0.673128 0.875179
O O4 0.195818 0.554982 0.145222
O O5 0.523869 0.500000 0.500000
O O6 0.449014 0.591537 0.631653
O O7 0.366742 0.500000 0.500000
O O8 0.345382 0.623443 0.730283
O O9 0.377308 0.609745 0.232699
O O10 0.371189 0.731655 0.050325
O O11 0.409425 0.138228 0.996564
O O12 0.888098 0.450187 0.339622
O O13 0.000000 0.400319 0.250000
O O14 0.955025 0.500000 0.000000
#
# Coordination Sequence:
#
# PCOD8159028 Si02
#       7
#     8   4   8   8   8   8   4
#     4  11  23  40  65  93 133 179 217 268 325 404
#     4  10  20  42  68  88 122 170 208 266 332 394
#     4  11  24  42  67  98 128 167 224 271 331 396
#     4  12  24  42  66  99 138 173 215 277 332 397
#     4  11  24  43  64  94 135 177 224 258 340 405
#     4  11  21  40  65  93 124 175 222 280 327 387
#     4  10  22  36  62  94 128 166 228 272 326 384
#
# _framework density 21.252685
#
# number of rings (size 3 to 8) (size 9 to 14) (size 15 to 20)
#    0.000    1.000    2.500    5.500    2.333    0.000 
#    3.000    0.000    0.000    0.000    0.000    0.000 
#    0.000    0.000    0.000    0.000    0.000    0.000 
#
# Total GULP energy -297354.949084 kJ/mol
# GULP energy per Si atom -12389.789545 kJ/mol
# Density = 2.120431 g / cm^3
# Si number density = 21.252685 Si / 1000 Ang^3
#
#
#
# Elastic Constant Matrix: (Units=GPa)
#
#
# Indices 1 2 3 4 5 6 
#
# 1 85.0596 35.1566 4.7157 0.0000 0.0000 0.0000
# 2 35.1566 144.0419 25.1347 0.0000 0.0000 0.0000
# 3 4.7157 25.1347 68.2929 0.0000 0.0000 0.0000
# 4 0.0000 0.0000 0.0000 23.2498 0.0000 0.0000
# 5 0.0000 0.0000 0.0000 0.0000 39.7428 0.0000
# 6 0.0000 0.0000 0.0000 0.0000 0.0000 4.7775
#
#
#
# Elastic Compliance Matrix: (Units=1/GPa)
#
#
# Indices 1 2 3 4 5 6 
#
# 1 0.013081 -0.003243 0.000290 0.000000 0.000000 0.000000
# 2 -0.003243 0.008223 -0.002802 0.000000 0.000000 0.000000
# 3 0.000290 -0.002802 0.015654 0.000000 0.000000 0.000000
# 4 0.000000 0.000000 0.000000 0.043011 0.000000 0.000000
# 5 0.000000 0.000000 0.000000 0.000000 0.025162 0.000000
# 6 0.000000 0.000000 0.000000 0.000000 0.000000 0.209317
#
#
# Mechanical properties :
#
#
# Convention : Reuss Voigt Hill
#
# Bulk Modulus (GPa) = 39.29680 47.48980 43.39330
# Shear Modulus (GPa) = 14.95033 29.04652 21.99842
#
# Velocity S-wave (km/s) = 2.65515 3.70093 3.22077
# Velocity P-wave (km/s) = 5.28490 6.37623 5.85605
#
# Compressibility (1/GPa) = 0.02544736
#
# Stress axis : x y z
#
# Youngs Moduli (GPa) = 76.44740 121.60926 63.88066
#
# Poissons Ratio (x) = 0.39442 -0.01855
# Poissons Ratio (y) = 0.24795 0.17902
# Poissons Ratio (z) = -0.02220 0.34081
#
# Static dielectric constant tensor:
#      x y z
#    x 3.940830 0.000000 0.000000 
#    y 0.000000 4.118220 0.000000 
#    z 0.000000 0.000000 3.969280 
# 
# 
# High freq. dielectric constant tensor:
#      x y z
#    x 1.832930 0.000000 0.000000 
#    y 0.000000 1.837260 0.000000 
#    z 0.000000 0.000000 1.837970 
# 
# From -- ./inp_files/3771.got.cif
#   From: 2010.03.12/outbox.cif.g09.slc.cpg/sg20_2_cif.got.tgz:3771.got - 2010.04.14 01:38:04.
