data_PCOD8159544
_publ_section_title
;
Structure prediction by ZEFSAII (Michael W. Deem and Ramdas Pophale) SiO2 
 PCOD8159544
Probable space group: C 2 2 21
;
_chemical_formula_sum "Si O2"
_cell_formula_units_Z 52
_cell_length_a 18.694305
_cell_length_b 6.604696
_cell_length_c 20.002027
_cell_angle_alpha 90.000000
_cell_angle_beta 90.000000
_cell_angle_gamma 90.000000
_cell_volume 2469.654303
_symmetry_space_group_name_H-M "C 2 2 21"
_symmetry_group_IT_number 20
_symmetry_cell_setting 'orthorhombic'
loop_
_space_group_symop_operation_xyz
x,y,z
-x,-y,1/2+z
x,-y,-z
-x,y,1/2-z
1/2+x,1/2+y,z
1/2-x,1/2-y,1/2+z
1/2+x,1/2-y,-z
1/2-x,1/2+y,1/2-z
loop_
_atom_site_type_symbol
_atom_site_label
_atom_site_fract_x
_atom_site_fract_y
_atom_site_fract_z
Si Si1 0.440049 0.148519 0.154750
Si Si2 0.312978 0.674169 0.601085
Si Si3 0.597924 0.928768 0.804630
Si Si4 0.057115 0.040474 0.426586
Si Si5 0.157769 0.613977 0.568864
Si Si6 0.912769 0.214261 0.390132
Si Si7 0.140113 0.500000 0.000000
O O1 0.404561 0.122718 0.227091
O O2 0.525390 0.139072 0.158119
O O3 0.417158 0.353051 0.117883
O O4 0.408665 0.972818 0.109654
O O5 0.337235 0.796323 0.666445
O O6 0.231175 0.605523 0.610862
O O7 0.361516 0.474060 0.592849
O O8 0.313861 0.824497 0.536751
O O9 0.608894 0.169800 0.820536
O O10 0.130721 0.158418 0.442036
O O11 0.994877 0.147645 0.383614
O O12 0.022767 0.000000 0.500000
O O13 0.171134 0.500000 0.500000
O O14 0.909607 0.386909 0.446882
#
# Coordination Sequence:
#
# PCOD8159544 Si02
#       7
#     8   8   8   8   8   8   4
#     4  11  24  47  68 100 135 175 234 285 335 407
#     4  11  24  44  67 101 136 179 222 272 344 406
#     4  10  24  46  70  96 135 180 230 282 333 408
#     4  12  24  39  72  98 133 178 226 281 348 400
#     4  12  26  43  66 102 139 175 219 286 345 400
#     4  11  22  40  69  99 128 177 227 275 333 401
#     4  10  22  36  68  98 138 166 222 278 326 398
#
# _framework density 21.055578000000001
#
# number of rings (size 3 to 8) (size 9 to 14) (size 15 to 20)
#    0.000    0.923    4.615    2.308    4.308    3.692 
#    5.538    0.000    0.000    0.000    0.000    0.000 
#    0.000    0.000    0.000    0.000    0.000    0.000 
#
# Total GULP energy -322330.004057 kJ/mol
# GULP energy per Si atom -12397.307848 kJ/mol
# Density = 2.100765 g / cm^3
# Si number density = 21.055578 Si / 1000 Ang^3
#
#
#
# Elastic Constant Matrix: (Units=GPa)
#
#
# Indices 1 2 3 4 5 6 
#
# 1 94.7027 29.3869 15.7031 0.0000 0.0000 0.0000
# 2 29.3869 128.2999 44.9706 0.0000 0.0000 0.0000
# 3 15.7031 44.9706 99.6970 0.0000 0.0000 0.0000
# 4 0.0000 0.0000 0.0000 31.7341 0.0000 0.0000
# 5 0.0000 0.0000 0.0000 0.0000 25.9293 0.0000
# 6 0.0000 0.0000 0.0000 0.0000 0.0000 33.3531
#
#
#
# Elastic Compliance Matrix: (Units=1/GPa)
#
#
# Indices 1 2 3 4 5 6 
#
# 1 0.011412 -0.002357 -0.000735 0.000000 0.000000 0.000000
# 2 -0.002357 0.009745 -0.004024 0.000000 0.000000 0.000000
# 3 -0.000735 -0.004024 0.011961 0.000000 0.000000 0.000000
# 4 0.000000 0.000000 0.000000 0.031512 0.000000 0.000000
# 5 0.000000 0.000000 0.000000 0.000000 0.038566 0.000000
# 6 0.000000 0.000000 0.000000 0.000000 0.000000 0.029982
#
#
# Mechanical properties :
#
#
# Convention : Reuss Voigt Hill
#
# Bulk Modulus (GPa) = 52.94519 55.86899 54.40709
# Shear Modulus (GPa) = 32.52973 33.71256 33.12114
#
# Velocity S-wave (km/s) = 3.93484 4.00574 3.97045
# Velocity P-wave (km/s) = 6.77082 6.92721 6.84946
#
# Compressibility (1/GPa) = 0.01888746
#
# Stress axis : x y z
#
# Youngs Moduli (GPa) = 87.62389 102.62127 83.60249
#
# Poissons Ratio (x) = 0.24183 0.06141
# Poissons Ratio (y) = 0.20649 0.33644
# Poissons Ratio (z) = 0.06437 0.41298
#
# Static dielectric constant tensor:
#      x y z
#    x 3.556780 0.000000 0.000000 
#    y 0.000000 4.131470 0.000000 
#    z 0.000000 0.000000 3.638370 
# 
# 
# High freq. dielectric constant tensor:
#      x y z
#    x 1.813670 0.000000 0.000000 
#    y 0.000000 1.843070 0.000000 
#    z 0.000000 0.000000 1.815190 
# 
# From -- ./inp_files/27896.got.cif
#   From: 2010.03.12/outbox.cif.g09.slc.cpg/sg20_14_cif.got.tgz:27896.got - 2010.04.14 01:38:04.
