data_PCOD8159488
_publ_section_title
;
Structure prediction by ZEFSAII (Michael W. Deem and Ramdas Pophale) SiO2 
 PCOD8159488
Probable space group: C 2 2 21
;
_chemical_formula_sum "Si O2"
_cell_formula_units_Z 32
_cell_length_a 5.244351
_cell_length_b 35.817818
_cell_length_c 7.110609
_cell_angle_alpha 90.000000
_cell_angle_beta 90.000000
_cell_angle_gamma 90.000000
_cell_volume 1335.665396
_symmetry_space_group_name_H-M "C 2 2 21"
_symmetry_group_IT_number 20
_symmetry_cell_setting 'orthorhombic'
loop_
_space_group_symop_operation_xyz
x,y,z
-x,-y,1/2+z
x,-y,-z
-x,y,1/2-z
1/2+x,1/2+y,z
1/2-x,1/2-y,1/2+z
1/2+x,1/2-y,-z
1/2-x,1/2+y,1/2-z
loop_
_atom_site_type_symbol
_atom_site_label
_atom_site_fract_x
_atom_site_fract_y
_atom_site_fract_z
Si Si1 0.254659 0.456177 0.029506
Si Si2 0.755342 0.575894 0.952975
Si Si3 0.757135 0.849053 0.629643
Si Si4 0.903902 0.228813 0.544723
O O1 0.248577 0.441526 0.245013
O O2 0.506684 0.438800 0.935105
O O3 0.999485 0.440097 0.933324
O O4 0.261791 0.500000 0.000000
O O5 0.767392 0.621089 0.958483
O O6 0.500000 0.848670 0.750000
O O7 0.801135 0.808016 0.552470
O O8 0.000000 0.861705 0.750000
O O9 0.655605 0.255773 0.564134
O O10 0.000000 0.218745 0.750000
#
# Coordination Sequence:
#
# PCOD8159488 Si02
#       4
#     8   8   8   8
#     4  10  21  43  69  94 136 175 235 305 359 439
#     4  10  23  43  67 100 135 182 241 285 375 427
#     4  12  26  48  72 104 154 194 242 305 360 435
#     4  12  26  47  78 111 149 195 249 302 367 440
#
# _framework density 23.958096000000001
#
# number of rings (size 3 to 8) (size 9 to 14) (size 15 to 20)
#    0.000    1.000    0.000    6.750    3.500    0.000 
#   31.500    0.000    0.000    0.000    0.000    0.000 
#    0.000    0.000    0.000    0.000    0.000    0.000 
#
# Total GULP energy -198263.092084 kJ/mol
# GULP energy per Si atom -12391.443255 kJ/mol
# Density = 2.390357 g / cm^3
# Si number density = 23.958096 Si / 1000 Ang^3
#
#
#
# Elastic Constant Matrix: (Units=GPa)
#
#
# Indices 1 2 3 4 5 6 
#
# 1 271.9690 77.6260 25.6815 0.0000 0.0000 0.0000
# 2 77.6260 199.9694 53.5357 0.0000 0.0000 0.0000
# 3 25.6815 53.5357 86.4792 0.0000 0.0000 0.0000
# 4 0.0000 0.0000 0.0000 54.9728 0.0000 0.0000
# 5 0.0000 0.0000 0.0000 0.0000 12.3034 0.0000
# 6 0.0000 0.0000 0.0000 0.0000 0.0000 61.1249
#
#
#
# Elastic Compliance Matrix: (Units=1/GPa)
#
#
# Indices 1 2 3 4 5 6 
#
# 1 0.004141 -0.001532 -0.000281 0.000000 0.000000 0.000000
# 2 -0.001532 0.006561 -0.003607 0.000000 0.000000 0.000000
# 3 -0.000281 -0.003607 0.013880 0.000000 0.000000 0.000000
# 4 0.000000 0.000000 0.000000 0.018191 0.000000 0.000000
# 5 0.000000 0.000000 0.000000 0.000000 0.081279 0.000000
# 6 0.000000 0.000000 0.000000 0.000000 0.000000 0.016360
#
#
# Mechanical properties :
#
#
# Convention : Reuss Voigt Hill
#
# Bulk Modulus (GPa) = 72.77207 96.90044 84.83625
# Shear Modulus (GPa) = 32.08596 52.45186 42.26891
#
# Velocity S-wave (km/s) = 3.66355 4.68409 4.20490
# Velocity P-wave (km/s) = 6.95242 8.35391 7.68518
#
# Compressibility (1/GPa) = 0.01374154
#
# Stress axis : x y z
#
# Youngs Moduli (GPa) = 241.50275 152.41352 72.04744
#
# Poissons Ratio (x) = 0.23351 0.02026
# Poissons Ratio (y) = 0.37001 0.25985
# Poissons Ratio (z) = 0.06791 0.54971
#
# Static dielectric constant tensor:
#      x y z
#    x 4.892910 0.000000 0.000000 
#    y 0.000000 4.280970 0.000000 
#    z 0.000000 0.000000 3.944140 
# 
# 
# High freq. dielectric constant tensor:
#      x y z
#    x 1.998130 0.000000 0.000000 
#    y 0.000000 1.956130 0.000000 
#    z 0.000000 0.000000 1.933230 
# 
# From -- ./inp_files/5128.got.cif
#   From: 2010.03.12/outbox.cif.g09.slc.cpg/sg20_3_cif.got.tgz:5128.got - 2010.04.14 01:38:04.
