data_PCOD8159412
_publ_section_title
;
Structure prediction by ZEFSAII (Michael W. Deem and Ramdas Pophale) SiO2 
 PCOD8159412
Probable space group: C 2 2 21
;
_chemical_formula_sum "Si O2"
_cell_formula_units_Z 48
_cell_length_a 5.328055
_cell_length_b 25.329116
_cell_length_c 16.825620
_cell_angle_alpha 90.000000
_cell_angle_beta 90.000000
_cell_angle_gamma 90.000000
_cell_volume 2270.700254
_symmetry_space_group_name_H-M "C 2 2 21"
_symmetry_group_IT_number 20
_symmetry_cell_setting 'orthorhombic'
loop_
_space_group_symop_operation_xyz
x,y,z
-x,-y,1/2+z
x,-y,-z
-x,y,1/2-z
1/2+x,1/2+y,z
1/2-x,1/2-y,1/2+z
1/2+x,1/2-y,-z
1/2-x,1/2+y,1/2-z
loop_
_atom_site_type_symbol
_atom_site_label
_atom_site_fract_x
_atom_site_fract_y
_atom_site_fract_z
Si Si1 0.078539 0.794143 0.420295
Si Si2 0.641254 0.992057 0.148275
Si Si3 0.418480 0.180129 0.007919
Si Si4 0.500000 0.900295 0.250000
Si Si5 0.529984 0.500000 0.500000
Si Si6 0.500000 0.333836 0.250000
Si Si7 0.259946 0.920542 0.903662
Si Si8 0.500000 0.555483 0.250000
O O1 0.331908 0.822266 0.453275
O O2 0.078280 0.732524 0.439513
O O3 0.834492 0.822504 0.456438
O O4 0.062729 0.797462 0.325487
O O5 0.443183 0.033861 0.120931
O O6 0.819988 0.979400 0.075324
O O7 0.777497 0.016225 0.225265
O O8 0.523519 0.936048 0.171330
O O9 0.410858 0.131272 0.069322
O O10 0.751440 0.867591 0.266023
O O11 0.384898 0.553784 0.477682
O O12 0.082950 0.908503 0.826067
#
# Coordination Sequence:
#
# PCOD8159412 Si02
#       8
#     8   8   8   4   4   4   8   4
#     4  10  24  49  67 103 133 169 230 288 337 409
#     4  11  23  43  59  97 140 177 226 275 331 409
#     4  10  24  46  75  94 138 177 219 287 351 390
#     4  12  26  42  68  94 143 185 212 284 344 394
#     4  10  26  36  64  96 136 172 236 270 318 422
#     4  12  27  42  71 102 131 180 234 273 344 410
#     4  11  23  41  66  99 128 189 220 281 336 414
#     4  10  21  42  61  90 144 169 230 273 332 400
#
# _framework density 21.138850999999999
#
# number of rings (size 3 to 8) (size 9 to 14) (size 15 to 20)
#    0.000    1.333    1.667    2.000    9.333    2.667 
#    3.000    0.833    0.000    0.000    0.000    0.000 
#    0.000    0.000    0.000    0.000    0.000    0.000 
#
# Total GULP energy -297551.186350 kJ/mol
# GULP energy per Si atom -12397.966098 kJ/mol
# Density = 2.109074 g / cm^3
# Si number density = 21.138851 Si / 1000 Ang^3
#
#
#
# Elastic Constant Matrix: (Units=GPa)
#
#
# Indices 1 2 3 4 5 6 
#
# 1 138.5770 34.3790 52.8210 0.0000 0.0000 0.0000
# 2 34.3790 72.9578 58.3138 0.0000 0.0000 0.0000
# 3 52.8210 58.3138 151.5954 0.0000 0.0000 0.0000
# 4 0.0000 0.0000 0.0000 125.9109 0.0000 0.0000
# 5 0.0000 0.0000 0.0000 0.0000 -9.2874 0.0000
# 6 0.0000 0.0000 0.0000 0.0000 0.0000 31.7037
#
#
#
# Elastic Compliance Matrix: (Units=1/GPa)
#
#
# Indices 1 2 3 4 5 6 
#
# 1 0.008601 -0.002394 -0.002076 0.000000 0.000000 0.000000
# 2 -0.002394 0.020458 -0.007035 0.000000 0.000000 0.000000
# 3 -0.002076 -0.007035 0.010026 0.000000 0.000000 0.000000
# 4 0.000000 0.000000 0.000000 0.007942 0.000000 0.000000
# 5 0.000000 0.000000 0.000000 0.000000 -0.107672 0.000000
# 6 0.000000 0.000000 0.000000 0.000000 0.000000 0.031542
#
#
# Mechanical properties :
#
#
# Convention : Reuss Voigt Hill
#
# Bulk Modulus (GPa) = 62.20914 72.68421 67.44668
# Shear Modulus (GPa) = -6813.09581 44.17320 -3384.46130
#
# Velocity S-wave (km/s) = -56.83325 4.57625 -40.05668
# Velocity P-wave (km/s) = 65.40029 7.89820 45.90651
#
# Compressibility (1/GPa) = 0.01607481
#
# Stress axis : x y z
#
# Youngs Moduli (GPa) = 116.25964 48.88127 99.73822
#
# Poissons Ratio (x) = 0.11700 0.20709
# Poissons Ratio (y) = 0.27828 0.70170
# Poissons Ratio (z) = 0.24139 0.34390
#
# Static dielectric constant tensor:
#      x y z
#    x 3.982810 0.000000 0.000000 
#    y 0.000000 4.020640 0.000000 
#    z 0.000000 0.000000 3.898760 
# 
# 
# High freq. dielectric constant tensor:
#      x y z
#    x 1.848670 0.000000 0.000000 
#    y 0.000000 1.811090 0.000000 
#    z 0.000000 0.000000 1.844080 
# 
# From -- ./inp_files/17859.got.cif
#   From: 2010.03.12/outbox.cif.g09.slc.cpg/sg20_9_cif.got.tgz:17859.got - 2010.04.14 01:38:04.
