data_PCOD8159199
_publ_section_title
;
Structure prediction by ZEFSAII (Michael W. Deem and Ramdas Pophale) SiO2 
 PCOD8159199
Probable space group: C 2 2 21
;
_chemical_formula_sum "Si O2"
_cell_formula_units_Z 60
_cell_length_a 22.564010
_cell_length_b 25.368368
_cell_length_c 5.062408
_cell_angle_alpha 90.000000
_cell_angle_beta 90.000000
_cell_angle_gamma 90.000000
_cell_volume 2897.783641
_symmetry_space_group_name_H-M "C 2 2 21"
_symmetry_group_IT_number 20
_symmetry_cell_setting 'orthorhombic'
loop_
_space_group_symop_operation_xyz
x,y,z
-x,-y,1/2+z
x,-y,-z
-x,y,1/2-z
1/2+x,1/2+y,z
1/2-x,1/2-y,1/2+z
1/2+x,1/2-y,-z
1/2-x,1/2+y,1/2-z
loop_
_atom_site_type_symbol
_atom_site_label
_atom_site_fract_x
_atom_site_fract_y
_atom_site_fract_z
Si Si1 0.436159 0.136916 0.856335
Si Si2 0.113817 0.313934 0.866980
Si Si3 0.334446 0.943946 0.132528
Si Si4 0.885712 0.191812 0.690418
Si Si5 0.847048 0.134384 0.206003
Si Si6 0.939928 0.945386 0.891586
Si Si7 0.284011 0.104183 0.364285
Si Si8 0.000000 0.138484 0.750000
O O1 0.500000 0.119391 0.750000
O O2 0.414478 0.182290 0.656458
O O3 0.397667 0.084054 0.842700
O O4 0.431209 0.160163 0.152486
O O5 0.124654 0.253716 0.798913
O O6 0.176990 0.343020 0.885156
O O7 0.304377 0.940820 0.423665
O O8 0.289632 0.915334 0.934604
O O9 0.346797 0.000000 0.000000
O O10 0.840406 0.166537 0.478948
O O11 0.953351 0.176483 0.596314
O O12 0.875713 0.171952 0.986560
O O13 0.887487 0.082460 0.275242
O O14 0.784291 0.116980 0.089229
O O15 0.000000 0.963032 0.750000
O O16 0.957294 0.899908 0.091792
O O17 0.912671 0.000000 0.000000
#
# Coordination Sequence:
#
# PCOD8159199 Si02
#       8
#     8   8   8   8   8   8   8   4
#     4  10  21  38  60  91 126 158 205 249 296 372
#     4  10  22  39  60  90 122 167 199 248 313 356
#     4  10  21  40  64  88 124 162 201 252 313 356
#     4  11  23  38  59  88 121 158 203 248 306 366
#     4  11  24  40  60  90 118 156 207 256 298 367
#     4  11  21  38  58  78 114 153 192 244 310 359
#     4  10  22  41  62  88 125 158 206 258 301 371
#     4  10  22  36  54  82 118 150 196 248 304 360
#
# _framework density 20.705477999999999
#
# number of rings (size 3 to 8) (size 9 to 14) (size 15 to 20)
#    0.000    1.600    2.000    2.400    1.867    2.133 
#    0.000    4.667    0.000    0.000    0.000    0.000 
#    0.000    0.000    0.000    0.000    0.000    0.000 
#
# Total GULP energy -371773.640833 kJ/mol
# GULP energy per Si atom -12392.454694 kJ/mol
# Density = 2.065835 g / cm^3
# Si number density = 20.705478 Si / 1000 Ang^3
#
#
#
# Elastic Constant Matrix: (Units=GPa)
#
#
# Indices 1 2 3 4 5 6 
#
# 1 100.1704 43.6627 18.3970 0.0000 0.0000 0.0000
# 2 43.6627 102.2509 15.8791 0.0000 0.0000 0.0000
# 3 18.3970 15.8791 82.2907 0.0000 0.0000 0.0000
# 4 0.0000 0.0000 0.0000 26.9926 0.0000 0.0000
# 5 0.0000 0.0000 0.0000 0.0000 19.9003 0.0000
# 6 0.0000 0.0000 0.0000 0.0000 0.0000 15.2577
#
#
#
# Elastic Compliance Matrix: (Units=1/GPa)
#
#
# Indices 1 2 3 4 5 6 
#
# 1 0.012526 -0.005066 -0.001823 0.000000 0.000000 0.000000
# 2 -0.005066 0.012131 -0.001208 0.000000 0.000000 0.000000
# 3 -0.001823 -0.001208 0.012793 0.000000 0.000000 0.000000
# 4 0.000000 0.000000 0.000000 0.037047 0.000000 0.000000
# 5 0.000000 0.000000 0.000000 0.000000 0.050250 0.000000
# 6 0.000000 0.000000 0.000000 0.000000 0.000000 0.065541
#
#
# Mechanical properties :
#
#
# Convention : Reuss Voigt Hill
#
# Bulk Modulus (GPa) = 47.04627 48.95440 48.00034
# Shear Modulus (GPa) = 23.41197 26.21501 24.81349
#
# Velocity S-wave (km/s) = 3.36626 3.56208 3.46555
# Velocity P-wave (km/s) = 6.15466 6.37279 6.26467
#
# Compressibility (1/GPa) = 0.02125567
#
# Stress axis : x y z
#
# Youngs Moduli (GPa) = 79.83531 82.43608 78.16951
#
# Poissons Ratio (x) = 0.41759 0.14249
# Poissons Ratio (y) = 0.40442 0.09445
# Poissons Ratio (z) = 0.14552 0.09961
#
# Static dielectric constant tensor:
#      x y z
#    x 3.841650 0.000000 0.000000 
#    y 0.000000 3.671980 0.000000 
#    z 0.000000 0.000000 3.803770 
# 
# 
# High freq. dielectric constant tensor:
#      x y z
#    x 1.803730 0.000000 0.000000 
#    y 0.000000 1.807730 0.000000 
#    z 0.000000 0.000000 1.816740 
# 
# From -- ./inp_files/3323.got.cif
#   From: 2010.03.12/outbox.cif.g09.slc.cpg/sg20_2_cif.got.tgz:3323.got - 2010.04.14 01:38:04.
