data_PCOD8159820
_publ_section_title
;
Structure prediction by ZEFSAII (Michael W. Deem and Ramdas Pophale) SiO2 
 PCOD8159820
Probable space group: C 2 2 21
;
_chemical_formula_sum "Si O2"
_cell_formula_units_Z 56
_cell_length_a 15.113836
_cell_length_b 8.918624
_cell_length_c 19.411474
_cell_angle_alpha 90.000000
_cell_angle_beta 90.000000
_cell_angle_gamma 90.000000
_cell_volume 2616.562271
_symmetry_space_group_name_H-M "C 2 2 21"
_symmetry_group_IT_number 20
_symmetry_cell_setting 'orthorhombic'
loop_
_space_group_symop_operation_xyz
x,y,z
-x,-y,1/2+z
x,-y,-z
-x,y,1/2-z
1/2+x,1/2+y,z
1/2-x,1/2-y,1/2+z
1/2+x,1/2-y,-z
1/2-x,1/2+y,1/2-z
loop_
_atom_site_type_symbol
_atom_site_label
_atom_site_fract_x
_atom_site_fract_y
_atom_site_fract_z
Si Si1 0.165887 0.750420 0.997428
Si Si2 0.641100 0.917432 0.231569
Si Si3 0.633790 0.489649 0.107457
Si Si4 0.064048 0.937735 0.624822
Si Si5 0.977931 0.500000 0.500000
Si Si6 0.687381 0.578394 0.252509
Si Si7 0.810495 0.000000 0.000000
Si Si8 0.026448 0.593602 0.639544
O O1 0.168454 0.843329 0.068211
O O2 0.252894 0.649829 0.993953
O O3 0.078797 0.650079 0.995329
O O4 0.162103 0.860539 0.932547
O O5 0.684047 0.754782 0.239862
O O6 0.574130 0.915496 0.167408
O O7 0.592454 0.967424 0.302073
O O8 0.717933 0.036386 0.214084
O O9 0.528276 0.476706 0.116435
O O10 0.679912 0.488204 0.181385
O O11 0.106917 0.974245 0.698870
O O12 0.049299 0.761614 0.618960
O O13 0.129186 0.995568 0.566711
O O14 0.036728 0.494212 0.569971
#
# Coordination Sequence:
#
# PCOD8159820 Si02
#       8
#     8   8   8   8   4   8   4   8
#     4  10  24  40  68  95 135 169 213 277 330 387
#     4  10  23  44  65  95 133 170 216 276 338 390
#     4  11  22  46  66  98 131 176 218 272 331 397
#     4  11  23  42  69  92 129 177 221 264 327 406
#     4  11  20  40  72  93 126 174 220 263 326 394
#     4  11  24  40  70  94 128 169 224 271 326 390
#     4  11  26  42  66 101 130 174 222 273 334 398
#     4  10  22  43  69  93 130 175 217 270 338 394
#
# _framework density 21.402128999999999
#
# number of rings (size 3 to 8) (size 9 to 14) (size 15 to 20)
#    0.000    1.429    2.857    1.286   10.000    0.000 
#    5.143    0.000    0.000    0.000    0.000    0.000 
#    0.000    0.000    0.000    0.000    0.000    0.000 
#
# Total GULP energy -347309.311294 kJ/mol
# GULP energy per Si atom -12403.903975 kJ/mol
# Density = 2.135342 g / cm^3
# Si number density = 21.402129 Si / 1000 Ang^3
#
#
#
# Elastic Constant Matrix: (Units=GPa)
#
#
# Indices 1 2 3 4 5 6 
#
# 1 108.3245 40.7279 26.3762 0.0000 0.0000 0.0000
# 2 40.7279 69.0939 42.8889 0.0000 0.0000 0.0000
# 3 26.3762 42.8889 137.1458 0.0000 0.0000 0.0000
# 4 0.0000 0.0000 0.0000 30.9027 0.0000 0.0000
# 5 0.0000 0.0000 0.0000 0.0000 28.4210 0.0000
# 6 0.0000 0.0000 0.0000 0.0000 0.0000 31.3350
#
#
#
# Elastic Compliance Matrix: (Units=1/GPa)
#
#
# Indices 1 2 3 4 5 6 
#
# 1 0.011862 -0.006919 -0.000118 0.000000 0.000000 0.000000
# 2 -0.006919 0.021995 -0.005548 0.000000 0.000000 0.000000
# 3 -0.000118 -0.005548 0.009049 0.000000 0.000000 0.000000
# 4 0.000000 0.000000 0.000000 0.032360 0.000000 0.000000
# 5 0.000000 0.000000 0.000000 0.000000 0.035185 0.000000
# 6 0.000000 0.000000 0.000000 0.000000 0.000000 0.031913
#
#
# Mechanical properties :
#
#
# Convention : Reuss Voigt Hill
#
# Bulk Modulus (GPa) = 56.37837 59.39448 57.88642
# Shear Modulus (GPa) = 28.82766 31.76983 30.29874
#
# Velocity S-wave (km/s) = 3.67407 3.85700 3.76665
# Velocity P-wave (km/s) = 6.66318 6.90270 6.78399
#
# Compressibility (1/GPa) = 0.01773730
#
# Stress axis : x y z
#
# Youngs Moduli (GPa) = 84.30633 45.46458 110.50895
#
# Poissons Ratio (x) = 0.31457 0.01299
# Poissons Ratio (y) = 0.58331 0.61308
# Poissons Ratio (z) = 0.00991 0.25223
#
# Static dielectric constant tensor:
#      x y z
#    x 3.929230 0.000000 0.000000 
#    y 0.000000 4.062860 0.000000 
#    z 0.000000 0.000000 4.125850 
# 
# 
# High freq. dielectric constant tensor:
#      x y z
#    x 1.840970 0.000000 0.000000 
#    y 0.000000 1.825570 0.000000 
#    z 0.000000 0.000000 1.858850 
# 
# From -- ./inp_files/27613.got.cif
#   From: 2010.03.12/outbox.cif.g09.slc.cpg/sg20_14_cif.got.tgz:27613.got - 2010.04.14 01:38:04.
