data_PCOD8159403
_publ_section_title
;
Structure prediction by ZEFSAII (Michael W. Deem and Ramdas Pophale) SiO2 
 PCOD8159403
Probable space group: C 2 2 21
;
_chemical_formula_sum "Si O2"
_cell_formula_units_Z 48
_cell_length_a 14.275856
_cell_length_b 18.261022
_cell_length_c 8.783033
_cell_angle_alpha 90.000000
_cell_angle_beta 90.000000
_cell_angle_gamma 90.000000
_cell_volume 2289.663984
_symmetry_space_group_name_H-M "C 2 2 21"
_symmetry_group_IT_number 20
_symmetry_cell_setting 'orthorhombic'
loop_
_space_group_symop_operation_xyz
x,y,z
-x,-y,1/2+z
x,-y,-z
-x,y,1/2-z
1/2+x,1/2+y,z
1/2-x,1/2-y,1/2+z
1/2+x,1/2-y,-z
1/2-x,1/2+y,1/2-z
loop_
_atom_site_type_symbol
_atom_site_label
_atom_site_fract_x
_atom_site_fract_y
_atom_site_fract_z
Si Si1 0.220723 0.896881 0.737704
Si Si2 0.423084 0.067317 0.382897
Si Si3 0.864874 0.245566 0.149050
Si Si4 0.904582 0.975833 0.328825
Si Si5 0.552159 0.774339 0.022597
Si Si6 0.804760 0.161435 0.572777
O O1 0.320539 0.930327 0.692385
O O2 0.185283 0.833084 0.624238
O O3 0.143482 0.960384 0.731331
O O4 0.223805 0.861705 0.903802
O O5 0.500000 0.058310 0.250000
O O6 0.438398 0.141481 0.476713
O O7 0.431517 0.000000 0.500000
O O8 0.914049 0.256410 0.309170
O O9 0.788882 0.308931 0.146537
O O10 0.941818 0.253693 0.014715
O O11 0.834635 0.907567 0.327253
O O12 0.000000 0.952329 0.250000
O O13 0.926852 0.000000 0.500000
O O14 0.612738 0.721952 0.913574
#
# Coordination Sequence:
#
# PCOD8159403 Si02
#       6
#     8   8   8   8   8   8
#     4  10  23  43  66  96 136 176 219 280 338 408
#     4  12  28  46  67 100 140 182 234 280 340 408
#     4  10  21  41  71  93 137 169 225 278 337 404
#     4  10  24  42  66  97 135 171 217 273 345 398
#     4  10  23  41  68 100 129 179 225 278 340 401
#     4  10  21  43  67  99 129 178 223 278 343 397
#
# _framework density 20.963774999999998
#
# number of rings (size 3 to 8) (size 9 to 14) (size 15 to 20)
#    0.000    1.667    1.667    1.000   11.667    3.333 
#    6.000    0.000    0.000    0.000    0.000    0.000 
#    0.000    0.000    0.000    0.000    0.000    0.000 
#
# Total GULP energy -297593.233410 kJ/mol
# GULP energy per Si atom -12399.718059 kJ/mol
# Density = 2.091606 g / cm^3
# Si number density = 20.963775 Si / 1000 Ang^3
#
#
#
# Elastic Constant Matrix: (Units=GPa)
#
#
# Indices 1 2 3 4 5 6 
#
# 1 141.4645 36.9175 33.5927 0.0000 0.0000 0.0000
# 2 36.9175 123.5528 27.8410 0.0000 0.0000 0.0000
# 3 33.5927 27.8410 30.5164 0.0000 0.0000 0.0000
# 4 0.0000 0.0000 0.0000 27.1949 0.0000 0.0000
# 5 0.0000 0.0000 0.0000 0.0000 27.6583 0.0000
# 6 0.0000 0.0000 0.0000 0.0000 0.0000 25.2862
#
#
#
# Elastic Compliance Matrix: (Units=1/GPa)
#
#
# Indices 1 2 3 4 5 6 
#
# 1 0.009608 -0.000614 -0.010016 0.000000 0.000000 0.000000
# 2 -0.000614 0.010227 -0.008655 0.000000 0.000000 0.000000
# 3 -0.010016 -0.008655 0.051691 0.000000 0.000000 0.000000
# 4 0.000000 0.000000 0.000000 0.036772 0.000000 0.000000
# 5 0.000000 0.000000 0.000000 0.000000 0.036155 0.000000
# 6 0.000000 0.000000 0.000000 0.000000 0.000000 0.039547
#
#
# Mechanical properties :
#
#
# Convention : Reuss Voigt Hill
#
# Bulk Modulus (GPa) = 30.34315 54.69289 42.51802
# Shear Modulus (GPa) = 21.40812 29.17338 25.29075
#
# Velocity S-wave (km/s) = 3.19908 3.73447 3.47710
# Velocity P-wave (km/s) = 5.30575 6.68887 6.03705
#
# Compressibility (1/GPa) = 0.03295637
#
# Stress axis : x y z
#
# Youngs Moduli (GPa) = 104.08495 97.77651 19.34556
#
# Poissons Ratio (x) = 0.06001 0.19377
# Poissons Ratio (y) = 0.06388 0.16744
# Poissons Ratio (z) = 1.04253 0.84627
#
# Static dielectric constant tensor:
#      x y z
#    x 4.160080 0.000000 0.000000 
#    y 0.000000 3.997040 0.000000 
#    z 0.000000 0.000000 3.595510 
# 
# 
# High freq. dielectric constant tensor:
#      x y z
#    x 1.840290 0.000000 0.000000 
#    y 0.000000 1.834590 0.000000 
#    z 0.000000 0.000000 1.802790 
# 
# From -- ./inp_files/8406.got.cif
#   From: 2010.03.12/outbox.cif.g09.slc.cpg/sg20_5_cif.got.tgz:8406.got - 2010.04.14 01:38:04.
