data_PCOD8159823
_publ_section_title
;
Structure prediction by ZEFSAII (Michael W. Deem and Ramdas Pophale) SiO2 
 PCOD8159823
Probable space group: C 2 2 21
;
_chemical_formula_sum "Si O2"
_cell_formula_units_Z 64
_cell_length_a 10.888772
_cell_length_b 14.607391
_cell_length_c 17.614789
_cell_angle_alpha 90.000000
_cell_angle_beta 90.000000
_cell_angle_gamma 90.000000
_cell_volume 2801.747569
_symmetry_space_group_name_H-M "C 2 2 21"
_symmetry_group_IT_number 20
_symmetry_cell_setting 'orthorhombic'
loop_
_space_group_symop_operation_xyz
x,y,z
-x,-y,1/2+z
x,-y,-z
-x,y,1/2-z
1/2+x,1/2+y,z
1/2-x,1/2-y,1/2+z
1/2+x,1/2-y,-z
1/2-x,1/2+y,1/2-z
loop_
_atom_site_type_symbol
_atom_site_label
_atom_site_fract_x
_atom_site_fract_y
_atom_site_fract_z
Si Si1 0.204645 0.724990 0.354339
Si Si2 0.735043 0.214892 0.522418
Si Si3 0.979079 0.836987 0.402405
Si Si4 0.978480 0.982339 0.667219
Si Si5 0.536204 0.066950 0.567303
Si Si6 0.878793 0.619282 0.700637
Si Si7 0.372165 0.408839 0.965921
Si Si8 0.705069 0.030104 0.314179
O O1 0.274508 0.700271 0.434024
O O2 0.280719 0.798241 0.304111
O O3 0.181397 0.638005 0.299403
O O4 0.069177 0.754549 0.381992
O O5 0.838518 0.191578 0.584606
O O6 0.612787 0.155601 0.539781
O O7 0.717949 0.323067 0.536110
O O8 0.013185 0.888253 0.479881
O O9 0.000392 0.908747 0.334595
O O10 0.836880 0.971574 0.645665
O O11 0.000000 0.942093 0.750000
O O12 0.072439 0.925165 0.616782
O O13 0.415792 0.099066 0.613541
O O14 0.494149 0.000000 0.500000
O O15 0.613164 0.005131 0.623471
O O16 0.810962 0.530169 0.737342
O O17 0.000000 0.646822 0.750000
O O18 0.304968 0.500000 0.000000
#
# Coordination Sequence:
#
# PCOD8159823 Si02
#       8
#     8   8   8   8   8   8   8   8
#     4  11  24  43  76 106 138 187 241 298 363 425
#     4  11  22  41  77 105 139 179 241 305 364 423
#     4  10  22  43  70 101 136 178 234 302 353 421
#     4  11  22  41  67  95 141 183 234 280 349 421
#     4  11  23  44  76 106 137 191 243 296 364 438
#     4  10  26  49  72 102 152 189 244 298 365 446
#     4   9  22  41  67 102 139 182 234 297 357 420
#     4  11  23  45  69 101 139 192 234 290 355 439
#
# _framework density 22.842886
#
# number of rings (size 3 to 8) (size 9 to 14) (size 15 to 20)
#    0.000    1.500    2.500    1.500    5.250    0.500 
#    2.250   24.375    0.000    0.000    0.000    0.000 
#    0.000    0.000    0.000    0.000    0.000    0.000 
#
# Total GULP energy -396602.714898 kJ/mol
# GULP energy per Si atom -12393.834841 kJ/mol
# Density = 2.279089 g / cm^3
# Si number density = 22.842886 Si / 1000 Ang^3
#
#
#
# Elastic Constant Matrix: (Units=GPa)
#
#
# Indices 1 2 3 4 5 6 
#
# 1 37.3543 27.0606 14.2290 0.0000 0.0000 0.0000
# 2 27.0606 170.7625 51.9010 0.0000 0.0000 0.0000
# 3 14.2290 51.9010 104.1356 0.0000 0.0000 0.0000
# 4 0.0000 0.0000 0.0000 35.8413 0.0000 0.0000
# 5 0.0000 0.0000 0.0000 0.0000 12.5664 0.0000
# 6 0.0000 0.0000 0.0000 0.0000 0.0000 30.0871
#
#
#
# Elastic Compliance Matrix: (Units=1/GPa)
#
#
# Indices 1 2 3 4 5 6 
#
# 1 0.030620 -0.004220 -0.002081 0.000000 0.000000 0.000000
# 2 -0.004220 0.007483 -0.003153 0.000000 0.000000 0.000000
# 3 -0.002081 -0.003153 0.011459 0.000000 0.000000 0.000000
# 4 0.000000 0.000000 0.000000 0.027901 0.000000 0.000000
# 5 0.000000 0.000000 0.000000 0.000000 0.079577 0.000000
# 6 0.000000 0.000000 0.000000 0.000000 0.000000 0.033237
#
#
# Mechanical properties :
#
#
# Convention : Reuss Voigt Hill
#
# Bulk Modulus (GPa) = 32.62136 55.40374 44.01255
# Shear Modulus (GPa) = 22.78915 30.30307 26.54611
#
# Velocity S-wave (km/s) = 3.16198 3.64619 3.41268
# Velocity P-wave (km/s) = 5.25762 6.48330 5.90236
#
# Compressibility (1/GPa) = 0.03065476
#
# Stress axis : x y z
#
# Youngs Moduli (GPa) = 32.65806 133.63392 87.27071
#
# Poissons Ratio (x) = 0.56393 0.18158
# Poissons Ratio (y) = 0.13782 0.27516
# Poissons Ratio (z) = 0.06795 0.42134
#
# Static dielectric constant tensor:
#      x y z
#    x 2.914060 0.000000 0.000000 
#    y 0.000000 4.416450 0.000000 
#    z 0.000000 0.000000 4.010810 
# 
# 
# High freq. dielectric constant tensor:
#      x y z
#    x 1.893000 0.000000 0.000000 
#    y 0.000000 1.910690 0.000000 
#    z 0.000000 0.000000 1.898080 
# 
# From -- ./inp_files/24479.got.cif
#   From: 2010.03.12/outbox.cif.g09.slc.cpg/sg20_13_cif.got.tgz:24479.got - 2010.04.14 01:38:04.
