data_PCOD8159165
_publ_section_title
;
Structure prediction by ZEFSAII (Michael W. Deem and Ramdas Pophale) SiO2 
 PCOD8159165
Probable space group: C 2 2 21
;
_chemical_formula_sum "Si O2"
_cell_formula_units_Z 64
_cell_length_a 11.610066
_cell_length_b 29.526466
_cell_length_c 8.940606
_cell_angle_alpha 90.000000
_cell_angle_beta 90.000000
_cell_angle_gamma 90.000000
_cell_volume 3064.877457
_symmetry_space_group_name_H-M "C 2 2 21"
_symmetry_group_IT_number 20
_symmetry_cell_setting 'orthorhombic'
loop_
_space_group_symop_operation_xyz
x,y,z
-x,-y,1/2+z
x,-y,-z
-x,y,1/2-z
1/2+x,1/2+y,z
1/2-x,1/2-y,1/2+z
1/2+x,1/2-y,-z
1/2-x,1/2+y,1/2-z
loop_
_atom_site_type_symbol
_atom_site_label
_atom_site_fract_x
_atom_site_fract_y
_atom_site_fract_z
Si Si1 0.771814 0.548730 0.514180
Si Si2 0.430178 0.286592 0.593174
Si Si3 0.779593 0.628291 0.695526
Si Si4 0.511679 0.455711 0.572071
Si Si5 0.035348 0.866119 0.417983
Si Si6 0.878235 0.386195 0.716482
Si Si7 0.289767 0.838565 0.983662
Si Si8 0.049639 0.685017 0.983979
O O1 0.835009 0.500000 0.500000
O O2 0.808138 0.574528 0.669380
O O3 0.637045 0.540762 0.500499
O O4 0.804053 0.579725 0.376285
O O5 0.500000 0.286687 0.750000
O O6 0.498000 0.317308 0.476197
O O7 0.298742 0.304676 0.599199
O O8 0.415161 0.237044 0.524571
O O9 0.674899 0.636124 0.577626
O O10 0.891581 0.658215 0.654341
O O11 0.738578 0.639904 0.863497
O O12 0.445477 0.500000 0.500000
O O13 0.500000 0.458550 0.750000
O O14 0.472718 0.405400 0.518198
O O15 0.000000 0.875561 0.250000
O O16 0.809641 0.379478 0.869750
O O17 0.903204 0.337695 0.636041
O O18 0.000000 0.409898 0.750000
O O19 0.411161 0.815322 0.023634
#
# Coordination Sequence:
#
# PCOD8159165 Si02
#       8
#     8   8   8   8   8   8   8   8
#     4   9  20  39  64  88 119 162 209 258 316 371
#     4  12  27  39  62  95 128 164 218 267 316 372
#     4  10  21  41  65  88 129 165 208 259 321 383
#     4  10  21  37  61  87 120 163 204 256 321 389
#     4  11  23  39  59  90 126 164 209 264 318 372
#     4   9  21  41  63  88 122 164 205 254 317 375
#     4  11  23  41  64  92 125 167 213 257 320 385
#     4  10  24  44  64  90 123 172 213 258 318 384
#
# _framework density 20.881748000000002
#
# number of rings (size 3 to 8) (size 9 to 14) (size 15 to 20)
#    0.000    1.750    1.250    1.875    8.750    2.500 
#    0.000    4.375    0.000    0.000    0.000    0.000 
#    0.000    0.000    0.000    0.000    0.000    0.000 
#
# Total GULP energy -396484.690475 kJ/mol
# GULP energy per Si atom -12390.146577 kJ/mol
# Density = 2.083422 g / cm^3
# Si number density = 20.881748 Si / 1000 Ang^3
#
#
#
# Elastic Constant Matrix: (Units=GPa)
#
#
# Indices 1 2 3 4 5 6 
#
# 1 74.1877 21.5618 1.9364 0.0000 0.0000 0.0000
# 2 21.5618 143.1534 35.0400 0.0000 0.0000 0.0000
# 3 1.9364 35.0400 101.7534 0.0000 0.0000 0.0000
# 4 0.0000 0.0000 0.0000 3.2869 0.0000 0.0000
# 5 0.0000 0.0000 0.0000 0.0000 27.6551 0.0000
# 6 0.0000 0.0000 0.0000 0.0000 0.0000 44.1306
#
#
#
# Elastic Compliance Matrix: (Units=1/GPa)
#
#
# Indices 1 2 3 4 5 6 
#
# 1 0.014120 -0.002251 0.000506 0.000000 0.000000 0.000000
# 2 -0.002251 0.007987 -0.002708 0.000000 0.000000 0.000000
# 3 0.000506 -0.002708 0.010750 0.000000 0.000000 0.000000
# 4 0.000000 0.000000 0.000000 0.304238 0.000000 0.000000
# 5 0.000000 0.000000 0.000000 0.000000 0.036160 0.000000
# 6 0.000000 0.000000 0.000000 0.000000 0.000000 0.022660
#
#
# Mechanical properties :
#
#
# Convention : Reuss Voigt Hill
#
# Bulk Modulus (GPa) = 41.74690 48.46344 45.10517
# Shear Modulus (GPa) = 12.11228 32.38493 22.24861
#
# Velocity S-wave (km/s) = 2.41102 3.94238 3.26768
# Velocity P-wave (km/s) = 5.27126 6.63190 5.99033
#
# Compressibility (1/GPa) = 0.02395388
#
# Stress axis : x y z
#
# Youngs Moduli (GPa) = 70.82024 125.19887 93.01914
#
# Poissons Ratio (x) = 0.28179 -0.04710
# Poissons Ratio (y) = 0.15940 0.25187
# Poissons Ratio (z) = -0.03586 0.33900
#
# Static dielectric constant tensor:
#      x y z
#    x 3.881130 0.000000 0.000000 
#    y 0.000000 4.105460 0.000000 
#    z 0.000000 0.000000 3.431510 
# 
# 
# High freq. dielectric constant tensor:
#      x y z
#    x 1.815950 0.000000 0.000000 
#    y 0.000000 1.816660 0.000000 
#    z 0.000000 0.000000 1.819360 
# 
# From -- ./inp_files/7703.got.cif
#   From: 2010.03.12/outbox.cif.g09.slc.cpg/sg20_4_cif.got.tgz:7703.got - 2010.04.14 01:38:04.
