data_PCOD8159523
_publ_section_title
;
Structure prediction by ZEFSAII (Michael W. Deem and Ramdas Pophale) SiO2 
 PCOD8159523
Probable space group: C 2 2 21
;
_chemical_formula_sum "Si O2"
_cell_formula_units_Z 44
_cell_length_a 21.366112
_cell_length_b 5.097312
_cell_length_c 19.274956
_cell_angle_alpha 90.000000
_cell_angle_beta 90.000000
_cell_angle_gamma 90.000000
_cell_volume 2099.230429
_symmetry_space_group_name_H-M "C 2 2 21"
_symmetry_group_IT_number 20
_symmetry_cell_setting 'orthorhombic'
loop_
_space_group_symop_operation_xyz
x,y,z
-x,-y,1/2+z
x,-y,-z
-x,y,1/2-z
1/2+x,1/2+y,z
1/2-x,1/2-y,1/2+z
1/2+x,1/2-y,-z
1/2-x,1/2+y,1/2-z
loop_
_atom_site_type_symbol
_atom_site_label
_atom_site_fract_x
_atom_site_fract_y
_atom_site_fract_z
Si Si1 0.039460 0.500000 0.000000
Si Si2 0.642253 0.811084 0.563327
Si Si3 0.748949 0.000000 0.000000
Si Si4 0.139911 0.811427 0.063065
Si Si5 0.323508 0.017775 0.793420
Si Si6 0.041700 0.000000 0.500000
Si Si7 0.176207 0.020532 0.792840
O O1 0.084652 0.407365 0.936146
O O2 0.998850 0.749909 0.974450
O O3 0.709440 0.673272 0.552229
O O4 0.586793 0.593216 0.563838
O O5 0.626638 0.000000 0.500000
O O6 0.642250 0.982209 0.633023
O O7 0.707388 0.177103 0.051182
O O8 0.141433 0.982638 0.133034
O O9 0.123087 0.000000 0.000000
O O10 0.249800 0.009952 0.806124
O O11 0.345840 0.283773 0.756390
O O12 0.344888 0.785557 0.743742
#
# Coordination Sequence:
#
# PCOD8159523 Si02
#       7
#     4   8   4   8   8   4   8
#     4  11  24  43  66  99 124 169 228 284 328 373
#     4  11  23  39  67  96 133 173 216 276 317 395
#     4  10  22  32  64 102 140 164 226 260 336 376
#     4  11  23  39  67  96 133 173 216 276 317 395
#     4  10  23  37  58  93 140 174 202 248 320 400
#     4  11  24  43  66  99 124 169 228 284 328 373
#     4  10  23  37  58  93 140 174 202 248 320 400
#
# _framework density 20.960063000000002
#
# number of rings (size 3 to 8) (size 9 to 14) (size 15 to 20)
#    0.000    1.455    1.818    2.727   17.818    0.000 
#    0.000    0.000    0.000    1.091    9.455    0.000 
#    0.000    0.000    0.000    0.000    0.000    0.000 
#
# Total GULP energy -272766.211949 kJ/mol
# GULP energy per Si atom -12398.464179 kJ/mol
# Density = 2.091236 g / cm^3
# Si number density = 20.960063 Si / 1000 Ang^3
#
#
#
# Elastic Constant Matrix: (Units=GPa)
#
#
# Indices 1 2 3 4 5 6 
#
# 1 104.8239 52.3666 39.8271 0.0000 0.0000 0.0000
# 2 52.3666 107.7514 30.9092 0.0000 0.0000 0.0000
# 3 39.8271 30.9092 131.1610 0.0000 0.0000 0.0000
# 4 0.0000 0.0000 0.0000 43.9540 0.0000 0.0000
# 5 0.0000 0.0000 0.0000 0.0000 0.1850 0.0000
# 6 0.0000 0.0000 0.0000 0.0000 0.0000 41.2254
#
#
#
# Elastic Compliance Matrix: (Units=1/GPa)
#
#
# Indices 1 2 3 4 5 6 
#
# 1 0.013451 -0.005755 -0.002728 0.000000 0.000000 0.000000
# 2 -0.005755 0.012415 -0.001178 0.000000 0.000000 0.000000
# 3 -0.002728 -0.001178 0.008730 0.000000 0.000000 0.000000
# 4 0.000000 0.000000 0.000000 0.022751 0.000000 0.000000
# 5 0.000000 0.000000 0.000000 0.000000 5.405525 0.000000
# 6 0.000000 0.000000 0.000000 0.000000 0.000000 0.024257
#
#
# Mechanical properties :
#
#
# Convention : Reuss Voigt Hill
#
# Bulk Modulus (GPa) = 65.46951 65.54914 65.50932
# Shear Modulus (GPa) = 0.90719 31.78178 16.34448
#
# Velocity S-wave (km/s) = 0.65860 3.89820 2.79550
# Velocity P-wave (km/s) = 5.64637 7.18349 6.46080
#
# Compressibility (1/GPa) = 0.01527429
#
# Stress axis : x y z
#
# Youngs Moduli (GPa) = 74.34261 80.54548 114.54246
#
# Poissons Ratio (x) = 0.46351 0.31251
# Poissons Ratio (y) = 0.42781 0.13498
# Poissons Ratio (z) = 0.20283 0.09491
#
# Static dielectric constant tensor:
#      x y z
#    x 3.791950 0.000000 0.000000 
#    y 0.000000 4.278960 0.000000 
#    z 0.000000 0.000000 3.539320 
# 
# 
# High freq. dielectric constant tensor:
#      x y z
#    x 1.798840 0.000000 0.000000 
#    y 0.000000 1.847180 0.000000 
#    z 0.000000 0.000000 1.793650 
# 
# From -- ./inp_files/27838.got.cif
#   From: 2010.03.12/outbox.cif.g09.slc.cpg/sg20_14_cif.got.tgz:27838.got - 2010.04.14 01:38:04.
