data_PCOD8159136
_publ_section_title
;
Structure prediction by ZEFSAII (Michael W. Deem and Ramdas Pophale) SiO2 
 PCOD8159136
Probable space group: C 2 2 21
;
_chemical_formula_sum "Si O2"
_cell_formula_units_Z 44
_cell_length_a 27.031778
_cell_length_b 5.416061
_cell_length_c 14.106172
_cell_angle_alpha 90.000000
_cell_angle_beta 90.000000
_cell_angle_gamma 90.000000
_cell_volume 2065.224812
_symmetry_space_group_name_H-M "C 2 2 21"
_symmetry_group_IT_number 20
_symmetry_cell_setting 'orthorhombic'
loop_
_space_group_symop_operation_xyz
x,y,z
-x,-y,1/2+z
x,-y,-z
-x,y,1/2-z
1/2+x,1/2+y,z
1/2-x,1/2-y,1/2+z
1/2+x,1/2-y,-z
1/2-x,1/2+y,1/2-z
loop_
_atom_site_type_symbol
_atom_site_label
_atom_site_fract_x
_atom_site_fract_y
_atom_site_fract_z
Si Si1 0.717302 0.707372 0.652884
Si Si2 0.339979 0.000000 0.000000
Si Si3 0.636415 0.676783 0.343741
Si Si4 0.181652 0.504384 0.816292
Si Si5 0.418293 0.018328 0.392802
Si Si6 0.554892 0.485496 0.785733
O O1 0.697490 0.908006 0.580334
O O2 0.687367 0.460380 0.633432
O O3 0.776033 0.673507 0.636273
O O4 0.709210 0.777811 0.763807
O O5 0.376191 0.806573 0.054457
O O6 0.591813 0.502221 0.306416
O O7 0.646644 0.871382 0.261832
O O8 0.141268 0.426964 0.894622
O O9 0.442925 0.254396 0.341242
O O10 0.437433 0.000000 0.500000
O O11 0.431962 0.753573 0.348107
O O12 0.500000 0.447146 0.750000
#
# Coordination Sequence:
#
# PCOD8159136 Si02
#       6
#     8   4   8   8   8   8
#     4  11  19  39  58  92 124 173 220 261 326 398
#     4  10  24  36  58  92 132 166 222 280 316 394
#     4  10  21  40  61  88 129 167 220 267 332 396
#     4  10  21  36  64  87 127 177 212 261 331 394
#     4  11  24  45  69 104 135 168 225 282 330 399
#     4  11  24  47  74  96 130 180 218 276 349 406
#
# _framework density 21.305185999999999
#
# number of rings (size 3 to 8) (size 9 to 14) (size 15 to 20)
#    0.000    1.455    3.636    1.636    0.000    1.455 
#    8.182    1.818    0.000    0.000    0.000    0.000 
#    0.000    0.000    0.000    0.000    0.000    0.000 
#
# Total GULP energy -272605.459888 kJ/mol
# GULP energy per Si atom -12391.157268 kJ/mol
# Density = 2.125669 g / cm^3
# Si number density = 21.305186 Si / 1000 Ang^3
#
#
#
# Elastic Constant Matrix: (Units=GPa)
#
#
# Indices 1 2 3 4 5 6 
#
# 1 97.5206 0.5322 22.7643 0.0000 0.0000 0.0000
# 2 0.5322 88.4926 25.1805 0.0000 0.0000 0.0000
# 3 22.7643 25.1805 95.4664 0.0000 0.0000 0.0000
# 4 0.0000 0.0000 0.0000 34.7296 0.0000 0.0000
# 5 0.0000 0.0000 0.0000 0.0000 14.9290 0.0000
# 6 0.0000 0.0000 0.0000 0.0000 0.0000 22.4986
#
#
#
# Elastic Compliance Matrix: (Units=1/GPa)
#
#
# Indices 1 2 3 4 5 6 
#
# 1 0.010902 0.000729 -0.002792 0.000000 0.000000 0.000000
# 2 0.000729 0.012266 -0.003409 0.000000 0.000000 0.000000
# 3 -0.002792 -0.003409 0.012040 0.000000 0.000000 0.000000
# 4 0.000000 0.000000 0.000000 0.028794 0.000000 0.000000
# 5 0.000000 0.000000 0.000000 0.000000 0.066984 0.000000
# 6 0.000000 0.000000 0.000000 0.000000 0.000000 0.044447
#
#
# Mechanical properties :
#
#
# Convention : Reuss Voigt Hill
#
# Bulk Modulus (GPa) = 41.21402 42.04818 41.63110
# Shear Modulus (GPa) = 25.71161 29.96495 27.83828
#
# Velocity S-wave (km/s) = 3.47771 3.75435 3.61867
# Velocity P-wave (km/s) = 5.95924 6.21068 6.08626
#
# Compressibility (1/GPa) = 0.02426359
#
# Stress axis : x y z
#
# Youngs Moduli (GPa) = 91.72651 81.52576 83.05769
#
# Poissons Ratio (x) = -0.05942 0.23189
# Poissons Ratio (y) = -0.06686 0.28316
# Poissons Ratio (z) = 0.25609 0.27793
#
# Static dielectric constant tensor:
#      x y z
#    x 3.829820 0.000000 0.000000 
#    y 0.000000 3.923810 0.000000 
#    z 0.000000 0.000000 4.317680 
# 
# 
# High freq. dielectric constant tensor:
#      x y z
#    x 1.821420 0.000000 0.000000 
#    y 0.000000 1.840340 0.000000 
#    z 0.000000 0.000000 1.829870 
# 
# From -- ./inp_files/17730.got.cif
#   From: 2010.03.12/outbox.cif.g09.slc.cpg/sg20_9_cif.got.tgz:17730.got - 2010.04.14 01:38:04.
