data_PCOD8159348
_publ_section_title
;
Structure prediction by ZEFSAII (Michael W. Deem and Ramdas Pophale) SiO2 
 PCOD8159348
Probable space group: C 2 2 21
;
_chemical_formula_sum "Si O2"
_cell_formula_units_Z 56
_cell_length_a 14.086203
_cell_length_b 20.123364
_cell_length_c 8.954773
_cell_angle_alpha 90.000000
_cell_angle_beta 90.000000
_cell_angle_gamma 90.000000
_cell_volume 2538.335987
_symmetry_space_group_name_H-M "C 2 2 21"
_symmetry_group_IT_number 20
_symmetry_cell_setting 'orthorhombic'
loop_
_space_group_symop_operation_xyz
x,y,z
-x,-y,1/2+z
x,-y,-z
-x,y,1/2-z
1/2+x,1/2+y,z
1/2-x,1/2-y,1/2+z
1/2+x,1/2-y,-z
1/2-x,1/2+y,1/2-z
loop_
_atom_site_type_symbol
_atom_site_label
_atom_site_fract_x
_atom_site_fract_y
_atom_site_fract_z
Si Si1 0.225251 0.367854 0.724097
Si Si2 0.161312 0.816004 0.037903
Si Si3 0.527629 0.566594 0.916891
Si Si4 0.087917 0.575737 0.502058
Si Si5 0.418635 0.818957 0.529598
Si Si6 0.698454 0.137942 0.764146
Si Si7 0.666569 0.422749 0.509758
O O1 0.281670 0.315007 0.620001
O O2 0.169149 0.421042 0.623030
O O3 0.301211 0.405819 0.824232
O O4 0.151391 0.334377 0.835359
O O5 0.075703 0.761620 0.047057
O O6 0.241805 0.808332 0.167574
O O7 0.119740 0.888105 0.070655
O O8 0.500000 0.547224 0.750000
O O9 0.556979 0.500000 0.000000
O O10 0.438600 0.607544 0.987295
O O11 0.044345 0.500000 0.500000
O O12 0.136164 0.588375 0.661733
O O13 0.011836 0.634529 0.461809
O O14 0.376466 0.823628 0.364834
O O15 0.762589 0.096851 0.878498
O O16 0.649824 0.500000 0.500000
#
# Coordination Sequence:
#
# PCOD8159348 Si02
#       7
#     8   8   8   8   8   8   8
#     4  10  24  42  66  97 126 177 218 268 322 396
#     4  11  24  44  67  93 131 177 220 269 326 392
#     4  11  25  42  65  99 133 171 217 277 330 385
#     4  11  24  43  68 101 135 169 216 275 336 399
#     4  11  24  44  65  97 131 172 219 270 328 390
#     4  10  22  43  65  96 127 175 218 268 324 390
#     4  10  21  40  66  97 131 167 213 267 330 392
#
# _framework density 22.061698
#
# number of rings (size 3 to 8) (size 9 to 14) (size 15 to 20)
#    0.000    1.429    1.429    2.571    4.000    8.000 
#   15.429    0.000    0.000    0.000    0.000    0.000 
#    0.000    0.000    0.000    0.000    0.000    0.000 
#
# Total GULP energy -346917.872058 kJ/mol
# GULP energy per Si atom -12389.924002 kJ/mol
# Density = 2.201148 g / cm^3
# Si number density = 22.061698 Si / 1000 Ang^3
#
#
#
# Elastic Constant Matrix: (Units=GPa)
#
#
# Indices 1 2 3 4 5 6 
#
# 1 66.4677 23.8766 26.5760 0.0000 0.0000 0.0000
# 2 23.8766 102.7716 30.0546 0.0000 0.0000 0.0000
# 3 26.5760 30.0546 144.1591 0.0000 0.0000 0.0000
# 4 0.0000 0.0000 0.0000 12.5435 0.0000 0.0000
# 5 0.0000 0.0000 0.0000 0.0000 25.1454 0.0000
# 6 0.0000 0.0000 0.0000 0.0000 0.0000 29.4953
#
#
#
# Elastic Compliance Matrix: (Units=1/GPa)
#
#
# Indices 1 2 3 4 5 6 
#
# 1 0.017216 -0.003271 -0.002492 0.000000 0.000000 0.000000
# 2 -0.003271 0.010984 -0.001687 0.000000 0.000000 0.000000
# 3 -0.002492 -0.001687 0.007748 0.000000 0.000000 0.000000
# 4 0.000000 0.000000 0.000000 0.079723 0.000000 0.000000
# 5 0.000000 0.000000 0.000000 0.000000 0.039769 0.000000
# 6 0.000000 0.000000 0.000000 0.000000 0.000000 0.033904
#
#
# Mechanical properties :
#
#
# Convention : Reuss Voigt Hill
#
# Bulk Modulus (GPa) = 47.51029 52.71252 50.11140
# Shear Modulus (GPa) = 23.66770 28.96292 26.31531
#
# Velocity S-wave (km/s) = 3.27891 3.62721 3.45745
# Velocity P-wave (km/s) = 5.99307 6.44106 6.22110
#
# Compressibility (1/GPa) = 0.02104807
#
# Stress axis : x y z
#
# Youngs Moduli (GPa) = 58.08455 91.04502 129.06817
#
# Poissons Ratio (x) = 0.29781 0.32162
# Poissons Ratio (y) = 0.19000 0.21772
# Poissons Ratio (z) = 0.14474 0.15358
#
# Static dielectric constant tensor:
#      x y z
#    x 4.160010 0.000000 0.000000 
#    y 0.000000 3.739420 0.000000 
#    z 0.000000 0.000000 4.581920 
# 
# 
# High freq. dielectric constant tensor:
#      x y z
#    x 1.869550 0.000000 0.000000 
#    y 0.000000 1.850560 0.000000 
#    z 0.000000 0.000000 1.893500 
# 
# From -- ./inp_files/8727.got.cif
#   From: 2010.03.12/outbox.cif.g09.slc.cpg/sg20_5_cif.got.tgz:8727.got - 2010.04.14 01:38:04.
