data_PCOD8159158
_publ_section_title
;
Structure prediction by ZEFSAII (Michael W. Deem and Ramdas Pophale) SiO2 
 PCOD8159158
Probable space group: C 2 2 21
;
_chemical_formula_sum "Si O2"
_cell_formula_units_Z 48
_cell_length_a 8.204265
_cell_length_b 11.490804
_cell_length_c 22.553582
_cell_angle_alpha 90.000000
_cell_angle_beta 90.000000
_cell_angle_gamma 90.000000
_cell_volume 2126.207392
_symmetry_space_group_name_H-M "C 2 2 21"
_symmetry_group_IT_number 20
_symmetry_cell_setting 'orthorhombic'
loop_
_space_group_symop_operation_xyz
x,y,z
-x,-y,1/2+z
x,-y,-z
-x,y,1/2-z
1/2+x,1/2+y,z
1/2-x,1/2-y,1/2+z
1/2+x,1/2-y,-z
1/2-x,1/2+y,1/2-z
loop_
_atom_site_type_symbol
_atom_site_label
_atom_site_fract_x
_atom_site_fract_y
_atom_site_fract_z
Si Si1 0.015325 0.119276 0.875615
Si Si2 0.307679 0.797914 0.349327
Si Si3 0.324255 0.735125 0.727276
Si Si4 0.413837 0.108247 0.537783
Si Si5 0.253283 0.788735 0.037002
Si Si6 0.103661 0.136173 0.359497
O O1 0.142882 0.134789 0.821575
O O2 0.109511 0.129074 0.937565
O O3 0.876757 0.220905 0.874228
O O4 0.913998 0.000644 0.869333
O O5 0.281192 0.827207 0.279490
O O6 0.392810 0.900398 0.390210
O O7 0.419577 0.683990 0.353269
O O8 0.500000 0.784586 0.750000
O O9 0.214131 0.837757 0.698629
O O10 0.600873 0.125902 0.519287
O O11 0.311317 0.223586 0.521086
O O12 0.346184 0.000000 0.500000
O O13 0.306162 0.692192 0.084611
#
# Coordination Sequence:
#
# PCOD8159158 Si02
#       6
#     8   8   8   8   8   8
#     4  10  21  40  63  88 122 162 203 255 313 362
#     4  10  21  37  60  89 120 156 204 251 296 366
#     4   9  20  38  59  91 126 156 205 258 300 369
#     4  11  23  40  62  89 125 165 203 252 310 365
#     4  10  23  39  60  92 122 156 211 257 298 369
#     4  10  21  40  64  87 120 165 203 253 316 361
#
# _framework density 22.575406999999998
#
# number of rings (size 3 to 8) (size 9 to 14) (size 15 to 20)
#    0.000    2.000    0.000    2.500    0.000    8.000 
#    0.000   14.167    0.000    0.000    0.000    0.000 
#    0.000    0.000    0.000    0.000    0.000    0.000 
#
# Total GULP energy -297353.218049 kJ/mol
# GULP energy per Si atom -12389.717419 kJ/mol
# Density = 2.252402 g / cm^3
# Si number density = 22.575407 Si / 1000 Ang^3
#
#
#
# Elastic Constant Matrix: (Units=GPa)
#
#
# Indices 1 2 3 4 5 6 
#
# 1 112.6678 34.0607 32.7698 0.0000 0.0000 0.0000
# 2 34.0607 81.7748 38.8671 0.0000 0.0000 0.0000
# 3 32.7698 38.8671 91.2072 0.0000 0.0000 0.0000
# 4 0.0000 0.0000 0.0000 25.5317 0.0000 0.0000
# 5 0.0000 0.0000 0.0000 0.0000 50.0800 0.0000
# 6 0.0000 0.0000 0.0000 0.0000 0.0000 30.8145
#
#
#
# Elastic Compliance Matrix: (Units=1/GPa)
#
#
# Indices 1 2 3 4 5 6 
#
# 1 0.010560 -0.003254 -0.002407 0.000000 0.000000 0.000000
# 2 -0.003254 0.016337 -0.005793 0.000000 0.000000 0.000000
# 3 -0.002407 -0.005793 0.014298 0.000000 0.000000 0.000000
# 4 0.000000 0.000000 0.000000 0.039167 0.000000 0.000000
# 5 0.000000 0.000000 0.000000 0.000000 0.019968 0.000000
# 6 0.000000 0.000000 0.000000 0.000000 0.000000 0.032452
#
#
# Mechanical properties :
#
#
# Convention : Reuss Voigt Hill
#
# Bulk Modulus (GPa) = 54.68641 55.22721 54.95681
# Shear Modulus (GPa) = 30.90510 33.28206 32.09358
#
# Velocity S-wave (km/s) = 3.70398 3.84378 3.77452
# Velocity P-wave (km/s) = 6.52450 6.64951 6.58730
#
# Compressibility (1/GPa) = 0.01828608
#
# Stress axis : x y z
#
# Youngs Moduli (GPa) = 94.70106 61.20915 69.94223
#
# Poissons Ratio (x) = 0.19918 0.16837
# Poissons Ratio (y) = 0.30817 0.40517
# Poissons Ratio (z) = 0.22797 0.35458
#
# Static dielectric constant tensor:
#      x y z
#    x 4.358950 0.000000 0.000000 
#    y 0.000000 3.451580 0.000000 
#    z 0.000000 0.000000 4.254650 
# 
# 
# High freq. dielectric constant tensor:
#      x y z
#    x 1.911780 0.000000 0.000000 
#    y 0.000000 1.834910 0.000000 
#    z 0.000000 0.000000 1.904070 
# 
# From -- ./inp_files/28721.got.cif
#   From: 2010.03.12/outbox.cif.g09.slc.cpg/sg20_15_cif.got.tgz:28721.got - 2010.04.14 01:38:04.
