data_PCOD8159080
_publ_section_title
;
Structure prediction by ZEFSAII (Michael W. Deem and Ramdas Pophale) SiO2 
 PCOD8159080
Probable space group: C 2 2 21
;
_chemical_formula_sum "Si O2"
_cell_formula_units_Z 48
_cell_length_a 6.527227
_cell_length_b 12.943952
_cell_length_c 26.451151
_cell_angle_alpha 90.000000
_cell_angle_beta 90.000000
_cell_angle_gamma 90.000000
_cell_volume 2234.807834
_symmetry_space_group_name_H-M "C 2 2 21"
_symmetry_group_IT_number 20
_symmetry_cell_setting 'orthorhombic'
loop_
_space_group_symop_operation_xyz
x,y,z
-x,-y,1/2+z
x,-y,-z
-x,y,1/2-z
1/2+x,1/2+y,z
1/2-x,1/2-y,1/2+z
1/2+x,1/2-y,-z
1/2-x,1/2+y,1/2-z
loop_
_atom_site_type_symbol
_atom_site_label
_atom_site_fract_x
_atom_site_fract_y
_atom_site_fract_z
Si Si1 0.299973 0.500000 0.000000
Si Si2 0.500000 0.734436 0.750000
Si Si3 0.165925 0.334739 0.929297
Si Si4 0.943788 0.752664 0.616549
Si Si5 0.559381 0.362587 0.416314
Si Si6 0.755253 0.616531 0.825028
Si Si7 0.112168 0.610984 0.338500
O O1 0.150970 0.414420 0.975596
O O2 0.446017 0.543076 0.955506
O O3 0.671432 0.656437 0.771462
O O4 0.417040 0.807692 0.793774
O O5 0.400763 0.297212 0.925116
O O6 0.028389 0.237578 0.944724
O O7 0.081512 0.384882 0.876799
O O8 0.795585 0.661875 0.596613
O O9 0.818697 0.852795 0.634188
O O10 0.074988 0.700424 0.660763
O O11 0.426334 0.388648 0.366721
O O12 0.857366 0.504367 0.817702
#
# Coordination Sequence:
#
# PCOD8159080 Si02
#       7
#     4   4   8   8   8   8   8
#     4  12  24  40  74  98 136 190 220 272 362 392
#     4  12  24  46  62 110 138 174 236 274 348 412
#     4  10  23  45  65 102 136 176 234 283 333 409
#     4  10  20  45  71  88 142 177 218 297 328 390
#     4  10  23  45  65 102 136 176 234 283 333 409
#     4  11  24  45  69  97 138 179 229 284 336 408
#     4  11  24  45  69  97 138 179 229 284 336 408
#
# _framework density 21.478356000000002
#
# number of rings (size 3 to 8) (size 9 to 14) (size 15 to 20)
#    0.000    1.333    5.000    2.000    2.333    3.333 
#    3.000    6.667    0.000    0.000    0.000    0.000 
#    0.000    0.000    0.000    0.000    0.000    0.000 
#
# Total GULP energy -297574.514502 kJ/mol
# GULP energy per Si atom -12398.938104 kJ/mol
# Density = 2.142947 g / cm^3
# Si number density = 21.478356 Si / 1000 Ang^3
#
#
#
# Elastic Constant Matrix: (Units=GPa)
#
#
# Indices 1 2 3 4 5 6 
#
# 1 88.0890 -5.3524 8.3357 0.0000 0.0000 0.0000
# 2 -5.3524 76.2890 0.3869 0.0000 0.0000 0.0000
# 3 8.3357 0.3869 67.5568 0.0000 0.0000 0.0000
# 4 0.0000 0.0000 0.0000 53.4484 0.0000 0.0000
# 5 0.0000 0.0000 0.0000 0.0000 12.3374 0.0000
# 6 0.0000 0.0000 0.0000 0.0000 0.0000 27.9607
#
#
#
# Elastic Compliance Matrix: (Units=1/GPa)
#
#
# Indices 1 2 3 4 5 6 
#
# 1 0.011537 0.000817 -0.001428 0.000000 0.000000 0.000000
# 2 0.000817 0.013166 -0.000176 0.000000 0.000000 0.000000
# 3 -0.001428 -0.000176 0.014980 0.000000 0.000000 0.000000
# 4 0.000000 0.000000 0.000000 0.018710 0.000000 0.000000
# 5 0.000000 0.000000 0.000000 0.000000 0.081055 0.000000
# 6 0.000000 0.000000 0.000000 0.000000 0.000000 0.035764
#
#
# Mechanical properties :
#
#
# Convention : Reuss Voigt Hill
#
# Bulk Modulus (GPa) = 26.24166 26.51947 26.38056
# Shear Modulus (GPa) = 26.38672 33.98693 30.18683
#
# Velocity S-wave (km/s) = 3.50884 3.98223 3.75300
# Velocity P-wave (km/s) = 5.35352 5.78948 5.57576
#
# Compressibility (1/GPa) = 0.03810735
#
# Stress axis : x y z
#
# Youngs Moduli (GPa) = 86.67822 75.95181 66.75746
#
# Poissons Ratio (x) = -0.06203 0.09534
# Poissons Ratio (y) = -0.07079 0.01176
# Poissons Ratio (z) = 0.12379 0.01338
#
# Static dielectric constant tensor:
#      x y z
#    x 3.903800 0.000000 0.000000 
#    y 0.000000 4.079740 0.000000 
#    z 0.000000 0.000000 3.773240 
# 
# 
# High freq. dielectric constant tensor:
#      x y z
#    x 1.842940 0.000000 0.000000 
#    y 0.000000 1.858040 0.000000 
#    z 0.000000 0.000000 1.830410 
# 
# From -- ./inp_files/29854.got.cif
#   From: 2010.03.12/outbox.cif.g09.slc.cpg/sg20_15_cif.got.tgz:29854.got - 2010.04.14 01:38:04.
