data_PCOD8159463
_publ_section_title
;
Structure prediction by ZEFSAII (Michael W. Deem and Ramdas Pophale) SiO2 
 PCOD8159463
Probable space group: C 2 2 21
;
_chemical_formula_sum "Si O2"
_cell_formula_units_Z 32
_cell_length_a 13.996714
_cell_length_b 8.827468
_cell_length_c 10.070696
_cell_angle_alpha 90.000000
_cell_angle_beta 90.000000
_cell_angle_gamma 90.000000
_cell_volume 1244.290332
_symmetry_space_group_name_H-M "C 2 2 21"
_symmetry_group_IT_number 20
_symmetry_cell_setting 'orthorhombic'
loop_
_space_group_symop_operation_xyz
x,y,z
-x,-y,1/2+z
x,-y,-z
-x,y,1/2-z
1/2+x,1/2+y,z
1/2-x,1/2-y,1/2+z
1/2+x,1/2-y,-z
1/2-x,1/2+y,1/2-z
loop_
_atom_site_type_symbol
_atom_site_label
_atom_site_fract_x
_atom_site_fract_y
_atom_site_fract_z
Si Si1 0.579911 0.065470 0.859992
Si Si2 0.453933 0.324135 0.478757
Si Si3 0.294714 0.197714 0.303105
Si Si4 0.841446 0.320334 0.981564
O O1 0.500000 0.034133 0.750000
O O2 0.678964 0.981702 0.822076
O O3 0.593147 0.245349 0.888906
O O4 0.540714 0.000000 0.000000
O O5 0.463832 0.500000 0.500000
O O6 0.385695 0.295431 0.352567
O O7 0.556258 0.250630 0.453684
O O8 0.200748 0.243633 0.385115
O O9 0.276771 0.222560 0.146467
O O10 0.845178 0.500000 0.000000
#
# Coordination Sequence:
#
# PCOD8159463 Si02
#       4
#     8   8   8   8
#     4  10  21  42  72 100 140 191 237 289 354 421
#     4  11  25  45  73 110 149 192 242 297 359 430
#     4  11  25  47  71 105 146 193 244 301 360 430
#     4  12  27  48  76 109 147 192 244 299 364 433
#
# _framework density 25.717471
#
# number of rings (size 3 to 8) (size 9 to 14) (size 15 to 20)
#    0.000    1.000    0.000    8.250    0.000   17.000 
#    0.000    0.000    0.000    0.000    0.000    0.000 
#    0.000    0.000    0.000    0.000    0.000    0.000 
#
# Total GULP energy -198291.781916 kJ/mol
# GULP energy per Si atom -12393.236370 kJ/mol
# Density = 2.565894 g / cm^3
# Si number density = 25.717471 Si / 1000 Ang^3
#
#
#
# Elastic Constant Matrix: (Units=GPa)
#
#
# Indices 1 2 3 4 5 6 
#
# 1 73.7084 3.6582 -15.5195 0.0000 0.0000 0.0000
# 2 3.6582 143.3094 5.2612 0.0000 0.0000 0.0000
# 3 -15.5195 5.2612 104.2319 0.0000 0.0000 0.0000
# 4 0.0000 0.0000 0.0000 21.5064 0.0000 0.0000
# 5 0.0000 0.0000 0.0000 0.0000 39.3913 0.0000
# 6 0.0000 0.0000 0.0000 0.0000 0.0000 15.3478
#
#
#
# Elastic Compliance Matrix: (Units=1/GPa)
#
#
# Indices 1 2 3 4 5 6 
#
# 1 0.014033 -0.000436 0.002111 0.000000 0.000000 0.000000
# 2 -0.000436 0.007004 -0.000418 0.000000 0.000000 0.000000
# 3 0.002111 -0.000418 0.009929 0.000000 0.000000 0.000000
# 4 0.000000 0.000000 0.000000 0.046498 0.000000 0.000000
# 5 0.000000 0.000000 0.000000 0.000000 0.025386 0.000000
# 6 0.000000 0.000000 0.000000 0.000000 0.000000 0.065156
#
#
# Mechanical properties :
#
#
# Convention : Reuss Voigt Hill
#
# Bulk Modulus (GPa) = 29.86713 34.22773 32.04743
# Shear Modulus (GPa) = 28.30408 37.10576 32.70492
#
# Velocity S-wave (km/s) = 3.32109 3.80257 3.56996
# Velocity P-wave (km/s) = 5.13274 5.71117 5.42966
#
# Compressibility (1/GPa) = 0.03348162
#
# Stress axis : x y z
#
# Youngs Moduli (GPa) = 71.25974 142.76758 100.71007
#
# Poissons Ratio (x) = 0.06221 -0.21264
# Poissons Ratio (y) = 0.03105 0.04214
# Poissons Ratio (z) = -0.15046 0.05974
#
# Static dielectric constant tensor:
#      x y z
#    x 4.478560 0.000000 0.000000 
#    y 0.000000 5.222800 0.000000 
#    z 0.000000 0.000000 5.301110 
# 
# 
# High freq. dielectric constant tensor:
#      x y z
#    x 2.025980 0.000000 0.000000 
#    y 0.000000 2.032150 0.000000 
#    z 0.000000 0.000000 2.041070 
# 
# From -- ./inp_files/14699.got.cif
#   From: 2010.03.12/outbox.cif.g09.slc.cpg/sg20_8_cif.got.tgz:14699.got - 2010.04.14 01:38:04.
