data_PCOD8159439
_publ_section_title
;
Structure prediction by ZEFSAII (Michael W. Deem and Ramdas Pophale) SiO2 
 PCOD8159439
Probable space group: C 2 2 21
;
_chemical_formula_sum "Si O2"
_cell_formula_units_Z 64
_cell_length_a 20.022624
_cell_length_b 8.008665
_cell_length_c 19.155549
_cell_angle_alpha 90.000000
_cell_angle_beta 90.000000
_cell_angle_gamma 90.000000
_cell_volume 3071.678253
_symmetry_space_group_name_H-M "C 2 2 21"
_symmetry_group_IT_number 20
_symmetry_cell_setting 'orthorhombic'
loop_
_space_group_symop_operation_xyz
x,y,z
-x,-y,1/2+z
x,-y,-z
-x,y,1/2-z
1/2+x,1/2+y,z
1/2-x,1/2-y,1/2+z
1/2+x,1/2-y,-z
1/2-x,1/2+y,1/2-z
loop_
_atom_site_type_symbol
_atom_site_label
_atom_site_fract_x
_atom_site_fract_y
_atom_site_fract_z
Si Si1 0.214542 0.610170 0.284133
Si Si2 0.744592 0.678474 0.467031
Si Si3 0.474428 0.629005 0.939550
Si Si4 0.844166 0.680115 0.857363
Si Si5 0.622630 0.648575 0.946459
Si Si6 0.344365 0.151600 0.074803
Si Si7 0.841529 0.090063 0.709494
Si Si8 0.447041 0.437134 0.804560
O O1 0.318912 0.923701 0.210944
O O2 0.194616 0.711188 0.354691
O O3 0.292924 0.568758 0.276455
O O4 0.190651 0.725167 0.220149
O O5 0.728210 0.500000 0.500000
O O6 0.712917 0.696357 0.389067
O O7 0.824306 0.705900 0.463698
O O8 0.708548 0.817541 0.513876
O O9 0.546456 0.716585 0.954049
O O10 0.414762 0.759147 0.936351
O O11 0.483461 0.534153 0.866475
O O12 0.455496 0.500000 0.000000
O O13 0.861810 0.545613 0.918638
O O14 0.909290 0.780664 0.837306
O O15 0.634715 0.576503 0.869557
O O16 0.634899 0.500000 0.000000
O O17 0.901373 0.069922 0.763879
O O18 0.500000 0.362429 0.750000
#
# Coordination Sequence:
#
# PCOD8159439 Si02
#       8
#     8   8   8   8   8   8   8   8
#     4  10  23  37  67  96 132 172 218 278 332 395
#     4  12  23  40  71  99 129 172 226 285 336 402
#     4  11  23  44  71  99 128 179 225 277 334 420
#     4  10  22  41  62  97 133 171 227 270 328 400
#     4  11  24  45  67  95 138 175 223 277 355 405
#     4  10  21  42  67  95 128 175 221 275 335 398
#     4  12  22  42  68  98 138 176 222 282 338 410
#     4  12  23  41  65 100 134 179 222 267 337 408
#
# _framework density 20.835516999999999
#
# number of rings (size 3 to 8) (size 9 to 14) (size 15 to 20)
#    0.750    0.250    3.750    4.500    0.000    0.000 
#    2.250    5.000    0.000    0.000    0.000    0.000 
#    0.000    0.000    0.000    0.000    0.000    0.000 
#
# Total GULP energy -396610.818888 kJ/mol
# GULP energy per Si atom -12394.088090 kJ/mol
# Density = 2.078809 g / cm^3
# Si number density = 20.835517 Si / 1000 Ang^3
#
#
#
# Elastic Constant Matrix: (Units=GPa)
#
#
# Indices 1 2 3 4 5 6 
#
# 1 135.9391 41.9622 37.3620 0.0000 0.0000 0.0000
# 2 41.9622 85.2200 36.6679 0.0000 0.0000 0.0000
# 3 37.3620 36.6679 97.4432 0.0000 0.0000 0.0000
# 4 0.0000 0.0000 0.0000 30.4088 0.0000 0.0000
# 5 0.0000 0.0000 0.0000 0.0000 33.5786 0.0000
# 6 0.0000 0.0000 0.0000 0.0000 0.0000 30.0696
#
#
#
# Elastic Compliance Matrix: (Units=1/GPa)
#
#
# Indices 1 2 3 4 5 6 
#
# 1 0.009032 -0.003529 -0.002135 0.000000 0.000000 0.000000
# 2 -0.003529 0.015380 -0.004434 0.000000 0.000000 0.000000
# 3 -0.002135 -0.004434 0.012750 0.000000 0.000000 0.000000
# 4 0.000000 0.000000 0.000000 0.032885 0.000000 0.000000
# 5 0.000000 0.000000 0.000000 0.000000 0.029781 0.000000
# 6 0.000000 0.000000 0.000000 0.000000 0.000000 0.033256
#
#
# Mechanical properties :
#
#
# Convention : Reuss Voigt Hill
#
# Bulk Modulus (GPa) = 58.94492 61.17627 60.06060
# Shear Modulus (GPa) = 31.45910 32.31875 31.88893
#
# Velocity S-wave (km/s) = 3.88993 3.94272 3.91642
# Velocity P-wave (km/s) = 6.96616 7.08181 7.02422
#
# Compressibility (1/GPa) = 0.01696499
#
# Stress axis : x y z
#
# Youngs Moduli (GPa) = 110.71264 65.01987 78.43247
#
# Poissons Ratio (x) = 0.22944 0.16748
# Poissons Ratio (y) = 0.39068 0.34781
# Poissons Ratio (z) = 0.23641 0.28833
#
# Static dielectric constant tensor:
#      x y z
#    x 3.819870 0.000000 0.000000 
#    y 0.000000 3.446320 0.000000 
#    z 0.000000 0.000000 3.900790 
# 
# 
# High freq. dielectric constant tensor:
#      x y z
#    x 1.819660 0.000000 0.000000 
#    y 0.000000 1.793080 0.000000 
#    z 0.000000 0.000000 1.830120 
# 
# From -- ./inp_files/25522.got.cif
#   From: 2010.03.12/outbox.cif.g09.slc.cpg/sg20_13_cif.got.tgz:25522.got - 2010.04.14 01:38:04.
