data_PCOD8159383
_publ_section_title
;
Structure prediction by ZEFSAII (Michael W. Deem and Ramdas Pophale) SiO2 
 PCOD8159383
Probable space group: C 2 2 21
;
_chemical_formula_sum "Si O2"
_cell_formula_units_Z 60
_cell_length_a 10.909416
_cell_length_b 24.600735
_cell_length_c 11.206903
_cell_angle_alpha 90.000000
_cell_angle_beta 90.000000
_cell_angle_gamma 90.000000
_cell_volume 3007.704727
_symmetry_space_group_name_H-M "C 2 2 21"
_symmetry_group_IT_number 20
_symmetry_cell_setting 'orthorhombic'
loop_
_space_group_symop_operation_xyz
x,y,z
-x,-y,1/2+z
x,-y,-z
-x,y,1/2-z
1/2+x,1/2+y,z
1/2-x,1/2-y,1/2+z
1/2+x,1/2-y,-z
1/2-x,1/2+y,1/2-z
loop_
_atom_site_type_symbol
_atom_site_label
_atom_site_fract_x
_atom_site_fract_y
_atom_site_fract_z
Si Si1 0.984360 0.500000 0.500000
Si Si2 0.109089 0.877340 0.162323
Si Si3 0.690753 0.172530 0.082115
Si Si4 0.930482 0.284579 0.365535
Si Si5 0.177519 0.231481 0.736174
Si Si6 0.219526 0.520871 0.621842
Si Si7 0.868123 0.563810 0.305133
Si Si8 0.450908 0.305093 0.016415
O O1 0.074693 0.533071 0.591906
O O2 0.889259 0.538864 0.434784
O O3 0.192504 0.828832 0.211370
O O4 0.204773 0.926327 0.155613
O O5 0.000000 0.895663 0.250000
O O6 0.047083 0.854835 0.039183
O O7 0.659116 0.226413 0.156783
O O8 0.689146 0.122781 0.174358
O O9 0.591891 0.171313 0.972042
O O10 0.822467 0.169642 0.021122
O O11 0.802701 0.255718 0.332635
O O12 0.000000 0.310440 0.250000
O O13 0.011287 0.234529 0.410974
O O14 0.063788 0.229312 0.641440
O O15 0.283672 0.500000 0.500000
O O16 0.220927 0.474187 0.724509
O O17 0.000000 0.573145 0.250000
#
# Coordination Sequence:
#
# PCOD8159383 Si02
#       8
#     4   8   8   8   8   8   8   8
#     4   8  20  42  60  90 126 150 208 268 314 372
#     4  10  21  41  65  87 125 169 207 265 315 382
#     4  11  23  39  63  97 129 171 212 258 323 390
#     4  11  22  38  56  91 135 166 210 255 312 383
#     4  10  22  38  62  91 126 168 210 250 322 393
#     4   9  21  43  63  91 121 161 220 259 321 379
#     4  10  22  41  66  93 121 165 212 265 320 377
#     4  10  22  40  58  91 131 169 208 263 311 385
#
# _framework density 19.948765999999999
#
# number of rings (size 3 to 8) (size 9 to 14) (size 15 to 20)
#    0.400    1.600    2.667    0.000    1.867    5.333 
#    2.400    1.333    0.000    0.000    0.000    0.000 
#    0.000    0.000    0.000    0.000    0.000    0.000 
#
# Total GULP energy -371687.068798 kJ/mol
# GULP energy per Si atom -12389.568960 kJ/mol
# Density = 1.990336 g / cm^3
# Si number density = 19.948766 Si / 1000 Ang^3
#
#
#
# Elastic Constant Matrix: (Units=GPa)
#
#
# Indices 1 2 3 4 5 6 
#
# 1 65.0452 47.8797 27.9252 0.0000 0.0000 0.0000
# 2 47.8797 117.9126 65.9178 0.0000 0.0000 0.0000
# 3 27.9252 65.9178 108.7790 0.0000 0.0000 0.0000
# 4 0.0000 0.0000 0.0000 29.1569 0.0000 0.0000
# 5 0.0000 0.0000 0.0000 0.0000 25.1250 0.0000
# 6 0.0000 0.0000 0.0000 0.0000 0.0000 153.8166
#
#
#
# Elastic Compliance Matrix: (Units=1/GPa)
#
#
# Indices 1 2 3 4 5 6 
#
# 1 0.021937 -0.008710 -0.000353 0.000000 0.000000 0.000000
# 2 -0.008710 0.016284 -0.007632 0.000000 0.000000 0.000000
# 3 -0.000353 -0.007632 0.013908 0.000000 0.000000 0.000000
# 4 0.000000 0.000000 0.000000 0.034297 0.000000 0.000000
# 5 0.000000 0.000000 0.000000 0.000000 0.039801 0.000000
# 6 0.000000 0.000000 0.000000 0.000000 0.000000 0.006501
#
#
# Mechanical properties :
#
#
# Convention : Reuss Voigt Hill
#
# Bulk Modulus (GPa) = 53.36491 63.90912 58.63702
# Shear Modulus (GPa) = 29.00787 51.62063 40.31425
#
# Velocity S-wave (km/s) = 3.81743 5.09242 4.50031
# Velocity P-wave (km/s) = 6.79996 8.16598 7.51407
#
# Compressibility (1/GPa) = 0.01873890
#
# Stress axis : x y z
#
# Youngs Moduli (GPa) = 45.58440 61.40876 71.89897
#
# Poissons Ratio (x) = 0.53489 0.02540
# Poissons Ratio (y) = 0.39706 0.54872
# Poissons Ratio (z) = 0.01611 0.46866
#
# Static dielectric constant tensor:
#      x y z
#    x 3.539560 0.000000 0.000000 
#    y 0.000000 3.257240 0.000000 
#    z 0.000000 0.000000 2.442900 
# 
# 
# High freq. dielectric constant tensor:
#      x y z
#    x 1.775300 0.000000 0.000000 
#    y 0.000000 1.746390 0.000000 
#    z 0.000000 0.000000 1.791780 
# 
# From -- ./inp_files/14381.got.cif
#   From: 2010.03.12/outbox.cif.g09.slc.cpg/sg20_8_cif.got.tgz:14381.got - 2010.04.14 01:38:04.
