data_PCOD8159073
_publ_section_title
;
Structure prediction by ZEFSAII (Michael W. Deem and Ramdas Pophale) SiO2 
 PCOD8159073
Probable space group: C 2 2 21
;
_chemical_formula_sum "Si O2"
_cell_formula_units_Z 48
_cell_length_a 9.580543
_cell_length_b 16.403940
_cell_length_c 14.617212
_cell_angle_alpha 90.000000
_cell_angle_beta 90.000000
_cell_angle_gamma 90.000000
_cell_volume 2297.221342
_symmetry_space_group_name_H-M "C 2 2 21"
_symmetry_group_IT_number 20
_symmetry_cell_setting 'orthorhombic'
loop_
_space_group_symop_operation_xyz
x,y,z
-x,-y,1/2+z
x,-y,-z
-x,y,1/2-z
1/2+x,1/2+y,z
1/2-x,1/2-y,1/2+z
1/2+x,1/2-y,-z
1/2-x,1/2+y,1/2-z
loop_
_atom_site_type_symbol
_atom_site_label
_atom_site_fract_x
_atom_site_fract_y
_atom_site_fract_z
Si Si1 0.384076 0.095586 0.671444
Si Si2 0.132324 0.938886 0.200991
Si Si3 0.958773 0.773405 0.397618
Si Si4 0.720654 0.753224 0.071574
Si Si5 0.709956 0.920420 0.622063
Si Si6 0.501947 0.000000 0.500000
Si Si7 0.500000 0.140692 0.250000
O O1 0.500000 0.091496 0.750000
O O2 0.238665 0.074162 0.716869
O O3 0.371836 0.187406 0.633983
O O4 0.412746 0.035421 0.584939
O O5 0.089720 0.855173 0.152531
O O6 0.000000 0.979471 0.250000
O O7 0.188772 0.001484 0.124495
O O8 0.845613 0.750157 0.472376
O O9 0.946477 0.697352 0.330797
O O10 0.117494 0.782413 0.434566
O O11 0.705419 0.663129 0.113895
O O12 0.624273 0.918552 0.717586
O O13 0.601479 0.927817 0.537717
#
# Coordination Sequence:
#
# PCOD8159073 Si02
#       7
#     8   8   8   8   8   4   4
#     4  12  25  46  77 102 139 192 244 290 355 434
#     4  12  23  45  69 102 145 182 222 300 367 415
#     4  11  23  45  70  97 139 181 231 288 357 417
#     4  11  25  44  68 103 134 183 236 291 350 420
#     4  11  23  42  68  99 136 179 227 291 346 413
#     4  12  24  46  72 104 134 188 252 282 346 444
#     4  10  20  44  70  92 126 182 230 274 334 430
#
# _framework density 20.894808000000001
#
# number of rings (size 3 to 8) (size 9 to 14) (size 15 to 20)
#    0.000    0.667    4.167    5.000    2.333    0.667 
#    6.000    0.000    0.000    0.000    0.000    0.000 
#    0.000    0.000    0.000    0.000    0.000    0.000 
#
# Total GULP energy -297576.311692 kJ/mol
# GULP energy per Si atom -12399.012987 kJ/mol
# Density = 2.084725 g / cm^3
# Si number density = 20.894808 Si / 1000 Ang^3
#
#
#
# Elastic Constant Matrix: (Units=GPa)
#
#
# Indices 1 2 3 4 5 6 
#
# 1 121.2930 44.5884 70.1091 0.0000 0.0000 0.0000
# 2 44.5884 112.3942 35.5881 0.0000 0.0000 0.0000
# 3 70.1091 35.5881 129.2588 0.0000 0.0000 0.0000
# 4 0.0000 0.0000 0.0000 38.4932 0.0000 0.0000
# 5 0.0000 0.0000 0.0000 0.0000 44.9730 0.0000
# 6 0.0000 0.0000 0.0000 0.0000 0.0000 41.9626
#
#
#
# Elastic Compliance Matrix: (Units=1/GPa)
#
#
# Indices 1 2 3 4 5 6 
#
# 1 0.012981 -0.003199 -0.006160 0.000000 0.000000 0.000000
# 2 -0.003199 0.010535 -0.001165 0.000000 0.000000 0.000000
# 3 -0.006160 -0.001165 0.011398 0.000000 0.000000 0.000000
# 4 0.000000 0.000000 0.000000 0.025979 0.000000 0.000000
# 5 0.000000 0.000000 0.000000 0.000000 0.022236 0.000000
# 6 0.000000 0.000000 0.000000 0.000000 0.000000 0.023831
#
#
# Mechanical properties :
#
#
# Convention : Reuss Voigt Hill
#
# Bulk Modulus (GPa) = 72.12101 73.72415 72.92258
# Shear Modulus (GPa) = 37.69844 39.26312 38.48078
#
# Velocity S-wave (km/s) = 4.25220 4.33954 4.29609
# Velocity P-wave (km/s) = 7.66155 7.77618 7.71908
#
# Compressibility (1/GPa) = 0.01386559
#
# Stress axis : x y z
#
# Youngs Moduli (GPa) = 77.03438 94.91740 87.73111
#
# Poissons Ratio (x) = 0.30367 0.54043
# Poissons Ratio (y) = 0.24646 0.10224
# Poissons Ratio (z) = 0.47454 0.11062
#
# Static dielectric constant tensor:
#      x y z
#    x 3.851940 0.000000 0.000000 
#    y 0.000000 4.030740 0.000000 
#    z 0.000000 0.000000 4.025680 
# 
# 
# High freq. dielectric constant tensor:
#      x y z
#    x 1.815620 0.000000 0.000000 
#    y 0.000000 1.833800 0.000000 
#    z 0.000000 0.000000 1.828420 
# 
# From -- ./inp_files/18932.got.cif
#   From: 2010.03.12/outbox.cif.g09.slc.cpg/sg20_10_cif.got.tgz:18932.got - 2010.04.14 01:38:04.
