data_PCOD8159075
_publ_section_title
;
Structure prediction by ZEFSAII (Michael W. Deem and Ramdas Pophale) SiO2 
 PCOD8159075
Probable space group: C 2 2 21
;
_chemical_formula_sum "Si O2"
_cell_formula_units_Z 44
_cell_length_a 9.225836
_cell_length_b 16.176001
_cell_length_c 14.353531
_cell_angle_alpha 90.000000
_cell_angle_beta 90.000000
_cell_angle_gamma 90.000000
_cell_volume 2142.079806
_symmetry_space_group_name_H-M "C 2 2 21"
_symmetry_group_IT_number 20
_symmetry_cell_setting 'orthorhombic'
loop_
_space_group_symop_operation_xyz
x,y,z
-x,-y,1/2+z
x,-y,-z
-x,y,1/2-z
1/2+x,1/2+y,z
1/2-x,1/2-y,1/2+z
1/2+x,1/2-y,-z
1/2-x,1/2+y,1/2-z
loop_
_atom_site_type_symbol
_atom_site_label
_atom_site_fract_x
_atom_site_fract_y
_atom_site_fract_z
Si Si1 0.906211 0.579889 0.440923
Si Si2 0.132928 0.077605 0.177129
Si Si3 0.835788 0.470581 0.279540
Si Si4 0.004801 0.000000 0.000000
Si Si5 0.306885 0.363556 0.084176
Si Si6 0.108997 0.306432 0.662262
O O1 0.954607 0.500000 0.500000
O O2 0.819034 0.546974 0.351620
O O3 0.801952 0.643162 0.496475
O O4 0.050000 0.626897 0.410863
O O5 0.229703 0.161566 0.188408
O O6 0.000000 0.084850 0.250000
O O7 0.231137 0.996331 0.195796
O O8 0.088712 0.062471 0.069484
O O9 0.784925 0.384161 0.323019
O O10 0.000000 0.459275 0.250000
O O11 0.913173 0.059613 0.932997
O O12 0.388658 0.278953 0.105283
O O13 0.000000 0.298537 0.750000
#
# Coordination Sequence:
#
# PCOD8159075 Si02
#       6
#     8   8   8   4   8   8
#     4  10  20  44  71  90 133 186 229 277 349 414
#     4  12  24  43  69 102 139 180 232 283 346 418
#     4  11  20  44  73  92 130 187 229 275 346 423
#     4  12  26  40  72  98 138 186 226 288 350 414
#     4  11  25  44  66 103 138 179 228 293 348 408
#     4  12  27  44  68 104 143 186 228 296 349 414
#
# _framework density 20.540785
#
# number of rings (size 3 to 8) (size 9 to 14) (size 15 to 20)
#    0.000    0.727    8.182    0.000    6.364    0.727 
#    0.000    3.636    0.000    0.000    0.000    0.000 
#    0.000    0.000    0.000    0.000    0.000    0.000 
#
# Total GULP energy -272707.757998 kJ/mol
# GULP energy per Si atom -12395.807182 kJ/mol
# Density = 2.049403 g / cm^3
# Si number density = 20.540785 Si / 1000 Ang^3
#
#
#
# Elastic Constant Matrix: (Units=GPa)
#
#
# Indices 1 2 3 4 5 6 
#
# 1 114.7134 44.9657 42.7743 0.0000 0.0000 0.0000
# 2 44.9657 106.4892 39.0551 0.0000 0.0000 0.0000
# 3 42.7743 39.0551 95.7958 0.0000 0.0000 0.0000
# 4 0.0000 0.0000 0.0000 18.3171 0.0000 0.0000
# 5 0.0000 0.0000 0.0000 0.0000 39.8944 0.0000
# 6 0.0000 0.0000 0.0000 0.0000 0.0000 4.2133
#
#
#
# Elastic Compliance Matrix: (Units=1/GPa)
#
#
# Indices 1 2 3 4 5 6 
#
# 1 0.011462 -0.003484 -0.003698 0.000000 0.000000 0.000000
# 2 -0.003484 0.012100 -0.003378 0.000000 0.000000 0.000000
# 3 -0.003698 -0.003378 0.013467 0.000000 0.000000 0.000000
# 4 0.000000 0.000000 0.000000 0.054594 0.000000 0.000000
# 5 0.000000 0.000000 0.000000 0.000000 0.025066 0.000000
# 6 0.000000 0.000000 0.000000 0.000000 0.000000 0.237341
#
#
# Mechanical properties :
#
#
# Convention : Reuss Voigt Hill
#
# Bulk Modulus (GPa) = 62.84902 63.39873 63.12388
# Shear Modulus (GPa) = 13.14228 25.16519 19.15374
#
# Velocity S-wave (km/s) = 2.53220 3.50399 3.05696
# Velocity P-wave (km/s) = 6.26203 6.87767 6.57706
#
# Compressibility (1/GPa) = 0.01591115
#
# Stress axis : x y z
#
# Youngs Moduli (GPa) = 87.24736 82.64186 74.25590
#
# Poissons Ratio (x) = 0.28790 0.27457
# Poissons Ratio (y) = 0.30394 0.25081
# Poissons Ratio (z) = 0.32260 0.27914
#
# Static dielectric constant tensor:
#      x y z
#    x 3.795780 0.000000 0.000000 
#    y 0.000000 3.597510 0.000000 
#    z 0.000000 0.000000 5.120480 
# 
# 
# High freq. dielectric constant tensor:
#      x y z
#    x 1.809850 0.000000 0.000000 
#    y 0.000000 1.782200 0.000000 
#    z 0.000000 0.000000 1.812580 
# 
# From -- ./inp_files/18783.got.cif
#   From: 2010.03.12/outbox.cif.g09.slc.cpg/sg20_10_cif.got.tgz:18783.got - 2010.04.14 01:38:04.
