data_PCOD8159789
_publ_section_title
;
Structure prediction by ZEFSAII (Michael W. Deem and Ramdas Pophale) SiO2 
 PCOD8159789
Probable space group: C 2 2 21
;
_chemical_formula_sum "Si O2"
_cell_formula_units_Z 56
_cell_length_a 13.393093
_cell_length_b 6.412528
_cell_length_c 29.577321
_cell_angle_alpha 90.000000
_cell_angle_beta 90.000000
_cell_angle_gamma 90.000000
_cell_volume 2540.206329
_symmetry_space_group_name_H-M "C 2 2 21"
_symmetry_group_IT_number 20
_symmetry_cell_setting 'orthorhombic'
loop_
_space_group_symop_operation_xyz
x,y,z
-x,-y,1/2+z
x,-y,-z
-x,y,1/2-z
1/2+x,1/2+y,z
1/2-x,1/2-y,1/2+z
1/2+x,1/2-y,-z
1/2-x,1/2+y,1/2-z
loop_
_atom_site_type_symbol
_atom_site_label
_atom_site_fract_x
_atom_site_fract_y
_atom_site_fract_z
Si Si1 0.659173 0.092533 0.223849
Si Si2 0.241185 0.264086 0.684535
Si Si3 0.252191 0.618697 0.955511
Si Si4 0.932003 0.019368 0.675501
Si Si5 0.943278 0.382733 0.544188
Si Si6 0.082445 0.791414 0.387182
Si Si7 0.500000 0.227385 0.750000
Si Si8 0.842289 0.000000 0.500000
O O1 0.725074 0.979793 0.184477
O O2 0.597076 0.915044 0.249641
O O3 0.728618 0.190475 0.262247
O O4 0.587982 0.262115 0.200712
O O5 0.327150 0.410006 0.663245
O O6 0.140164 0.303692 0.656202
O O7 0.152281 0.507635 0.936877
O O8 0.336126 0.591080 0.917632
O O9 0.291009 0.500000 0.000000
O O10 0.228113 0.859534 0.967472
O O11 0.994642 0.055593 0.629758
O O12 0.002224 0.874350 0.706105
O O13 0.986247 0.500000 0.500000
O O14 0.028888 0.385483 0.582440
O O15 0.912309 0.146916 0.530919
#
# Coordination Sequence:
#
# PCOD8159789 Si02
#       8
#     8   8   8   8   8   8   4   4
#     4  11  22  46  69  92 142 183 229 280 355 412
#     4  11  25  43  70 100 136 186 229 288 342 415
#     4   9  22  46  68  98 135 178 225 277 344 416
#     4  11  25  43  65 105 138 174 235 286 338 415
#     4   9  22  46  67  97 135 175 228 284 338 418
#     4  12  26  40  72 104 135 180 231 286 346 402
#     4  10  22  42  70  92 130 186 224 276 348 412
#     4   8  18  44  74  88 128 182 222 274 342 418
#
# _framework density 22.045453999999999
#
# number of rings (size 3 to 8) (size 9 to 14) (size 15 to 20)
#    0.000    2.000    1.429    2.143    8.000    0.000 
#    0.000    8.571    0.000    0.000    0.000    0.000 
#    0.000    0.000    0.000    0.000    0.000    0.000 
#
# Total GULP energy -347144.672290 kJ/mol
# GULP energy per Si atom -12398.024010 kJ/mol
# Density = 2.199528 g / cm^3
# Si number density = 22.045454 Si / 1000 Ang^3
#
#
#
# Elastic Constant Matrix: (Units=GPa)
#
#
# Indices 1 2 3 4 5 6 
#
# 1 117.2855 36.6636 51.8680 0.0000 0.0000 0.0000
# 2 36.6636 122.9843 30.3215 0.0000 0.0000 0.0000
# 3 51.8680 30.3215 87.7638 0.0000 0.0000 0.0000
# 4 0.0000 0.0000 0.0000 17.7966 0.0000 0.0000
# 5 0.0000 0.0000 0.0000 0.0000 63.1771 0.0000
# 6 0.0000 0.0000 0.0000 0.0000 0.0000 25.7409
#
#
#
# Elastic Compliance Matrix: (Units=1/GPa)
#
#
# Indices 1 2 3 4 5 6 
#
# 1 0.011975 -0.001995 -0.006388 0.000000 0.000000 0.000000
# 2 -0.001995 0.009221 -0.002007 0.000000 0.000000 0.000000
# 3 -0.006388 -0.002007 0.015863 0.000000 0.000000 0.000000
# 4 0.000000 0.000000 0.000000 0.056191 0.000000 0.000000
# 5 0.000000 0.000000 0.000000 0.000000 0.015829 0.000000
# 6 0.000000 0.000000 0.000000 0.000000 0.000000 0.038849
#
#
# Mechanical properties :
#
#
# Convention : Reuss Voigt Hill
#
# Bulk Modulus (GPa) = 61.42785 62.85996 62.14391
# Shear Modulus (GPa) = 28.71406 35.28830 32.00118
#
# Velocity S-wave (km/s) = 3.61292 4.00522 3.81412
# Velocity P-wave (km/s) = 6.73268 7.06858 6.90267
#
# Compressibility (1/GPa) = 0.01627926
#
# Stress axis : x y z
#
# Youngs Moduli (GPa) = 83.50912 108.45314 63.04131
#
# Poissons Ratio (x) = 0.21636 0.40269
# Poissons Ratio (y) = 0.16660 0.12650
# Poissons Ratio (z) = 0.53344 0.21762
#
# Static dielectric constant tensor:
#      x y z
#    x 3.967200 0.000000 0.000000 
#    y 0.000000 4.095280 0.000000 
#    z 0.000000 0.000000 3.851480 
# 
# 
# High freq. dielectric constant tensor:
#      x y z
#    x 1.873550 0.000000 0.000000 
#    y 0.000000 1.864350 0.000000 
#    z 0.000000 0.000000 1.855590 
# 
# From -- ./inp_files/31310.got.cif
#   From: 2010.03.12/outbox.cif.g09.slc.cpg/sg20_16_cif.got.tgz:31310.got - 2010.04.14 01:38:04.
