data_PCOD8159809
_publ_section_title
;
Structure prediction by ZEFSAII (Michael W. Deem and Ramdas Pophale) SiO2 
 PCOD8159809
Probable space group: C 2 2 21
;
_chemical_formula_sum "Si O2"
_cell_formula_units_Z 56
_cell_length_a 20.610685
_cell_length_b 11.069032
_cell_length_c 12.221139
_cell_angle_alpha 90.000000
_cell_angle_beta 90.000000
_cell_angle_gamma 90.000000
_cell_volume 2788.134707
_symmetry_space_group_name_H-M "C 2 2 21"
_symmetry_group_IT_number 20
_symmetry_cell_setting 'orthorhombic'
loop_
_space_group_symop_operation_xyz
x,y,z
-x,-y,1/2+z
x,-y,-z
-x,y,1/2-z
1/2+x,1/2+y,z
1/2-x,1/2-y,1/2+z
1/2+x,1/2-y,-z
1/2-x,1/2+y,1/2-z
loop_
_atom_site_type_symbol
_atom_site_label
_atom_site_fract_x
_atom_site_fract_y
_atom_site_fract_z
Si Si1 0.396878 0.427271 0.389082
Si Si2 0.283568 0.164700 0.089806
Si Si3 0.298483 0.599626 0.799977
Si Si4 0.000000 0.043507 0.250000
Si Si5 0.184645 0.600591 0.648108
Si Si6 0.069574 0.722967 0.752910
Si Si7 0.265954 0.000000 0.500000
Si Si8 0.152197 0.736611 0.963347
O O1 0.380233 0.500000 0.500000
O O2 0.348980 0.455681 0.286885
O O3 0.470283 0.457863 0.346806
O O4 0.383387 0.290122 0.427670
O O5 0.323049 0.277140 0.142069
O O6 0.205132 0.175769 0.095727
O O7 0.310413 0.044251 0.145297
O O8 0.295888 0.165690 0.961708
O O9 0.232318 0.644728 0.742787
O O10 0.280399 0.500400 0.892545
O O11 0.941370 0.135598 0.213676
O O12 0.112708 0.645721 0.671237
O O13 0.095708 0.715810 0.876186
O O14 0.000000 0.656550 0.750000
O O15 0.312004 0.116071 0.497235
#
# Coordination Sequence:
#
# PCOD8159809 Si02
#       8
#     8   8   8   4   8   8   4   8
#     4  12  23  46  70 100 135 186 233 288 352 414
#     4  10  23  38  63 108 130 175 217 291 352 414
#     4  11  24  38  69 103 140 173 225 294 352 408
#     4  10  26  42  68  90 130 186 236 274 336 414
#     4  11  21  39  67  90 137 176 228 277 351 412
#     4  10  22  43  66  90 125 190 231 271 339 421
#     4  10  24  42  62 112 142 182 216 292 354 430
#     4  11  21  43  69  98 141 176 229 279 359 411
#
# _framework density 20.085113
#
# number of rings (size 3 to 8) (size 9 to 14) (size 15 to 20)
#    0.429    0.857    5.714    0.857    2.000    2.286 
#    6.429    1.429    3.143    0.000    0.000    0.000 
#    0.000    0.000    0.000    0.000    0.000    0.000 
#
# Total GULP energy -346877.734101 kJ/mol
# GULP energy per Si atom -12388.490504 kJ/mol
# Density = 2.003940 g / cm^3
# Si number density = 20.085113 Si / 1000 Ang^3
#
#
#
# Elastic Constant Matrix: (Units=GPa)
#
#
# Indices 1 2 3 4 5 6 
#
# 1 106.0591 47.1655 57.3427 0.0000 0.0000 0.0000
# 2 47.1655 101.5563 59.4993 0.0000 0.0000 0.0000
# 3 57.3427 59.4993 136.5988 0.0000 0.0000 0.0000
# 4 0.0000 0.0000 0.0000 20.3824 0.0000 0.0000
# 5 0.0000 0.0000 0.0000 0.0000 39.2185 0.0000
# 6 0.0000 0.0000 0.0000 0.0000 0.0000 37.8644
#
#
#
# Elastic Compliance Matrix: (Units=1/GPa)
#
#
# Indices 1 2 3 4 5 6 
#
# 1 0.013249 -0.003886 -0.003869 0.000000 0.000000 0.000000
# 2 -0.003886 0.014361 -0.004624 0.000000 0.000000 0.000000
# 3 -0.003869 -0.004624 0.010959 0.000000 0.000000 0.000000
# 4 0.000000 0.000000 0.000000 0.049062 0.000000 0.000000
# 5 0.000000 0.000000 0.000000 0.000000 0.025498 0.000000
# 6 0.000000 0.000000 0.000000 0.000000 0.000000 0.026410
#
#
# Mechanical properties :
#
#
# Convention : Reuss Voigt Hill
#
# Bulk Modulus (GPa) = 72.40994 74.69216 73.55105
# Shear Modulus (GPa) = 29.60338 31.50685 30.55512
#
# Velocity S-wave (km/s) = 3.84330 3.96494 3.90459
# Velocity P-wave (km/s) = 7.47157 7.63083 7.55162
#
# Compressibility (1/GPa) = 0.01381026
#
# Stress axis : x y z
#
# Youngs Moduli (GPa) = 75.47845 69.63489 91.25099
#
# Poissons Ratio (x) = 0.27063 0.35304
# Poissons Ratio (y) = 0.29334 0.42191
# Poissons Ratio (z) = 0.29202 0.32197
#
# Static dielectric constant tensor:
#      x y z
#    x 3.610860 0.000000 0.000000 
#    y 0.000000 3.681660 0.000000 
#    z 0.000000 0.000000 3.787810 
# 
# 
# High freq. dielectric constant tensor:
#      x y z
#    x 1.761960 0.000000 0.000000 
#    y 0.000000 1.780560 0.000000 
#    z 0.000000 0.000000 1.790880 
# 
# From -- ./inp_files/16342.got.cif
#   From: 2010.03.12/outbox.cif.g09.slc.cpg/sg20_9_cif.got.tgz:16342.got - 2010.04.14 01:38:04.
