data_PCOD8159937
_publ_section_title
;
Structure prediction by ZEFSAII (Michael W. Deem and Ramdas Pophale) SiO2 
 PCOD8159937
Probable space group: C 2 2 21
;
_chemical_formula_sum "Si O2"
_cell_formula_units_Z 40
_cell_length_a 10.520762
_cell_length_b 21.372788
_cell_length_c 8.259229
_cell_angle_alpha 90.000000
_cell_angle_beta 90.000000
_cell_angle_gamma 90.000000
_cell_volume 1857.153845
_symmetry_space_group_name_H-M "C 2 2 21"
_symmetry_group_IT_number 20
_symmetry_cell_setting 'orthorhombic'
loop_
_space_group_symop_operation_xyz
x,y,z
-x,-y,1/2+z
x,-y,-z
-x,y,1/2-z
1/2+x,1/2+y,z
1/2-x,1/2-y,1/2+z
1/2+x,1/2-y,-z
1/2-x,1/2+y,1/2-z
loop_
_atom_site_type_symbol
_atom_site_label
_atom_site_fract_x
_atom_site_fract_y
_atom_site_fract_z
Si Si1 0.623371 0.346444 0.963653
Si Si2 0.195698 0.000000 0.500000
Si Si3 0.055546 0.563762 0.930045
Si Si4 0.902959 0.674427 0.029157
Si Si5 0.000000 0.745897 0.750000
Si Si6 0.500000 0.719596 0.750000
Si Si7 0.500000 0.551644 0.250000
O O1 0.771493 0.361839 0.948887
O O2 0.593992 0.286137 0.857613
O O3 0.551915 0.407292 0.898630
O O4 0.583631 0.328397 0.145013
O O5 0.289630 0.942312 0.446185
O O6 0.110796 0.987959 0.661425
O O7 0.000000 0.574113 0.750000
O O8 0.992703 0.500000 0.000000
O O9 0.015314 0.622599 0.044022
O O10 0.911702 0.733391 0.148699
O O11 0.904968 0.702559 0.849946
#
# Coordination Sequence:
#
# PCOD8159937 Si02
#       7
#     8   4   8   8   4   4   4
#     4  10  23  41  67  97 135 174 229 271 347 421
#     4  10  28  48  68 102 138 178 252 278 352 418
#     4  10  25  43  67 104 135 173 237 292 346 415
#     4  11  21  39  68  96 134 179 212 288 347 402
#     4   9  20  42  55 103 132 174 219 272 334 416
#     4  10  24  39  65 105 133 178 226 274 350 424
#     4  11  26  47  70  92 137 188 225 302 338 404
#
# _framework density 21.538333999999999
#
# number of rings (size 3 to 8) (size 9 to 14) (size 15 to 20)
#    0.600    1.200    1.000    1.200    7.000    4.000 
#    7.200    0.000    0.000    0.000    0.000    0.000 
#    0.000    0.000    0.000    0.000    0.000    0.000 
#
# Total GULP energy -247828.747849 kJ/mol
# GULP energy per Si atom -12391.437392 kJ/mol
# Density = 2.148931 g / cm^3
# Si number density = 21.538334 Si / 1000 Ang^3
#
#
#
# Elastic Constant Matrix: (Units=GPa)
#
#
# Indices 1 2 3 4 5 6 
#
# 1 151.8822 43.5199 48.2655 0.0000 0.0000 0.0000
# 2 43.5199 89.0216 31.1135 0.0000 0.0000 0.0000
# 3 48.2655 31.1135 107.1815 0.0000 0.0000 0.0000
# 4 0.0000 0.0000 0.0000 97.0150 0.0000 0.0000
# 5 0.0000 0.0000 0.0000 0.0000 30.8522 0.0000
# 6 0.0000 0.0000 0.0000 0.0000 0.0000 29.6646
#
#
#
# Elastic Compliance Matrix: (Units=1/GPa)
#
#
# Indices 1 2 3 4 5 6 
#
# 1 0.008385 -0.003093 -0.002878 0.000000 0.000000 0.000000
# 2 -0.003093 0.013643 -0.002567 0.000000 0.000000 0.000000
# 3 -0.002878 -0.002567 0.011371 0.000000 0.000000 0.000000
# 4 0.000000 0.000000 0.000000 0.010308 0.000000 0.000000
# 5 0.000000 0.000000 0.000000 0.000000 0.032413 0.000000
# 6 0.000000 0.000000 0.000000 0.000000 0.000000 0.033710
#
#
# Mechanical properties :
#
#
# Convention : Reuss Voigt Hill
#
# Bulk Modulus (GPa) = 61.26796 65.98701 63.62748
# Shear Modulus (GPa) = 37.77944 46.51880 42.14912
#
# Velocity S-wave (km/s) = 4.19269 4.65242 4.42853
# Velocity P-wave (km/s) = 7.20735 7.71774 7.46691
#
# Compressibility (1/GPa) = 0.01632175
#
# Stress axis : x y z
#
# Youngs Moduli (GPa) = 119.26138 73.29902 87.94130
#
# Poissons Ratio (x) = 0.22674 0.25309
# Poissons Ratio (y) = 0.36891 0.22578
# Poissons Ratio (z) = 0.34323 0.18819
#
# Static dielectric constant tensor:
#      x y z
#    x 3.671710 0.000000 0.000000 
#    y 0.000000 3.835920 0.000000 
#    z 0.000000 0.000000 4.070730 
# 
# 
# High freq. dielectric constant tensor:
#      x y z
#    x 1.835430 0.000000 0.000000 
#    y 0.000000 1.844040 0.000000 
#    z 0.000000 0.000000 1.852010 
# 
# From -- ./inp_files/6208.got.cif
#   From: 2010.03.12/outbox.cif.g09.slc.cpg/sg20_4_cif.got.tgz:6208.got - 2010.04.14 01:38:04.
