data_PCOD8159032
_publ_section_title
;
Structure prediction by ZEFSAII (Michael W. Deem and Ramdas Pophale) SiO2 
 PCOD8159032
Probable space group: C 2 2 21
;
_chemical_formula_sum "Si O2"
_cell_formula_units_Z 40
_cell_length_a 6.659146
_cell_length_b 15.390674
_cell_length_c 17.078500
_cell_angle_alpha 90.000000
_cell_angle_beta 90.000000
_cell_angle_gamma 90.000000
_cell_volume 1750.354035
_symmetry_space_group_name_H-M "C 2 2 21"
_symmetry_group_IT_number 20
_symmetry_cell_setting 'orthorhombic'
loop_
_space_group_symop_operation_xyz
x,y,z
-x,-y,1/2+z
x,-y,-z
-x,y,1/2-z
1/2+x,1/2+y,z
1/2-x,1/2-y,1/2+z
1/2+x,1/2-y,-z
1/2-x,1/2+y,1/2-z
loop_
_atom_site_type_symbol
_atom_site_label
_atom_site_fract_x
_atom_site_fract_y
_atom_site_fract_z
Si Si1 0.437513 0.189173 0.664200
Si Si2 0.697921 0.422304 0.446378
Si Si3 0.040735 0.030505 0.163734
Si Si4 0.712553 0.677993 0.406130
Si Si5 0.115093 0.658678 0.331017
O O1 0.500000 0.156717 0.750000
O O2 0.363205 0.104844 0.617309
O O3 0.628926 0.227909 0.617980
O O4 0.263416 0.260103 0.671087
O O5 0.787264 0.500000 0.500000
O O6 0.497463 0.455236 0.400858
O O7 0.644997 0.342210 0.504260
O O8 0.000000 0.991458 0.250000
O O9 0.263692 0.069416 0.152703
O O10 0.877931 0.107204 0.153614
O O11 0.954002 0.674855 0.399988
O O12 0.000000 0.651948 0.250000
#
# Coordination Sequence:
#
# PCOD8159032 Si02
#       5
#     8   8   8   8   8
#     4  11  23  43  71 105 138 179 241 307 346 425
#     4  10  25  46  63  99 151 188 225 291 363 433
#     4  10  20  42  68  96 141 184 230 287 350 428
#     4  10  21  43  69 102 138 176 245 293 360 412
#     4  11  19  39  78 105 128 185 238 301 356 415
#
# _framework density 22.852519999999998
#
# number of rings (size 3 to 8) (size 9 to 14) (size 15 to 20)
#    0.000    1.600    4.000    1.200    2.800    0.800 
#    7.200   15.000    0.000    0.000    0.000    0.000 
#    0.000    0.000    0.000    0.000    0.000    0.000 
#
# Total GULP energy -248014.058680 kJ/mol
# GULP energy per Si atom -12400.702934 kJ/mol
# Density = 2.280051 g / cm^3
# Si number density = 22.852520 Si / 1000 Ang^3
#
#
#
# Elastic Constant Matrix: (Units=GPa)
#
#
# Indices 1 2 3 4 5 6 
#
# 1 141.8058 44.4636 57.9008 0.0000 0.0000 0.0000
# 2 44.4636 70.9302 66.9338 0.0000 0.0000 0.0000
# 3 57.9008 66.9338 166.7903 0.0000 0.0000 0.0000
# 4 0.0000 0.0000 0.0000 39.8246 0.0000 0.0000
# 5 0.0000 0.0000 0.0000 0.0000 36.7936 0.0000
# 6 0.0000 0.0000 0.0000 0.0000 0.0000 34.8617
#
#
#
# Elastic Compliance Matrix: (Units=1/GPa)
#
#
# Indices 1 2 3 4 5 6 
#
# 1 0.008970 -0.004321 -0.001380 0.000000 0.000000 0.000000
# 2 -0.004321 0.024773 -0.008441 0.000000 0.000000 0.000000
# 3 -0.001380 -0.008441 0.009862 0.000000 0.000000 0.000000
# 4 0.000000 0.000000 0.000000 0.025110 0.000000 0.000000
# 5 0.000000 0.000000 0.000000 0.000000 0.027179 0.000000
# 6 0.000000 0.000000 0.000000 0.000000 0.000000 0.028685
#
#
# Mechanical properties :
#
#
# Convention : Reuss Voigt Hill
#
# Bulk Modulus (GPa) = 65.27173 79.79141 72.53157
# Shear Modulus (GPa) = 31.65153 36.31119 33.98136
#
# Velocity S-wave (km/s) = 3.72564 3.99047 3.86033
# Velocity P-wave (km/s) = 6.86523 7.49823 7.18870
#
# Compressibility (1/GPa) = 0.01532057
#
# Stress axis : x y z
#
# Youngs Moduli (GPa) = 111.48052 40.36683 101.39704
#
# Poissons Ratio (x) = 0.17442 0.13993
# Poissons Ratio (y) = 0.48169 0.85594
# Poissons Ratio (z) = 0.15384 0.34076
#
# Static dielectric constant tensor:
#      x y z
#    x 4.209250 0.000000 0.000000 
#    y 0.000000 3.938590 0.000000 
#    z 0.000000 0.000000 4.258880 
# 
# 
# High freq. dielectric constant tensor:
#      x y z
#    x 1.890840 0.000000 0.000000 
#    y 0.000000 1.881510 0.000000 
#    z 0.000000 0.000000 1.914860 
# 
# From -- ./inp_files/22619.got.cif
#   From: 2010.03.12/outbox.cif.g09.slc.cpg/sg20_12_cif.got.tgz:22619.got - 2010.04.14 01:38:04.
