data_PCOD8159236
_publ_section_title
;
Structure prediction by ZEFSAII (Michael W. Deem and Ramdas Pophale) SiO2 
 PCOD8159236
Probable space group: C 2 2 21
;
_chemical_formula_sum "Si O2"
_cell_formula_units_Z 52
_cell_length_a 24.951931
_cell_length_b 6.600439
_cell_length_c 16.819290
_cell_angle_alpha 90.000000
_cell_angle_beta 90.000000
_cell_angle_gamma 90.000000
_cell_volume 2770.031076
_symmetry_space_group_name_H-M "C 2 2 21"
_symmetry_group_IT_number 20
_symmetry_cell_setting 'orthorhombic'
loop_
_space_group_symop_operation_xyz
x,y,z
-x,-y,1/2+z
x,-y,-z
-x,y,1/2-z
1/2+x,1/2+y,z
1/2-x,1/2-y,1/2+z
1/2+x,1/2-y,-z
1/2-x,1/2+y,1/2-z
loop_
_atom_site_type_symbol
_atom_site_label
_atom_site_fract_x
_atom_site_fract_y
_atom_site_fract_z
Si Si1 0.203581 0.372933 0.924813
Si Si2 0.986480 0.915238 0.411534
Si Si3 0.053047 0.239943 0.212725
Si Si4 0.096222 0.357327 0.837419
Si Si5 0.194214 0.878347 0.421736
Si Si6 0.239941 0.500000 0.500000
Si Si7 0.091326 0.900679 0.317896
O O1 0.157595 0.326243 0.861802
O O2 0.252055 0.509790 0.888872
O O3 0.223566 0.149741 0.948223
O O4 0.180508 0.500000 0.000000
O O5 0.945434 0.725884 0.403910
O O6 0.046093 0.851047 0.383867
O O7 0.988680 0.000000 0.500000
O O8 0.963704 0.084465 0.354345
O O9 0.089995 0.403277 0.170990
O O10 0.000000 0.343275 0.250000
O O11 0.085186 0.126397 0.282837
O O12 0.084615 0.260042 0.752247
O O13 0.203855 0.641439 0.442429
O O14 0.149788 0.885535 0.354704
O O15 0.174823 0.000000 0.500000
#
# Coordination Sequence:
#
# PCOD8159236 Si02
#       7
#     8   8   8   8   8   4   8
#     4   9  21  36  56  82 112 148 192 241 284 347
#     4  10  22  36  59  86 113 150 194 240 291 352
#     4   9  20  38  56  79 118 153 180 233 292 342
#     4  11  22  36  57  85 115 152 191 240 291 354
#     4   9  19  38  59  83 113 154 199 239 284 350
#     4   8  18  38  60  80 112 152 186 242 288 326
#     4  10  21  39  56  85 120 152 191 241 297 350
#
# _framework density 18.772352000000001
#
# number of rings (size 3 to 8) (size 9 to 14) (size 15 to 20)
#    0.000    2.769    0.000    2.769    3.231    6.154 
#    5.538    1.538    0.000    0.000    0.000    0.000 
#    0.000    0.000    0.000    0.000    0.000    0.000 
#
# Total GULP energy -322316.029871 kJ/mol
# GULP energy per Si atom -12396.770380 kJ/mol
# Density = 1.872963 g / cm^3
# Si number density = 18.772352 Si / 1000 Ang^3
#
#
#
# Elastic Constant Matrix: (Units=GPa)
#
#
# Indices 1 2 3 4 5 6 
#
# 1 127.0942 48.2188 50.3280 0.0000 0.0000 0.0000
# 2 48.2188 112.3660 22.6868 0.0000 0.0000 0.0000
# 3 50.3280 22.6868 77.9365 0.0000 0.0000 0.0000
# 4 0.0000 0.0000 0.0000 17.4759 0.0000 0.0000
# 5 0.0000 0.0000 0.0000 0.0000 43.6224 0.0000
# 6 0.0000 0.0000 0.0000 0.0000 0.0000 18.2921
#
#
#
# Elastic Compliance Matrix: (Units=1/GPa)
#
#
# Indices 1 2 3 4 5 6 
#
# 1 0.011913 -0.003781 -0.006592 0.000000 0.000000 0.000000
# 2 -0.003781 0.010655 -0.000660 0.000000 0.000000 0.000000
# 3 -0.006592 -0.000660 0.017280 0.000000 0.000000 0.000000
# 4 0.000000 0.000000 0.000000 0.057222 0.000000 0.000000
# 5 0.000000 0.000000 0.000000 0.000000 0.022924 0.000000
# 6 0.000000 0.000000 0.000000 0.000000 0.000000 0.054668
#
#
# Mechanical properties :
#
#
# Convention : Reuss Voigt Hill
#
# Bulk Modulus (GPa) = 56.23779 62.20709 59.22244
# Shear Modulus (GPa) = 24.67219 28.95561 26.81390
#
# Velocity S-wave (km/s) = 3.62924 3.93168 3.78348
# Velocity P-wave (km/s) = 6.89816 7.33623 7.12057
#
# Compressibility (1/GPa) = 0.01778164
#
# Stress axis : x y z
#
# Youngs Moduli (GPa) = 83.93992 93.84954 57.86985
#
# Poissons Ratio (x) = 0.35487 0.38150
# Poissons Ratio (y) = 0.31740 0.03819
# Poissons Ratio (z) = 0.55336 0.06193
#
# Static dielectric constant tensor:
#      x y z
#    x 3.489590 0.000000 0.000000 
#    y 0.000000 3.494830 0.000000 
#    z 0.000000 0.000000 3.462830 
# 
# 
# High freq. dielectric constant tensor:
#      x y z
#    x 1.731490 0.000000 0.000000 
#    y 0.000000 1.734890 0.000000 
#    z 0.000000 0.000000 1.715700 
# 
# From -- ./inp_files/25682.got.cif
#   From: 2010.03.12/outbox.cif.g09.slc.cpg/sg20_13_cif.got.tgz:25682.got - 2010.04.14 01:38:04.
