data_PCOD8159090
_publ_section_title
;
Structure prediction by ZEFSAII (Michael W. Deem and Ramdas Pophale) SiO2 
 PCOD8159090
Probable space group: C 2 2 21
;
_chemical_formula_sum "Si O2"
_cell_formula_units_Z 36
_cell_length_a 16.413831
_cell_length_b 24.943622
_cell_length_c 5.135685
_cell_angle_alpha 90.000000
_cell_angle_beta 90.000000
_cell_angle_gamma 90.000000
_cell_volume 2102.654187
_symmetry_space_group_name_H-M "C 2 2 21"
_symmetry_group_IT_number 20
_symmetry_cell_setting 'orthorhombic'
loop_
_space_group_symop_operation_xyz
x,y,z
-x,-y,1/2+z
x,-y,-z
-x,y,1/2-z
1/2+x,1/2+y,z
1/2-x,1/2-y,1/2+z
1/2+x,1/2-y,-z
1/2-x,1/2+y,1/2-z
loop_
_atom_site_type_symbol
_atom_site_label
_atom_site_fract_x
_atom_site_fract_y
_atom_site_fract_z
Si Si1 0.174088 0.300218 0.749277
Si Si2 0.000000 0.808222 0.750000
Si Si3 0.234418 0.179352 0.752506
Si Si4 0.500000 0.764703 0.750000
Si Si5 0.414826 0.615498 0.907792
Si Si6 0.445577 0.500000 0.000000
O O1 0.197265 0.238178 0.741018
O O2 0.215366 0.331792 0.512886
O O3 0.076876 0.303474 0.708192
O O4 0.203706 0.328907 0.012127
O O5 0.977960 0.771698 0.501646
O O6 0.075388 0.847089 0.666788
O O7 0.160554 0.137362 0.756235
O O8 0.500000 0.618265 0.750000
O O9 0.392071 0.554014 0.975286
O O10 0.500000 0.509417 0.250000
#
# Coordination Sequence:
#
# PCOD8159090 Si02
#       6
#     8   4   8   4   8   4
#     4  10  21  33  47  72  96 131 167 213 238 305
#     4  12  20  30  53  72  94 142 173 208 236 312
#     4  10  21  32  48  70 101 127 173 202 251 287
#     4  12  22  34  53  74 100 136 179 204 260 298
#     4  11  22  35  53  73 103 141 176 211 249 305
#     4  10  22  34  50  74 100 134 182 220 244 288
#
# _framework density 17.121217999999999
#
# number of rings (size 3 to 8) (size 9 to 14) (size 15 to 20)
#    0.000    1.333    4.444    1.333    9.333    0.000 
#    0.000    0.000    0.000    0.000    0.000    0.000 
#    0.000    3.556    0.000    0.000    0.000    0.000 
#
# Total GULP energy -223150.315132 kJ/mol
# GULP energy per Si atom -12397.239730 kJ/mol
# Density = 1.708225 g / cm^3
# Si number density = 17.121218 Si / 1000 Ang^3
#
#
#
# Elastic Constant Matrix: (Units=GPa)
#
#
# Indices 1 2 3 4 5 6 
#
# 1 108.6133 34.1341 30.3781 0.0000 0.0000 0.0000
# 2 34.1341 69.5425 23.3291 0.0000 0.0000 0.0000
# 3 30.3781 23.3291 101.4276 0.0000 0.0000 0.0000
# 4 0.0000 0.0000 0.0000 11.9723 0.0000 0.0000
# 5 0.0000 0.0000 0.0000 0.0000 26.6653 0.0000
# 6 0.0000 0.0000 0.0000 0.0000 0.0000 16.0490
#
#
#
# Elastic Compliance Matrix: (Units=1/GPa)
#
#
# Indices 1 2 3 4 5 6 
#
# 1 0.011360 -0.004805 -0.002297 0.000000 0.000000 0.000000
# 2 -0.004805 0.017615 -0.002612 0.000000 0.000000 0.000000
# 3 -0.002297 -0.002612 0.011148 0.000000 0.000000 0.000000
# 4 0.000000 0.000000 0.000000 0.083526 0.000000 0.000000
# 5 0.000000 0.000000 0.000000 0.000000 0.037502 0.000000
# 6 0.000000 0.000000 0.000000 0.000000 0.000000 0.062309
#
#
# Mechanical properties :
#
#
# Convention : Reuss Voigt Hill
#
# Bulk Modulus (GPa) = 48.32495 50.58511 49.45503
# Shear Modulus (GPa) = 20.01713 23.72014 21.86864
#
# Velocity S-wave (km/s) = 3.42298 3.72617 3.57779
# Velocity P-wave (km/s) = 6.62638 6.93699 6.78346
#
# Compressibility (1/GPa) = 0.02069324
#
# Stress axis : x y z
#
# Youngs Moduli (GPa) = 88.03170 56.77119 89.70164
#
# Poissons Ratio (x) = 0.27279 0.20605
# Poissons Ratio (y) = 0.42300 0.23433
# Poissons Ratio (z) = 0.20221 0.14830
#
# Static dielectric constant tensor:
#      x y z
#    x 3.112920 0.000000 0.000000 
#    y 0.000000 3.021620 0.000000 
#    z 0.000000 0.000000 3.533710 
# 
# 
# High freq. dielectric constant tensor:
#      x y z
#    x 1.640380 0.000000 0.000000 
#    y 0.000000 1.609930 0.000000 
#    z 0.000000 0.000000 1.685460 
# 
# From -- ./inp_files/1851.got.cif
#   From: 2010.03.12/outbox.cif.g09.slc.cpg/sg20_1_cif.got.tgz:1851.got - 2010.04.14 01:38:04.
