data_PCOD8159118
_publ_section_title
;
Structure prediction by ZEFSAII (Michael W. Deem and Ramdas Pophale) SiO2 
 PCOD8159118
Probable space group: C 2 2 21
;
_chemical_formula_sum "Si O2"
_cell_formula_units_Z 64
_cell_length_a 21.094981
_cell_length_b 17.828693
_cell_length_c 9.374662
_cell_angle_alpha 90.000000
_cell_angle_beta 90.000000
_cell_angle_gamma 90.000000
_cell_volume 3525.772318
_symmetry_space_group_name_H-M "C 2 2 21"
_symmetry_group_IT_number 20
_symmetry_cell_setting 'orthorhombic'
loop_
_space_group_symop_operation_xyz
x,y,z
-x,-y,1/2+z
x,-y,-z
-x,y,1/2-z
1/2+x,1/2+y,z
1/2-x,1/2-y,1/2+z
1/2+x,1/2-y,-z
1/2-x,1/2+y,1/2-z
loop_
_atom_site_type_symbol
_atom_site_label
_atom_site_fract_x
_atom_site_fract_y
_atom_site_fract_z
Si Si1 0.618207 0.442439 0.386331
Si Si2 0.258943 0.050549 0.619822
Si Si3 0.365139 0.347114 0.542103
Si Si4 0.938484 0.031079 0.343591
Si Si5 0.812810 0.701054 0.227220
Si Si6 0.242661 0.444753 0.615502
Si Si7 0.212314 0.291380 0.058951
Si Si8 0.426319 0.698183 0.753539
O O1 0.586269 0.500000 0.500000
O O2 0.689608 0.423482 0.436175
O O3 0.616736 0.482917 0.231801
O O4 0.580299 0.363496 0.379937
O O5 0.299950 0.127355 0.633082
O O6 0.293182 0.000000 0.500000
O O7 0.244831 0.001829 0.756972
O O8 0.417602 0.381632 0.648330
O O9 0.304803 0.404216 0.547961
O O10 0.345190 0.264965 0.598779
O O11 0.396241 0.341328 0.386072
O O12 0.000000 0.020490 0.250000
O O13 0.950060 0.000000 0.500000
O O14 0.807988 0.617257 0.165540
O O15 0.783082 0.703369 0.386707
O O16 0.776560 0.758668 0.124524
O O17 0.886474 0.725674 0.221029
O O18 0.211173 0.500000 0.500000
O O19 0.500000 0.720983 0.750000
#
# Coordination Sequence:
#
# PCOD8159118 Si02
#       8
#     8   8   8   8   8   8   8   8
#     4  11  22  32  51  81 112 146 191 224 265 327
#     4  11  20  35  56  86 116 145 186 230 286 345
#     4  10  22  38  55  80 116 150 186 231 290 329
#     4  12  23  36  51  75 111 155 192 228 267 332
#     4  10  22  38  55  87 114 147 192 231 292 340
#     4  11  21  36  60  86 116 147 177 239 298 347
#     4  10  21  36  57  81 117 147 184 237 284 347
#     4  11  22  39  58  78 111 159 197 231 271 340
#
# _framework density 18.152051
#
# number of rings (size 3 to 8) (size 9 to 14) (size 15 to 20)
#    0.000    1.250    5.000    1.875    5.250    0.000 
#    0.000    0.000    0.000    0.000    6.500    0.000 
#    0.000    0.000    0.000    0.000    0.000    0.000 
#
# Total GULP energy -396469.182245 kJ/mol
# GULP energy per Si atom -12389.661945 kJ/mol
# Density = 1.811074 g / cm^3
# Si number density = 18.152051 Si / 1000 Ang^3
#
#
#
# Elastic Constant Matrix: (Units=GPa)
#
#
# Indices 1 2 3 4 5 6 
#
# 1 72.5872 48.8939 35.6034 0.0000 0.0000 0.0000
# 2 48.8939 137.2922 44.8278 0.0000 0.0000 0.0000
# 3 35.6034 44.8278 83.2078 0.0000 0.0000 0.0000
# 4 0.0000 0.0000 0.0000 33.3337 0.0000 0.0000
# 5 0.0000 0.0000 0.0000 0.0000 16.2752 0.0000
# 6 0.0000 0.0000 0.0000 0.0000 0.0000 -98.8814
#
#
#
# Elastic Compliance Matrix: (Units=1/GPa)
#
#
# Indices 1 2 3 4 5 6 
#
# 1 0.020182 -0.005300 -0.005780 0.000000 0.000000 0.000000
# 2 -0.005300 0.010230 -0.003244 0.000000 0.000000 0.000000
# 3 -0.005780 -0.003244 0.016239 0.000000 0.000000 0.000000
# 4 0.000000 0.000000 0.000000 0.030000 0.000000 0.000000
# 5 0.000000 0.000000 0.000000 0.000000 0.061443 0.000000
# 6 0.000000 0.000000 0.000000 0.000000 0.000000 -0.010113
#
#
# Mechanical properties :
#
#
# Convention : Reuss Voigt Hill
#
# Bulk Modulus (GPa) = 55.54576 61.30418 58.42497
# Shear Modulus (GPa) = 30.74480 1.06299 15.90390
#
# Velocity S-wave (km/s) = 4.11997 0.76608 2.96319
# Velocity P-wave (km/s) = 7.30061 5.88459 6.63051
#
# Compressibility (1/GPa) = 0.01800317
#
# Stress axis : x y z
#
# Youngs Moduli (GPa) = 49.55001 97.74821 61.58066
#
# Poissons Ratio (x) = 0.51807 0.35594
# Poissons Ratio (y) = 0.26262 0.19975
# Poissons Ratio (z) = 0.28640 0.31707
#
# Static dielectric constant tensor:
#      x y z
#    x 3.078870 0.000000 0.000000 
#    y 0.000000 3.616410 0.000000 
#    z 0.000000 0.000000 5.794940 
# 
# 
# High freq. dielectric constant tensor:
#      x y z
#    x 1.659950 0.000000 0.000000 
#    y 0.000000 1.709330 0.000000 
#    z 0.000000 0.000000 1.707510 
# 
# From -- ./inp_files/10870.got.cif
#   From: 2010.03.12/outbox.cif.g09.slc.cpg/sg20_6_cif.got.tgz:10870.got - 2010.04.14 01:38:04.
