data_PCOD8159720
_publ_section_title
;
Structure prediction by ZEFSAII (Michael W. Deem and Ramdas Pophale) SiO2 
 PCOD8159720
Probable space group: C 2 2 21
;
_chemical_formula_sum "Si O2"
_cell_formula_units_Z 56
_cell_length_a 13.918444
_cell_length_b 13.052142
_cell_length_c 13.941009
_cell_angle_alpha 90.000000
_cell_angle_beta 90.000000
_cell_angle_gamma 90.000000
_cell_volume 2532.600475
_symmetry_space_group_name_H-M "C 2 2 21"
_symmetry_group_IT_number 20
_symmetry_cell_setting 'orthorhombic'
loop_
_space_group_symop_operation_xyz
x,y,z
-x,-y,1/2+z
x,-y,-z
-x,y,1/2-z
1/2+x,1/2+y,z
1/2-x,1/2-y,1/2+z
1/2+x,1/2-y,-z
1/2-x,1/2+y,1/2-z
loop_
_atom_site_type_symbol
_atom_site_label
_atom_site_fract_x
_atom_site_fract_y
_atom_site_fract_z
Si Si1 0.389856 0.543274 0.599921
Si Si2 0.501126 0.167467 0.860790
Si Si3 0.898383 0.927582 0.079585
Si Si4 0.839633 0.208100 0.070587
Si Si5 0.213144 0.967190 0.718141
Si Si6 0.124094 0.266157 0.969708
Si Si7 0.929714 0.556553 0.331157
O O1 0.352178 0.500000 0.500000
O O2 0.502654 0.520861 0.616219
O O3 0.325975 0.479764 0.674641
O O4 0.385495 0.666572 0.597897
O O5 0.500000 0.201664 0.750000
O O6 0.390529 0.187669 0.893962
O O7 0.527544 0.048698 0.873414
O O8 0.575454 0.237252 0.924134
O O9 0.823499 0.926842 0.167592
O O10 0.909611 0.822493 0.020203
O O11 0.847613 0.000000 0.000000
O O12 0.737865 0.221052 0.019485
O O13 0.833079 0.129369 0.161036
O O14 0.327502 0.963587 0.719241
O O15 0.076738 0.362617 0.916243
O O16 0.000000 0.601481 0.250000
#
# Coordination Sequence:
#
# PCOD8159720 Si02
#       7
#     8   8   8   8   8   8   8
#     4  11  24  40  64 102 139 177 231 302 351 407
#     4  11  24  42  72 101 137 184 237 290 350 433
#     4   9  18  37  64  92 126 169 224 284 351 412
#     4  10  22  42  67 101 131 184 232 286 359 429
#     4  10  22  41  68  95 136 185 230 285 353 434
#     4  11  24  46  68  98 144 181 236 291 358 425
#     4  10  24  46  69  99 139 186 234 286 356 432
#
# _framework density 22.111659
#
# number of rings (size 3 to 8) (size 9 to 14) (size 15 to 20)
#    0.000    1.714    1.429    1.714    6.000    3.429 
#    2.571    0.000    0.000    0.000    0.000    0.000 
#    0.000    0.000    0.000    0.000    0.000    0.000 
#
# Total GULP energy -346887.670922 kJ/mol
# GULP energy per Si atom -12388.845390 kJ/mol
# Density = 2.206133 g / cm^3
# Si number density = 22.111659 Si / 1000 Ang^3
#
#
#
# Elastic Constant Matrix: (Units=GPa)
#
#
# Indices 1 2 3 4 5 6 
#
# 1 120.7339 56.4351 79.2766 0.0000 0.0000 0.0000
# 2 56.4351 68.7351 28.6788 0.0000 0.0000 0.0000
# 3 79.2766 28.6788 127.4888 0.0000 0.0000 0.0000
# 4 0.0000 0.0000 0.0000 18.2241 0.0000 0.0000
# 5 0.0000 0.0000 0.0000 0.0000 41.1175 0.0000
# 6 0.0000 0.0000 0.0000 0.0000 0.0000 30.9112
#
#
#
# Elastic Compliance Matrix: (Units=1/GPa)
#
#
# Indices 1 2 3 4 5 6 
#
# 1 0.021047 -0.013044 -0.010153 0.000000 0.000000 0.000000
# 2 -0.013044 0.024140 0.002681 0.000000 0.000000 0.000000
# 3 -0.010153 0.002681 0.013554 0.000000 0.000000 0.000000
# 4 0.000000 0.000000 0.000000 0.054873 0.000000 0.000000
# 5 0.000000 0.000000 0.000000 0.000000 0.024321 0.000000
# 6 0.000000 0.000000 0.000000 0.000000 0.000000 0.032351
#
#
# Mechanical properties :
#
#
# Convention : Reuss Voigt Hill
#
# Bulk Modulus (GPa) = 56.47109 71.74875 64.10992
# Shear Modulus (GPa) = 23.01802 28.22169 25.61986
#
# Velocity S-wave (km/s) = 3.22994 3.57645 3.40760
# Velocity P-wave (km/s) = 6.28526 7.04084 6.67375
#
# Compressibility (1/GPa) = 0.01770818
#
# Stress axis : x y z
#
# Youngs Moduli (GPa) = 47.51289 41.42495 73.77685
#
# Poissons Ratio (x) = 0.54036 0.74908
# Poissons Ratio (y) = 0.61977 -0.19780
# Poissons Ratio (z) = 0.48241 -0.11106
#
# Static dielectric constant tensor:
#      x y z
#    x 4.035300 0.000000 0.000000 
#    y 0.000000 3.916870 0.000000 
#    z 0.000000 0.000000 4.104440 
# 
# 
# High freq. dielectric constant tensor:
#      x y z
#    x 1.877170 0.000000 0.000000 
#    y 0.000000 1.853660 0.000000 
#    z 0.000000 0.000000 1.871670 
# 
# From -- ./inp_files/15141.got.cif
#   From: 2010.03.12/outbox.cif.g09.slc.cpg/sg20_8_cif.got.tgz:15141.got - 2010.04.14 01:38:04.
