data_PCOD8159667
_publ_section_title
;
Structure prediction by ZEFSAII (Michael W. Deem and Ramdas Pophale) SiO2 
 PCOD8159667
Probable space group: C 2 2 21
;
_chemical_formula_sum "Si O2"
_cell_formula_units_Z 36
_cell_length_a 5.093694
_cell_length_b 21.331211
_cell_length_c 15.546548
_cell_angle_alpha 90.000000
_cell_angle_beta 90.000000
_cell_angle_gamma 90.000000
_cell_volume 1689.204910
_symmetry_space_group_name_H-M "C 2 2 21"
_symmetry_group_IT_number 20
_symmetry_cell_setting 'orthorhombic'
loop_
_space_group_symop_operation_xyz
x,y,z
-x,-y,1/2+z
x,-y,-z
-x,y,1/2-z
1/2+x,1/2+y,z
1/2-x,1/2-y,1/2+z
1/2+x,1/2-y,-z
1/2-x,1/2+y,1/2-z
loop_
_atom_site_type_symbol
_atom_site_label
_atom_site_fract_x
_atom_site_fract_y
_atom_site_fract_z
Si Si1 0.374536 0.402698 0.383111
Si Si2 0.000000 0.002722 0.250000
Si Si3 0.500000 0.298190 0.250000
Si Si4 0.500000 0.284412 0.750000
Si Si5 0.613089 0.927013 0.009857
Si Si6 0.802969 0.386229 0.674127
O O1 0.340735 0.459553 0.316072
O O2 0.436496 0.338779 0.333862
O O3 0.594602 0.417516 0.454179
O O4 0.093161 0.394502 0.426839
O O5 0.195797 0.044767 0.305261
O O6 0.247652 0.257516 0.223152
O O7 0.579793 0.331884 0.671794
O O8 0.570342 0.891210 0.919554
O O9 0.546430 0.000000 0.000000
O O10 0.000000 0.365589 0.750000
#
# Coordination Sequence:
#
# PCOD8159667 Si02
#       6
#     8   4   4   4   8   8
#     4  11  25  42  69 102 138 178 220 276 339 400
#     4  10  22  40  66 104 134 184 216 268 342 418
#     4  11  24  49  72  93 136 183 238 272 330 393
#     4  11  24  45  74  93 126 191 236 282 316 399
#     4  12  24  41  67 108 144 166 215 280 348 408
#     4  11  24  42  71  97 137 176 228 272 343 400
#
# _framework density 21.311800999999999
#
# number of rings (size 3 to 8) (size 9 to 14) (size 15 to 20)
#    0.000    0.889    3.333    3.333    6.222    1.778 
#    0.000    4.444    0.000    0.000    0.000    0.000 
#    0.000    0.000    0.000    0.000    0.000    0.000 
#
# Total GULP energy -223234.093923 kJ/mol
# GULP energy per Si atom -12401.894107 kJ/mol
# Density = 2.126329 g / cm^3
# Si number density = 21.311801 Si / 1000 Ang^3
#
#
#
# Elastic Constant Matrix: (Units=GPa)
#
#
# Indices 1 2 3 4 5 6 
#
# 1 99.5009 44.3153 29.0998 0.0000 0.0000 0.0000
# 2 44.3153 134.4030 48.4452 0.0000 0.0000 0.0000
# 3 29.0998 48.4452 120.1278 0.0000 0.0000 0.0000
# 4 0.0000 0.0000 0.0000 13.2048 0.0000 0.0000
# 5 0.0000 0.0000 0.0000 0.0000 42.8863 0.0000
# 6 0.0000 0.0000 0.0000 0.0000 0.0000 27.5258
#
#
#
# Elastic Compliance Matrix: (Units=1/GPa)
#
#
# Indices 1 2 3 4 5 6 
#
# 1 0.012018 -0.003409 -0.001537 0.000000 0.000000 0.000000
# 2 -0.003409 0.009673 -0.003075 0.000000 0.000000 0.000000
# 3 -0.001537 -0.003075 0.009937 0.000000 0.000000 0.000000
# 4 0.000000 0.000000 0.000000 0.075730 0.000000 0.000000
# 5 0.000000 0.000000 0.000000 0.000000 0.023317 0.000000
# 6 0.000000 0.000000 0.000000 0.000000 0.000000 0.036330
#
#
# Mechanical properties :
#
#
# Convention : Reuss Voigt Hill
#
# Bulk Modulus (GPa) = 64.15764 66.41693 65.28728
# Shear Modulus (GPa) = 26.56180 32.20146 29.38163
#
# Velocity S-wave (km/s) = 3.53419 3.89133 3.71705
# Velocity P-wave (km/s) = 6.84278 7.17092 7.00877
#
# Compressibility (1/GPa) = 0.01558661
#
# Stress axis : x y z
#
# Youngs Moduli (GPa) = 83.21097 103.38478 100.63605
#
# Poissons Ratio (x) = 0.35240 0.15463
# Poissons Ratio (y) = 0.28363 0.30946
# Poissons Ratio (z) = 0.12786 0.31792
#
# Static dielectric constant tensor:
#      x y z
#    x 3.896990 0.000000 0.000000 
#    y 0.000000 3.975640 0.000000 
#    z 0.000000 0.000000 3.816470 
# 
# 
# High freq. dielectric constant tensor:
#      x y z
#    x 1.843830 0.000000 0.000000 
#    y 0.000000 1.841220 0.000000 
#    z 0.000000 0.000000 1.829300 
# 
# From -- ./inp_files/17559.got.cif
#   From: 2010.03.12/outbox.cif.g09.slc.cpg/sg20_9_cif.got.tgz:17559.got - 2010.04.14 01:38:04.
