data_PCOD8159839
_publ_section_title
;
Structure prediction by ZEFSAII (Michael W. Deem and Ramdas Pophale) SiO2 
 PCOD8159839
Probable space group: C 2 2 21
;
_chemical_formula_sum "Si O2"
_cell_formula_units_Z 32
_cell_length_a 12.916224
_cell_length_b 23.756534
_cell_length_c 4.929620
_cell_angle_alpha 90.000000
_cell_angle_beta 90.000000
_cell_angle_gamma 90.000000
_cell_volume 1512.627842
_symmetry_space_group_name_H-M "C 2 2 21"
_symmetry_group_IT_number 20
_symmetry_cell_setting 'orthorhombic'
loop_
_space_group_symop_operation_xyz
x,y,z
-x,-y,1/2+z
x,-y,-z
-x,y,1/2-z
1/2+x,1/2+y,z
1/2-x,1/2-y,1/2+z
1/2+x,1/2-y,-z
1/2-x,1/2+y,1/2-z
loop_
_atom_site_type_symbol
_atom_site_label
_atom_site_fract_x
_atom_site_fract_y
_atom_site_fract_z
Si Si1 0.249644 0.051790 0.716391
Si Si2 0.569898 0.500000 0.000000
Si Si3 0.430147 0.000000 0.000000
Si Si4 0.269669 0.822336 0.269876
Si Si5 0.621913 0.775267 0.740390
O O1 0.249338 0.115061 0.609161
O O2 0.248734 0.000000 0.500000
O O3 0.146176 0.049476 0.900554
O O4 0.354372 0.049232 0.896256
O O5 0.500000 0.477828 0.750000
O O6 0.500000 0.022611 0.250000
O O7 0.353124 0.793805 0.458375
O O8 0.161505 0.788778 0.299393
O O9 0.321254 0.817793 0.971081
O O10 0.500000 0.776825 0.750000
#
# Coordination Sequence:
#
# PCOD8159839 Si02
#       5
#     8   4   4   8   8
#     4  11  25  43  66  98 136 177 215 271 331 400
#     4  11  24  43  64  92 132 171 218 263 320 398
#     4  11  24  41  60  92 136 175 222 261 316 398
#     4  10  24  41  67  93 131 164 218 269 324 383
#     4  10  22  44  65  96 122 169 218 272 322 379
#
# _framework density 21.155238000000001
#
# number of rings (size 3 to 8) (size 9 to 14) (size 15 to 20)
#    0.000    1.500    2.500    0.750    7.000    4.000 
#    0.000    0.000    0.000    0.000    0.000    0.000 
#    0.000    0.000    0.000    0.000    0.000    0.000 
#
# Total GULP energy -198214.346392 kJ/mol
# GULP energy per Si atom -12388.396650 kJ/mol
# Density = 2.110709 g / cm^3
# Si number density = 21.155238 Si / 1000 Ang^3
#
#
#
# Elastic Constant Matrix: (Units=GPa)
#
#
# Indices 1 2 3 4 5 6 
#
# 1 128.6457 27.7324 25.2802 0.0000 0.0000 0.0000
# 2 27.7324 151.5984 19.7395 0.0000 0.0000 0.0000
# 3 25.2802 19.7395 93.3695 0.0000 0.0000 0.0000
# 4 0.0000 0.0000 0.0000 14.7007 0.0000 0.0000
# 5 0.0000 0.0000 0.0000 0.0000 38.7225 0.0000
# 6 0.0000 0.0000 0.0000 0.0000 0.0000 4.7307
#
#
#
# Elastic Compliance Matrix: (Units=1/GPa)
#
#
# Indices 1 2 3 4 5 6 
#
# 1 0.008446 -0.001283 -0.002016 0.000000 0.000000 0.000000
# 2 -0.001283 0.006978 -0.001128 0.000000 0.000000 0.000000
# 3 -0.002016 -0.001128 0.011494 0.000000 0.000000 0.000000
# 4 0.000000 0.000000 0.000000 0.068024 0.000000 0.000000
# 5 0.000000 0.000000 0.000000 0.000000 0.025825 0.000000
# 6 0.000000 0.000000 0.000000 0.000000 0.000000 0.211387
#
#
# Mechanical properties :
#
#
# Convention : Reuss Voigt Hill
#
# Bulk Modulus (GPa) = 55.35318 57.67976 56.51647
# Shear Modulus (GPa) = 14.40805 31.68821 23.04813
#
# Velocity S-wave (km/s) = 2.61255 3.87446 3.30430
# Velocity P-wave (km/s) = 5.94328 6.88036 6.42892
#
# Compressibility (1/GPa) = 0.01806581
#
# Stress axis : x y z
#
# Youngs Moduli (GPa) = 118.40121 143.31015 86.99937
#
# Poissons Ratio (x) = 0.18381 0.17536
# Poissons Ratio (y) = 0.15186 0.09813
# Poissons Ratio (z) = 0.23865 0.16165
#
# Static dielectric constant tensor:
#      x y z
#    x 4.127550 0.000000 0.000000 
#    y 0.000000 3.553060 0.000000 
#    z 0.000000 0.000000 4.099430 
# 
# 
# High freq. dielectric constant tensor:
#      x y z
#    x 1.843770 0.000000 0.000000 
#    y 0.000000 1.800530 0.000000 
#    z 0.000000 0.000000 1.844280 
# 
# From -- ./inp_files/1066.got.cif
#   From: 2010.03.12/outbox.cif.g09.slc.cpg/sg20_1_cif.got.tgz:1066.got - 2010.04.14 01:38:04.
