data_PCOD8159790
_publ_section_title
;
Structure prediction by ZEFSAII (Michael W. Deem and Ramdas Pophale) SiO2 
 PCOD8159790
Probable space group: C 2 2 21
;
_chemical_formula_sum "Si O2"
_cell_formula_units_Z 48
_cell_length_a 16.445408
_cell_length_b 8.878127
_cell_length_c 15.189056
_cell_angle_alpha 90.000000
_cell_angle_beta 90.000000
_cell_angle_gamma 90.000000
_cell_volume 2217.669324
_symmetry_space_group_name_H-M "C 2 2 21"
_symmetry_group_IT_number 20
_symmetry_cell_setting 'orthorhombic'
loop_
_space_group_symop_operation_xyz
x,y,z
-x,-y,1/2+z
x,-y,-z
-x,y,1/2-z
1/2+x,1/2+y,z
1/2-x,1/2-y,1/2+z
1/2+x,1/2-y,-z
1/2-x,1/2+y,1/2-z
loop_
_atom_site_type_symbol
_atom_site_label
_atom_site_fract_x
_atom_site_fract_y
_atom_site_fract_z
Si Si1 0.775659 0.480675 0.336096
Si Si2 0.244808 0.871017 0.842742
Si Si3 0.398298 0.547700 0.589100
Si Si4 0.336348 0.500000 0.000000
Si Si5 0.583556 0.890239 0.921690
Si Si6 0.410483 0.771891 0.895439
Si Si7 0.500000 0.602068 0.750000
O O1 0.777005 0.302153 0.331579
O O2 0.734323 0.544423 0.249115
O O3 0.721964 0.543503 0.417922
O O4 0.870145 0.534208 0.338960
O O5 0.334753 0.883615 0.884012
O O6 0.184106 0.952144 0.909728
O O7 0.446109 0.500000 0.500000
O O8 0.378696 0.723451 0.577553
O O9 0.453854 0.506861 0.674324
O O10 0.392310 0.357652 0.031060
O O11 0.486267 0.878261 0.920447
O O12 0.610846 0.000000 0.000000
O O13 0.431409 0.699712 0.800019
#
# Coordination Sequence:
#
# PCOD8159790 Si02
#       7
#     8   8   8   4   8   8   4
#     4  11  22  43  70  97 139 183 228 284 348 409
#     4  11  23  44  68 105 134 180 235 286 345 422
#     4  11  24  41  71 101 137 181 233 287 349 416
#     4  10  22  42  70  96 132 184 222 286 338 424
#     4  11  23  43  65  98 137 182 230 287 345 411
#     4  10  23  42  68  98 138 180 233 282 355 404
#     4  10  22  44  66  98 134 186 222 288 350 420
#
# _framework density 21.644345000000001
#
# number of rings (size 3 to 8) (size 9 to 14) (size 15 to 20)
#    0.000    1.333    0.833    6.000    7.000    0.667 
#    3.000    1.667    0.000    1.000    0.000    0.000 
#    0.000    0.000    0.000    0.000    0.000    0.000 
#
# Total GULP energy -297373.199037 kJ/mol
# GULP energy per Si atom -12390.549960 kJ/mol
# Density = 2.159508 g / cm^3
# Si number density = 21.644345 Si / 1000 Ang^3
#
#
#
# Elastic Constant Matrix: (Units=GPa)
#
#
# Indices 1 2 3 4 5 6 
#
# 1 124.8245 49.3362 30.4388 0.0000 0.0000 0.0000
# 2 49.3362 119.0097 42.2137 0.0000 0.0000 0.0000
# 3 30.4388 42.2137 119.0697 0.0000 0.0000 0.0000
# 4 0.0000 0.0000 0.0000 42.4985 0.0000 0.0000
# 5 0.0000 0.0000 0.0000 0.0000 28.6270 0.0000
# 6 0.0000 0.0000 0.0000 0.0000 0.0000 38.7840
#
#
#
# Elastic Compliance Matrix: (Units=1/GPa)
#
#
# Indices 1 2 3 4 5 6 
#
# 1 0.009731 -0.003605 -0.001210 0.000000 0.000000 0.000000
# 2 -0.003605 0.010947 -0.002959 0.000000 0.000000 0.000000
# 3 -0.001210 -0.002959 0.009757 0.000000 0.000000 0.000000
# 4 0.000000 0.000000 0.000000 0.023530 0.000000 0.000000
# 5 0.000000 0.000000 0.000000 0.000000 0.034932 0.000000
# 6 0.000000 0.000000 0.000000 0.000000 0.000000 0.025784
#
#
# Mechanical properties :
#
#
# Convention : Reuss Voigt Hill
#
# Bulk Modulus (GPa) = 67.17348 67.43125 67.30237
# Shear Modulus (GPa) = 36.98466 38.04292 37.51379
#
# Velocity S-wave (km/s) = 4.13818 4.19697 4.16768
# Velocity P-wave (km/s) = 7.34406 7.39648 7.37032
#
# Compressibility (1/GPa) = 0.01488683
#
# Stress axis : x y z
#
# Youngs Moduli (GPa) = 102.76359 91.35007 102.49216
#
# Poissons Ratio (x) = 0.32932 0.12397
# Poissons Ratio (y) = 0.37047 0.30332
# Poissons Ratio (z) = 0.12430 0.27034
#
# Static dielectric constant tensor:
#      x y z
#    x 4.099700 0.000000 0.000000 
#    y 0.000000 3.757240 0.000000 
#    z 0.000000 0.000000 4.051690 
# 
# 
# High freq. dielectric constant tensor:
#      x y z
#    x 1.862840 0.000000 0.000000 
#    y 0.000000 1.834250 0.000000 
#    z 0.000000 0.000000 1.858340 
# 
# From -- ./inp_files/21341.got.cif
#   From: 2010.03.12/outbox.cif.g09.slc.cpg/sg20_11_cif.got.tgz:21341.got - 2010.04.14 01:38:04.
