data_PCOD8159472
_publ_section_title
;
Structure prediction by ZEFSAII (Michael W. Deem and Ramdas Pophale) SiO2 
 PCOD8159472
Probable space group: C 2 2 21
;
_chemical_formula_sum "Si O2"
_cell_formula_units_Z 40
_cell_length_a 13.183247
_cell_length_b 5.006744
_cell_length_c 29.662576
_cell_angle_alpha 90.000000
_cell_angle_beta 90.000000
_cell_angle_gamma 90.000000
_cell_volume 1957.882565
_symmetry_space_group_name_H-M "C 2 2 21"
_symmetry_group_IT_number 20
_symmetry_cell_setting 'orthorhombic'
loop_
_space_group_symop_operation_xyz
x,y,z
-x,-y,1/2+z
x,-y,-z
-x,y,1/2-z
1/2+x,1/2+y,z
1/2-x,1/2-y,1/2+z
1/2+x,1/2-y,-z
1/2-x,1/2+y,1/2-z
loop_
_atom_site_type_symbol
_atom_site_label
_atom_site_fract_x
_atom_site_fract_y
_atom_site_fract_z
Si Si1 0.705482 0.121845 0.410011
Si Si2 0.388352 0.396308 0.950540
Si Si3 0.383512 0.612057 0.238852
Si Si4 0.294646 0.112031 0.194514
Si Si5 0.886718 0.242923 0.469084
O O1 0.619421 0.348187 0.417366
O O2 0.715918 0.051005 0.357929
O O3 0.809126 0.258272 0.427551
O O4 0.683147 0.848786 0.436627
O O5 0.502393 0.292242 0.948254
O O6 0.355266 0.500000 0.000000
O O7 0.500000 0.556371 0.250000
O O8 0.342387 0.402229 0.202255
O O9 0.317716 0.585748 0.284459
O O10 0.371548 0.903197 0.217274
O O11 0.882895 0.500000 0.500000
O O12 0.854270 0.000000 0.500000
#
# Coordination Sequence:
#
# PCOD8159472 Si02
#       5
#     8   8   8   8   8
#     4  12  23  38  61  89 120 151 196 253 293 337
#     4  11  23  40  59  84 121 162 200 240 293 350
#     4  10  21  43  64  83 121 158 186 238 302 356
#     4  10  23  38  61  94 115 148 202 238 289 366
#     4  11  23  39  59  84 116 159 201 235 287 347
#
# _framework density 20.430233000000001
#
# number of rings (size 3 to 8) (size 9 to 14) (size 15 to 20)
#    0.000    1.200    0.000    7.800    0.000    3.200 
#    0.000    0.000    0.000    0.000    0.000    0.000 
#    0.000    0.000    0.000    0.000    0.000    0.000 
#
# Total GULP energy -248093.950950 kJ/mol
# GULP energy per Si atom -12404.697548 kJ/mol
# Density = 2.038373 g / cm^3
# Si number density = 20.430233 Si / 1000 Ang^3
#
#
#
# Elastic Constant Matrix: (Units=GPa)
#
#
# Indices 1 2 3 4 5 6 
#
# 1 119.5984 32.6029 65.6169 0.0000 0.0000 0.0000
# 2 32.6029 121.2833 36.1138 0.0000 0.0000 0.0000
# 3 65.6169 36.1138 126.5283 0.0000 0.0000 0.0000
# 4 0.0000 0.0000 0.0000 25.8150 0.0000 0.0000
# 5 0.0000 0.0000 0.0000 0.0000 16.4098 0.0000
# 6 0.0000 0.0000 0.0000 0.0000 0.0000 28.2006
#
#
#
# Elastic Compliance Matrix: (Units=1/GPa)
#
#
# Indices 1 2 3 4 5 6 
#
# 1 0.011928 -0.001491 -0.005760 0.000000 0.000000 0.000000
# 2 -0.001491 0.009197 -0.001852 0.000000 0.000000 0.000000
# 3 -0.005760 -0.001852 0.011419 0.000000 0.000000 0.000000
# 4 0.000000 0.000000 0.000000 0.038737 0.000000 0.000000
# 5 0.000000 0.000000 0.000000 0.000000 0.060939 0.000000
# 6 0.000000 0.000000 0.000000 0.000000 0.000000 0.035460
#
#
# Mechanical properties :
#
#
# Convention : Reuss Voigt Hill
#
# Bulk Modulus (GPa) = 69.74401 70.67523 70.20962
# Shear Modulus (GPa) = 26.22370 29.62351 27.92361
#
# Velocity S-wave (km/s) = 3.58659 3.81200 3.70101
# Velocity P-wave (km/s) = 7.16681 7.35144 7.25971
#
# Compressibility (1/GPa) = 0.01433815
#
# Stress axis : x y z
#
# Youngs Moduli (GPa) = 83.83523 108.72603 87.57232
#
# Poissons Ratio (x) = 0.16214 0.50444
# Poissons Ratio (y) = 0.12502 0.16216
# Poissons Ratio (z) = 0.48291 0.20133
#
# Static dielectric constant tensor:
#      x y z
#    x 3.667400 0.000000 0.000000 
#    y 0.000000 3.862180 0.000000 
#    z 0.000000 0.000000 3.523290 
# 
# 
# High freq. dielectric constant tensor:
#      x y z
#    x 1.801230 0.000000 0.000000 
#    y 0.000000 1.822480 0.000000 
#    z 0.000000 0.000000 1.785970 
# 
# From -- ./inp_files/29708.got.cif
#   From: 2010.03.12/outbox.cif.g09.slc.cpg/sg20_15_cif.got.tgz:29708.got - 2010.04.14 01:38:04.
