data_PCOD8159785
_publ_section_title
;
Structure prediction by ZEFSAII (Michael W. Deem and Ramdas Pophale) SiO2 
 PCOD8159785
Probable space group: C 2 2 21
;
_chemical_formula_sum "Si O2"
_cell_formula_units_Z 40
_cell_length_a 11.263854
_cell_length_b 18.059146
_cell_length_c 8.971386
_cell_angle_alpha 90.000000
_cell_angle_beta 90.000000
_cell_angle_gamma 90.000000
_cell_volume 1824.919722
_symmetry_space_group_name_H-M "C 2 2 21"
_symmetry_group_IT_number 20
_symmetry_cell_setting 'orthorhombic'
loop_
_space_group_symop_operation_xyz
x,y,z
-x,-y,1/2+z
x,-y,-z
-x,y,1/2-z
1/2+x,1/2+y,z
1/2-x,1/2-y,1/2+z
1/2+x,1/2-y,-z
1/2-x,1/2+y,1/2-z
loop_
_atom_site_type_symbol
_atom_site_label
_atom_site_fract_x
_atom_site_fract_y
_atom_site_fract_z
Si Si1 0.828303 0.581768 0.343425
Si Si2 0.114076 0.286487 0.337971
Si Si3 0.890478 0.027640 0.848223
Si Si4 0.292887 0.319607 0.081996
Si Si5 0.916990 0.422060 0.962403
O O1 0.735213 0.514317 0.325820
O O2 0.789540 0.646666 0.453496
O O3 0.848355 0.615265 0.177716
O O4 0.951140 0.553707 0.412244
O O5 0.221963 0.282744 0.219658
O O6 0.130466 0.240407 0.490881
O O7 0.089519 0.370256 0.392423
O O8 0.000000 0.255465 0.250000
O O9 0.873180 0.116261 0.844608
O O10 0.000000 0.002554 0.750000
O O11 0.945154 0.000000 0.000000
O O12 0.852710 0.500000 0.000000
#
# Coordination Sequence:
#
# PCOD8159785 Si02
#       5
#     8   8   8   8   8
#     4  10  22  42  69  99 132 174 226 284 345 406
#     4  12  26  43  67  98 138 185 228 284 351 407
#     4  10  23  42  67  96 133 175 220 278 340 414
#     4  11  24  44  64  96 140 177 230 282 336 419
#     4  11  22  39  72 101 132 170 227 290 348 405
#
# _framework density 21.918773000000002
#
# number of rings (size 3 to 8) (size 9 to 14) (size 15 to 20)
#    0.000    1.200    2.000    4.200    2.800    7.200 
#    3.600    0.000    0.000    0.000    0.000    0.000 
#    0.000    0.000    0.000    0.000    0.000    0.000 
#
# Total GULP energy -247789.084364 kJ/mol
# GULP energy per Si atom -12389.454218 kJ/mol
# Density = 2.186889 g / cm^3
# Si number density = 21.918773 Si / 1000 Ang^3
#
#
#
# Elastic Constant Matrix: (Units=GPa)
#
#
# Indices 1 2 3 4 5 6 
#
# 1 95.7666 33.5882 60.6114 0.0000 0.0000 0.0000
# 2 33.5882 79.9419 18.2705 0.0000 0.0000 0.0000
# 3 60.6114 18.2705 112.9808 0.0000 0.0000 0.0000
# 4 0.0000 0.0000 0.0000 34.5121 0.0000 0.0000
# 5 0.0000 0.0000 0.0000 0.0000 39.6088 0.0000
# 6 0.0000 0.0000 0.0000 0.0000 0.0000 39.0098
#
#
#
# Elastic Compliance Matrix: (Units=1/GPa)
#
#
# Indices 1 2 3 4 5 6 
#
# 1 0.017889 -0.005527 -0.008703 0.000000 0.000000 0.000000
# 2 -0.005527 0.014697 0.000588 0.000000 0.000000 0.000000
# 3 -0.008703 0.000588 0.013425 0.000000 0.000000 0.000000
# 4 0.000000 0.000000 0.000000 0.028975 0.000000 0.000000
# 5 0.000000 0.000000 0.000000 0.000000 0.025247 0.000000
# 6 0.000000 0.000000 0.000000 0.000000 0.000000 0.025635
#
#
# Mechanical properties :
#
#
# Convention : Reuss Voigt Hill
#
# Bulk Modulus (GPa) = 53.39844 57.06994 55.23419
# Shear Modulus (GPa) = 31.36897 34.37410 32.87153
#
# Velocity S-wave (km/s) = 3.78715 3.96441 3.87679
# Velocity P-wave (km/s) = 6.59835 6.85922 6.73005
#
# Compressibility (1/GPa) = 0.01872714
#
# Stress axis : x y z
#
# Youngs Moduli (GPa) = 55.90079 68.04185 74.48840
#
# Poissons Ratio (x) = 0.37607 0.64828
# Poissons Ratio (y) = 0.30897 -0.04383
# Poissons Ratio (z) = 0.48651 -0.04004
#
# Static dielectric constant tensor:
#      x y z
#    x 3.780600 0.000000 0.000000 
#    y 0.000000 3.779000 0.000000 
#    z 0.000000 0.000000 4.320100 
# 
# 
# High freq. dielectric constant tensor:
#      x y z
#    x 1.848420 0.000000 0.000000 
#    y 0.000000 1.851240 0.000000 
#    z 0.000000 0.000000 1.886130 
# 
# From -- ./inp_files/7041.got.cif
#   From: 2010.03.12/outbox.cif.g09.slc.cpg/sg20_4_cif.got.tgz:7041.got - 2010.04.14 01:38:04.
