data_PCOD8159611
_publ_section_title
;
Structure prediction by ZEFSAII (Michael W. Deem and Ramdas Pophale) SiO2 
 PCOD8159611
Probable space group: C 2 2 21
;
_chemical_formula_sum "Si O2"
_cell_formula_units_Z 28
_cell_length_a 28.703449
_cell_length_b 8.720984
_cell_length_c 5.123537
_cell_angle_alpha 90.000000
_cell_angle_beta 90.000000
_cell_angle_gamma 90.000000
_cell_volume 1282.535666
_symmetry_space_group_name_H-M "C 2 2 21"
_symmetry_group_IT_number 20
_symmetry_cell_setting 'orthorhombic'
loop_
_space_group_symop_operation_xyz
x,y,z
-x,-y,1/2+z
x,-y,-z
-x,y,1/2-z
1/2+x,1/2+y,z
1/2-x,1/2-y,1/2+z
1/2+x,1/2-y,-z
1/2-x,1/2+y,1/2-z
loop_
_atom_site_type_symbol
_atom_site_label
_atom_site_fract_x
_atom_site_fract_y
_atom_site_fract_z
Si Si1 0.723292 0.101972 0.253791
Si Si2 0.100957 0.607365 0.748837
Si Si3 0.676221 0.330528 0.934980
Si Si4 0.500000 0.102678 0.750000
O O1 0.775788 0.164838 0.270511
O O2 0.707913 0.000000 0.500000
O O3 0.688094 0.245098 0.210130
O O4 0.717483 0.000000 0.000000
O O5 0.110166 0.500000 0.500000
O O6 0.137912 0.744574 0.761711
O O7 0.049632 0.691463 0.730729
O O8 0.106019 0.500000 0.000000
O O9 0.657685 0.500000 0.000000
O O10 0.494599 0.000000 0.500000
#
# Coordination Sequence:
#
# PCOD8159611 Si02
#       4
#     8   8   8   4
#     4  11  25  43  61  84 124 173 210 244 294 361
#     4  10  22  39  64  91 119 157 202 248 300 364
#     4  11  24  40  62  93 126 159 205 256 304 352
#     4   8  16  36  62  88 114 150 200 246 290 358
#
# _framework density 21.83175
#
# number of rings (size 3 to 8) (size 9 to 14) (size 15 to 20)
#    0.000    1.714    0.000    4.286    0.000   14.857 
#    0.000    0.000    0.000   12.000    0.000    0.000 
#    0.000    0.000    0.000    0.000    0.000    0.000 
#
# Total GULP energy -173478.292691 kJ/mol
# GULP energy per Si atom -12391.306621 kJ/mol
# Density = 2.178206 g / cm^3
# Si number density = 21.831750 Si / 1000 Ang^3
#
#
#
# Elastic Constant Matrix: (Units=GPa)
#
#
# Indices 1 2 3 4 5 6 
#
# 1 161.3178 83.8344 34.1543 0.0000 0.0000 0.0000
# 2 83.8344 145.9802 64.6900 0.0000 0.0000 0.0000
# 3 34.1543 64.6900 153.5329 0.0000 0.0000 0.0000
# 4 0.0000 0.0000 0.0000 17.7315 0.0000 0.0000
# 5 0.0000 0.0000 0.0000 0.0000 29.8192 0.0000
# 6 0.0000 0.0000 0.0000 0.0000 0.0000 20.1298
#
#
#
# Elastic Compliance Matrix: (Units=1/GPa)
#
#
# Indices 1 2 3 4 5 6 
#
# 1 0.008842 -0.005172 0.000212 0.000000 0.000000 0.000000
# 2 -0.005172 0.011448 -0.003673 0.000000 0.000000 0.000000
# 3 0.000212 -0.003673 0.008014 0.000000 0.000000 0.000000
# 4 0.000000 0.000000 0.000000 0.056397 0.000000 0.000000
# 5 0.000000 0.000000 0.000000 0.000000 0.033535 0.000000
# 6 0.000000 0.000000 0.000000 0.000000 0.000000 0.049678
#
#
# Mechanical properties :
#
#
# Convention : Reuss Voigt Hill
#
# Bulk Modulus (GPa) = 90.59452 91.79870 91.19661
# Shear Modulus (GPa) = 26.47496 32.07958 29.27727
#
# Velocity S-wave (km/s) = 3.48614 3.83743 3.66600
# Velocity P-wave (km/s) = 7.60204 7.85965 7.73192
#
# Compressibility (1/GPa) = 0.01103820
#
# Stress axis : x y z
#
# Youngs Moduli (GPa) = 113.10093 87.35204 124.78679
#
# Poissons Ratio (x) = 0.45176 -0.02648
# Poissons Ratio (y) = 0.58492 0.45835
# Poissons Ratio (z) = -0.02400 0.32085
#
# Static dielectric constant tensor:
#      x y z
#    x 4.840490 0.000000 0.000000 
#    y 0.000000 4.323210 0.000000 
#    z 0.000000 0.000000 5.064440 
# 
# 
# High freq. dielectric constant tensor:
#      x y z
#    x 1.867860 0.000000 0.000000 
#    y 0.000000 1.826140 0.000000 
#    z 0.000000 0.000000 1.877060 
# 
# From -- ./inp_files/4442.got.cif
#   From: 2010.03.12/outbox.cif.g09.slc.cpg/sg20_3_cif.got.tgz:4442.got - 2010.04.14 01:38:04.
