data_PCOD8159063
_publ_section_title
;
Structure prediction by ZEFSAII (Michael W. Deem and Ramdas Pophale) SiO2 
 PCOD8159063
Probable space group: C 2 2 21
;
_chemical_formula_sum "Si O2"
_cell_formula_units_Z 36
_cell_length_a 12.328718
_cell_length_b 6.734637
_cell_length_c 20.706266
_cell_angle_alpha 90.000000
_cell_angle_beta 90.000000
_cell_angle_gamma 90.000000
_cell_volume 1719.229679
_symmetry_space_group_name_H-M "C 2 2 21"
_symmetry_group_IT_number 20
_symmetry_cell_setting 'orthorhombic'
loop_
_space_group_symop_operation_xyz
x,y,z
-x,-y,1/2+z
x,-y,-z
-x,y,1/2-z
1/2+x,1/2+y,z
1/2-x,1/2-y,1/2+z
1/2+x,1/2-y,-z
1/2-x,1/2+y,1/2-z
loop_
_atom_site_type_symbol
_atom_site_label
_atom_site_fract_x
_atom_site_fract_y
_atom_site_fract_z
Si Si1 0.728332 0.731333 0.168575
Si Si2 0.392885 0.914098 0.213835
Si Si3 0.351190 0.382167 0.058249
Si Si4 0.489637 0.306466 0.603401
Si Si5 0.551885 0.000000 0.500000
O O1 0.691841 0.818609 0.236560
O O2 0.774327 0.900616 0.120791
O O3 0.626764 0.631976 0.131988
O O4 0.829433 0.586476 0.177793
O O5 0.500000 0.999966 0.250000
O O6 0.430335 0.753156 0.161711
O O7 0.464967 0.494862 0.070858
O O8 0.371911 0.153096 0.039240
O O9 0.291750 0.500000 0.000000
O O10 0.479995 0.126070 0.551327
#
# Coordination Sequence:
#
# PCOD8159063 Si02
#       5
#     8   8   8   8   4
#     4  11  22  40  65  94 124 171 210 257 323 379
#     4  10  22  40  63  94 129 162 212 265 313 378
#     4  10  22  41  62  91 128 166 209 267 311 376
#     4  10  22  41  61  93 128 161 214 262 312 378
#     4  10  20  44  62  88 136 162 208 270 310 366
#
# _framework density 20.939610999999999
#
# number of rings (size 3 to 8) (size 9 to 14) (size 15 to 20)
#    0.000    1.778    2.222    1.333    1.556    1.778 
#   10.000    0.000    0.000    0.000    0.000    0.000 
#    0.000    0.000    0.000    0.000    0.000    0.000 
#
# Total GULP energy -223143.132186 kJ/mol
# GULP energy per Si atom -12396.840677 kJ/mol
# Density = 2.089195 g / cm^3
# Si number density = 20.939611 Si / 1000 Ang^3
#
#
#
# Elastic Constant Matrix: (Units=GPa)
#
#
# Indices 1 2 3 4 5 6 
#
# 1 98.7793 45.7557 44.6912 0.0000 0.0000 0.0000
# 2 45.7557 98.2821 43.7020 0.0000 0.0000 0.0000
# 3 44.6912 43.7020 126.9891 0.0000 0.0000 0.0000
# 4 0.0000 0.0000 0.0000 27.5439 0.0000 0.0000
# 5 0.0000 0.0000 0.0000 0.0000 20.9379 0.0000
# 6 0.0000 0.0000 0.0000 0.0000 0.0000 18.7414
#
#
#
# Elastic Compliance Matrix: (Units=1/GPa)
#
#
# Indices 1 2 3 4 5 6 
#
# 1 0.013895 -0.005070 -0.003145 0.000000 0.000000 0.000000
# 2 -0.005070 0.013863 -0.002986 0.000000 0.000000 0.000000
# 3 -0.003145 -0.002986 0.010009 0.000000 0.000000 0.000000
# 4 0.000000 0.000000 0.000000 0.036306 0.000000 0.000000
# 5 0.000000 0.000000 0.000000 0.000000 0.047760 0.000000
# 6 0.000000 0.000000 0.000000 0.000000 0.000000 0.053358
#
#
# Mechanical properties :
#
#
# Convention : Reuss Voigt Hill
#
# Bulk Modulus (GPa) = 65.08867 65.81646 65.45256
# Shear Modulus (GPa) = 24.66490 26.10475 25.38483
#
# Velocity S-wave (km/s) = 3.43579 3.53465 3.48557
# Velocity P-wave (km/s) = 6.84770 6.93961 6.89381
#
# Compressibility (1/GPa) = 0.01536366
#
# Stress axis : x y z
#
# Youngs Moduli (GPa) = 71.96690 72.13273 99.90662
#
# Poissons Ratio (x) = 0.36575 0.31423
# Poissons Ratio (y) = 0.36491 0.29837
# Poissons Ratio (z) = 0.22635 0.21542
#
# Static dielectric constant tensor:
#      x y z
#    x 3.598990 0.000000 0.000000 
#    y 0.000000 3.508900 0.000000 
#    z 0.000000 0.000000 4.251610 
# 
# 
# High freq. dielectric constant tensor:
#      x y z
#    x 1.807670 0.000000 0.000000 
#    y 0.000000 1.797300 0.000000 
#    z 0.000000 0.000000 1.854950 
# 
# From -- ./inp_files/29014.got.cif
#   From: 2010.03.12/outbox.cif.g09.slc.cpg/sg20_15_cif.got.tgz:29014.got - 2010.04.14 01:38:04.
