data_PCOD8159177
_publ_section_title
;
Structure prediction by ZEFSAII (Michael W. Deem and Ramdas Pophale) SiO2 
 PCOD8159177
Probable space group: C 2 2 21
;
_chemical_formula_sum "Si O2"
_cell_formula_units_Z 32
_cell_length_a 28.307048
_cell_length_b 4.953952
_cell_length_c 9.115564
_cell_angle_alpha 90.000000
_cell_angle_beta 90.000000
_cell_angle_gamma 90.000000
_cell_volume 1278.291556
_symmetry_space_group_name_H-M "C 2 2 21"
_symmetry_group_IT_number 20
_symmetry_cell_setting 'orthorhombic'
loop_
_space_group_symop_operation_xyz
x,y,z
-x,-y,1/2+z
x,-y,-z
-x,y,1/2-z
1/2+x,1/2+y,z
1/2-x,1/2-y,1/2+z
1/2+x,1/2-y,-z
1/2-x,1/2+y,1/2-z
loop_
_atom_site_type_symbol
_atom_site_label
_atom_site_fract_x
_atom_site_fract_y
_atom_site_fract_z
Si Si1 0.894470 0.492012 0.672360
Si Si2 0.711431 0.241133 0.598071
Si Si3 0.548297 0.504876 0.173614
Si Si4 0.183494 0.908526 0.160720
O O1 0.894946 0.500000 0.500000
O O2 0.934997 0.287262 0.729752
O O3 0.843448 0.360788 0.718468
O O4 0.909390 0.790859 0.725482
O O5 0.722407 0.500000 0.500000
O O6 0.761007 0.144380 0.664345
O O7 0.675931 0.334334 0.729331
O O8 0.688668 0.000000 0.500000
O O9 0.500000 0.591904 0.250000
O O10 0.540158 0.500000 0.000000
O O11 0.164517 0.000000 0.000000
#
# Coordination Sequence:
#
# PCOD8159177 Si02
#       4
#     8   8   8   8
#     4  10  21  37  64  98 125 160 220 276 314 380
#     4  11  25  41  62  96 138 179 223 283 344 395
#     4  10  21  39  64  94 127 162 205 264 331 398
#     4  11  22  41  68  96 129 177 230 275 330 397
#
# _framework density 25.033414
#
# number of rings (size 3 to 8) (size 9 to 14) (size 15 to 20)
#    0.000    1.500    0.000    6.750    0.000    8.000 
#    0.000    1.250    0.000   16.500    0.000    0.000 
#    0.000    0.000    0.000    0.000    0.000    0.000 
#
# Total GULP energy -198296.122878 kJ/mol
# GULP energy per Si atom -12393.507680 kJ/mol
# Density = 2.497644 g / cm^3
# Si number density = 25.033414 Si / 1000 Ang^3
#
#
#
# Elastic Constant Matrix: (Units=GPa)
#
#
# Indices 1 2 3 4 5 6 
#
# 1 91.6042 17.5387 38.9796 0.0000 0.0000 0.0000
# 2 17.5387 163.2352 54.5456 0.0000 0.0000 0.0000
# 3 38.9796 54.5456 102.6698 0.0000 0.0000 0.0000
# 4 0.0000 0.0000 0.0000 34.0197 0.0000 0.0000
# 5 0.0000 0.0000 0.0000 0.0000 13.2621 0.0000
# 6 0.0000 0.0000 0.0000 0.0000 0.0000 25.6123
#
#
#
# Elastic Compliance Matrix: (Units=1/GPa)
#
#
# Indices 1 2 3 4 5 6 
#
# 1 0.013033 0.000308 -0.005111 0.000000 0.000000 0.000000
# 2 0.000308 0.007456 -0.004078 0.000000 0.000000 0.000000
# 3 -0.005111 -0.004078 0.013847 0.000000 0.000000 0.000000
# 4 0.000000 0.000000 0.000000 0.029395 0.000000 0.000000
# 5 0.000000 0.000000 0.000000 0.000000 0.075403 0.000000
# 6 0.000000 0.000000 0.000000 0.000000 0.000000 0.039044
#
#
# Mechanical properties :
#
#
# Convention : Reuss Voigt Hill
#
# Bulk Modulus (GPa) = 60.34192 64.40410 62.37301
# Shear Modulus (GPa) = 24.81833 31.00850 27.91342
#
# Velocity S-wave (km/s) = 3.15208 3.52331 3.34285
# Velocity P-wave (km/s) = 6.11591 6.50652 6.31423
#
# Compressibility (1/GPa) = 0.01657223
#
# Stress axis : x y z
#
# Youngs Moduli (GPa) = 76.73042 134.12582 72.21774
#
# Poissons Ratio (x) = -0.04127 0.36914
# Poissons Ratio (y) = -0.02361 0.29449
# Poissons Ratio (z) = 0.39220 0.54694
#
# Static dielectric constant tensor:
#      x y z
#    x 4.323940 0.000000 0.000000 
#    y 0.000000 5.430100 0.000000 
#    z 0.000000 0.000000 4.451150 
# 
# 
# High freq. dielectric constant tensor:
#      x y z
#    x 1.986200 0.000000 0.000000 
#    y 0.000000 2.034850 0.000000 
#    z 0.000000 0.000000 1.964740 
# 
# From -- ./inp_files/11290.got.cif
#   From: 2010.03.12/outbox.cif.g09.slc.cpg/sg20_6_cif.got.tgz:11290.got - 2010.04.14 01:38:04.
