data_PCOD8159510
_publ_section_title
;
Structure prediction by ZEFSAII (Michael W. Deem and Ramdas Pophale) SiO2 
 PCOD8159510
Probable space group: C 2 2 21
;
_chemical_formula_sum "Si O2"
_cell_formula_units_Z 48
_cell_length_a 7.366962
_cell_length_b 10.541772
_cell_length_c 26.676919
_cell_angle_alpha 90.000000
_cell_angle_beta 90.000000
_cell_angle_gamma 90.000000
_cell_volume 2071.751771
_symmetry_space_group_name_H-M "C 2 2 21"
_symmetry_group_IT_number 20
_symmetry_cell_setting 'orthorhombic'
loop_
_space_group_symop_operation_xyz
x,y,z
-x,-y,1/2+z
x,-y,-z
-x,y,1/2-z
1/2+x,1/2+y,z
1/2-x,1/2-y,1/2+z
1/2+x,1/2-y,-z
1/2-x,1/2+y,1/2-z
loop_
_atom_site_type_symbol
_atom_site_label
_atom_site_fract_x
_atom_site_fract_y
_atom_site_fract_z
Si Si1 0.281324 0.730730 0.199503
Si Si2 0.777818 0.616548 0.465259
Si Si3 0.482255 0.368126 0.617333
Si Si4 0.203115 0.948879 0.270122
Si Si5 0.849761 0.721619 0.051516
Si Si6 0.515687 0.634658 0.640535
O O1 0.461691 0.718308 0.165022
O O2 0.321506 0.852176 0.235711
O O3 0.236667 0.597835 0.229217
O O4 0.107140 0.755627 0.164472
O O5 0.725849 0.500000 0.500000
O O6 0.666479 0.611070 0.414154
O O7 0.720031 0.741943 0.496366
O O8 0.994184 0.614921 0.454028
O O9 0.322834 0.316563 0.583792
O O10 0.408198 0.501158 0.639156
O O11 0.198305 0.889785 0.326429
O O12 0.000000 0.940191 0.250000
O O13 0.938003 0.835933 0.082911
#
# Coordination Sequence:
#
# PCOD8159510 Si02
#       6
#     8   8   8   8   8   8
#     4  10  21  44  72 100 145 191 231 300 356 417
#     4  12  25  42  68 100 138 185 232 287 354 423
#     4  11  24  43  69 102 141 185 236 292 346 428
#     4   9  21  41  68 101 141 186 234 292 354 421
#     4  12  25  42  69 100 137 184 231 281 358 418
#     4  10  22  43  67  98 141 176 236 292 345 422
#
# _framework density 23.168797999999999
#
# number of rings (size 3 to 8) (size 9 to 14) (size 15 to 20)
#    0.000    1.333    5.000    0.000    0.000    7.333 
#    0.000   14.167    0.000    0.000    0.000    0.000 
#    0.000    0.000    0.000    0.000    0.000    0.000 
#
# Total GULP energy -297390.505515 kJ/mol
# GULP energy per Si atom -12391.271063 kJ/mol
# Density = 2.311607 g / cm^3
# Si number density = 23.168798 Si / 1000 Ang^3
#
#
#
# Elastic Constant Matrix: (Units=GPa)
#
#
# Indices 1 2 3 4 5 6 
#
# 1 79.3436 26.8727 6.4048 0.0000 0.0000 0.0000
# 2 26.8727 112.9943 33.5532 0.0000 0.0000 0.0000
# 3 6.4048 33.5532 83.6487 0.0000 0.0000 0.0000
# 4 0.0000 0.0000 0.0000 43.8451 0.0000 0.0000
# 5 0.0000 0.0000 0.0000 0.0000 27.6442 0.0000
# 6 0.0000 0.0000 0.0000 0.0000 0.0000 25.2720
#
#
#
# Elastic Compliance Matrix: (Units=1/GPa)
#
#
# Indices 1 2 3 4 5 6 
#
# 1 0.013714 -0.003349 0.000293 0.000000 0.000000 0.000000
# 2 -0.003349 0.010864 -0.004101 0.000000 0.000000 0.000000
# 3 0.000293 -0.004101 0.013578 0.000000 0.000000 0.000000
# 4 0.000000 0.000000 0.000000 0.022808 0.000000 0.000000
# 5 0.000000 0.000000 0.000000 0.000000 0.036174 0.000000
# 6 0.000000 0.000000 0.000000 0.000000 0.000000 0.039569
#
#
# Mechanical properties :
#
#
# Convention : Reuss Voigt Hill
#
# Bulk Modulus (GPa) = 41.94307 45.51645 43.72976
# Shear Modulus (GPa) = 31.45293 33.29599 32.37446
#
# Velocity S-wave (km/s) = 3.68850 3.79503 3.74214
# Velocity P-wave (km/s) = 6.02350 6.23628 6.13082
#
# Compressibility (1/GPa) = 0.02384184
#
# Stress axis : x y z
#
# Youngs Moduli (GPa) = 72.91905 92.04478 73.65124
#
# Poissons Ratio (x) = 0.30821 -0.02159
# Poissons Ratio (y) = 0.24417 0.30208
# Poissons Ratio (z) = -0.02137 0.37752
#
# Static dielectric constant tensor:
#      x y z
#    x 3.910670 0.000000 0.000000 
#    y 0.000000 4.196940 0.000000 
#    z 0.000000 0.000000 4.888260 
# 
# 
# High freq. dielectric constant tensor:
#      x y z
#    x 1.892890 0.000000 0.000000 
#    y 0.000000 1.910310 0.000000 
#    z 0.000000 0.000000 1.938930 
# 
# From -- ./inp_files/30964.got.cif
#   From: 2010.03.12/outbox.cif.g09.slc.cpg/sg20_16_cif.got.tgz:30964.got - 2010.04.14 01:38:04.
