data_PCOD8159963
_publ_section_title
;
Structure prediction by ZEFSAII (Michael W. Deem and Ramdas Pophale) SiO2 
 PCOD8159963
Probable space group: C 2 2 21
;
_chemical_formula_sum "Si O2"
_cell_formula_units_Z 40
_cell_length_a 22.940665
_cell_length_b 9.659162
_cell_length_c 7.939616
_cell_angle_alpha 90.000000
_cell_angle_beta 90.000000
_cell_angle_gamma 90.000000
_cell_volume 1759.320451
_symmetry_space_group_name_H-M "C 2 2 21"
_symmetry_group_IT_number 20
_symmetry_cell_setting 'orthorhombic'
loop_
_space_group_symop_operation_xyz
x,y,z
-x,-y,1/2+z
x,-y,-z
-x,y,1/2-z
1/2+x,1/2+y,z
1/2-x,1/2-y,1/2+z
1/2+x,1/2-y,-z
1/2-x,1/2+y,1/2-z
loop_
_atom_site_type_symbol
_atom_site_label
_atom_site_fract_x
_atom_site_fract_y
_atom_site_fract_z
Si Si1 0.248614 0.140901 0.902414
Si Si2 0.937381 0.698616 0.161103
Si Si3 0.565948 0.891562 0.294859
Si Si4 0.337344 0.276508 0.674268
Si Si5 0.350201 0.559440 0.814963
O O1 0.306284 0.226629 0.850413
O O2 0.215011 0.112279 0.726605
O O3 0.206655 0.236107 0.017944
O O4 0.266955 0.000000 0.000000
O O5 0.908915 0.547356 0.191697
O O6 0.896263 0.820827 0.229071
O O7 0.000000 0.718128 0.250000
O O8 0.937480 0.707390 0.958403
O O9 0.500000 0.914236 0.250000
O O10 0.605368 0.818998 0.150894
O O11 0.360800 0.432814 0.686368
O O12 0.355480 0.500000 0.000000
#
# Coordination Sequence:
#
# PCOD8159963 Si02
#       5
#     8   8   8   8   8
#     4  10  25  42  67 100 136 179 228 280 343 411
#     4  10  23  42  66  93 134 172 225 281 341 407
#     4  10  23  42  68  95 129 175 227 279 340 403
#     4  11  23  42  67  96 136 173 226 280 337 416
#     4  11  22  42  65  97 131 173 220 279 346 402
#
# _framework density 22.736049000000001
#
# number of rings (size 3 to 8) (size 9 to 14) (size 15 to 20)
#    0.000    1.600    2.000    1.200    5.600    2.400 
#    0.000    4.000    0.000    0.000    0.000    0.000 
#    0.000    0.000    0.000    0.000    0.000    0.000 
#
# Total GULP energy -247854.375708 kJ/mol
# GULP energy per Si atom -12392.718785 kJ/mol
# Density = 2.268430 g / cm^3
# Si number density = 22.736049 Si / 1000 Ang^3
#
#
#
# Elastic Constant Matrix: (Units=GPa)
#
#
# Indices 1 2 3 4 5 6 
#
# 1 80.5305 58.5218 13.9540 0.0000 0.0000 0.0000
# 2 58.5218 121.0724 19.9136 0.0000 0.0000 0.0000
# 3 13.9540 19.9136 40.6350 0.0000 0.0000 0.0000
# 4 0.0000 0.0000 0.0000 18.4182 0.0000 0.0000
# 5 0.0000 0.0000 0.0000 0.0000 21.3182 0.0000
# 6 0.0000 0.0000 0.0000 0.0000 0.0000 46.7889
#
#
#
# Elastic Compliance Matrix: (Units=1/GPa)
#
#
# Indices 1 2 3 4 5 6 
#
# 1 0.019327 -0.008973 -0.002239 0.000000 0.000000 0.000000
# 2 -0.008973 0.013150 -0.003363 0.000000 0.000000 0.000000
# 3 -0.002239 -0.003363 0.027026 0.000000 0.000000 0.000000
# 4 0.000000 0.000000 0.000000 0.054294 0.000000 0.000000
# 5 0.000000 0.000000 0.000000 0.000000 0.046908 0.000000
# 6 0.000000 0.000000 0.000000 0.000000 0.000000 0.021373
#
#
# Mechanical properties :
#
#
# Convention : Reuss Voigt Hill
#
# Bulk Modulus (GPa) = 32.94683 47.44630 40.19657
# Shear Modulus (GPa) = 22.58902 27.29497 24.94200
#
# Velocity S-wave (km/s) = 3.15546 3.46860 3.31573
# Velocity P-wave (km/s) = 5.27241 6.07908 5.69006
#
# Compressibility (1/GPa) = 0.03035193
#
# Stress axis : x y z
#
# Youngs Moduli (GPa) = 51.74183 76.04523 37.00109
#
# Poissons Ratio (x) = 0.68239 0.08285
# Poissons Ratio (y) = 0.46431 0.12443
# Poissons Ratio (z) = 0.11586 0.25573
#
# Static dielectric constant tensor:
#      x y z
#    x 3.953200 0.000000 0.000000 
#    y 0.000000 4.319070 0.000000 
#    z 0.000000 0.000000 4.099650 
# 
# 
# High freq. dielectric constant tensor:
#      x y z
#    x 1.888640 0.000000 0.000000 
#    y 0.000000 1.905800 0.000000 
#    z 0.000000 0.000000 1.889840 
# 
# From -- ./inp_files/6035.got.cif
#   From: 2010.03.12/outbox.cif.g09.slc.cpg/sg20_4_cif.got.tgz:6035.got - 2010.04.14 01:38:04.
