data_PCOD8159127
_publ_section_title
;
Structure prediction by ZEFSAII (Michael W. Deem and Ramdas Pophale) SiO2 
 PCOD8159127
Probable space group: C 2 2 21
;
_chemical_formula_sum "Si O2"
_cell_formula_units_Z 44
_cell_length_a 11.464897
_cell_length_b 14.438545
_cell_length_c 13.709036
_cell_angle_alpha 90.000000
_cell_angle_beta 90.000000
_cell_angle_gamma 90.000000
_cell_volume 2269.344895
_symmetry_space_group_name_H-M "C 2 2 21"
_symmetry_group_IT_number 20
_symmetry_cell_setting 'orthorhombic'
loop_
_space_group_symop_operation_xyz
x,y,z
-x,-y,1/2+z
x,-y,-z
-x,y,1/2-z
1/2+x,1/2+y,z
1/2-x,1/2-y,1/2+z
1/2+x,1/2-y,-z
1/2-x,1/2+y,1/2-z
loop_
_atom_site_type_symbol
_atom_site_label
_atom_site_fract_x
_atom_site_fract_y
_atom_site_fract_z
Si Si1 0.875931 0.472174 0.775275
Si Si2 0.841358 0.581848 0.437462
Si Si3 0.245259 0.587513 0.569427
Si Si4 0.431929 0.182257 0.068324
Si Si5 0.004865 0.126547 0.865473
Si Si6 0.123932 0.000000 0.500000
O O1 0.816740 0.441454 0.675355
O O2 0.800687 0.550874 0.826997
O O3 0.894203 0.381696 0.841716
O O4 0.000000 0.517894 0.750000
O O5 0.904925 0.500000 0.500000
O O6 0.708069 0.589547 0.477177
O O7 0.929500 0.666897 0.454087
O O8 0.267336 0.500000 0.500000
O O9 0.152422 0.659695 0.522968
O O10 0.364597 0.641121 0.592931
O O11 0.422993 0.288948 0.099203
O O12 0.000000 0.118709 0.750000
O O13 0.955730 0.030270 0.909193
#
# Coordination Sequence:
#
# PCOD8159127 Si02
#       6
#     8   8   8   8   8   4
#     4   9  16  34  60  90 112 149 196 243 289 343
#     4   9  18  34  60  85 117 152 195 236 286 353
#     4  10  21  38  61  86 118 153 198 245 292 355
#     4  10  21  36  61  89 112 151 198 250 296 343
#     4  12  24  41  59  87 122 160 198 244 305 359
#     4  10  24  38  58  84 116 166 194 244 294 362
#
# _framework density 19.388857000000002
#
# number of rings (size 3 to 8) (size 9 to 14) (size 15 to 20)
#    0.545    1.455    0.909    5.455    2.545    0.000 
#    0.000    0.000    0.000    3.273    0.000    0.000 
#    0.000    0.000    0.000    0.000    0.000    0.000 
#
# Total GULP energy -272544.868622 kJ/mol
# GULP energy per Si atom -12388.403119 kJ/mol
# Density = 1.934473 g / cm^3
# Si number density = 19.388857 Si / 1000 Ang^3
#
#
#
# Elastic Constant Matrix: (Units=GPa)
#
#
# Indices 1 2 3 4 5 6 
#
# 1 109.3489 30.2240 53.9503 0.0000 0.0000 0.0000
# 2 30.2240 67.0783 28.9633 0.0000 0.0000 0.0000
# 3 53.9503 28.9633 102.4794 0.0000 0.0000 0.0000
# 4 0.0000 0.0000 0.0000 15.4726 0.0000 0.0000
# 5 0.0000 0.0000 0.0000 0.0000 27.8955 0.0000
# 6 0.0000 0.0000 0.0000 0.0000 0.0000 24.9351
#
#
#
# Elastic Compliance Matrix: (Units=1/GPa)
#
#
# Indices 1 2 3 4 5 6 
#
# 1 0.012964 -0.003297 -0.005893 0.000000 0.000000 0.000000
# 2 -0.003297 0.017818 -0.003300 0.000000 0.000000 0.000000
# 3 -0.005893 -0.003300 0.013793 0.000000 0.000000 0.000000
# 4 0.000000 0.000000 0.000000 0.064631 0.000000 0.000000
# 5 0.000000 0.000000 0.000000 0.000000 0.035848 0.000000
# 6 0.000000 0.000000 0.000000 0.000000 0.000000 0.040104
#
#
# Mechanical properties :
#
#
# Convention : Reuss Voigt Hill
#
# Bulk Modulus (GPa) = 51.03302 56.13133 53.58218
# Shear Modulus (GPa) = 23.07657 24.71190 23.89423
#
# Velocity S-wave (km/s) = 3.45367 3.57394 3.51432
# Velocity P-wave (km/s) = 6.50244 6.78557 6.64551
#
# Compressibility (1/GPa) = 0.01959516
#
# Stress axis : x y z
#
# Youngs Moduli (GPa) = 77.13830 56.12167 72.49931
#
# Poissons Ratio (x) = 0.18501 0.42724
# Poissons Ratio (y) = 0.25430 0.23928
# Poissons Ratio (z) = 0.45458 0.18522
#
# Static dielectric constant tensor:
#      x y z
#    x 3.567340 0.000000 0.000000 
#    y 0.000000 3.128110 0.000000 
#    z 0.000000 0.000000 3.674110 
# 
# 
# High freq. dielectric constant tensor:
#      x y z
#    x 1.759560 0.000000 0.000000 
#    y 0.000000 1.721900 0.000000 
#    z 0.000000 0.000000 1.761900 
# 
# From -- ./inp_files/19843.got.cif
#   From: 2010.03.12/outbox.cif.g09.slc.cpg/sg20_10_cif.got.tgz:19843.got - 2010.04.14 01:38:04.
