data_PCOD8159606
_publ_section_title
;
Structure prediction by ZEFSAII (Michael W. Deem and Ramdas Pophale) SiO2 
 PCOD8159606
Probable space group: C 2 2 21
;
_chemical_formula_sum "Si O2"
_cell_formula_units_Z 20
_cell_length_a 9.989711
_cell_length_b 15.746316
_cell_length_c 4.904718
_cell_angle_alpha 90.000000
_cell_angle_beta 90.000000
_cell_angle_gamma 90.000000
_cell_volume 771.517763
_symmetry_space_group_name_H-M "C 2 2 21"
_symmetry_group_IT_number 20
_symmetry_cell_setting 'orthorhombic'
loop_
_space_group_symop_operation_xyz
x,y,z
-x,-y,1/2+z
x,-y,-z
-x,y,1/2-z
1/2+x,1/2+y,z
1/2-x,1/2-y,1/2+z
1/2+x,1/2-y,-z
1/2-x,1/2+y,1/2-z
loop_
_atom_site_type_symbol
_atom_site_label
_atom_site_fract_x
_atom_site_fract_y
_atom_site_fract_z
Si Si1 0.337792 0.765902 0.879563
Si Si2 0.500000 0.346629 0.750000
Si Si3 0.775988 0.558629 0.240716
O O1 0.256562 0.715740 0.645246
O O2 0.372879 0.858703 0.753539
O O3 0.469081 0.714060 0.984979
O O4 0.374800 0.407034 0.696409
O O5 0.789049 0.500000 0.500000
O O6 0.824442 0.500000 0.000000
#
# Coordination Sequence:
#
# PCOD8159606 Si02
#       3
#     8   4   8
#     4  10  22  39  62  96 135 175 219 271 332 403
#     4  10  22  40  66  94 130 178 222 262 332 410
#     4  11  22  38  62  97 132 166 216 283 333 378
#
# _framework density 25.922927999999999
#
# number of rings (size 3 to 8) (size 9 to 14) (size 15 to 20)
#    0.000    1.600    0.000    6.000    0.000   12.800 
#    0.000    0.000    0.000   21.600    0.000   11.200 
#    0.000    0.000    0.000    0.000    0.000    0.000 
#
# Total GULP energy -123905.313945 kJ/mol
# GULP energy per Si atom -12390.531395 kJ/mol
# Density = 2.586393 g / cm^3
# Si number density = 25.922928 Si / 1000 Ang^3
#
#
#
# Elastic Constant Matrix: (Units=GPa)
#
#
# Indices 1 2 3 4 5 6 
#
# 1 74.0668 -11.7030 18.5717 0.0000 0.0000 0.0000
# 2 -11.7030 171.7357 71.8148 0.0000 0.0000 0.0000
# 3 18.5717 71.8148 184.8443 0.0000 0.0000 0.0000
# 4 0.0000 0.0000 0.0000 74.5596 0.0000 0.0000
# 5 0.0000 0.0000 0.0000 0.0000 30.0226 0.0000
# 6 0.0000 0.0000 0.0000 0.0000 0.0000 43.0677
#
#
#
# Elastic Compliance Matrix: (Units=1/GPa)
#
#
# Indices 1 2 3 4 5 6 
#
# 1 0.014345 0.001887 -0.002174 0.000000 0.000000 0.000000
# 2 0.001887 0.007201 -0.002987 0.000000 0.000000 0.000000
# 3 -0.002174 -0.002987 0.006789 0.000000 0.000000 0.000000
# 4 0.000000 0.000000 0.000000 0.013412 0.000000 0.000000
# 5 0.000000 0.000000 0.000000 0.000000 0.033308 0.000000
# 6 0.000000 0.000000 0.000000 0.000000 0.000000 0.023219
#
#
# Mechanical properties :
#
#
# Convention : Reuss Voigt Hill
#
# Bulk Modulus (GPa) = 45.90336 65.33487 55.61912
# Shear Modulus (GPa) = 44.60916 52.99422 48.80169
#
# Velocity S-wave (km/s) = 4.15280 4.52630 4.34356
# Velocity P-wave (km/s) = 6.38282 7.25084 6.83063
#
# Compressibility (1/GPa) = 0.02178490
#
# Stress axis : x y z
#
# Youngs Moduli (GPa) = 69.71254 138.87747 147.29820
#
# Poissons Ratio (x) = -0.26202 0.32026
# Poissons Ratio (y) = -0.13153 0.44000
# Poissons Ratio (z) = 0.15157 0.41484
#
# Static dielectric constant tensor:
#      x y z
#    x 4.501520 0.000000 0.000000 
#    y 0.000000 4.969020 0.000000 
#    z 0.000000 0.000000 5.073570 
# 
# 
# High freq. dielectric constant tensor:
#      x y z
#    x 2.028030 0.000000 0.000000 
#    y 0.000000 2.046120 0.000000 
#    z 0.000000 0.000000 2.063780 
# 
# From -- ./inp_files/47.got.cif
#   From: 2010.03.12/outbox.cif.g09.slc.cpg/sg20_1_cif.got.tgz:47.got - 2010.04.14 01:38:04.
