data_PCOD8159557
_publ_section_title
;
Structure prediction by ZEFSAII (Michael W. Deem and Ramdas Pophale) SiO2 
 PCOD8159557
Probable space group: C 2 2 21
;
_chemical_formula_sum "Si O2"
_cell_formula_units_Z 36
_cell_length_a 26.031691
_cell_length_b 7.922177
_cell_length_c 7.946081
_cell_angle_alpha 90.000000
_cell_angle_beta 90.000000
_cell_angle_gamma 90.000000
_cell_volume 1638.701720
_symmetry_space_group_name_H-M "C 2 2 21"
_symmetry_group_IT_number 20
_symmetry_cell_setting 'orthorhombic'
loop_
_space_group_symop_operation_xyz
x,y,z
-x,-y,1/2+z
x,-y,-z
-x,y,1/2-z
1/2+x,1/2+y,z
1/2-x,1/2-y,1/2+z
1/2+x,1/2-y,-z
1/2-x,1/2+y,1/2-z
loop_
_atom_site_type_symbol
_atom_site_label
_atom_site_fract_x
_atom_site_fract_y
_atom_site_fract_z
Si Si1 0.643646 0.533490 0.805582
Si Si2 0.452369 0.341968 0.125935
Si Si3 0.267337 0.661178 0.885138
Si Si4 0.327814 0.807048 0.166124
Si Si5 0.089507 0.500000 0.500000
O O1 0.598318 0.649520 0.738572
O O2 0.697828 0.630598 0.780446
O O3 0.641317 0.367554 0.687553
O O4 0.634646 0.500000 0.000000
O O5 0.500000 0.337940 0.250000
O O6 0.459248 0.500000 0.000000
O O7 0.447236 0.160037 0.034284
O O8 0.208826 0.688879 0.829500
O O9 0.267514 0.500000 0.000000
O O10 0.292743 0.811408 0.995244
O O11 0.371343 0.952071 0.154712
#
# Coordination Sequence:
#
# PCOD8159557 Si02
#       5
#     8   8   8   8   4
#     4  11  22  43  68 100 142 191 236 290 361 418
#     4  12  26  52  77 103 138 184 238 305 374 428
#     4  10  22  37  63 103 145 200 235 280 351 423
#     4  11  23  40  67 103 152 185 241 286 346 429
#     4  12  26  46  76 104 144 180 236 306 352 424
#
# _framework density 21.968610000000002
#
# number of rings (size 3 to 8) (size 9 to 14) (size 15 to 20)
#    0.000    0.889    4.444    2.667    7.778    2.667 
#    4.000    0.000    0.000    0.000    0.000    0.000 
#    0.000    0.000    0.000    0.000    0.000    0.000 
#
# Total GULP energy -223090.187178 kJ/mol
# GULP energy per Si atom -12393.899288 kJ/mol
# Density = 2.191861 g / cm^3
# Si number density = 21.968610 Si / 1000 Ang^3
#
#
#
# Elastic Constant Matrix: (Units=GPa)
#
#
# Indices 1 2 3 4 5 6 
#
# 1 104.2451 52.0769 29.6941 0.0000 0.0000 0.0000
# 2 52.0769 118.4678 36.8456 0.0000 0.0000 0.0000
# 3 29.6941 36.8456 98.4895 0.0000 0.0000 0.0000
# 4 0.0000 0.0000 0.0000 15.5384 0.0000 0.0000
# 5 0.0000 0.0000 0.0000 0.0000 37.2870 0.0000
# 6 0.0000 0.0000 0.0000 0.0000 0.0000 22.1080
#
#
#
# Elastic Compliance Matrix: (Units=1/GPa)
#
#
# Indices 1 2 3 4 5 6 
#
# 1 0.012617 -0.004938 -0.001957 0.000000 0.000000 0.000000
# 2 -0.004938 0.011485 -0.002808 0.000000 0.000000 0.000000
# 3 -0.001957 -0.002808 0.011794 0.000000 0.000000 0.000000
# 4 0.000000 0.000000 0.000000 0.064357 0.000000 0.000000
# 5 0.000000 0.000000 0.000000 0.000000 0.026819 0.000000
# 6 0.000000 0.000000 0.000000 0.000000 0.000000 0.045232
#
#
# Mechanical properties :
#
#
# Convention : Reuss Voigt Hill
#
# Bulk Modulus (GPa) = 60.63909 62.04839 61.34374
# Shear Modulus (GPa) = 25.35429 28.49239 26.92334
#
# Velocity S-wave (km/s) = 3.40091 3.60524 3.50456
# Velocity P-wave (km/s) = 6.56385 6.75542 6.66033
#
# Compressibility (1/GPa) = 0.01649101
#
# Stress axis : x y z
#
# Youngs Moduli (GPa) = 79.25944 87.07055 84.79049
#
# Poissons Ratio (x) = 0.42992 0.16591
# Poissons Ratio (y) = 0.39135 0.23809
# Poissons Ratio (z) = 0.15509 0.24449
#
# Static dielectric constant tensor:
#      x y z
#    x 4.133150 0.000000 0.000000 
#    y 0.000000 4.086920 0.000000 
#    z 0.000000 0.000000 4.168010 
# 
# 
# High freq. dielectric constant tensor:
#      x y z
#    x 1.861670 0.000000 0.000000 
#    y 0.000000 1.868550 0.000000 
#    z 0.000000 0.000000 1.855290 
# 
# From -- ./inp_files/9874.got.cif
#   From: 2010.03.12/outbox.cif.g09.slc.cpg/sg20_5_cif.got.tgz:9874.got - 2010.04.14 01:38:04.
