data_PCOD8159724
_publ_section_title
;
Structure prediction by ZEFSAII (Michael W. Deem and Ramdas Pophale) SiO2 
 PCOD8159724
Probable space group: C 2 2 21
;
_chemical_formula_sum "Si O2"
_cell_formula_units_Z 36
_cell_length_a 18.441141
_cell_length_b 8.732086
_cell_length_c 10.278815
_cell_angle_alpha 90.000000
_cell_angle_beta 90.000000
_cell_angle_gamma 90.000000
_cell_volume 1655.193768
_symmetry_space_group_name_H-M "C 2 2 21"
_symmetry_group_IT_number 20
_symmetry_cell_setting 'orthorhombic'
loop_
_space_group_symop_operation_xyz
x,y,z
-x,-y,1/2+z
x,-y,-z
-x,y,1/2-z
1/2+x,1/2+y,z
1/2-x,1/2-y,1/2+z
1/2+x,1/2-y,-z
1/2-x,1/2+y,1/2-z
loop_
_atom_site_type_symbol
_atom_site_label
_atom_site_fract_x
_atom_site_fract_y
_atom_site_fract_z
Si Si1 0.458596 0.200951 0.615883
Si Si2 0.546489 0.216856 0.375535
Si Si3 0.797515 0.596694 0.623587
Si Si4 0.207371 0.599001 0.371574
Si Si5 0.994707 0.000000 0.500000
O O1 0.500000 0.177095 0.750000
O O2 0.509884 0.133586 0.500650
O O3 0.384037 0.110671 0.622289
O O4 0.445021 0.382641 0.584540
O O5 0.500000 0.171139 0.250000
O O6 0.627692 0.165681 0.351825
O O7 0.454619 0.401036 0.098362
O O8 0.770707 0.500000 0.500000
O O9 0.771180 0.508368 0.751428
O O10 0.763887 0.764088 0.619921
O O11 0.213093 0.500000 0.500000
#
# Coordination Sequence:
#
# PCOD8159724 Si02
#       5
#     8   8   8   8   4
#     4  10  22  41  69 101 135 178 231 276 350 409
#     4  10  22  41  69 101 135 178 231 276 350 409
#     4  12  28  47  72 103 143 189 232 293 348 416
#     4  12  28  47  72 103 143 189 232 293 348 416
#     4   8  22  36  68 104 130 184 206 296 334 428
#
# _framework density 21.74972
#
# number of rings (size 3 to 8) (size 9 to 14) (size 15 to 20)
#    1.333    0.000    0.000    4.667    3.111    8.889 
#    0.000    0.000    0.000    0.000    0.000    0.000 
#    0.000    0.000    0.000    0.000    0.000    0.000 
#
# Total GULP energy -223146.378574 kJ/mol
# GULP energy per Si atom -12397.021032 kJ/mol
# Density = 2.170022 g / cm^3
# Si number density = 21.749720 Si / 1000 Ang^3
#
#
#
# Elastic Constant Matrix: (Units=GPa)
#
#
# Indices 1 2 3 4 5 6 
#
# 1 64.1769 3.3525 14.2483 0.0000 0.0000 0.0000
# 2 3.3525 94.0162 18.3163 0.0000 0.0000 0.0000
# 3 14.2483 18.3163 167.4250 0.0000 0.0000 0.0000
# 4 0.0000 0.0000 0.0000 430.1180 0.0000 0.0000
# 5 0.0000 0.0000 0.0000 0.0000 105.2677 0.0000
# 6 0.0000 0.0000 0.0000 0.0000 0.0000 39.0626
#
#
#
# Elastic Compliance Matrix: (Units=1/GPa)
#
#
# Indices 1 2 3 4 5 6 
#
# 1 0.015891 -0.000310 -0.001318 0.000000 0.000000 0.000000
# 2 -0.000310 0.010874 -0.001163 0.000000 0.000000 0.000000
# 3 -0.001318 -0.001163 0.006212 0.000000 0.000000 0.000000
# 4 0.000000 0.000000 0.000000 0.002325 0.000000 0.000000
# 5 0.000000 0.000000 0.000000 0.000000 0.009500 0.000000
# 6 0.000000 0.000000 0.000000 0.000000 0.000000 0.025600
#
#
# Mechanical properties :
#
#
# Convention : Reuss Voigt Hill
#
# Bulk Modulus (GPa) = 36.50402 44.16136 40.33269
# Shear Modulus (GPa) = 58.74326 134.20306 96.47316
#
# Velocity S-wave (km/s) = 5.20263 7.86367 6.66726
# Velocity P-wave (km/s) = 7.27392 10.13894 8.82349
#
# Compressibility (1/GPa) = 0.02739425
#
# Stress axis : x y z
#
# Youngs Moduli (GPa) = 62.92935 91.96133 160.97127
#
# Poissons Ratio (x) = 0.02849 0.21223
# Poissons Ratio (y) = 0.01949 0.18725
# Poissons Ratio (z) = 0.08297 0.10698
#
# Static dielectric constant tensor:
#      x y z
#    x 2.222440 0.000000 0.000000 
#    y 0.000000 4.042000 0.000000 
#    z 0.000000 0.000000 4.037810 
# 
# 
# High freq. dielectric constant tensor:
#      x y z
#    x 1.834580 0.000000 0.000000 
#    y 0.000000 1.876700 0.000000 
#    z 0.000000 0.000000 1.869730 
# 
# From -- ./inp_files/9851.got.cif
#   From: 2010.03.12/outbox.cif.g09.slc.cpg/sg20_5_cif.got.tgz:9851.got - 2010.04.14 01:38:04.
