data_PCOD8159290
_publ_section_title
;
Structure prediction by ZEFSAII (Michael W. Deem and Ramdas Pophale) SiO2 
 PCOD8159290
Probable space group: C 2 2 21
;
_chemical_formula_sum "Si O2"
_cell_formula_units_Z 48
_cell_length_a 8.955722
_cell_length_b 28.875383
_cell_length_c 8.648612
_cell_angle_alpha 90.000000
_cell_angle_beta 90.000000
_cell_angle_gamma 90.000000
_cell_volume 2236.530222
_symmetry_space_group_name_H-M "C 2 2 21"
_symmetry_group_IT_number 20
_symmetry_cell_setting 'orthorhombic'
loop_
_space_group_symop_operation_xyz
x,y,z
-x,-y,1/2+z
x,-y,-z
-x,y,1/2-z
1/2+x,1/2+y,z
1/2-x,1/2-y,1/2+z
1/2+x,1/2-y,-z
1/2-x,1/2+y,1/2-z
loop_
_atom_site_type_symbol
_atom_site_label
_atom_site_fract_x
_atom_site_fract_y
_atom_site_fract_z
Si Si1 0.650147 0.702308 0.563924
Si Si2 0.643009 0.122953 0.537451
Si Si3 0.365473 0.523922 0.850558
Si Si4 0.696462 0.887704 0.107815
Si Si5 0.311679 0.712996 0.574489
Si Si6 0.144529 0.467053 0.643768
O O1 0.693916 0.649365 0.528563
O O2 0.479736 0.708574 0.512887
O O3 0.687443 0.710622 0.741995
O O4 0.750513 0.736706 0.465205
O O5 0.464258 0.122626 0.536248
O O6 0.702828 0.112839 0.707370
O O7 0.708615 0.173530 0.492907
O O8 0.697737 0.083323 0.419200
O O9 0.500000 0.546401 0.750000
O O10 0.253922 0.561099 0.928645
O O11 0.279111 0.487836 0.742282
O O12 0.439039 0.500000 0.000000
O O13 0.102172 0.500000 0.500000
O O14 0.000000 0.461442 0.750000
#
# Coordination Sequence:
#
# PCOD8159290 Si02
#       6
#     8   8   8   8   8   8
#     4  10  22  40  68  92 129 168 213 266 322 391
#     4  10  21  39  66  93 127 169 216 266 320 389
#     4  12  27  43  65  94 130 172 221 273 330 389
#     4  10  21  40  66  93 124 175 216 260 325 393
#     4  10  22  41  65  98 126 168 214 265 326 388
#     4  12  23  41  67  95 132 173 218 272 325 390
#
# _framework density 21.461814
#
# number of rings (size 3 to 8) (size 9 to 14) (size 15 to 20)
#    0.000    1.333    1.667    4.000    4.667    2.000 
#    9.000    0.000    0.000    0.000    0.000    0.000 
#    0.000    0.000    0.000    0.000    0.000    0.000 
#
# Total GULP energy -297601.443403 kJ/mol
# GULP energy per Si atom -12400.060142 kJ/mol
# Density = 2.141297 g / cm^3
# Si number density = 21.461814 Si / 1000 Ang^3
#
#
#
# Elastic Constant Matrix: (Units=GPa)
#
#
# Indices 1 2 3 4 5 6 
#
# 1 130.9287 52.0964 34.9061 0.0000 0.0000 0.0000
# 2 52.0964 123.6738 50.6077 0.0000 0.0000 0.0000
# 3 34.9061 50.6077 53.8787 0.0000 0.0000 0.0000
# 4 0.0000 0.0000 0.0000 37.1052 0.0000 0.0000
# 5 0.0000 0.0000 0.0000 0.0000 26.1241 0.0000
# 6 0.0000 0.0000 0.0000 0.0000 0.0000 40.5426
#
#
#
# Elastic Compliance Matrix: (Units=1/GPa)
#
#
# Indices 1 2 3 4 5 6 
#
# 1 0.009670 -0.002452 -0.003961 0.000000 0.000000 0.000000
# 2 -0.002452 0.013756 -0.011332 0.000000 0.000000 0.000000
# 3 -0.003961 -0.011332 0.031770 0.000000 0.000000 0.000000
# 4 0.000000 0.000000 0.000000 0.026950 0.000000 0.000000
# 5 0.000000 0.000000 0.000000 0.000000 0.038279 0.000000
# 6 0.000000 0.000000 0.000000 0.000000 0.000000 0.024665
#
#
# Mechanical properties :
#
#
# Convention : Reuss Voigt Hill
#
# Bulk Modulus (GPa) = 50.74836 64.85572 57.80204
# Shear Modulus (GPa) = 26.71658 32.14579 29.43119
#
# Velocity S-wave (km/s) = 3.53206 3.87436 3.70716
# Velocity P-wave (km/s) = 6.35068 7.09217 6.73164
#
# Compressibility (1/GPa) = 0.01970507
#
# Stress axis : x y z
#
# Youngs Moduli (GPa) = 103.41720 72.69623 31.47576
#
# Poissons Ratio (x) = 0.17827 0.12468
# Poissons Ratio (y) = 0.25361 0.35668
# Poissons Ratio (z) = 0.40965 0.82379
#
# Static dielectric constant tensor:
#      x y z
#    x 3.925940 0.000000 0.000000 
#    y 0.000000 4.139080 0.000000 
#    z 0.000000 0.000000 3.798580 
# 
# 
# High freq. dielectric constant tensor:
#      x y z
#    x 1.847400 0.000000 0.000000 
#    y 0.000000 1.849950 0.000000 
#    z 0.000000 0.000000 1.829660 
# 
# From -- ./inp_files/6542.got.cif
#   From: 2010.03.12/outbox.cif.g09.slc.cpg/sg20_4_cif.got.tgz:6542.got - 2010.04.14 01:38:04.
