data_PCOD8159879
_publ_section_title
;
Structure prediction by ZEFSAII (Michael W. Deem and Ramdas Pophale) SiO2 
 PCOD8159879
Probable space group: C 2 2 21
;
_chemical_formula_sum "Si O2"
_cell_formula_units_Z 36
_cell_length_a 11.385470
_cell_length_b 7.212306
_cell_length_c 19.747804
_cell_angle_alpha 90.000000
_cell_angle_beta 90.000000
_cell_angle_gamma 90.000000
_cell_volume 1621.600673
_symmetry_space_group_name_H-M "C 2 2 21"
_symmetry_group_IT_number 20
_symmetry_cell_setting 'orthorhombic'
loop_
_space_group_symop_operation_xyz
x,y,z
-x,-y,1/2+z
x,-y,-z
-x,y,1/2-z
1/2+x,1/2+y,z
1/2-x,1/2-y,1/2+z
1/2+x,1/2-y,-z
1/2-x,1/2+y,1/2-z
loop_
_atom_site_type_symbol
_atom_site_label
_atom_site_fract_x
_atom_site_fract_y
_atom_site_fract_z
Si Si1 0.708585 0.835862 0.656738
Si Si2 0.366100 0.521984 0.756290
Si Si3 0.737106 0.949744 0.883059
Si Si4 0.599762 0.500000 0.500000
Si Si5 0.996510 0.638453 0.061727
O O1 0.639853 0.736184 0.719638
O O2 0.798346 0.990519 0.684957
O O3 0.779620 0.675418 0.616190
O O4 0.614662 0.930082 0.606248
O O5 0.500000 0.456074 0.750000
O O6 0.302134 0.391698 0.813075
O O7 0.819234 0.891994 0.945916
O O8 0.610329 0.855845 0.889917
O O9 0.518833 0.650952 0.536994
O O10 0.017380 0.500000 0.000000
#
# Coordination Sequence:
#
# PCOD8159879 Si02
#       5
#     8   8   8   4   8
#     4   9  24  41  65 101 129 177 227 271 344 402
#     4  10  23  42  67  95 135 173 221 277 336 400
#     4   9  22  42  66  96 140 163 232 279 315 420
#     4  10  22  46  64 106 132 174 230 276 328 410
#     4  11  23  45  69  95 143 179 222 288 339 391
#
# _framework density 22.200289000000001
#
# number of rings (size 3 to 8) (size 9 to 14) (size 15 to 20)
#    1.333    0.889    1.111    0.000    3.111    5.333 
#    2.000    0.000    0.000    0.000    0.000    0.000 
#    0.000    0.000    0.000    0.000    0.000    0.000 
#
# Total GULP energy -223090.078737 kJ/mol
# GULP energy per Si atom -12393.893263 kJ/mol
# Density = 2.214976 g / cm^3
# Si number density = 22.200289 Si / 1000 Ang^3
#
#
#
# Elastic Constant Matrix: (Units=GPa)
#
#
# Indices 1 2 3 4 5 6 
#
# 1 150.6846 26.9971 49.6462 0.0000 0.0000 0.0000
# 2 26.9971 38.8174 7.2880 0.0000 0.0000 0.0000
# 3 49.6462 7.2880 77.7540 0.0000 0.0000 0.0000
# 4 0.0000 0.0000 0.0000 34.9449 0.0000 0.0000
# 5 0.0000 0.0000 0.0000 0.0000 45.6658 0.0000
# 6 0.0000 0.0000 0.0000 0.0000 0.0000 28.9291
#
#
#
# Elastic Compliance Matrix: (Units=1/GPa)
#
#
# Indices 1 2 3 4 5 6 
#
# 1 0.009443 -0.005533 -0.005511 0.000000 0.000000 0.000000
# 2 -0.005533 0.029465 0.000771 0.000000 0.000000 0.000000
# 3 -0.005511 0.000771 0.016308 0.000000 0.000000 0.000000
# 4 0.000000 0.000000 0.000000 0.028616 0.000000 0.000000
# 5 0.000000 0.000000 0.000000 0.000000 0.021898 0.000000
# 6 0.000000 0.000000 0.000000 0.000000 0.000000 0.034567
#
#
# Mechanical properties :
#
#
# Convention : Reuss Voigt Hill
#
# Bulk Modulus (GPa) = 28.84334 48.34650 38.59492
# Shear Modulus (GPa) = 29.00218 34.12962 31.56590
#
# Velocity S-wave (km/s) = 3.61832 3.92516 3.77486
# Velocity P-wave (km/s) = 5.52058 6.50901 6.03507
#
# Compressibility (1/GPa) = 0.03467005
#
# Stress axis : x y z
#
# Youngs Moduli (GPa) = 105.89370 33.93850 61.32108
#
# Poissons Ratio (x) = 0.18779 0.33794
# Poissons Ratio (y) = 0.58592 -0.04729
# Poissons Ratio (z) = 0.58358 -0.02617
#
# Static dielectric constant tensor:
#      x y z
#    x 3.726800 0.000000 0.000000 
#    y 0.000000 3.449210 0.000000 
#    z 0.000000 0.000000 4.062510 
# 
# 
# High freq. dielectric constant tensor:
#      x y z
#    x 1.866500 0.000000 0.000000 
#    y 0.000000 1.839030 0.000000 
#    z 0.000000 0.000000 1.884240 
# 
# From -- ./inp_files/27046.got.cif
#   From: 2010.03.12/outbox.cif.g09.slc.cpg/sg20_14_cif.got.tgz:27046.got - 2010.04.14 01:38:04.
