data_PCOD8159149
_publ_section_title
;
Structure prediction by ZEFSAII (Michael W. Deem and Ramdas Pophale) SiO2 
 PCOD8159149
Probable space group: C 2 2 21
;
_chemical_formula_sum "Si O2"
_cell_formula_units_Z 32
_cell_length_a 4.921046
_cell_length_b 35.517907
_cell_length_c 8.611151
_cell_angle_alpha 90.000000
_cell_angle_beta 90.000000
_cell_angle_gamma 90.000000
_cell_volume 1505.102216
_symmetry_space_group_name_H-M "C 2 2 21"
_symmetry_group_IT_number 20
_symmetry_cell_setting 'orthorhombic'
loop_
_space_group_symop_operation_xyz
x,y,z
-x,-y,1/2+z
x,-y,-z
-x,y,1/2-z
1/2+x,1/2+y,z
1/2-x,1/2-y,1/2+z
1/2+x,1/2-y,-z
1/2-x,1/2+y,1/2-z
loop_
_atom_site_type_symbol
_atom_site_label
_atom_site_fract_x
_atom_site_fract_y
_atom_site_fract_z
Si Si1 0.510952 0.412974 0.067140
Si Si2 0.904974 0.732660 0.077336
Si Si3 0.993700 0.539936 0.568262
Si Si4 0.248924 0.651617 0.353958
O O1 0.500000 0.403467 0.250000
O O2 0.214122 0.427084 0.013603
O O3 0.706380 0.447494 0.019354
O O4 0.622194 0.377030 0.976859
O O5 0.864836 0.687876 0.055715
O O6 0.000000 0.742952 0.250000
O O7 0.627309 0.754815 0.047550
O O8 0.909135 0.500000 0.500000
O O9 0.000000 0.535031 0.750000
O O10 0.500000 0.665569 0.250000
O O11 0.000000 0.634372 0.250000
#
# Coordination Sequence:
#
# PCOD8159149 Si02
#       4
#     8   8   8   8
#     4  10  22  40  60  86 122 160 204 252 303 364
#     4  11  23  42  65  93 127 163 205 254 307 367
#     4  10  21  37  58  86 119 157 202 252 301 360
#     4  11  23  41  63  91 124 160 204 256 305 363
#
# _framework density 21.261016000000001
#
# number of rings (size 3 to 8) (size 9 to 14) (size 15 to 20)
#    0.000    1.500    0.000    6.000    0.000    4.000 
#    0.000   10.000    0.000    0.000    0.000    0.000 
#    0.000    0.000    0.000    0.000    0.000    0.000 
#
# Total GULP energy -198360.589643 kJ/mol
# GULP energy per Si atom -12397.536853 kJ/mol
# Density = 2.121262 g / cm^3
# Si number density = 21.261016 Si / 1000 Ang^3
#
#
#
# Elastic Constant Matrix: (Units=GPa)
#
#
# Indices 1 2 3 4 5 6 
#
# 1 121.2624 40.4429 38.9882 0.0000 0.0000 0.0000
# 2 40.4429 132.3309 63.3244 0.0000 0.0000 0.0000
# 3 38.9882 63.3244 63.7204 0.0000 0.0000 0.0000
# 4 0.0000 0.0000 0.0000 24.4845 0.0000 0.0000
# 5 0.0000 0.0000 0.0000 0.0000 38.1917 0.0000
# 6 0.0000 0.0000 0.0000 0.0000 0.0000 47.1014
#
#
#
# Elastic Compliance Matrix: (Units=1/GPa)
#
#
# Indices 1 2 3 4 5 6 
#
# 1 0.010271 -0.000251 -0.006035 0.000000 0.000000 0.000000
# 2 -0.000251 0.014415 -0.014172 0.000000 0.000000 0.000000
# 3 -0.006035 -0.014172 0.033470 0.000000 0.000000 0.000000
# 4 0.000000 0.000000 0.000000 0.040842 0.000000 0.000000
# 5 0.000000 0.000000 0.000000 0.000000 0.026184 0.000000
# 6 0.000000 0.000000 0.000000 0.000000 0.000000 0.021231
#
#
# Mechanical properties :
#
#
# Convention : Reuss Voigt Hill
#
# Bulk Modulus (GPa) = 58.00406 66.98052 62.49229
# Shear Modulus (GPa) = 25.89665 33.59272 29.74469
#
# Velocity S-wave (km/s) = 3.49382 3.97925 3.74441
# Velocity P-wave (km/s) = 6.60430 7.25844 6.93908
#
# Compressibility (1/GPa) = 0.01724017
#
# Stress axis : x y z
#
# Youngs Moduli (GPa) = 97.36547 69.37043 29.87751
#
# Poissons Ratio (x) = 0.01742 0.18030
# Poissons Ratio (y) = 0.02445 0.42343
# Poissons Ratio (z) = 0.58756 0.98313
#
# Static dielectric constant tensor:
#      x y z
#    x 4.683240 0.000000 0.000000 
#    y 0.000000 3.781940 0.000000 
#    z 0.000000 0.000000 3.743690 
# 
# 
# High freq. dielectric constant tensor:
#      x y z
#    x 1.862740 0.000000 0.000000 
#    y 0.000000 1.829390 0.000000 
#    z 0.000000 0.000000 1.822210 
# 
# From -- ./inp_files/5244.got.cif
#   From: 2010.03.12/outbox.cif.g09.slc.cpg/sg20_3_cif.got.tgz:5244.got - 2010.04.14 01:38:04.
