data_PCOD8159731
_publ_section_title
;
Structure prediction by ZEFSAII (Michael W. Deem and Ramdas Pophale) SiO2 
 PCOD8159731
Probable space group: C 2 2 21
;
_chemical_formula_sum "Si O2"
_cell_formula_units_Z 56
_cell_length_a 8.314262
_cell_length_b 23.222709
_cell_length_c 13.504904
_cell_angle_alpha 90.000000
_cell_angle_beta 90.000000
_cell_angle_gamma 90.000000
_cell_volume 2607.522637
_symmetry_space_group_name_H-M "C 2 2 21"
_symmetry_group_IT_number 20
_symmetry_cell_setting 'orthorhombic'
loop_
_space_group_symop_operation_xyz
x,y,z
-x,-y,1/2+z
x,-y,-z
-x,y,1/2-z
1/2+x,1/2+y,z
1/2-x,1/2-y,1/2+z
1/2+x,1/2-y,-z
1/2-x,1/2+y,1/2-z
loop_
_atom_site_type_symbol
_atom_site_label
_atom_site_fract_x
_atom_site_fract_y
_atom_site_fract_z
Si Si1 0.323976 0.534038 0.291266
Si Si2 0.190659 0.216936 0.421769
Si Si3 0.324837 0.897334 0.960904
Si Si4 0.687238 0.295761 0.230864
Si Si5 0.168134 0.584979 0.695965
Si Si6 0.613217 0.116345 0.167040
Si Si7 0.686996 0.725405 0.097634
O O1 0.500000 0.548326 0.250000
O O2 0.297397 0.559045 0.403336
O O3 0.294281 0.466030 0.286384
O O4 0.196738 0.562237 0.217548
O O5 0.276624 0.274875 0.380356
O O6 0.252177 0.159266 0.371423
O O7 0.244624 0.219958 0.535923
O O8 0.001181 0.217563 0.413093
O O9 0.505984 0.907812 0.922650
O O10 0.277141 0.832546 0.932671
O O11 0.336741 0.907262 0.077574
O O12 0.500000 0.300162 0.250000
O O13 0.765764 0.357830 0.249104
O O14 0.773808 0.244398 0.291181
O O15 0.000000 0.570320 0.750000
O O16 0.500000 0.147389 0.250000
#
# Coordination Sequence:
#
# PCOD8159731 Si02
#       7
#     8   8   8   8   8   8   8
#     4  11  24  47  71  99 135 179 234 289 345 409
#     4  12  23  41  63  99 133 174 223 275 338 411
#     4  11  23  45  71 103 134 182 229 287 343 416
#     4  12  25  43  65  96 138 180 221 285 348 411
#     4  12  26  45  69 100 140 182 229 287 351 410
#     4  10  22  41  70  96 129 171 231 282 336 407
#     4  12  25  40  67  97 138 174 225 274 343 412
#
# _framework density 21.476324999999999
#
# number of rings (size 3 to 8) (size 9 to 14) (size 15 to 20)
#    0.000    0.571    1.429    9.000    2.000    0.000 
#    0.000    2.857    0.000    0.000    0.000    0.000 
#    0.000    0.000    0.000    0.000    0.000    0.000 
#
# Total GULP energy -347200.084598 kJ/mol
# GULP energy per Si atom -12400.003021 kJ/mol
# Density = 2.142744 g / cm^3
# Si number density = 21.476325 Si / 1000 Ang^3
#
#
#
# Elastic Constant Matrix: (Units=GPa)
#
#
# Indices 1 2 3 4 5 6 
#
# 1 143.5577 20.2344 56.9528 0.0000 0.0000 0.0000
# 2 20.2344 100.2714 36.8049 0.0000 0.0000 0.0000
# 3 56.9528 36.8049 90.8578 0.0000 0.0000 0.0000
# 4 0.0000 0.0000 0.0000 35.9941 0.0000 0.0000
# 5 0.0000 0.0000 0.0000 0.0000 31.0933 0.0000
# 6 0.0000 0.0000 0.0000 0.0000 0.0000 -31.3077
#
#
#
# Elastic Compliance Matrix: (Units=1/GPa)
#
#
# Indices 1 2 3 4 5 6 
#
# 1 0.009280 0.000308 -0.005942 0.000000 0.000000 0.000000
# 2 0.000308 0.011725 -0.004943 0.000000 0.000000 0.000000
# 3 -0.005942 -0.004943 0.016733 0.000000 0.000000 0.000000
# 4 0.000000 0.000000 0.000000 0.027782 0.000000 0.000000
# 5 0.000000 0.000000 0.000000 0.000000 0.032161 0.000000
# 6 0.000000 0.000000 0.000000 0.000000 0.000000 -0.031941
#
#
# Mechanical properties :
#
#
# Convention : Reuss Voigt Hill
#
# Bulk Modulus (GPa) = 60.29507 62.51901 61.40704
# Shear Modulus (GPa) = 54.10042 21.86894 37.98468
#
# Velocity S-wave (km/s) = 5.02448 3.19451 4.21013
# Velocity P-wave (km/s) = 7.86108 6.54067 7.23108
#
# Compressibility (1/GPa) = 0.01658510
#
# Stress axis : x y z
#
# Youngs Moduli (GPa) = 107.76359 85.28781 59.76255
#
# Poissons Ratio (x) = -0.02630 0.35509
# Poissons Ratio (y) = -0.03322 0.29540
# Poissons Ratio (z) = 0.64029 0.42157
#
# Static dielectric constant tensor:
#      x y z
#    x 3.904800 0.000000 0.000000 
#    y 0.000000 3.871060 0.000000 
#    z 0.000000 0.000000 4.595540 
# 
# 
# High freq. dielectric constant tensor:
#      x y z
#    x 1.850920 0.000000 0.000000 
#    y 0.000000 1.843590 0.000000 
#    z 0.000000 0.000000 1.855760 
# 
# From -- ./inp_files/19229.got.cif
#   From: 2010.03.12/outbox.cif.g09.slc.cpg/sg20_10_cif.got.tgz:19229.got - 2010.04.14 01:38:04.
