data_PCOD8159763
_publ_section_title
;
Structure prediction by ZEFSAII (Michael W. Deem and Ramdas Pophale) SiO2 
 PCOD8159763
Probable space group: C 2 2 21
;
_chemical_formula_sum "Si O2"
_cell_formula_units_Z 32
_cell_length_a 8.212734
_cell_length_b 16.775138
_cell_length_c 10.498093
_cell_angle_alpha 90.000000
_cell_angle_beta 90.000000
_cell_angle_gamma 90.000000
_cell_volume 1446.319608
_symmetry_space_group_name_H-M "C 2 2 21"
_symmetry_group_IT_number 20
_symmetry_cell_setting 'orthorhombic'
loop_
_space_group_symop_operation_xyz
x,y,z
-x,-y,1/2+z
x,-y,-z
-x,y,1/2-z
1/2+x,1/2+y,z
1/2-x,1/2-y,1/2+z
1/2+x,1/2-y,-z
1/2-x,1/2+y,1/2-z
loop_
_atom_site_type_symbol
_atom_site_label
_atom_site_fract_x
_atom_site_fract_y
_atom_site_fract_z
Si Si1 0.321927 0.415552 0.722097
Si Si2 0.500000 0.245120 0.250000
Si Si3 0.596942 0.132363 0.048836
Si Si4 0.664780 0.232290 0.818397
Si Si5 0.635045 0.000000 0.500000
O O1 0.500000 0.451502 0.750000
O O2 0.220320 0.411911 0.854172
O O3 0.344026 0.327466 0.662599
O O4 0.240697 0.477443 0.623606
O O5 0.473397 0.188027 0.128118
O O6 0.671503 0.292558 0.237408
O O7 0.694123 0.188609 0.952131
O O8 0.486006 0.072672 0.967214
O O9 0.500000 0.201862 0.750000
#
# Coordination Sequence:
#
# PCOD8159763 Si02
#       5
#     8   4   8   8   4
#     4  10  24  44  68 103 138 185 229 290 345 413
#     4  10  22  42  66 104 134 184 222 292 338 410
#     4  11  23  44  70 100 141 178 228 285 348 415
#     4  10  23  42  71 106 138 177 234 283 349 411
#     4  12  22  44  72  92 146 186 224 278 356 410
#
# _framework density 22.125122999999999
#
# number of rings (size 3 to 8) (size 9 to 14) (size 15 to 20)
#    0.000    1.500    5.000    0.000   10.500    3.000 
#    0.000    0.000    5.500    0.000    0.000    0.000 
#    0.000    0.000    0.000    0.000    0.000    0.000 
#
# Total GULP energy -198254.107570 kJ/mol
# GULP energy per Si atom -12390.881723 kJ/mol
# Density = 2.207477 g / cm^3
# Si number density = 22.125123 Si / 1000 Ang^3
#
#
#
# Elastic Constant Matrix: (Units=GPa)
#
#
# Indices 1 2 3 4 5 6 
#
# 1 204.3559 50.8116 71.3963 0.0000 0.0000 0.0000
# 2 50.8116 71.2783 66.2198 0.0000 0.0000 0.0000
# 3 71.3963 66.2198 132.7986 0.0000 0.0000 0.0000
# 4 0.0000 0.0000 0.0000 55.0076 0.0000 0.0000
# 5 0.0000 0.0000 0.0000 0.0000 40.6993 0.0000
# 6 0.0000 0.0000 0.0000 0.0000 0.0000 10.7852
#
#
#
# Elastic Compliance Matrix: (Units=1/GPa)
#
#
# Indices 1 2 3 4 5 6 
#
# 1 0.006253 -0.002486 -0.002122 0.000000 0.000000 0.000000
# 2 -0.002486 0.027127 -0.012190 0.000000 0.000000 0.000000
# 3 -0.002122 -0.012190 0.014750 0.000000 0.000000 0.000000
# 4 0.000000 0.000000 0.000000 0.018179 0.000000 0.000000
# 5 0.000000 0.000000 0.000000 0.000000 0.024570 0.000000
# 6 0.000000 0.000000 0.000000 0.000000 0.000000 0.092720
#
#
# Mechanical properties :
#
#
# Convention : Reuss Voigt Hill
#
# Bulk Modulus (GPa) = 68.80958 87.25422 78.03190
# Shear Modulus (GPa) = 22.51847 35.96541 29.24194
#
# Velocity S-wave (km/s) = 3.19372 4.03618 3.63941
# Velocity P-wave (km/s) = 6.69086 7.82581 7.28048
#
# Compressibility (1/GPa) = 0.01453286
#
# Stress axis : x y z
#
# Youngs Moduli (GPa) = 159.92431 36.86403 67.79777
#
# Poissons Ratio (x) = 0.09164 0.14388
# Poissons Ratio (y) = 0.39756 0.82647
# Poissons Ratio (z) = 0.33938 0.44938
#
# Static dielectric constant tensor:
#      x y z
#    x 3.398440 0.000000 0.000000 
#    y 0.000000 3.673520 0.000000 
#    z 0.000000 0.000000 3.856400 
# 
# 
# High freq. dielectric constant tensor:
#      x y z
#    x 1.898520 0.000000 0.000000 
#    y 0.000000 1.837620 0.000000 
#    z 0.000000 0.000000 1.857560 
# 
# From -- ./inp_files/5867.got.cif
#   From: 2010.03.12/outbox.cif.g09.slc.cpg/sg20_3_cif.got.tgz:5867.got - 2010.04.14 01:38:04.
