data_PCOD8159977
_publ_section_title
;
Structure prediction by ZEFSAII (Michael W. Deem and Ramdas Pophale) SiO2 
 PCOD8159977
Probable space group: C 2 2 21
;
_chemical_formula_sum "Si O2"
_cell_formula_units_Z 40
_cell_length_a 7.124290
_cell_length_b 17.796371
_cell_length_c 15.101364
_cell_angle_alpha 90.000000
_cell_angle_beta 90.000000
_cell_angle_gamma 90.000000
_cell_volume 1914.649207
_symmetry_space_group_name_H-M "C 2 2 21"
_symmetry_group_IT_number 20
_symmetry_cell_setting 'orthorhombic'
loop_
_space_group_symop_operation_xyz
x,y,z
-x,-y,1/2+z
x,-y,-z
-x,y,1/2-z
1/2+x,1/2+y,z
1/2-x,1/2-y,1/2+z
1/2+x,1/2-y,-z
1/2-x,1/2+y,1/2-z
loop_
_atom_site_type_symbol
_atom_site_label
_atom_site_fract_x
_atom_site_fract_y
_atom_site_fract_z
Si Si1 0.219362 0.633278 0.770194
Si Si2 0.500000 0.508804 0.750000
Si Si3 0.738322 0.833548 0.029969
Si Si4 0.872307 0.327872 0.928456
Si Si5 0.970804 0.067677 0.431249
Si Si6 0.000000 0.259425 0.750000
O O1 0.317451 0.560140 0.727813
O O2 0.262266 0.629257 0.874320
O O3 0.317206 0.707741 0.729698
O O4 0.000000 0.635348 0.750000
O O5 0.458062 0.457950 0.835058
O O6 0.762248 0.744052 0.034224
O O7 0.531121 0.852592 0.996993
O O8 0.890055 0.867721 0.963804
O O9 0.735490 0.398275 0.920677
O O10 0.966550 0.312092 0.833828
O O11 0.966980 0.000000 0.500000
#
# Coordination Sequence:
#
# PCOD8159977 Si02
#       6
#     8   4   8   8   8   4
#     4  10  23  42  73  98 138 187 230 282 356 417
#     4  11  26  46  66 100 145 178 234 288 345 418
#     4  11  24  44  70 101 133 185 231 283 345 419
#     4  11  25  43  71  98 138 178 233 282 346 410
#     4  12  27  47  69 101 142 184 229 295 347 408
#     4   9  24  42  64 108 135 176 236 290 331 428
#
# _framework density 20.891553999999999
#
# number of rings (size 3 to 8) (size 9 to 14) (size 15 to 20)
#    0.000    1.200    4.000    0.000    8.400    2.400 
#    1.800    0.000    0.000    0.000    0.000    0.000 
#    0.000    0.000    0.000    0.000    0.000    0.000 
#
# Total GULP energy -248127.521975 kJ/mol
# GULP energy per Si atom -12406.376099 kJ/mol
# Density = 2.084400 g / cm^3
# Si number density = 20.891554 Si / 1000 Ang^3
#
#
#
# Elastic Constant Matrix: (Units=GPa)
#
#
# Indices 1 2 3 4 5 6 
#
# 1 119.8021 11.8681 8.9050 0.0000 0.0000 0.0000
# 2 11.8681 62.2819 22.3465 0.0000 0.0000 0.0000
# 3 8.9050 22.3465 91.2261 0.0000 0.0000 0.0000
# 4 0.0000 0.0000 0.0000 14.6349 0.0000 0.0000
# 5 0.0000 0.0000 0.0000 0.0000 35.6211 0.0000
# 6 0.0000 0.0000 0.0000 0.0000 0.0000 26.2337
#
#
#
# Elastic Compliance Matrix: (Units=1/GPa)
#
#
# Indices 1 2 3 4 5 6 
#
# 1 0.008527 -0.001454 -0.000476 0.000000 0.000000 0.000000
# 2 -0.001454 0.017851 -0.004231 0.000000 0.000000 0.000000
# 3 -0.000476 -0.004231 0.012045 0.000000 0.000000 0.000000
# 4 0.000000 0.000000 0.000000 0.068330 0.000000 0.000000
# 5 0.000000 0.000000 0.000000 0.000000 0.028073 0.000000
# 6 0.000000 0.000000 0.000000 0.000000 0.000000 0.038119
#
#
# Mechanical properties :
#
#
# Convention : Reuss Voigt Hill
#
# Bulk Modulus (GPa) = 38.31359 39.94994 39.13177
# Shear Modulus (GPa) = 25.77770 30.64397 28.21083
#
# Velocity S-wave (km/s) = 3.51648 3.83405 3.67869
# Velocity P-wave (km/s) = 5.90479 6.22607 6.06756
#
# Compressibility (1/GPa) = 0.02610040
#
# Stress axis : x y z
#
# Youngs Moduli (GPa) = 117.28105 56.01894 83.02451
#
# Poissons Ratio (x) = 0.08145 0.03953
# Poissons Ratio (y) = 0.17052 0.35126
# Poissons Ratio (z) = 0.05585 0.23701
#
# Static dielectric constant tensor:
#      x y z
#    x 3.746580 0.000000 0.000000 
#    y 0.000000 3.677710 0.000000 
#    z 0.000000 0.000000 3.839000 
# 
# 
# High freq. dielectric constant tensor:
#      x y z
#    x 1.824330 0.000000 0.000000 
#    y 0.000000 1.814860 0.000000 
#    z 0.000000 0.000000 1.826950 
# 
# From -- ./inp_files/22665.got.cif
#   From: 2010.03.12/outbox.cif.g09.slc.cpg/sg20_12_cif.got.tgz:22665.got - 2010.04.14 01:38:04.
