data_PCOD8159501
_publ_section_title
;
Structure prediction by ZEFSAII (Michael W. Deem and Ramdas Pophale) SiO2 
 PCOD8159501
Probable space group: C 2 2 21
;
_chemical_formula_sum "Si O2"
_cell_formula_units_Z 56
_cell_length_a 14.415690
_cell_length_b 11.584467
_cell_length_c 13.757147
_cell_angle_alpha 90.000000
_cell_angle_beta 90.000000
_cell_angle_gamma 90.000000
_cell_volume 2297.417205
_symmetry_space_group_name_H-M "C 2 2 21"
_symmetry_group_IT_number 20
_symmetry_cell_setting 'orthorhombic'
loop_
_space_group_symop_operation_xyz
x,y,z
-x,-y,1/2+z
x,-y,-z
-x,y,1/2-z
1/2+x,1/2+y,z
1/2-x,1/2-y,1/2+z
1/2+x,1/2-y,-z
1/2-x,1/2+y,1/2-z
loop_
_atom_site_type_symbol
_atom_site_label
_atom_site_fract_x
_atom_site_fract_y
_atom_site_fract_z
Si Si1 0.865718 0.872749 0.532048
Si Si2 0.401896 0.470809 0.725614
Si Si3 0.964057 0.337785 0.547311
Si Si4 0.866478 0.470613 0.370616
Si Si5 0.740930 0.665441 0.761792
Si Si6 0.830029 0.727465 0.067458
Si Si7 0.299307 0.629914 0.105357
O O1 0.902437 0.869530 0.643874
O O2 0.923261 0.791265 0.457235
O O3 0.756052 0.848429 0.530609
O O4 0.889144 0.000000 0.500000
O O5 0.500000 0.530971 0.750000
O O6 0.324509 0.564645 0.695859
O O7 0.382316 0.406610 0.826197
O O8 0.918674 0.392405 0.449762
O O9 0.930460 0.413561 0.641727
O O10 0.075073 0.343507 0.552586
O O11 0.838924 0.392989 0.276403
O O12 0.769627 0.522753 0.408044
O O13 0.686325 0.733245 0.677356
O O14 0.755209 0.752942 0.849734
O O15 0.837618 0.841779 0.001375
#
# Coordination Sequence:
#
# PCOD8159501 Si02
#       7
#     8   8   8   8   8   8   8
#     4  12  25  45  68 102 148 180 233 311 355 424
#     4  11  25  42  68 103 138 175 236 295 355 420
#     4  11  23  43  69 105 135 192 241 288 356 437
#     4  10  21  44  68  94 142 183 233 293 345 432
#     4  11  24  45  71 100 142 187 235 294 362 420
#     4  12  24  43  74  99 140 188 245 288 367 436
#     4  11  22  45  74  98 136 193 229 299 362 419
#
# _framework density 24.375198999999999
#
# number of rings (size 3 to 8) (size 9 to 14) (size 15 to 20)
#    0.000    0.857    4.286    2.571    4.000    1.714 
#    0.000    1.429    0.000    0.000    0.000    0.000 
#    0.000    0.000    0.000    0.000    0.000    0.000 
#
# Total GULP energy -346898.122395 kJ/mol
# GULP energy per Si atom -12389.218657 kJ/mol
# Density = 2.431972 g / cm^3
# Si number density = 24.375199 Si / 1000 Ang^3
#
#
#
# Elastic Constant Matrix: (Units=GPa)
#
#
# Indices 1 2 3 4 5 6 
#
# 1 140.1966 23.1107 18.5212 0.0000 0.0000 0.0000
# 2 23.1107 101.5055 6.0049 0.0000 0.0000 0.0000
# 3 18.5212 6.0049 59.5537 0.0000 0.0000 0.0000
# 4 0.0000 0.0000 0.0000 38.3043 0.0000 0.0000
# 5 0.0000 0.0000 0.0000 0.0000 10.1109 0.0000
# 6 0.0000 0.0000 0.0000 0.0000 0.0000 29.6071
#
#
#
# Elastic Compliance Matrix: (Units=1/GPa)
#
#
# Indices 1 2 3 4 5 6 
#
# 1 0.007694 -0.001620 -0.002230 0.000000 0.000000 0.000000
# 2 -0.001620 0.010252 -0.000530 0.000000 0.000000 0.000000
# 3 -0.002230 -0.000530 0.017538 0.000000 0.000000 0.000000
# 4 0.000000 0.000000 0.000000 0.026107 0.000000 0.000000
# 5 0.000000 0.000000 0.000000 0.000000 0.098904 0.000000
# 6 0.000000 0.000000 0.000000 0.000000 0.000000 0.033776
#
#
# Mechanical properties :
#
#
# Convention : Reuss Voigt Hill
#
# Bulk Modulus (GPa) = 37.41715 44.05883 40.73799
# Shear Modulus (GPa) = 23.59178 32.51239 28.05208
#
# Velocity S-wave (km/s) = 3.11442 3.65613 3.39609
# Velocity P-wave (km/s) = 5.32134 5.99479 5.66808
#
# Compressibility (1/GPa) = 0.02672572
#
# Stress axis : x y z
#
# Youngs Moduli (GPa) = 129.96404 97.54328 57.01775
#
# Poissons Ratio (x) = 0.15802 0.12713
# Poissons Ratio (y) = 0.21054 0.03021
# Poissons Ratio (z) = 0.28977 0.05169
#
# Static dielectric constant tensor:
#      x y z
#    x 4.278180 0.000000 0.000000 
#    y 0.000000 4.827600 0.000000 
#    z 0.000000 0.000000 4.555620 
# 
# 
# High freq. dielectric constant tensor:
#      x y z
#    x 1.956760 0.000000 0.000000 
#    y 0.000000 1.980200 0.000000 
#    z 0.000000 0.000000 1.962950 
# 
# From -- ./inp_files/20750.got.cif
#   From: 2010.03.12/outbox.cif.g09.slc.cpg/sg20_11_cif.got.tgz:20750.got - 2010.04.14 01:38:04.
