data_PCOD8159004
_publ_section_title
;
Structure prediction by ZEFSAII (Michael W. Deem and Ramdas Pophale) SiO2 
 PCOD8159004
Probable space group: C 2 2 21
;
_chemical_formula_sum "Si O2"
_cell_formula_units_Z 60
_cell_length_a 20.747590
_cell_length_b 12.221904
_cell_length_c 11.431935
_cell_angle_alpha 90.000000
_cell_angle_beta 90.000000
_cell_angle_gamma 90.000000
_cell_volume 2898.853526
_symmetry_space_group_name_H-M "C 2 2 21"
_symmetry_group_IT_number 20
_symmetry_cell_setting 'orthorhombic'
loop_
_space_group_symop_operation_xyz
x,y,z
-x,-y,1/2+z
x,-y,-z
-x,y,1/2-z
1/2+x,1/2+y,z
1/2-x,1/2-y,1/2+z
1/2+x,1/2-y,-z
1/2-x,1/2+y,1/2-z
loop_
_atom_site_type_symbol
_atom_site_label
_atom_site_fract_x
_atom_site_fract_y
_atom_site_fract_z
Si Si1 0.403078 0.124896 0.017956
Si Si2 0.187207 0.225936 0.364990
Si Si3 0.949914 0.625719 0.498574
Si Si4 0.199283 0.872644 0.209952
Si Si5 0.242695 0.607626 0.951247
Si Si6 0.836568 0.000000 0.500000
Si Si7 0.925706 0.260914 0.739583
Si Si8 0.139314 0.218469 0.114732
O O1 0.400170 0.165396 0.152399
O O2 0.354731 0.186338 0.933484
O O3 0.475452 0.143864 0.975974
O O4 0.382917 0.000000 0.000000
O O5 0.256732 0.270337 0.324872
O O6 0.200062 0.127562 0.454887
O O7 0.148757 0.186159 0.250052
O O8 0.930345 0.500000 0.500000
O O9 0.923198 0.664652 0.374426
O O10 0.918624 0.695545 0.603485
O O11 0.225462 0.925249 0.328589
O O12 0.123991 0.839214 0.224030
O O13 0.206798 0.966080 0.110872
O O14 0.200841 0.717906 0.939932
O O15 0.204352 0.500000 0.000000
O O16 0.876606 0.891795 0.540257
O O17 0.000000 0.217537 0.750000
#
# Coordination Sequence:
#
# PCOD8159004 Si02
#       8
#     8   8   8   8   8   4   8   8
#     4  10  23  39  66  97 129 168 209 264 320 381
#     4  11  23  40  61  96 129 162 209 258 325 378
#     4  10  21  40  64  95 129 164 209 263 321 380
#     4  11  23  40  66  90 128 166 208 269 310 379
#     4  11  22  42  62  91 125 164 210 262 326 382
#     4  12  22  42  62  92 122 166 220 260 318 376
#     4  10  20  41  69  90 124 171 215 257 319 384
#     4  11  24  38  65  92 126 169 209 265 315 382
#
# _framework density 20.697837
#
# number of rings (size 3 to 8) (size 9 to 14) (size 15 to 20)
#    0.000    1.333    4.000    1.200    2.800    0.533 
#    2.400    0.000    8.800    0.000    0.000    0.000 
#    0.000    0.000    0.000    0.000    0.000    0.000 
#
# Total GULP energy -371814.746872 kJ/mol
# GULP energy per Si atom -12393.824896 kJ/mol
# Density = 2.065073 g / cm^3
# Si number density = 20.697837 Si / 1000 Ang^3
#
#
#
# Elastic Constant Matrix: (Units=GPa)
#
#
# Indices 1 2 3 4 5 6 
#
# 1 79.4366 23.2928 29.0755 0.0000 0.0000 0.0000
# 2 23.2928 66.0024 21.4447 0.0000 0.0000 0.0000
# 3 29.0755 21.4447 118.4336 0.0000 0.0000 0.0000
# 4 0.0000 0.0000 0.0000 38.0613 0.0000 0.0000
# 5 0.0000 0.0000 0.0000 0.0000 22.9194 0.0000
# 6 0.0000 0.0000 0.0000 0.0000 0.0000 23.0272
#
#
#
# Elastic Compliance Matrix: (Units=1/GPa)
#
#
# Indices 1 2 3 4 5 6 
#
# 1 0.014911 -0.004327 -0.002877 0.000000 0.000000 0.000000
# 2 -0.004327 0.017354 -0.002080 0.000000 0.000000 0.000000
# 3 -0.002877 -0.002080 0.009526 0.000000 0.000000 0.000000
# 4 0.000000 0.000000 0.000000 0.026273 0.000000 0.000000
# 5 0.000000 0.000000 0.000000 0.000000 0.043631 0.000000
# 6 0.000000 0.000000 0.000000 0.000000 0.000000 0.043427
#
#
# Mechanical properties :
#
#
# Convention : Reuss Voigt Hill
#
# Bulk Modulus (GPa) = 43.06171 45.72208 44.39189
# Shear Modulus (GPa) = 27.55858 29.47222 28.51540
#
# Velocity S-wave (km/s) = 3.65289 3.77759 3.71576
# Velocity P-wave (km/s) = 6.21624 6.41601 6.31691
#
# Compressibility (1/GPa) = 0.02322249
#
# Stress axis : x y z
#
# Youngs Moduli (GPa) = 67.06653 57.62399 104.97077
#
# Poissons Ratio (x) = 0.24936 0.30200
# Poissons Ratio (y) = 0.29022 0.21833
# Poissons Ratio (z) = 0.19295 0.11985
#
# Static dielectric constant tensor:
#      x y z
#    x 3.680740 0.000000 0.000000 
#    y 0.000000 3.721000 0.000000 
#    z 0.000000 0.000000 4.086050 
# 
# 
# High freq. dielectric constant tensor:
#      x y z
#    x 1.793810 0.000000 0.000000 
#    y 0.000000 1.800760 0.000000 
#    z 0.000000 0.000000 1.833100 
# 
# From -- ./inp_files/14371.got.cif
#   From: 2010.03.12/outbox.cif.g09.slc.cpg/sg20_8_cif.got.tgz:14371.got - 2010.04.14 01:38:04.
