data_PCOD8159142
_publ_section_title
;
Structure prediction by ZEFSAII (Michael W. Deem and Ramdas Pophale) SiO2 
 PCOD8159142
Probable space group: C 2 2 21
;
_chemical_formula_sum "Si O2"
_cell_formula_units_Z 52
_cell_length_a 8.801444
_cell_length_b 22.992318
_cell_length_c 12.475207
_cell_angle_alpha 90.000000
_cell_angle_beta 90.000000
_cell_angle_gamma 90.000000
_cell_volume 2524.552741
_symmetry_space_group_name_H-M "C 2 2 21"
_symmetry_group_IT_number 20
_symmetry_cell_setting 'orthorhombic'
loop_
_space_group_symop_operation_xyz
x,y,z
-x,-y,1/2+z
x,-y,-z
-x,y,1/2-z
1/2+x,1/2+y,z
1/2-x,1/2-y,1/2+z
1/2+x,1/2-y,-z
1/2-x,1/2+y,1/2-z
loop_
_atom_site_type_symbol
_atom_site_label
_atom_site_fract_x
_atom_site_fract_y
_atom_site_fract_z
Si Si1 0.221212 0.748784 0.374291
Si Si2 0.500000 0.334266 0.250000
Si Si3 0.637727 0.500000 0.500000
Si Si4 0.000000 0.233484 0.250000
Si Si5 0.581702 0.394141 0.042316
Si Si6 0.668189 0.887129 0.628090
Si Si7 0.650206 0.318902 0.564878
Si Si8 0.825094 0.578716 0.361279
O O1 0.116130 0.793697 0.311997
O O2 0.394649 0.765395 0.337695
O O3 0.161953 0.682901 0.361498
O O4 0.214846 0.763802 0.500247
O O5 0.596962 0.374594 0.166773
O O6 0.529500 0.551118 0.540803
O O7 0.748647 0.518990 0.402372
O O8 0.129060 0.196941 0.311044
O O9 0.738419 0.407466 0.977963
O O10 0.513660 0.339183 0.978312
O O11 0.736211 0.911814 0.739796
O O12 0.505362 0.918646 0.623504
O O13 0.768860 0.371000 0.558400
#
# Coordination Sequence:
#
# PCOD8159142 Si02
#       8
#     8   4   4   4   8   8   8   8
#     4  11  24  34  61  93 133 174 206 261 314 391
#     4  10  24  42  57  96 136 167 216 258 328 384
#     4  10  24  44  64  84 122 168 210 284 322 370
#     4  12  22  36  59  90 132 179 208 252 314 378
#     4  10  22  41  63  89 122 168 218 266 317 388
#     4  11  22  37  66  98 121 164 212 267 317 401
#     4  10  21  37  55  90 128 167 214 246 313 388
#     4  10  22  40  62  92 125 159 215 271 326 374
#
# _framework density 20.597705999999999
#
# number of rings (size 3 to 8) (size 9 to 14) (size 15 to 20)
#    0.000    1.538    3.077    0.923    4.308    3.692 
#    0.000    1.538    0.000    3.692    0.000    0.000 
#    0.000    0.000    0.000    0.000    0.000    0.000 
#
# Total GULP energy -322146.010861 kJ/mol
# GULP energy per Si atom -12390.231187 kJ/mol
# Density = 2.055083 g / cm^3
# Si number density = 20.597706 Si / 1000 Ang^3
#
#
#
# Elastic Constant Matrix: (Units=GPa)
#
#
# Indices 1 2 3 4 5 6 
#
# 1 98.8730 35.3272 45.6507 0.0000 0.0000 0.0000
# 2 35.3272 89.1604 54.0262 0.0000 0.0000 0.0000
# 3 45.6507 54.0262 139.8280 0.0000 0.0000 0.0000
# 4 0.0000 0.0000 0.0000 25.3966 0.0000 0.0000
# 5 0.0000 0.0000 0.0000 0.0000 44.3464 0.0000
# 6 0.0000 0.0000 0.0000 0.0000 0.0000 26.1407
#
#
#
# Elastic Compliance Matrix: (Units=1/GPa)
#
#
# Indices 1 2 3 4 5 6 
#
# 1 0.012597 -0.003263 -0.002852 0.000000 0.000000 0.000000
# 2 -0.003263 0.015490 -0.004919 0.000000 0.000000 0.000000
# 3 -0.002852 -0.004919 0.009983 0.000000 0.000000 0.000000
# 4 0.000000 0.000000 0.000000 0.039375 0.000000 0.000000
# 5 0.000000 0.000000 0.000000 0.000000 0.022550 0.000000
# 6 0.000000 0.000000 0.000000 0.000000 0.000000 0.038255
#
#
# Mechanical properties :
#
#
# Convention : Reuss Voigt Hill
#
# Bulk Modulus (GPa) = 62.49591 66.42996 64.46293
# Shear Modulus (GPa) = 30.18388 32.03389 31.10889
#
# Velocity S-wave (km/s) = 3.83221 3.94790 3.89048
# Velocity P-wave (km/s) = 7.07023 7.28714 7.17950
#
# Compressibility (1/GPa) = 0.01600105
#
# Stress axis : x y z
#
# Youngs Moduli (GPa) = 79.38699 64.55961 100.16583
#
# Poissons Ratio (x) = 0.21066 0.28565
# Poissons Ratio (y) = 0.25904 0.49277
# Poissons Ratio (z) = 0.22639 0.31760
#
# Static dielectric constant tensor:
#      x y z
#    x 3.766150 0.000000 0.000000 
#    y 0.000000 3.590360 0.000000 
#    z 0.000000 0.000000 4.067350 
# 
# 
# High freq. dielectric constant tensor:
#      x y z
#    x 1.805690 0.000000 0.000000 
#    y 0.000000 1.782710 0.000000 
#    z 0.000000 0.000000 1.817210 
# 
# From -- ./inp_files/19308.got.cif
#   From: 2010.03.12/outbox.cif.g09.slc.cpg/sg20_10_cif.got.tgz:19308.got - 2010.04.14 01:38:04.
