data_PCOD8159707
_publ_section_title
;
Structure prediction by ZEFSAII (Michael W. Deem and Ramdas Pophale) SiO2 
 PCOD8159707
Probable space group: C 2 2 21
;
_chemical_formula_sum "Si O2"
_cell_formula_units_Z 40
_cell_length_a 23.280253
_cell_length_b 9.009016
_cell_length_c 8.229961
_cell_angle_alpha 90.000000
_cell_angle_beta 90.000000
_cell_angle_gamma 90.000000
_cell_volume 1726.087594
_symmetry_space_group_name_H-M "C 2 2 21"
_symmetry_group_IT_number 20
_symmetry_cell_setting 'orthorhombic'
loop_
_space_group_symop_operation_xyz
x,y,z
-x,-y,1/2+z
x,-y,-z
-x,y,1/2-z
1/2+x,1/2+y,z
1/2-x,1/2-y,1/2+z
1/2+x,1/2-y,-z
1/2-x,1/2+y,1/2-z
loop_
_atom_site_type_symbol
_atom_site_label
_atom_site_fract_x
_atom_site_fract_y
_atom_site_fract_z
Si Si1 0.864671 0.310147 0.275513
Si Si2 0.531498 0.343172 0.922945
Si Si3 0.670568 0.144362 0.246161
Si Si4 0.776166 0.162736 0.457900
Si Si5 0.570195 0.828909 0.540880
O O1 0.913192 0.265073 0.408864
O O2 0.839336 0.474070 0.302528
O O3 0.809526 0.205212 0.293878
O O4 0.889301 0.271088 0.101598
O O5 0.500000 0.364517 0.750000
O O6 0.488341 0.263283 0.049538
O O7 0.550059 0.500000 0.000000
O O8 0.708647 0.161981 0.411805
O O9 0.606147 0.200148 0.293070
O O10 0.702596 0.226996 0.100120
O O11 0.796875 0.000000 0.500000
O O12 0.555462 0.000000 0.500000
#
# Coordination Sequence:
#
# PCOD8159707 Si02
#       5
#     8   8   8   8   8
#     4  10  22  42  63  91 130 172 219 267 327 398
#     4  10  22  41  65  96 133 170 216 274 330 388
#     4  11  23  42  65  92 128 173 218 269 330 395
#     4  12  24  39  62  92 126 166 216 273 327 388
#     4   9  20  40  65  91 125 171 219 267 325 395
#
# _framework density 23.173793
#
# number of rings (size 3 to 8) (size 9 to 14) (size 15 to 20)
#    0.000    1.600    0.000    5.400    0.000    6.400 
#    0.000    9.000    0.000    0.000    0.000    0.000 
#    0.000    0.000    0.000    0.000    0.000    0.000 
#
# Total GULP energy -247829.781359 kJ/mol
# GULP energy per Si atom -12391.489068 kJ/mol
# Density = 2.312105 g / cm^3
# Si number density = 23.173793 Si / 1000 Ang^3
#
#
#
# Elastic Constant Matrix: (Units=GPa)
#
#
# Indices 1 2 3 4 5 6 
#
# 1 130.5744 66.7219 24.2814 0.0000 0.0000 0.0000
# 2 66.7219 118.0908 27.2382 0.0000 0.0000 0.0000
# 3 24.2814 27.2382 43.1950 0.0000 0.0000 0.0000
# 4 0.0000 0.0000 0.0000 41.8994 0.0000 0.0000
# 5 0.0000 0.0000 0.0000 0.0000 17.9918 0.0000
# 6 0.0000 0.0000 0.0000 0.0000 0.0000 33.0683
#
#
#
# Elastic Compliance Matrix: (Units=1/GPa)
#
#
# Indices 1 2 3 4 5 6 
#
# 1 0.011021 -0.005615 -0.002655 0.000000 0.000000 0.000000
# 2 -0.005615 0.012770 -0.004896 0.000000 0.000000 0.000000
# 3 -0.002655 -0.004896 0.027731 0.000000 0.000000 0.000000
# 4 0.000000 0.000000 0.000000 0.023867 0.000000 0.000000
# 5 0.000000 0.000000 0.000000 0.000000 0.055581 0.000000
# 6 0.000000 0.000000 0.000000 0.000000 0.000000 0.030240
#
#
# Mechanical properties :
#
#
# Convention : Reuss Voigt Hill
#
# Bulk Modulus (GPa) = 39.69810 58.70479 49.20144
# Shear Modulus (GPa) = 25.51829 30.16646 27.84238
#
# Velocity S-wave (km/s) = 3.32199 3.61189 3.46997
# Velocity P-wave (km/s) = 5.64641 6.54077 6.10998
#
# Compressibility (1/GPa) = 0.02519012
#
# Stress axis : x y z
#
# Youngs Moduli (GPa) = 90.73435 78.31031 36.06114
#
# Poissons Ratio (x) = 0.43969 0.09574
# Poissons Ratio (y) = 0.50944 0.17656
# Poissons Ratio (z) = 0.24089 0.38342
#
# Static dielectric constant tensor:
#      x y z
#    x 4.509750 0.000000 0.000000 
#    y 0.000000 4.068670 0.000000 
#    z 0.000000 0.000000 4.236620 
# 
# 
# High freq. dielectric constant tensor:
#      x y z
#    x 1.935290 0.000000 0.000000 
#    y 0.000000 1.904900 0.000000 
#    z 0.000000 0.000000 1.916100 
# 
# From -- ./inp_files/6031.got.cif
#   From: 2010.03.12/outbox.cif.g09.slc.cpg/sg20_4_cif.got.tgz:6031.got - 2010.04.14 01:38:04.
