data_PCOD8159468
_publ_section_title
;
Structure prediction by ZEFSAII (Michael W. Deem and Ramdas Pophale) SiO2 
 PCOD8159468
Probable space group: C 2 2 21
;
_chemical_formula_sum "Si O2"
_cell_formula_units_Z 52
_cell_length_a 19.412323
_cell_length_b 14.561620
_cell_length_c 8.925442
_cell_angle_alpha 90.000000
_cell_angle_beta 90.000000
_cell_angle_gamma 90.000000
_cell_volume 2522.998165
_symmetry_space_group_name_H-M "C 2 2 21"
_symmetry_group_IT_number 20
_symmetry_cell_setting 'orthorhombic'
loop_
_space_group_symop_operation_xyz
x,y,z
-x,-y,1/2+z
x,-y,-z
-x,y,1/2-z
1/2+x,1/2+y,z
1/2-x,1/2-y,1/2+z
1/2+x,1/2-y,-z
1/2-x,1/2+y,1/2-z
loop_
_atom_site_type_symbol
_atom_site_label
_atom_site_fract_x
_atom_site_fract_y
_atom_site_fract_z
Si Si1 0.627282 0.100212 0.045908
Si Si2 0.500000 0.869814 0.750000
Si Si3 0.856545 0.735415 0.716822
Si Si4 0.701292 0.746833 0.781297
Si Si5 0.979250 0.917234 0.087881
Si Si6 0.597506 0.756696 0.542483
Si Si7 0.370881 0.391851 0.497930
O O1 0.560577 0.079284 0.154601
O O2 0.687913 0.158713 0.126223
O O3 0.610656 0.161072 0.897713
O O4 0.655883 0.000000 0.000000
O O5 0.537368 0.814246 0.619879
O O6 0.779117 0.713495 0.768216
O O7 0.851742 0.838903 0.651245
O O8 0.903617 0.727927 0.864852
O O9 0.672567 0.771804 0.615529
O O10 0.662246 0.660997 0.857463
O O11 0.047264 0.879458 0.007128
O O12 0.000000 0.953187 0.250000
O O13 0.918384 0.846095 0.089115
O O14 0.945433 0.000000 0.000000
O O15 0.348905 0.500000 0.500000
#
# Coordination Sequence:
#
# PCOD8159468 Si02
#       7
#     8   4   8   8   8   8   8
#     4  10  23  43  64  91 123 160 205 260 314 361
#     4  10  22  40  62  86 122 160 200 264 314 354
#     4  11  24  38  63  90 117 162 214 246 292 378
#     4  10  21  43  61  87 126 161 202 252 302 356
#     4  11  22  36  57  88 125 158 195 249 303 364
#     4  11  20  37  61  85 120 163 200 248 312 356
#     4  10  22  39  59  87 124 157 199 249 300 358
#
# _framework density 20.610399000000001
#
# number of rings (size 3 to 8) (size 9 to 14) (size 15 to 20)
#    0.000    1.538    2.308    3.692    4.308    4.308 
#    0.000    3.846    0.000    0.000    0.000    0.000 
#    0.000    0.000    0.000    0.000    0.000    0.000 
#
# Total GULP energy -322097.389868 kJ/mol
# GULP energy per Si atom -12388.361149 kJ/mol
# Density = 2.056349 g / cm^3
# Si number density = 20.610399 Si / 1000 Ang^3
#
#
#
# Elastic Constant Matrix: (Units=GPa)
#
#
# Indices 1 2 3 4 5 6 
#
# 1 53.1371 9.1784 6.7156 0.0000 0.0000 0.0000
# 2 9.1784 129.1171 39.5646 0.0000 0.0000 0.0000
# 3 6.7156 39.5646 138.0626 0.0000 0.0000 0.0000
# 4 0.0000 0.0000 0.0000 19.1832 0.0000 0.0000
# 5 0.0000 0.0000 0.0000 0.0000 27.5498 0.0000
# 6 0.0000 0.0000 0.0000 0.0000 0.0000 22.9245
#
#
#
# Elastic Compliance Matrix: (Units=1/GPa)
#
#
# Indices 1 2 3 4 5 6 
#
# 1 0.019097 -0.001176 -0.000592 0.000000 0.000000 0.000000
# 2 -0.001176 0.008563 -0.002397 0.000000 0.000000 0.000000
# 3 -0.000592 -0.002397 0.007959 0.000000 0.000000 0.000000
# 4 0.000000 0.000000 0.000000 0.052129 0.000000 0.000000
# 5 0.000000 0.000000 0.000000 0.000000 0.036298 0.000000
# 6 0.000000 0.000000 0.000000 0.000000 0.000000 0.043621
#
#
# Mechanical properties :
#
#
# Convention : Reuss Voigt Hill
#
# Bulk Modulus (GPa) = 36.64424 47.91486 42.27955
# Shear Modulus (GPa) = 27.01346 31.58872 29.30109
#
# Velocity S-wave (km/s) = 3.62425 3.91917 3.77459
# Velocity P-wave (km/s) = 5.94404 6.61651 6.28927
#
# Compressibility (1/GPa) = 0.02728942
#
# Stress axis : x y z
#
# Youngs Moduli (GPa) = 52.36367 116.78269 125.64875
#
# Poissons Ratio (x) = 0.13736 0.07437
# Poissons Ratio (y) = 0.06159 0.30114
# Poissons Ratio (z) = 0.03099 0.27989
#
# Static dielectric constant tensor:
#      x y z
#    x 3.667640 0.000000 0.000000 
#    y 0.000000 3.811250 0.000000 
#    z 0.000000 0.000000 4.216870 
# 
# 
# High freq. dielectric constant tensor:
#      x y z
#    x 1.795130 0.000000 0.000000 
#    y 0.000000 1.789090 0.000000 
#    z 0.000000 0.000000 1.824520 
# 
# From -- ./inp_files/10142.got.cif
#   From: 2010.03.12/outbox.cif.g09.slc.cpg/sg20_6_cif.got.tgz:10142.got - 2010.04.14 01:38:04.
