data_PCOD8159653
_publ_section_title
;
Structure prediction by ZEFSAII (Michael W. Deem and Ramdas Pophale) SiO2 
 PCOD8159653
Probable space group: C 2 2 21
;
_chemical_formula_sum "Si O2"
_cell_formula_units_Z 64
_cell_length_a 8.687625
_cell_length_b 22.500324
_cell_length_c 14.834921
_cell_angle_alpha 90.000000
_cell_angle_beta 90.000000
_cell_angle_gamma 90.000000
_cell_volume 2899.846945
_symmetry_space_group_name_H-M "C 2 2 21"
_symmetry_group_IT_number 20
_symmetry_cell_setting 'orthorhombic'
loop_
_space_group_symop_operation_xyz
x,y,z
-x,-y,1/2+z
x,-y,-z
-x,y,1/2-z
1/2+x,1/2+y,z
1/2-x,1/2-y,1/2+z
1/2+x,1/2-y,-z
1/2-x,1/2+y,1/2-z
loop_
_atom_site_type_symbol
_atom_site_label
_atom_site_fract_x
_atom_site_fract_y
_atom_site_fract_z
Si Si1 0.552402 0.049788 0.147814
Si Si2 0.681222 0.855732 0.561776
Si Si3 0.406489 0.816176 0.117564
Si Si4 0.889645 0.058163 0.537889
Si Si5 0.679965 0.398310 0.549233
Si Si6 0.158980 0.882566 0.214896
Si Si7 0.132232 0.417405 0.123473
Si Si8 0.469490 0.689778 0.348556
O O1 0.500000 0.044433 0.250000
O O2 0.432111 0.094976 0.101974
O O3 0.724460 0.076446 0.134866
O O4 0.561452 0.983304 0.105875
O O5 0.597674 0.810407 0.492352
O O6 0.801340 0.884746 0.494597
O O7 0.786677 0.821063 0.634153
O O8 0.243889 0.825616 0.169404
O O9 0.490300 0.876182 0.149546
O O10 0.498124 0.759695 0.153492
O O11 0.886808 0.063698 0.645895
O O12 0.057974 0.054948 0.491112
O O13 0.802454 0.000000 0.500000
O O14 0.799045 0.387908 0.467546
O O15 0.588098 0.339494 0.580178
O O16 0.246247 0.916206 0.295667
O O17 0.000000 0.854240 0.250000
O O18 0.500000 0.662539 0.250000
#
# Coordination Sequence:
#
# PCOD8159653 Si02
#       8
#     8   8   8   8   8   8   8   8
#     4  12  25  42  68 102 140 185 233 289 358 430
#     4  10  25  41  68 100 133 184 234 286 354 427
#     4  11  25  45  72 101 136 189 235 303 359 415
#     4  10  22  40  64  94 141 185 225 280 346 425
#     4  11  24  43  67  97 139 185 229 291 362 416
#     4  11  23  42  66 106 141 181 243 288 356 428
#     4  12  24  43  68 105 144 183 233 299 363 431
#     4  11  25  50  69  98 141 186 243 297 358 428
#
# _framework density 22.070131
#
# number of rings (size 3 to 8) (size 9 to 14) (size 15 to 20)
#    0.000    1.000    2.500    3.750    7.000    0.000 
#    0.000    3.125    0.000    0.000    0.000    0.000 
#    0.000    0.000    0.000    0.000    0.000    0.000 
#
# Total GULP energy -396526.794409 kJ/mol
# GULP energy per Si atom -12391.462325 kJ/mol
# Density = 2.201990 g / cm^3
# Si number density = 22.070131 Si / 1000 Ang^3
#
#
#
# Elastic Constant Matrix: (Units=GPa)
#
#
# Indices 1 2 3 4 5 6 
#
# 1 111.1219 42.0106 42.0158 0.0000 0.0000 0.0000
# 2 42.0106 104.4763 22.1043 0.0000 0.0000 0.0000
# 3 42.0158 22.1043 116.6794 0.0000 0.0000 0.0000
# 4 0.0000 0.0000 0.0000 26.2757 0.0000 0.0000
# 5 0.0000 0.0000 0.0000 0.0000 49.9733 0.0000
# 6 0.0000 0.0000 0.0000 0.0000 0.0000 28.8212
#
#
#
# Elastic Compliance Matrix: (Units=1/GPa)
#
#
# Indices 1 2 3 4 5 6 
#
# 1 0.011844 -0.004021 -0.003503 0.000000 0.000000 0.000000
# 2 -0.004021 0.011337 -0.000700 0.000000 0.000000 0.000000
# 3 -0.003503 -0.000700 0.009964 0.000000 0.000000 0.000000
# 4 0.000000 0.000000 0.000000 0.038058 0.000000 0.000000
# 5 0.000000 0.000000 0.000000 0.000000 0.020011 0.000000
# 6 0.000000 0.000000 0.000000 0.000000 0.000000 0.034697
#
#
# Mechanical properties :
#
#
# Convention : Reuss Voigt Hill
#
# Bulk Modulus (GPa) = 59.89146 60.50434 60.19790
# Shear Modulus (GPa) = 33.80107 36.09050 34.94578
#
# Velocity S-wave (km/s) = 3.91772 4.04823 3.98351
# Velocity P-wave (km/s) = 6.90366 7.02317 6.96367
#
# Compressibility (1/GPa) = 0.01669687
#
# Stress axis : x y z
#
# Youngs Moduli (GPa) = 84.43090 88.20998 100.35629
#
# Poissons Ratio (x) = 0.35473 0.35156
# Poissons Ratio (y) = 0.33953 0.07021
# Poissons Ratio (z) = 0.29577 0.06171
#
# Static dielectric constant tensor:
#      x y z
#    x 4.362560 0.000000 0.000000 
#    y 0.000000 3.572540 0.000000 
#    z 0.000000 0.000000 4.250510 
# 
# 
# High freq. dielectric constant tensor:
#      x y z
#    x 1.881040 0.000000 0.000000 
#    y 0.000000 1.841310 0.000000 
#    z 0.000000 0.000000 1.881770 
# 
# From -- ./inp_files/19378.got.cif
#   From: 2010.03.12/outbox.cif.g09.slc.cpg/sg20_10_cif.got.tgz:19378.got - 2010.04.14 01:38:04.
