data_PCOD8159607
_publ_section_title
;
Structure prediction by ZEFSAII (Michael W. Deem and Ramdas Pophale) SiO2 
 PCOD8159607
Probable space group: C 2 2 21
;
_chemical_formula_sum "Si O2"
_cell_formula_units_Z 60
_cell_length_a 16.954191
_cell_length_b 7.212002
_cell_length_c 23.757520
_cell_angle_alpha 90.000000
_cell_angle_beta 90.000000
_cell_angle_gamma 90.000000
_cell_volume 2904.918909
_symmetry_space_group_name_H-M "C 2 2 21"
_symmetry_group_IT_number 20
_symmetry_cell_setting 'orthorhombic'
loop_
_space_group_symop_operation_xyz
x,y,z
-x,-y,1/2+z
x,-y,-z
-x,y,1/2-z
1/2+x,1/2+y,z
1/2-x,1/2-y,1/2+z
1/2+x,1/2-y,-z
1/2-x,1/2+y,1/2-z
loop_
_atom_site_type_symbol
_atom_site_label
_atom_site_fract_x
_atom_site_fract_y
_atom_site_fract_z
Si Si1 0.139873 0.081332 0.104094
Si Si2 0.310384 0.640038 0.047615
Si Si3 0.023750 0.316538 0.686320
Si Si4 0.884222 0.426974 0.322649
Si Si5 0.776524 0.262027 0.655133
Si Si6 0.750446 0.000000 0.500000
Si Si7 0.890181 0.664031 0.798986
Si Si8 0.538791 0.448048 0.618540
O O1 0.148381 0.283767 0.131475
O O2 0.047215 0.056496 0.090126
O O3 0.167467 0.917322 0.146395
O O4 0.192530 0.079863 0.048316
O O5 0.244649 0.641581 0.095934
O O6 0.396563 0.581671 0.069961
O O7 0.281738 0.500000 0.000000
O O8 0.310675 0.846235 0.021930
O O9 0.956838 0.444354 0.656563
O O10 0.000000 0.256280 0.750000
O O11 0.100507 0.446952 0.687055
O O12 0.049426 0.144172 0.648926
O O13 0.817134 0.578285 0.308008
O O14 0.908183 0.309628 0.267232
O O15 0.699245 0.209772 0.688724
O O16 0.951807 0.788711 0.834243
#
# Coordination Sequence:
#
# PCOD8159607 Si02
#       8
#     8   8   8   8   8   4   8   8
#     4  11  23  40  69  91 129 167 213 269 324 379
#     4  10  23  44  68  91 126 163 215 270 329 374
#     4  10  22  39  63  92 135 175 210 255 312 378
#     4  11  22  39  63  94 130 174 215 258 316 383
#     4  10  23  41  61  97 127 164 214 264 319 381
#     4  10  24  46  68  94 128 164 210 280 332 372
#     4  10  24  39  60  96 132 173 215 255 316 386
#     4  11  23  40  67  96 129 169 219 261 318 389
#
# _framework density 20.654620999999999
#
# number of rings (size 3 to 8) (size 9 to 14) (size 15 to 20)
#    0.000    1.600    2.667    0.800    4.667    5.333 
#    2.400    0.000    1.467    0.000    0.000    0.000 
#    0.000    0.000    0.000    0.000    0.000    0.000 
#
# Total GULP energy -371899.403232 kJ/mol
# GULP energy per Si atom -12396.646774 kJ/mol
# Density = 2.060761 g / cm^3
# Si number density = 20.654621 Si / 1000 Ang^3
#
#
#
# Elastic Constant Matrix: (Units=GPa)
#
#
# Indices 1 2 3 4 5 6 
#
# 1 93.5210 46.9428 15.8395 0.0000 0.0000 0.0000
# 2 46.9428 127.3717 58.1796 0.0000 0.0000 0.0000
# 3 15.8395 58.1796 75.3077 0.0000 0.0000 0.0000
# 4 0.0000 0.0000 0.0000 41.9061 0.0000 0.0000
# 5 0.0000 0.0000 0.0000 0.0000 14.2944 0.0000
# 6 0.0000 0.0000 0.0000 0.0000 0.0000 33.0366
#
#
#
# Elastic Compliance Matrix: (Units=1/GPa)
#
#
# Indices 1 2 3 4 5 6 
#
# 1 0.013232 -0.005571 0.001521 0.000000 0.000000 0.000000
# 2 -0.005571 0.014478 -0.010013 0.000000 0.000000 0.000000
# 3 0.001521 -0.010013 0.020695 0.000000 0.000000 0.000000
# 4 0.000000 0.000000 0.000000 0.023863 0.000000 0.000000
# 5 0.000000 0.000000 0.000000 0.000000 0.069957 0.000000
# 6 0.000000 0.000000 0.000000 0.000000 0.000000 0.030269
#
#
# Mechanical properties :
#
#
# Convention : Reuss Voigt Hill
#
# Bulk Modulus (GPa) = 49.31569 59.79159 54.55364
# Shear Modulus (GPa) = 24.11024 29.52999 26.82012
#
# Velocity S-wave (km/s) = 3.42029 3.78524 3.60739
# Velocity P-wave (km/s) = 6.28697 6.93651 6.61972
#
# Compressibility (1/GPa) = 0.02027752
#
# Stress axis : x y z
#
# Youngs Moduli (GPa) = 75.57612 69.06937 48.32118
#
# Poissons Ratio (x) = 0.38481 -0.07351
# Poissons Ratio (y) = 0.42106 0.48386
# Poissons Ratio (z) = -0.11496 0.69162
#
# Static dielectric constant tensor:
#      x y z
#    x 3.706760 0.000000 0.000000 
#    y 0.000000 3.874110 0.000000 
#    z 0.000000 0.000000 3.623960 
# 
# 
# High freq. dielectric constant tensor:
#      x y z
#    x 1.813780 0.000000 0.000000 
#    y 0.000000 1.822450 0.000000 
#    z 0.000000 0.000000 1.792840 
# 
# From -- ./inp_files/30508.got.cif
#   From: 2010.03.12/outbox.cif.g09.slc.cpg/sg20_16_cif.got.tgz:30508.got - 2010.04.14 01:38:04.
