data_PCOD8159916
_publ_section_title
;
Structure prediction by ZEFSAII (Michael W. Deem and Ramdas Pophale) SiO2 
 PCOD8159916
Probable space group: C 2 2 21
;
_chemical_formula_sum "Si O2"
_cell_formula_units_Z 48
_cell_length_a 23.468329
_cell_length_b 5.084462
_cell_length_c 18.457762
_cell_angle_alpha 90.000000
_cell_angle_beta 90.000000
_cell_angle_gamma 90.000000
_cell_volume 2202.450800
_symmetry_space_group_name_H-M "C 2 2 21"
_symmetry_group_IT_number 20
_symmetry_cell_setting 'orthorhombic'
loop_
_space_group_symop_operation_xyz
x,y,z
-x,-y,1/2+z
x,-y,-z
-x,y,1/2-z
1/2+x,1/2+y,z
1/2-x,1/2-y,1/2+z
1/2+x,1/2-y,-z
1/2-x,1/2+y,1/2-z
loop_
_atom_site_type_symbol
_atom_site_label
_atom_site_fract_x
_atom_site_fract_y
_atom_site_fract_z
Si Si1 0.647330 0.757730 0.701369
Si Si2 0.133152 0.608913 0.923043
Si Si3 0.595825 0.742664 0.347787
Si Si4 0.299624 0.061447 0.917362
Si Si5 0.995656 0.257820 0.452446
Si Si6 0.183436 0.868608 0.145484
O O1 0.599008 0.540811 0.688412
O O2 0.685359 0.647533 0.767472
O O3 0.611246 0.030406 0.711853
O O4 0.689828 0.799335 0.632395
O O5 0.069534 0.715995 0.929442
O O6 0.169877 0.845844 0.888988
O O7 0.135800 0.349640 0.873534
O O8 0.156913 0.500000 0.000000
O O9 0.643727 0.757624 0.411824
O O10 0.532684 0.764150 0.379612
O O11 0.245286 0.214983 0.884252
O O12 0.286567 0.000000 0.000000
O O13 0.016760 0.500000 0.500000
O O14 0.005737 0.000000 0.500000
#
# Coordination Sequence:
#
# PCOD8159916 Si02
#       6
#     8   8   8   8   8   8
#     4  10  25  41  64  97 138 177 219 271 356 406
#     4  11  24  43  67  98 131 177 233 283 333 407
#     4  10  23  40  66  96 130 168 227 272 345 397
#     4  10  25  41  69  99 130 174 227 290 330 407
#     4  11  22  41  70  96 134 174 224 287 342 394
#     4  12  25  43  67  96 140 181 222 274 352 418
#
# _framework density 21.793904999999999
#
# number of rings (size 3 to 8) (size 9 to 14) (size 15 to 20)
#    1.000    0.333    0.000    6.000    7.000    0.000 
#    0.000    5.000    0.000    0.000    0.000    0.000 
#    0.000    0.000    0.000    0.000    0.000    0.000 
#
# Total GULP energy -297394.484675 kJ/mol
# GULP energy per Si atom -12391.436861 kJ/mol
# Density = 2.174430 g / cm^3
# Si number density = 21.793905 Si / 1000 Ang^3
#
#
#
# Elastic Constant Matrix: (Units=GPa)
#
#
# Indices 1 2 3 4 5 6 
#
# 1 56.5101 21.3994 22.3788 0.0000 0.0000 0.0000
# 2 21.3994 140.3359 35.2650 0.0000 0.0000 0.0000
# 3 22.3788 35.2650 114.8345 0.0000 0.0000 0.0000
# 4 0.0000 0.0000 0.0000 43.2682 0.0000 0.0000
# 5 0.0000 0.0000 0.0000 0.0000 21.8266 0.0000
# 6 0.0000 0.0000 0.0000 0.0000 0.0000 29.9075
#
#
#
# Elastic Compliance Matrix: (Units=1/GPa)
#
#
# Indices 1 2 3 4 5 6 
#
# 1 0.019794 -0.002220 -0.003176 0.000000 0.000000 0.000000
# 2 -0.002220 0.007971 -0.002015 0.000000 0.000000 0.000000
# 3 -0.003176 -0.002015 0.009946 0.000000 0.000000 0.000000
# 4 0.000000 0.000000 0.000000 0.023112 0.000000 0.000000
# 5 0.000000 0.000000 0.000000 0.000000 0.045816 0.000000
# 6 0.000000 0.000000 0.000000 0.000000 0.000000 0.033436
#
#
# Mechanical properties :
#
#
# Convention : Reuss Voigt Hill
#
# Bulk Modulus (GPa) = 43.68953 52.19635 47.94294
# Shear Modulus (GPa) = 30.76424 34.50961 32.63692
#
# Velocity S-wave (km/s) = 3.76120 3.98358 3.87399
# Velocity P-wave (km/s) = 6.24118 6.72016 6.48509
#
# Compressibility (1/GPa) = 0.02288878
#
# Stress axis : x y z
#
# Youngs Moduli (GPa) = 50.51944 125.45946 100.54432
#
# Poissons Ratio (x) = 0.27857 0.31929
# Poissons Ratio (y) = 0.11217 0.20260
# Poissons Ratio (z) = 0.16043 0.25281
#
# Static dielectric constant tensor:
#      x y z
#    x 3.674960 0.000000 0.000000 
#    y 0.000000 3.942830 0.000000 
#    z 0.000000 0.000000 3.904950 
# 
# 
# High freq. dielectric constant tensor:
#      x y z
#    x 1.847600 0.000000 0.000000 
#    y 0.000000 1.865160 0.000000 
#    z 0.000000 0.000000 1.846940 
# 
# From -- ./inp_files/25586.got.cif
#   From: 2010.03.12/outbox.cif.g09.slc.cpg/sg20_13_cif.got.tgz:25586.got - 2010.04.14 01:38:04.
