data_PCOD8159420
_publ_section_title
;
Structure prediction by ZEFSAII (Michael W. Deem and Ramdas Pophale) SiO2 
 PCOD8159420
Probable space group: C 2 2 21
;
_chemical_formula_sum "Si O2"
_cell_formula_units_Z 44
_cell_length_a 26.751327
_cell_length_b 9.326465
_cell_length_c 8.415176
_cell_angle_alpha 90.000000
_cell_angle_beta 90.000000
_cell_angle_gamma 90.000000
_cell_volume 2099.546987
_symmetry_space_group_name_H-M "C 2 2 21"
_symmetry_group_IT_number 20
_symmetry_cell_setting 'orthorhombic'
loop_
_space_group_symop_operation_xyz
x,y,z
-x,-y,1/2+z
x,-y,-z
-x,y,1/2-z
1/2+x,1/2+y,z
1/2-x,1/2-y,1/2+z
1/2+x,1/2-y,-z
1/2-x,1/2+y,1/2-z
loop_
_atom_site_type_symbol
_atom_site_label
_atom_site_fract_x
_atom_site_fract_y
_atom_site_fract_z
Si Si1 0.022692 0.344318 0.574367
Si Si2 0.089061 0.139038 0.420770
Si Si3 0.771354 0.500000 0.500000
Si Si4 0.833650 0.216616 0.527272
Si Si5 0.939127 0.841787 0.570848
Si Si6 0.685652 0.476047 0.739356
O O1 0.021815 0.500000 0.500000
O O2 0.078316 0.274132 0.542995
O O3 0.000000 0.351744 0.750000
O O4 0.988915 0.234254 0.480030
O O5 0.059073 0.160187 0.259594
O O6 0.147793 0.104814 0.383947
O O7 0.064552 0.000000 0.500000
O O8 0.805887 0.366073 0.540299
O O9 0.737333 0.516140 0.655607
O O10 0.891030 0.249404 0.484360
O O11 0.805602 0.128217 0.388562
O O12 0.834764 0.127639 0.693006
O O13 0.933499 0.000000 0.500000
#
# Coordination Sequence:
#
# PCOD8159420 Si02
#       6
#     8   8   4   8   8   8
#     4  12  27  43  65  97 134 167 218 277 337 396
#     4  11  21  41  67  93 125 174 223 263 327 395
#     4  12  22  36  68  96 128 170 220 282 332 384
#     4  10  22  40  63  96 129 176 217 274 337 387
#     4  11  21  42  67  90 129 175 219 268 325 403
#     4  10  21  42  64  90 133 168 222 268 322 409
#
# _framework density 20.956903000000001
#
# number of rings (size 3 to 8) (size 9 to 14) (size 15 to 20)
#    0.000    1.091    4.545    4.364    1.273    0.000 
#    0.000    0.000    4.000    0.000    0.000    0.000 
#    0.000    0.000    0.000    0.000    0.000    0.000 
#
# Total GULP energy -272610.104113 kJ/mol
# GULP energy per Si atom -12391.368369 kJ/mol
# Density = 2.090920 g / cm^3
# Si number density = 20.956903 Si / 1000 Ang^3
#
#
#
# Elastic Constant Matrix: (Units=GPa)
#
#
# Indices 1 2 3 4 5 6 
#
# 1 91.5162 51.8580 34.0322 0.0000 0.0000 0.0000
# 2 51.8580 115.8037 52.2107 0.0000 0.0000 0.0000
# 3 34.0322 52.2107 86.2157 0.0000 0.0000 0.0000
# 4 0.0000 0.0000 0.0000 31.0503 0.0000 0.0000
# 5 0.0000 0.0000 0.0000 0.0000 15.6439 0.0000
# 6 0.0000 0.0000 0.0000 0.0000 0.0000 23.5854
#
#
#
# Elastic Compliance Matrix: (Units=1/GPa)
#
#
# Indices 1 2 3 4 5 6 
#
# 1 0.015041 -0.005583 -0.002556 0.000000 0.000000 0.000000
# 2 -0.005583 0.013951 -0.006245 0.000000 0.000000 0.000000
# 3 -0.002556 -0.006245 0.016389 0.000000 0.000000 0.000000
# 4 0.000000 0.000000 0.000000 0.032206 0.000000 0.000000
# 5 0.000000 0.000000 0.000000 0.000000 0.063923 0.000000
# 6 0.000000 0.000000 0.000000 0.000000 0.000000 0.042399
#
#
# Mechanical properties :
#
#
# Convention : Reuss Voigt Hill
#
# Bulk Modulus (GPa) = 60.19115 63.30417 61.74766
# Shear Modulus (GPa) = 22.91315 24.41822 23.66569
#
# Velocity S-wave (km/s) = 3.31017 3.41715 3.36408
# Velocity P-wave (km/s) = 6.58736 6.77065 6.67963
#
# Compressibility (1/GPa) = 0.01661374
#
# Stress axis : x y z
#
# Youngs Moduli (GPa) = 66.48343 71.67999 61.01487
#
# Poissons Ratio (x) = 0.40020 0.15597
# Poissons Ratio (y) = 0.37119 0.38101
# Poissons Ratio (z) = 0.16995 0.44761
#
# Static dielectric constant tensor:
#      x y z
#    x 3.776380 0.000000 0.000000 
#    y 0.000000 3.779810 0.000000 
#    z 0.000000 0.000000 4.162300 
# 
# 
# High freq. dielectric constant tensor:
#      x y z
#    x 1.816690 0.000000 0.000000 
#    y 0.000000 1.810900 0.000000 
#    z 0.000000 0.000000 1.837740 
# 
# From -- ./inp_files/11385.got.cif
#   From: 2010.03.12/outbox.cif.g09.slc.cpg/sg20_6_cif.got.tgz:11385.got - 2010.04.14 01:38:04.
