data_PCOD8159302
_publ_section_title
;
Structure prediction by ZEFSAII (Michael W. Deem and Ramdas Pophale) SiO2 
 PCOD8159302
Probable space group: C 2 2 21
;
_chemical_formula_sum "Si O2"
_cell_formula_units_Z 40
_cell_length_a 4.913928
_cell_length_b 20.714770
_cell_length_c 18.402133
_cell_angle_alpha 90.000000
_cell_angle_beta 90.000000
_cell_angle_gamma 90.000000
_cell_volume 1873.169465
_symmetry_space_group_name_H-M "C 2 2 21"
_symmetry_group_IT_number 20
_symmetry_cell_setting 'orthorhombic'
loop_
_space_group_symop_operation_xyz
x,y,z
-x,-y,1/2+z
x,-y,-z
-x,y,1/2-z
1/2+x,1/2+y,z
1/2-x,1/2-y,1/2+z
1/2+x,1/2-y,-z
1/2-x,1/2+y,1/2-z
loop_
_atom_site_type_symbol
_atom_site_label
_atom_site_fract_x
_atom_site_fract_y
_atom_site_fract_z
Si Si1 0.913239 0.258187 0.905271
Si Si2 0.753878 0.359205 0.795281
Si Si3 0.578536 0.819504 0.441356
Si Si4 0.000030 0.013313 0.335643
Si Si5 0.514192 0.032891 0.578570
O O1 0.926993 0.303780 0.835336
O O2 0.617369 0.228193 0.898861
O O3 0.126826 0.198888 0.908467
O O4 0.942984 0.305710 0.973339
O O5 0.500000 0.329541 0.750000
O O6 0.610730 0.413367 0.846236
O O7 0.000000 0.393609 0.750000
O O8 0.467017 0.891190 0.429779
O O9 0.803801 0.968102 0.381808
O O10 0.000000 0.995568 0.250000
O O11 0.296424 0.003262 0.370465
O O12 0.523455 0.000000 0.500000
#
# Coordination Sequence:
#
# PCOD8159302 Si02
#       5
#     8   8   8   8   8
#     4  10  21  40  61  87 122 157 201 259 312 362
#     4  11  22  39  64  91 120 160 210 255 306 373
#     4  10  22  38  61  88 120 160 202 255 315 363
#     4  11  24  42  63  92 131 169 205 260 326 378
#     4  12  24  41  66  96 126 166 220 263 309 382
#
# _framework density 21.354181000000001
#
# number of rings (size 3 to 8) (size 9 to 14) (size 15 to 20)
#    0.000    1.200    0.000    7.200    0.000    4.800 
#    0.000   10.000    0.000    0.000    0.000    0.000 
#    0.000    0.000    0.000    0.000    0.000    0.000 
#
# Total GULP energy -247866.915165 kJ/mol
# GULP energy per Si atom -12393.345758 kJ/mol
# Density = 2.130558 g / cm^3
# Si number density = 21.354181 Si / 1000 Ang^3
#
#
#
# Elastic Constant Matrix: (Units=GPa)
#
#
# Indices 1 2 3 4 5 6 
#
# 1 98.6219 11.1785 39.0486 0.0000 0.0000 0.0000
# 2 11.1785 109.6373 43.3901 0.0000 0.0000 0.0000
# 3 39.0486 43.3901 101.5242 0.0000 0.0000 0.0000
# 4 0.0000 0.0000 0.0000 25.1476 0.0000 0.0000
# 5 0.0000 0.0000 0.0000 0.0000 38.3596 0.0000
# 6 0.0000 0.0000 0.0000 0.0000 0.0000 -59.4971
#
#
#
# Elastic Compliance Matrix: (Units=1/GPa)
#
#
# Indices 1 2 3 4 5 6 
#
# 1 0.012009 0.000726 -0.004929 0.000000 0.000000 0.000000
# 2 0.000726 0.011022 -0.004990 0.000000 0.000000 0.000000
# 3 -0.004929 -0.004990 0.013879 0.000000 0.000000 0.000000
# 4 0.000000 0.000000 0.000000 0.039765 0.000000 0.000000
# 5 0.000000 0.000000 0.000000 0.000000 0.026069 0.000000
# 6 0.000000 0.000000 0.000000 0.000000 0.000000 -0.016808
#
#
# Mechanical properties :
#
#
# Convention : Reuss Voigt Hill
#
# Bulk Modulus (GPa) = 53.98563 55.22420 54.60492
# Shear Modulus (GPa) = 45.25019 15.21309 30.23164
#
# Velocity S-wave (km/s) = 4.60829 2.67201 3.76669
# Velocity P-wave (km/s) = 7.32469 5.95288 6.67412
#
# Compressibility (1/GPa) = 0.01852345
#
# Stress axis : x y z
#
# Youngs Moduli (GPa) = 83.26952 90.72978 72.05389
#
# Poissons Ratio (x) = -0.06591 0.35519
# Poissons Ratio (y) = -0.06049 0.35955
# Poissons Ratio (z) = 0.41048 0.45274
#
# Static dielectric constant tensor:
#      x y z
#    x 4.162900 0.000000 0.000000 
#    y 0.000000 3.639690 0.000000 
#    z 0.000000 0.000000 3.910170 
# 
# 
# High freq. dielectric constant tensor:
#      x y z
#    x 1.861230 0.000000 0.000000 
#    y 0.000000 1.830940 0.000000 
#    z 0.000000 0.000000 1.830810 
# 
# From -- ./inp_files/22587.got.cif
#   From: 2010.03.12/outbox.cif.g09.slc.cpg/sg20_12_cif.got.tgz:22587.got - 2010.04.14 01:38:04.
