data_PCOD8159186
_publ_section_title
;
Structure prediction by ZEFSAII (Michael W. Deem and Ramdas Pophale) SiO2 
 PCOD8159186
Probable space group: C 2 2 21
;
_chemical_formula_sum "Si O2"
_cell_formula_units_Z 28
_cell_length_a 11.802827
_cell_length_b 8.007004
_cell_length_c 14.729264
_cell_angle_alpha 90.000000
_cell_angle_beta 90.000000
_cell_angle_gamma 90.000000
_cell_volume 1391.993263
_symmetry_space_group_name_H-M "C 2 2 21"
_symmetry_group_IT_number 20
_symmetry_cell_setting 'orthorhombic'
loop_
_space_group_symop_operation_xyz
x,y,z
-x,-y,1/2+z
x,-y,-z
-x,y,1/2-z
1/2+x,1/2+y,z
1/2-x,1/2-y,1/2+z
1/2+x,1/2-y,-z
1/2-x,1/2+y,1/2-z
loop_
_atom_site_type_symbol
_atom_site_label
_atom_site_fract_x
_atom_site_fract_y
_atom_site_fract_z
Si Si1 0.279213 0.279155 0.629534
Si Si2 0.621642 0.500926 0.717086
Si Si3 0.479525 0.825670 0.147874
Si Si4 0.840750 0.500000 0.000000
O O1 0.301154 0.430521 0.700491
O O2 0.397700 0.195356 0.603128
O O3 0.235012 0.345979 0.532998
O O4 0.190169 0.145660 0.667950
O O5 0.500000 0.574118 0.750000
O O6 0.592430 0.346511 0.650033
O O7 0.500000 0.893654 0.250000
O O8 0.414736 0.959139 0.088104
#
# Coordination Sequence:
#
# PCOD8159186 Si02
#       4
#     8   8   8   4
#     4  10  21  38  59  84 116 151 192 245 294 343
#     4   9  20  39  62  83 112 152 195 241 297 351
#     4   9  22  41  58  86 120 153 197 242 290 352
#     4  12  24  36  60  90 118 156 202 240 288 354
#
# _framework density 20.115041000000002
#
# number of rings (size 3 to 8) (size 9 to 14) (size 15 to 20)
#    0.000    2.857    0.000    3.429    0.000   11.429 
#    0.000    0.000    0.000    0.000    0.000    0.000 
#    0.000    0.000    0.000    0.000    0.000    0.000 
#
# Total GULP energy -173525.072767 kJ/mol
# GULP energy per Si atom -12394.648055 kJ/mol
# Density = 2.006926 g / cm^3
# Si number density = 20.115041 Si / 1000 Ang^3
#
#
#
# Elastic Constant Matrix: (Units=GPa)
#
#
# Indices 1 2 3 4 5 6 
#
# 1 116.1696 40.9551 57.0128 0.0000 0.0000 0.0000
# 2 40.9551 48.0906 37.1102 0.0000 0.0000 0.0000
# 3 57.0128 37.1102 90.8215 0.0000 0.0000 0.0000
# 4 0.0000 0.0000 0.0000 28.8225 0.0000 0.0000
# 5 0.0000 0.0000 0.0000 0.0000 28.1544 0.0000
# 6 0.0000 0.0000 0.0000 0.0000 0.0000 21.8756
#
#
#
# Elastic Compliance Matrix: (Units=1/GPa)
#
#
# Indices 1 2 3 4 5 6 
#
# 1 0.014103 -0.007563 -0.005762 0.000000 0.000000 0.000000
# 2 -0.007563 0.034426 -0.009319 0.000000 0.000000 0.000000
# 3 -0.005762 -0.009319 0.018436 0.000000 0.000000 0.000000
# 4 0.000000 0.000000 0.000000 0.034695 0.000000 0.000000
# 5 0.000000 0.000000 0.000000 0.000000 0.035518 0.000000
# 6 0.000000 0.000000 0.000000 0.000000 0.000000 0.045713
#
#
# Mechanical properties :
#
#
# Convention : Reuss Voigt Hill
#
# Bulk Modulus (GPa) = 46.13560 58.35974 52.24767
# Shear Modulus (GPa) = 21.23992 23.77074 22.50533
#
# Velocity S-wave (km/s) = 3.25302 3.44137 3.34852
# Velocity P-wave (km/s) = 6.09058 6.69826 6.40164
#
# Compressibility (1/GPa) = 0.02167524
#
# Stress axis : x y z
#
# Youngs Moduli (GPa) = 70.90909 29.04746 54.24267
#
# Poissons Ratio (x) = 0.21970 0.31257
# Poissons Ratio (y) = 0.53632 0.50548
# Poissons Ratio (z) = 0.40860 0.27069
#
# Static dielectric constant tensor:
#      x y z
#    x 3.901090 0.000000 0.000000 
#    y 0.000000 3.362480 0.000000 
#    z 0.000000 0.000000 3.435790 
# 
# 
# High freq. dielectric constant tensor:
#      x y z
#    x 1.809220 0.000000 0.000000 
#    y 0.000000 1.768060 0.000000 
#    z 0.000000 0.000000 1.767910 
# 
# From -- ./inp_files/12403.got.cif
#   From: 2010.03.12/outbox.cif.g09.slc.cpg/sg20_7_cif.got.tgz:12403.got - 2010.04.14 01:38:04.
