data_PCOD8159548
_publ_section_title
;
Structure prediction by ZEFSAII (Michael W. Deem and Ramdas Pophale) SiO2 
 PCOD8159548
Probable space group: C 2 2 21
;
_chemical_formula_sum "Si O2"
_cell_formula_units_Z 64
_cell_length_a 8.967828
_cell_length_b 10.958373
_cell_length_c 30.050100
_cell_angle_alpha 90.000000
_cell_angle_beta 90.000000
_cell_angle_gamma 90.000000
_cell_volume 2953.107594
_symmetry_space_group_name_H-M "C 2 2 21"
_symmetry_group_IT_number 20
_symmetry_cell_setting 'orthorhombic'
loop_
_space_group_symop_operation_xyz
x,y,z
-x,-y,1/2+z
x,-y,-z
-x,y,1/2-z
1/2+x,1/2+y,z
1/2-x,1/2-y,1/2+z
1/2+x,1/2-y,-z
1/2-x,1/2+y,1/2-z
loop_
_atom_site_type_symbol
_atom_site_label
_atom_site_fract_x
_atom_site_fract_y
_atom_site_fract_z
Si Si1 0.050324 0.627826 0.484537
Si Si2 0.118284 0.874408 0.020534
Si Si3 0.472342 0.362379 0.379384
Si Si4 0.008714 0.399645 0.617961
Si Si5 0.295052 0.104728 0.650397
Si Si6 0.750093 0.493239 0.177907
Si Si7 0.354262 0.523960 0.229873
Si Si8 0.459875 0.220872 0.799386
O O1 0.971581 0.500000 0.500000
O O2 0.208176 0.637595 0.509157
O O3 0.068290 0.618986 0.431798
O O4 0.959529 0.750404 0.497752
O O5 0.096630 0.891791 0.072912
O O6 0.051113 0.000000 0.000000
O O7 0.426681 0.224292 0.366084
O O8 0.653662 0.363109 0.380046
O O9 0.410672 0.461415 0.344244
O O10 0.155379 0.417094 0.647392
O O11 0.890744 0.507938 0.622402
O O12 0.401424 0.217236 0.665261
O O13 0.245104 0.057632 0.698616
O O14 0.737546 0.560404 0.225574
O O15 0.830607 0.363461 0.181655
O O16 0.500000 0.453423 0.250000
O O17 0.404382 0.641390 0.202197
O O18 0.500000 0.174007 0.750000
#
# Coordination Sequence:
#
# PCOD8159548 Si02
#       8
#     8   8   8   8   8   8   8   8
#     4  10  22  44  68  97 130 165 212 261 328 395
#     4  10  23  43  68  98 130 164 211 263 326 399
#     4  11  24  41  64  94 125 163 208 259 320 378
#     4  10  25  41  63  95 127 163 207 264 318 375
#     4  11  23  42  59  89 128 161 210 259 307 369
#     4  11  21  40  62  86 126 166 210 264 309 362
#     4  11  22  37  60  88 117 169 212 252 304 362
#     4  10  22  37  58  84 118 162 212 254 303 359
#
# _framework density 21.672087000000001
#
# number of rings (size 3 to 8) (size 9 to 14) (size 15 to 20)
#    0.000    1.500    2.500    2.250    3.500    4.500 
#    0.000    2.500    0.000    0.000    0.000    0.000 
#    0.000    0.000    0.000    0.000    0.000    0.000 
#
# Total GULP energy -396628.081945 kJ/mol
# GULP energy per Si atom -12394.627561 kJ/mol
# Density = 2.162276 g / cm^3
# Si number density = 21.672087 Si / 1000 Ang^3
#
#
#
# Elastic Constant Matrix: (Units=GPa)
#
#
# Indices 1 2 3 4 5 6 
#
# 1 75.0440 14.5057 16.4349 0.0000 0.0000 0.0000
# 2 14.5057 116.8735 30.5359 0.0000 0.0000 0.0000
# 3 16.4349 30.5359 69.9206 0.0000 0.0000 0.0000
# 4 0.0000 0.0000 0.0000 34.7597 0.0000 0.0000
# 5 0.0000 0.0000 0.0000 0.0000 39.0095 0.0000
# 6 0.0000 0.0000 0.0000 0.0000 0.0000 27.8011
#
#
#
# Elastic Compliance Matrix: (Units=1/GPa)
#
#
# Indices 1 2 3 4 5 6 
#
# 1 0.014152 -0.001002 -0.002889 0.000000 0.000000 0.000000
# 2 -0.001002 0.009729 -0.004014 0.000000 0.000000 0.000000
# 3 -0.002889 -0.004014 0.016734 0.000000 0.000000 0.000000
# 4 0.000000 0.000000 0.000000 0.028769 0.000000 0.000000
# 5 0.000000 0.000000 0.000000 0.000000 0.025635 0.000000
# 6 0.000000 0.000000 0.000000 0.000000 0.000000 0.035970
#
#
# Mechanical properties :
#
#
# Convention : Reuss Voigt Hill
#
# Bulk Modulus (GPa) = 40.31192 42.75456 41.53324
# Shear Modulus (GPa) = 32.24443 33.67148 32.95795
#
# Velocity S-wave (km/s) = 3.86143 3.94595 3.90392
# Velocity P-wave (km/s) = 6.20661 6.36643 6.28703
#
# Compressibility (1/GPa) = 0.02480656
#
# Stress axis : x y z
#
# Youngs Moduli (GPa) = 70.66227 102.78332 59.75931
#
# Poissons Ratio (x) = 0.10295 0.17264
# Poissons Ratio (y) = 0.07078 0.23985
# Poissons Ratio (z) = 0.20414 0.41252
#
# Static dielectric constant tensor:
#      x y z
#    x 3.946180 0.000000 0.000000 
#    y 0.000000 4.049500 0.000000 
#    z 0.000000 0.000000 3.867280 
# 
# 
# High freq. dielectric constant tensor:
#      x y z
#    x 1.851680 0.000000 0.000000 
#    y 0.000000 1.855530 0.000000 
#    z 0.000000 0.000000 1.851680 
# 
# From -- ./inp_files/31060.got.cif
#   From: 2010.03.12/outbox.cif.g09.slc.cpg/sg20_16_cif.got.tgz:31060.got - 2010.04.14 01:38:04.
