data_PCOD8159493
_publ_section_title
;
Structure prediction by ZEFSAII (Michael W. Deem and Ramdas Pophale) SiO2 
 PCOD8159493
Probable space group: C 2 2 21
;
_chemical_formula_sum "Si O2"
_cell_formula_units_Z 52
_cell_length_a 23.144795
_cell_length_b 6.671354
_cell_length_c 17.166035
_cell_angle_alpha 90.000000
_cell_angle_beta 90.000000
_cell_angle_gamma 90.000000
_cell_volume 2650.558038
_symmetry_space_group_name_H-M "C 2 2 21"
_symmetry_group_IT_number 20
_symmetry_cell_setting 'orthorhombic'
loop_
_space_group_symop_operation_xyz
x,y,z
-x,-y,1/2+z
x,-y,-z
-x,y,1/2-z
1/2+x,1/2+y,z
1/2-x,1/2-y,1/2+z
1/2+x,1/2-y,-z
1/2-x,1/2+y,1/2-z
loop_
_atom_site_type_symbol
_atom_site_label
_atom_site_fract_x
_atom_site_fract_y
_atom_site_fract_z
Si Si1 0.293904 0.869736 0.074384
Si Si2 0.890139 0.672752 0.120025
Si Si3 0.333888 0.359091 0.425723
Si Si4 0.987381 0.499262 0.630072
Si Si5 0.000000 0.831293 0.750000
Si Si6 0.347466 0.500000 0.000000
Si Si7 0.601679 0.000000 0.000000
Si Si8 0.914233 0.165623 0.716203
O O1 0.230274 0.856837 0.112781
O O2 0.310033 0.640114 0.056656
O O3 0.344103 0.989598 0.119199
O O4 0.280451 0.000000 0.000000
O O5 0.882367 0.849639 0.056604
O O6 0.882003 0.746280 0.208455
O O7 0.953720 0.595126 0.096580
O O8 0.343005 0.500000 0.500000
O O9 0.372849 0.413977 0.351818
O O10 0.354231 0.148377 0.459141
O O11 0.942436 0.580078 0.565740
O O12 0.958918 0.332193 0.685660
O O13 0.006748 0.696612 0.674380
O O14 0.056197 0.966056 0.753459
#
# Coordination Sequence:
#
# PCOD8159493 Si02
#       8
#     8   8   8   8   4   4   4   8
#     4   9  21  40  63  84 121 162 201 268 315 361
#     4  11  22  40  57  93 131 160 210 259 315 387
#     4  10  21  44  64  91 121 160 217 261 311 380
#     4  11  23  39  59  92 128 161 204 263 314 367
#     4  12  20  38  62  80 122 176 188 248 326 356
#     4  10  23  38  64  88 116 171 204 252 324 376
#     4  10  23  36  66  92 118 159 210 256 308 384
#     4  11  23  40  60  91 127 165 207 257 318 384
#
# _framework density 19.618509
#
# number of rings (size 3 to 8) (size 9 to 14) (size 15 to 20)
#    0.000    1.538    3.077    1.385    5.385    0.000 
#    8.308    0.000    0.000    0.000    0.000    0.000 
#    0.000    0.000    0.000    0.000    0.000    0.000 
#
# Total GULP energy -322104.902197 kJ/mol
# GULP energy per Si atom -12388.650085 kJ/mol
# Density = 1.957386 g / cm^3
# Si number density = 19.618509 Si / 1000 Ang^3
#
#
#
# Elastic Constant Matrix: (Units=GPa)
#
#
# Indices 1 2 3 4 5 6 
#
# 1 139.9501 60.6207 56.0428 0.0000 0.0000 0.0000
# 2 60.6207 114.3811 39.4245 0.0000 0.0000 0.0000
# 3 56.0428 39.4245 92.3355 0.0000 0.0000 0.0000
# 4 0.0000 0.0000 0.0000 37.2330 0.0000 0.0000
# 5 0.0000 0.0000 0.0000 0.0000 16.1905 0.0000
# 6 0.0000 0.0000 0.0000 0.0000 0.0000 7.1820
#
#
#
# Elastic Compliance Matrix: (Units=1/GPa)
#
#
# Indices 1 2 3 4 5 6 
#
# 1 0.010854 -0.004083 -0.004845 0.000000 0.000000 0.000000
# 2 -0.004083 0.011787 -0.002555 0.000000 0.000000 0.000000
# 3 -0.004845 -0.002555 0.014861 0.000000 0.000000 0.000000
# 4 0.000000 0.000000 0.000000 0.026858 0.000000 0.000000
# 5 0.000000 0.000000 0.000000 0.000000 0.061765 0.000000
# 6 0.000000 0.000000 0.000000 0.000000 0.000000 0.139236
#
#
# Mechanical properties :
#
#
# Convention : Reuss Voigt Hill
#
# Bulk Modulus (GPa) = 68.78411 73.20475 70.99443
# Shear Modulus (GPa) = 17.05491 24.82635 20.94063
#
# Velocity S-wave (km/s) = 2.95163 3.56118 3.27064
# Velocity P-wave (km/s) = 6.83763 7.36916 7.10836
#
# Compressibility (1/GPa) = 0.01453824
#
# Stress axis : x y z
#
# Youngs Moduli (GPa) = 92.13355 84.83915 67.28900
#
# Poissons Ratio (x) = 0.34636 0.32598
# Poissons Ratio (y) = 0.37614 0.17191
# Poissons Ratio (z) = 0.44634 0.21675
#
# Static dielectric constant tensor:
#      x y z
#    x 3.801090 0.000000 0.000000 
#    y 0.000000 4.100550 0.000000 
#    z 0.000000 0.000000 3.642530 
# 
# 
# High freq. dielectric constant tensor:
#      x y z
#    x 1.771380 0.000000 0.000000 
#    y 0.000000 1.772470 0.000000 
#    z 0.000000 0.000000 1.761140 
# 
# From -- ./inp_files/26139.got.cif
#   From: 2010.03.12/outbox.cif.g09.slc.cpg/sg20_14_cif.got.tgz:26139.got - 2010.04.14 01:38:04.
