data_PCOD8159188
_publ_section_title
;
Structure prediction by ZEFSAII (Michael W. Deem and Ramdas Pophale) SiO2 
 PCOD8159188
Probable space group: C 2 2 21
;
_chemical_formula_sum "Si O2"
_cell_formula_units_Z 64
_cell_length_a 8.296836
_cell_length_b 16.299521
_cell_length_c 24.017888
_cell_angle_alpha 90.000000
_cell_angle_beta 90.000000
_cell_angle_gamma 90.000000
_cell_volume 3248.045937
_symmetry_space_group_name_H-M "C 2 2 21"
_symmetry_group_IT_number 20
_symmetry_cell_setting 'orthorhombic'
loop_
_space_group_symop_operation_xyz
x,y,z
-x,-y,1/2+z
x,-y,-z
-x,y,1/2-z
1/2+x,1/2+y,z
1/2-x,1/2-y,1/2+z
1/2+x,1/2-y,-z
1/2-x,1/2+y,1/2-z
loop_
_atom_site_type_symbol
_atom_site_label
_atom_site_fract_x
_atom_site_fract_y
_atom_site_fract_z
Si Si1 0.193400 0.339555 0.880134
Si Si2 0.311986 0.512950 0.186629
Si Si3 0.809225 0.841831 0.999726
Si Si4 0.885993 0.422064 0.903310
Si Si5 0.309198 0.657924 0.500366
Si Si6 0.810842 0.009696 0.687149
Si Si7 0.192472 0.342551 0.380013
Si Si8 0.115192 0.424845 0.096314
O O1 0.257897 0.396110 0.830682
O O2 0.250729 0.248566 0.866343
O O3 0.998800 0.344612 0.886217
O O4 0.263360 0.372333 0.938448
O O5 0.501368 0.504770 0.180652
O O6 0.253250 0.499320 0.249488
O O7 0.229795 0.444968 0.148001
O O8 0.748854 0.750048 0.010887
O O9 0.725016 0.901632 0.043833
O O10 0.999923 0.847104 0.002006
O O11 0.768329 0.401031 0.954238
O O12 0.779645 0.442167 0.849575
O O13 0.001120 0.498316 0.919384
O O14 0.254006 0.625869 0.560277
O O15 0.765538 0.101018 0.668037
O O16 0.997666 0.348976 0.383548
#
# Coordination Sequence:
#
# PCOD8159188 Si02
#       8
#     8   8   8   8   8   8   8   8
#     4  10  21  38  59  85 118 151 189 235 286 345
#     4  10  22  41  60  83 115 151 195 242 286 337
#     4  11  21  36  59  88 121 153 190 236 288 343
#     4  10  22  38  60  86 118 154 193 235 287 343
#     4  11  21  36  59  88 121 153 190 236 288 343
#     4  10  22  41  60  83 115 151 195 242 286 337
#     4  10  21  38  59  85 118 151 189 235 286 345
#     4  10  22  38  60  86 118 154 193 235 287 343
#
# _framework density 19.704153999999999
#
# number of rings (size 3 to 8) (size 9 to 14) (size 15 to 20)
#    0.000    1.750    0.000    5.250    0.000   11.500 
#    0.000   12.500    0.000    0.000    0.000    0.000 
#    0.000    0.000    0.000    0.000    0.000    0.000 
#
# Total GULP energy -396834.210920 kJ/mol
# GULP energy per Si atom -12401.069091 kJ/mol
# Density = 1.965931 g / cm^3
# Si number density = 19.704154 Si / 1000 Ang^3
#
#
#
# Elastic Constant Matrix: (Units=GPa)
#
#
# Indices 1 2 3 4 5 6 
#
# 1 74.3131 30.4096 0.2795 0.0000 0.0000 0.0000
# 2 30.4096 89.7807 46.4642 0.0000 0.0000 0.0000
# 3 0.2795 46.4642 97.3483 0.0000 0.0000 0.0000
# 4 0.0000 0.0000 0.0000 21.3130 0.0000 0.0000
# 5 0.0000 0.0000 0.0000 0.0000-1916.9955 0.0000
# 6 0.0000 0.0000 0.0000 0.0000 0.0000 36.4393
#
#
#
# Elastic Compliance Matrix: (Units=1/GPa)
#
#
# Indices 1 2 3 4 5 6 
#
# 1 0.016460 -0.007372 0.003471 0.000000 0.000000 0.000000
# 2 -0.007372 0.018094 -0.008615 0.000000 0.000000 0.000000
# 3 0.003471 -0.008615 0.014374 0.000000 0.000000 0.000000
# 4 0.000000 0.000000 0.000000 0.046920 0.000000 0.000000
# 5 0.000000 0.000000 0.000000 0.000000 -0.000522 0.000000
# 6 0.000000 0.000000 0.000000 0.000000 0.000000 0.027443
#
#
# Mechanical properties :
#
#
# Convention : Reuss Voigt Hill
#
# Bulk Modulus (GPa) = 41.84566 46.19429 44.01997
# Shear Modulus (GPa) = 32.09955 -359.56273 -163.73159
#
# Velocity S-wave (km/s) = 4.04056 -13.52320 -9.12553
# Velocity P-wave (km/s) = 6.56134 14.84389 9.41514
#
# Compressibility (1/GPa) = 0.02389734
#
# Stress axis : x y z
#
# Youngs Moduli (GPa) = 60.75305 55.26825 69.56859
#
# Poissons Ratio (x) = 0.40742 -0.24149
# Poissons Ratio (y) = 0.44785 0.59933
# Poissons Ratio (z) = -0.21089 0.47613
#
# Static dielectric constant tensor:
#      x y z
#    x 3.929240 0.000000 0.000000 
#    y 0.000000 36.454600 0.000000 
#    z 0.000000 0.000000 3.636630 
# 
# 
# High freq. dielectric constant tensor:
#      x y z
#    x 1.789130 0.000000 0.000000 
#    y 0.000000 1.763080 0.000000 
#    z 0.000000 0.000000 1.766220 
# 
# From -- ./inp_files/26891.got.cif
#   From: 2010.03.12/outbox.cif.g09.slc.cpg/sg20_14_cif.got.tgz:26891.got - 2010.04.14 01:38:04.
