data_PCOD8159285
_publ_section_title
;
Structure prediction by ZEFSAII (Michael W. Deem and Ramdas Pophale) SiO2 
 PCOD8159285
Probable space group: C 2 2 21
;
_chemical_formula_sum "Si O2"
_cell_formula_units_Z 40
_cell_length_a 30.300969
_cell_length_b 12.687876
_cell_length_c 4.939122
_cell_angle_alpha 90.000000
_cell_angle_beta 90.000000
_cell_angle_gamma 90.000000
_cell_volume 1898.869839
_symmetry_space_group_name_H-M "C 2 2 21"
_symmetry_group_IT_number 20
_symmetry_cell_setting 'orthorhombic'
loop_
_space_group_symop_operation_xyz
x,y,z
-x,-y,1/2+z
x,-y,-z
-x,y,1/2-z
1/2+x,1/2+y,z
1/2-x,1/2-y,1/2+z
1/2+x,1/2-y,-z
1/2-x,1/2+y,1/2-z
loop_
_atom_site_type_symbol
_atom_site_label
_atom_site_fract_x
_atom_site_fract_y
_atom_site_fract_z
Si Si1 0.160551 0.382871 0.517191
Si Si2 0.837523 0.069732 0.251213
Si Si3 0.250520 0.682510 0.286574
Si Si4 0.377313 0.772797 0.476133
Si Si5 0.469401 0.120631 0.502313
O O1 0.139619 0.500000 0.500000
O O2 0.211620 0.393082 0.605199
O O3 0.155164 0.339572 0.215520
O O4 0.136025 0.300111 0.714991
O O5 0.792281 0.124375 0.150240
O O6 0.873225 0.151475 0.377234
O O7 0.822137 0.000000 0.500000
O O8 0.856813 0.000000 0.000000
O O9 0.269237 0.745971 0.546006
O O10 0.428340 0.802401 0.458869
O O11 0.500000 0.148825 0.250000
O O12 0.452241 0.000000 0.500000
O O13 0.500000 0.143522 0.750000
#
# Coordination Sequence:
#
# PCOD8159285 Si02
#       5
#     8   8   8   8   8
#     4  12  23  38  62  93 127 170 209 268 330 385
#     4  12  25  42  64  88 125 178 227 271 321 378
#     4  12  22  41  60  86 128 172 219 273 322 378
#     4  12  24  42  64  94 131 163 219 270 321 396
#     4  10  21  39  65  97 130 163 196 248 331 415
#
# _framework density 21.065162000000001
#
# number of rings (size 3 to 8) (size 9 to 14) (size 15 to 20)
#    0.000    0.400    4.000    6.000    0.000    3.200 
#    0.000    0.000    0.000    2.400    0.000    0.000 
#    0.000    0.000    0.000    0.000    0.000    0.000 
#
# Total GULP energy -247943.738687 kJ/mol
# GULP energy per Si atom -12397.186934 kJ/mol
# Density = 2.101722 g / cm^3
# Si number density = 21.065162 Si / 1000 Ang^3
#
#
#
# Elastic Constant Matrix: (Units=GPa)
#
#
# Indices 1 2 3 4 5 6 
#
# 1 118.5593 38.6108 22.4808 0.0000 0.0000 0.0000
# 2 38.6108 100.3929 32.4591 0.0000 0.0000 0.0000
# 3 22.4808 32.4591 118.2240 0.0000 0.0000 0.0000
# 4 0.0000 0.0000 0.0000 41.4247 0.0000 0.0000
# 5 0.0000 0.0000 0.0000 0.0000 29.6970 0.0000
# 6 0.0000 0.0000 0.0000 0.0000 0.0000 23.0313
#
#
#
# Elastic Compliance Matrix: (Units=1/GPa)
#
#
# Indices 1 2 3 4 5 6 
#
# 1 0.009729 -0.003450 -0.000903 0.000000 0.000000 0.000000
# 2 -0.003450 0.012155 -0.002681 0.000000 0.000000 0.000000
# 3 -0.000903 -0.002681 0.009366 0.000000 0.000000 0.000000
# 4 0.000000 0.000000 0.000000 0.024140 0.000000 0.000000
# 5 0.000000 0.000000 0.000000 0.000000 0.033673 0.000000
# 6 0.000000 0.000000 0.000000 0.000000 0.000000 0.043419
#
#
# Mechanical properties :
#
#
# Convention : Reuss Voigt Hill
#
# Bulk Modulus (GPa) = 58.19915 58.25309 58.22612
# Shear Modulus (GPa) = 32.83462 35.07230 33.95346
#
# Velocity S-wave (km/s) = 3.95234 4.08480 4.01912
# Velocity P-wave (km/s) = 6.96535 7.06833 7.01703
#
# Compressibility (1/GPa) = 0.01718238
#
# Stress axis : x y z
#
# Youngs Moduli (GPa) = 102.78195 82.27368 106.76557
#
# Poissons Ratio (x) = 0.28384 0.09640
# Poissons Ratio (y) = 0.35459 0.28625
# Poissons Ratio (z) = 0.09280 0.22058
#
# Static dielectric constant tensor:
#      x y z
#    x 3.518570 0.000000 0.000000 
#    y 0.000000 3.966000 0.000000 
#    z 0.000000 0.000000 4.002740 
# 
# 
# High freq. dielectric constant tensor:
#      x y z
#    x 1.803880 0.000000 0.000000 
#    y 0.000000 1.812350 0.000000 
#    z 0.000000 0.000000 1.851200 
# 
# From -- ./inp_files/4580.got.cif
#   From: 2010.03.12/outbox.cif.g09.slc.cpg/sg20_3_cif.got.tgz:4580.got - 2010.04.14 01:38:04.
