data_PCOD8159026
_publ_section_title
;
Structure prediction by ZEFSAII (Michael W. Deem and Ramdas Pophale) SiO2 
 PCOD8159026
Probable space group: C 2 2 21
;
_chemical_formula_sum "Si O2"
_cell_formula_units_Z 48
_cell_length_a 9.217988
_cell_length_b 17.375015
_cell_length_c 14.523936
_cell_angle_alpha 90.000000
_cell_angle_beta 90.000000
_cell_angle_gamma 90.000000
_cell_volume 2326.192511
_symmetry_space_group_name_H-M "C 2 2 21"
_symmetry_group_IT_number 20
_symmetry_cell_setting 'orthorhombic'
loop_
_space_group_symop_operation_xyz
x,y,z
-x,-y,1/2+z
x,-y,-z
-x,y,1/2-z
1/2+x,1/2+y,z
1/2-x,1/2-y,1/2+z
1/2+x,1/2-y,-z
1/2-x,1/2+y,1/2-z
loop_
_atom_site_type_symbol
_atom_site_label
_atom_site_fract_x
_atom_site_fract_y
_atom_site_fract_z
Si Si1 0.000000 0.243371 0.750000
Si Si2 0.548200 0.823200 0.933675
Si Si3 0.000000 0.570694 0.750000
Si Si4 0.088493 0.864431 0.836351
Si Si5 0.140004 0.536852 0.405248
Si Si6 0.696318 0.794089 0.242624
Si Si7 0.137369 0.779117 0.563007
O O1 0.058346 0.300135 0.827649
O O2 0.134414 0.189186 0.723395
O O3 0.494739 0.910536 0.936103
O O4 0.710061 0.813588 0.974549
O O5 0.428949 0.770764 0.981927
O O6 0.922646 0.521710 0.829589
O O7 0.881049 0.628667 0.706190
O O8 0.222183 0.918532 0.862956
O O9 0.148384 0.779518 0.815524
O O10 0.000000 0.900185 0.750000
O O11 0.970191 0.851312 0.917109
O O12 0.197549 0.500000 0.500000
O O13 0.659831 0.777449 0.349710
#
# Coordination Sequence:
#
# PCOD8159026 Si02
#       7
#     4   8   4   8   8   8   8
#     4  10  21  36  68  95 124 168 236 272 327 388
#     4  11  22  39  64 103 131 177 223 288 335 417
#     4  12  25  42  68 101 148 184 224 292 363 422
#     4  10  21  43  75  95 129 183 233 287 344 422
#     4  12  27  42  68 101 151 185 228 287 375 423
#     4  10  20  42  66  97 127 173 235 278 335 403
#     4  10  21  37  72  97 126 171 246 284 327 394
#
# _framework density 20.634578000000001
#
# number of rings (size 3 to 8) (size 9 to 14) (size 15 to 20)
#    0.000    1.333    4.167    2.500    4.667    1.333 
#    1.500    0.833    3.667    0.000    0.000    0.000 
#    0.000    0.000    0.000    0.000    0.000    0.000 
#
# Total GULP energy -297478.910339 kJ/mol
# GULP energy per Si atom -12394.954597 kJ/mol
# Density = 2.058761 g / cm^3
# Si number density = 20.634578 Si / 1000 Ang^3
#
#
#
# Elastic Constant Matrix: (Units=GPa)
#
#
# Indices 1 2 3 4 5 6 
#
# 1 186.4071 72.1380 31.6723 0.0000 0.0000 0.0000
# 2 72.1380 117.8825 43.5202 0.0000 0.0000 0.0000
# 3 31.6723 43.5202 73.4349 0.0000 0.0000 0.0000
# 4 0.0000 0.0000 0.0000 27.6888 0.0000 0.0000
# 5 0.0000 0.0000 0.0000 0.0000 32.9990 0.0000
# 6 0.0000 0.0000 0.0000 0.0000 0.0000 40.1207
#
#
#
# Elastic Compliance Matrix: (Units=1/GPa)
#
#
# Indices 1 2 3 4 5 6 
#
# 1 0.007051 -0.004086 -0.000619 0.000000 0.000000 0.000000
# 2 -0.004086 0.013227 -0.006076 0.000000 0.000000 0.000000
# 3 -0.000619 -0.006076 0.017486 0.000000 0.000000 0.000000
# 4 0.000000 0.000000 0.000000 0.036116 0.000000 0.000000
# 5 0.000000 0.000000 0.000000 0.000000 0.030304 0.000000
# 6 0.000000 0.000000 0.000000 0.000000 0.000000 0.024925
#
#
# Mechanical properties :
#
#
# Convention : Reuss Voigt Hill
#
# Bulk Modulus (GPa) = 61.72977 74.70950 68.21964
# Shear Modulus (GPa) = 32.03642 35.52131 33.77886
#
# Velocity S-wave (km/s) = 3.94453 4.15353 4.05038
# Velocity P-wave (km/s) = 7.12225 7.69981 7.41665
#
# Compressibility (1/GPa) = 0.01619964
#
# Stress axis : x y z
#
# Youngs Moduli (GPa) = 141.81963 75.60360 57.18940
#
# Poissons Ratio (x) = 0.30894 0.03543
# Poissons Ratio (y) = 0.57951 0.34750
# Poissons Ratio (z) = 0.08786 0.45939
#
# Static dielectric constant tensor:
#      x y z
#    x 4.438270 0.000000 0.000000 
#    y 0.000000 3.539990 0.000000 
#    z 0.000000 0.000000 3.740330 
# 
# 
# High freq. dielectric constant tensor:
#      x y z
#    x 1.834300 0.000000 0.000000 
#    y 0.000000 1.774160 0.000000 
#    z 0.000000 0.000000 1.806860 
# 
# From -- ./inp_files/18956.got.cif
#   From: 2010.03.12/outbox.cif.g09.slc.cpg/sg20_10_cif.got.tgz:18956.got - 2010.04.14 01:38:04.
