data_PCOD8159569
_publ_section_title
;
Structure prediction by ZEFSAII (Michael W. Deem and Ramdas Pophale) SiO2 
 PCOD8159569
Probable space group: C 2 2 21
;
_chemical_formula_sum "Si O2"
_cell_formula_units_Z 40
_cell_length_a 5.093595
_cell_length_b 19.409873
_cell_length_c 19.089933
_cell_angle_alpha 90.000000
_cell_angle_beta 90.000000
_cell_angle_gamma 90.000000
_cell_volume 1887.345928
_symmetry_space_group_name_H-M "C 2 2 21"
_symmetry_group_IT_number 20
_symmetry_cell_setting 'orthorhombic'
loop_
_space_group_symop_operation_xyz
x,y,z
-x,-y,1/2+z
x,-y,-z
-x,y,1/2-z
1/2+x,1/2+y,z
1/2-x,1/2-y,1/2+z
1/2+x,1/2-y,-z
1/2-x,1/2+y,1/2-z
loop_
_atom_site_type_symbol
_atom_site_label
_atom_site_fract_x
_atom_site_fract_y
_atom_site_fract_z
Si Si1 0.000000 0.013056 0.750000
Si Si2 0.906089 0.403598 0.461577
Si Si3 0.685830 0.245372 0.955784
Si Si4 0.681241 0.117846 0.394772
Si Si5 0.413116 0.527997 0.600272
Si Si6 0.000000 0.421072 0.750000
O O1 0.959965 0.057847 0.679024
O O2 0.747720 0.967821 0.765970
O O3 0.885538 0.329189 0.422776
O O4 0.639106 0.447229 0.452621
O O5 0.964548 0.392131 0.543862
O O6 0.135704 0.446176 0.426574
O O7 0.665509 0.309515 0.902579
O O8 0.484353 0.262209 0.018023
O O9 0.540571 0.124273 0.319598
O O10 0.892086 0.055264 0.396093
#
# Coordination Sequence:
#
# PCOD8159569 Si02
#       6
#     4   8   8   8   8   4
#     4  10  22  40  57  88 127 158 194 248 316 348
#     4  11  23  38  61  94 122 153 199 252 303 351
#     4  10  22  39  59  85 123 157 188 244 306 354
#     4  10  23  40  63  90 121 159 206 246 297 356
#     4  11  23  39  63  89 118 159 202 251 294 356
#     4  10  22  38  61  88 119 160 200 250 292 352
#
# _framework density 21.193781999999999
#
# number of rings (size 3 to 8) (size 9 to 14) (size 15 to 20)
#    0.000    1.600    0.000    5.400    0.000   19.200 
#    0.000    1.000    0.000   14.400    0.000    0.000 
#    0.000    0.000    0.000    0.000    0.000    0.000 
#
# Total GULP energy -247891.329077 kJ/mol
# GULP energy per Si atom -12394.566454 kJ/mol
# Density = 2.114554 g / cm^3
# Si number density = 21.193782 Si / 1000 Ang^3
#
#
#
# Elastic Constant Matrix: (Units=GPa)
#
#
# Indices 1 2 3 4 5 6 
#
# 1 89.8100 37.2013 3.5220 0.0000 0.0000 0.0000
# 2 37.2013 128.4276 40.4943 0.0000 0.0000 0.0000
# 3 3.5220 40.4943 122.5657 0.0000 0.0000 0.0000
# 4 0.0000 0.0000 0.0000 18.4404 0.0000 0.0000
# 5 0.0000 0.0000 0.0000 0.0000 15.4017 0.0000
# 6 0.0000 0.0000 0.0000 0.0000 0.0000 16.5178
#
#
#
# Elastic Compliance Matrix: (Units=1/GPa)
#
#
# Indices 1 2 3 4 5 6 
#
# 1 0.012752 -0.003994 0.000953 0.000000 0.000000 0.000000
# 2 -0.003994 0.009943 -0.003170 0.000000 0.000000 0.000000
# 3 0.000953 -0.003170 0.009179 0.000000 0.000000 0.000000
# 4 0.000000 0.000000 0.000000 0.054229 0.000000 0.000000
# 5 0.000000 0.000000 0.000000 0.000000 0.064928 0.000000
# 6 0.000000 0.000000 0.000000 0.000000 0.000000 0.060541
#
#
# Mechanical properties :
#
#
# Convention : Reuss Voigt Hill
#
# Bulk Modulus (GPa) = 51.41112 55.91539 53.66326
# Shear Modulus (GPa) = 21.69407 27.37769 24.53588
#
# Velocity S-wave (km/s) = 3.20285 3.59803 3.40618
# Velocity P-wave (km/s) = 6.16344 6.61070 6.39098
#
# Compressibility (1/GPa) = 0.01945104
#
# Stress axis : x y z
#
# Youngs Moduli (GPa) = 78.42036 100.57173 108.94511
#
# Poissons Ratio (x) = 0.40172 -0.10385
# Poissons Ratio (y) = 0.31324 0.34539
# Poissons Ratio (z) = -0.07475 0.31885
#
# Static dielectric constant tensor:
#      x y z
#    x 3.934260 0.000000 0.000000 
#    y 0.000000 4.104770 0.000000 
#    z 0.000000 0.000000 4.091720 
# 
# 
# High freq. dielectric constant tensor:
#      x y z
#    x 1.847610 0.000000 0.000000 
#    y 0.000000 1.819730 0.000000 
#    z 0.000000 0.000000 1.817270 
# 
# From -- ./inp_files/22753.got.cif
#   From: 2010.03.12/outbox.cif.g09.slc.cpg/sg20_12_cif.got.tgz:22753.got - 2010.04.14 01:38:04.
