data_PCOD8159999
_publ_section_title
;
Structure prediction by ZEFSAII (Michael W. Deem and Ramdas Pophale) SiO2 
 PCOD8159999
Probable space group: C 2 2 21
;
_chemical_formula_sum "Si O2"
_cell_formula_units_Z 36
_cell_length_a 4.955365
_cell_length_b 13.503907
_cell_length_c 22.050436
_cell_angle_alpha 90.000000
_cell_angle_beta 90.000000
_cell_angle_gamma 90.000000
_cell_volume 1475.544354
_symmetry_space_group_name_H-M "C 2 2 21"
_symmetry_group_IT_number 20
_symmetry_cell_setting 'orthorhombic'
loop_
_space_group_symop_operation_xyz
x,y,z
-x,-y,1/2+z
x,-y,-z
-x,y,1/2-z
1/2+x,1/2+y,z
1/2-x,1/2-y,1/2+z
1/2+x,1/2-y,-z
1/2-x,1/2+y,1/2-z
loop_
_atom_site_type_symbol
_atom_site_label
_atom_site_fract_x
_atom_site_fract_y
_atom_site_fract_z
Si Si1 0.602847 0.500000 0.000000
Si Si2 0.759209 0.943715 0.708349
Si Si3 0.447741 0.595921 0.616266
Si Si4 0.353450 0.193518 0.981719
Si Si5 0.756397 0.720149 0.707921
O O1 0.426398 0.532832 0.940890
O O2 0.798943 0.591679 0.018040
O O3 0.500000 0.950855 0.750000
O O4 0.813924 0.831718 0.684046
O O5 0.000000 0.980829 0.750000
O O6 0.755392 0.021463 0.653570
O O7 0.243607 0.680092 0.588855
O O8 0.695041 0.646110 0.652204
O O9 0.668223 0.221072 0.986772
O O10 0.500000 0.724224 0.750000
O O11 0.000000 0.679301 0.750000
#
# Coordination Sequence:
#
# PCOD8159999 Si02
#       5
#     4   8   8   8   8
#     4   8  24  46  68 110 132 190 232 282 354 416
#     4  10  23  44  68 101 136 179 233 286 342 407
#     4  10  23  43  74 101 141 186 229 290 346 423
#     4  10  24  45  67 101 140 180 230 279 342 418
#     4  10  23  43  67  99 135 181 232 285 349 407
#
# _framework density 24.397777000000001
#
# number of rings (size 3 to 8) (size 9 to 14) (size 15 to 20)
#    1.333    0.889    0.000    0.667    3.111    8.000 
#    8.000    0.000    0.000    0.000    0.000    0.000 
#    0.000    0.000    0.000    0.000    0.000    0.000 
#
# Total GULP energy -223008.819785 kJ/mol
# GULP energy per Si atom -12389.378877 kJ/mol
# Density = 2.434225 g / cm^3
# Si number density = 24.397777 Si / 1000 Ang^3
#
#
#
# Elastic Constant Matrix: (Units=GPa)
#
#
# Indices 1 2 3 4 5 6 
#
# 1 81.5747 -0.1512 21.9044 0.0000 0.0000 0.0000
# 2 -0.1512 114.9239 56.7922 0.0000 0.0000 0.0000
# 3 21.9044 56.7922 126.4097 0.0000 0.0000 0.0000
# 4 0.0000 0.0000 0.0000 67.0716 0.0000 0.0000
# 5 0.0000 0.0000 0.0000 0.0000 9.5885 0.0000
# 6 0.0000 0.0000 0.0000 0.0000 0.0000 20.6911
#
#
#
# Elastic Compliance Matrix: (Units=1/GPa)
#
#
# Indices 1 2 3 4 5 6 
#
# 1 0.013044 0.001458 -0.002915 0.000000 0.000000 0.000000
# 2 0.001458 0.011347 -0.005351 0.000000 0.000000 0.000000
# 3 -0.002915 -0.005351 0.010820 0.000000 0.000000 0.000000
# 4 0.000000 0.000000 0.000000 0.014909 0.000000 0.000000
# 5 0.000000 0.000000 0.000000 0.000000 0.104292 0.000000
# 6 0.000000 0.000000 0.000000 0.000000 0.000000 0.048330
#
#
# Mechanical properties :
#
#
# Convention : Reuss Voigt Hill
#
# Bulk Modulus (GPa) = 46.30652 53.33324 49.81988
# Shear Modulus (GPa) = 22.36559 35.76111 29.06335
#
# Velocity S-wave (km/s) = 3.03100 3.83267 3.45516
# Velocity P-wave (km/s) = 5.59198 6.44152 6.03173
#
# Compressibility (1/GPa) = 0.02159523
#
# Stress axis : x y z
#
# Youngs Moduli (GPa) = 76.66238 88.12517 92.42264
#
# Poissons Ratio (x) = -0.12847 0.26944
# Poissons Ratio (y) = -0.11176 0.49453
# Poissons Ratio (z) = 0.22349 0.47153
#
# Static dielectric constant tensor:
#      x y z
#    x 3.798150 0.000000 0.000000 
#    y 0.000000 4.729500 0.000000 
#    z 0.000000 0.000000 4.207340 
# 
# 
# High freq. dielectric constant tensor:
#      x y z
#    x 1.946510 0.000000 0.000000 
#    y 0.000000 1.985790 0.000000 
#    z 0.000000 0.000000 1.959110 
# 
# From -- ./inp_files/28229.got.cif
#   From: 2010.03.12/outbox.cif.g09.slc.cpg/sg20_15_cif.got.tgz:28229.got - 2010.04.14 01:38:04.
