data_PCOD8159923
_publ_section_title
;
Structure prediction by ZEFSAII (Michael W. Deem and Ramdas Pophale) SiO2 
 PCOD8159923
Probable space group: C 2 2 21
;
_chemical_formula_sum "Si O2"
_cell_formula_units_Z 56
_cell_length_a 16.764253
_cell_length_b 7.683490
_cell_length_c 22.059722
_cell_angle_alpha 90.000000
_cell_angle_beta 90.000000
_cell_angle_gamma 90.000000
_cell_volume 2841.468016
_symmetry_space_group_name_H-M "C 2 2 21"
_symmetry_group_IT_number 20
_symmetry_cell_setting 'orthorhombic'
loop_
_space_group_symop_operation_xyz
x,y,z
-x,-y,1/2+z
x,-y,-z
-x,y,1/2-z
1/2+x,1/2+y,z
1/2-x,1/2-y,1/2+z
1/2+x,1/2-y,-z
1/2-x,1/2+y,1/2-z
loop_
_atom_site_type_symbol
_atom_site_label
_atom_site_fract_x
_atom_site_fract_y
_atom_site_fract_z
Si Si1 0.448990 0.322101 0.463445
Si Si2 0.139030 0.328098 0.401384
Si Si3 0.045305 0.500000 0.500000
Si Si4 0.062195 0.026818 0.633712
Si Si5 0.772031 0.945717 0.170460
Si Si6 0.662898 0.786677 0.270425
Si Si7 0.500000 0.362056 0.750000
Si Si8 0.212004 0.626238 0.057710
O O1 0.434331 0.500000 0.500000
O O2 0.491382 0.172397 0.502408
O O3 0.505982 0.356708 0.407157
O O4 0.365777 0.245538 0.440851
O O5 0.099341 0.484476 0.439464
O O6 0.159768 0.401506 0.333080
O O7 0.215520 0.262520 0.439231
O O8 0.080976 0.160651 0.396392
O O9 0.145382 0.136704 0.643862
O O10 0.011926 0.991838 0.694141
O O11 0.724243 0.834614 0.218414
O O12 0.806375 0.103949 0.207730
O O13 0.712289 0.001871 0.116818
O O14 0.575521 0.766568 0.240905
O O15 0.218025 0.500000 0.000000
#
# Coordination Sequence:
#
# PCOD8159923 Si02
#       8
#     8   8   4   8   8   8   4   8
#     4  12  25  41  62  92 130 161 213 268 315 372
#     4   9  22  40  62  88 128 163 214 253 315 379
#     4  12  24  40  64  94 118 174 210 260 318 382
#     4   9  20  40  61  88 120 171 197 260 315 361
#     4   9  21  38  63  85 129 163 208 259 303 382
#     4   9  19  39  59  91 122 165 203 257 308 369
#     4   8  18  34  62  88 122 158 204 248 312 362
#     4  10  23  41  59  94 128 164 216 260 317 376
#
# _framework density 19.708123000000001
#
# number of rings (size 3 to 8) (size 9 to 14) (size 15 to 20)
#    0.000    2.857    2.143    0.000    5.000    9.143 
#    0.000    0.000    0.000    0.000    0.000    0.000 
#    0.000    0.000    0.000    0.000    0.000    0.000 
#
# Total GULP energy -346866.570719 kJ/mol
# GULP energy per Si atom -12388.091811 kJ/mol
# Density = 1.966327 g / cm^3
# Si number density = 19.708123 Si / 1000 Ang^3
#
#
#
# Elastic Constant Matrix: (Units=GPa)
#
#
# Indices 1 2 3 4 5 6 
#
# 1 139.5931 44.3061 85.0008 0.0000 0.0000 0.0000
# 2 44.3061 41.8430 39.5843 0.0000 0.0000 0.0000
# 3 85.0008 39.5843 96.0249 0.0000 0.0000 0.0000
# 4 0.0000 0.0000 0.0000 3.2457 0.0000 0.0000
# 5 0.0000 0.0000 0.0000 0.0000 43.4746 0.0000
# 6 0.0000 0.0000 0.0000 0.0000 0.0000 34.5846
#
#
#
# Elastic Compliance Matrix: (Units=1/GPa)
#
#
# Indices 1 2 3 4 5 6 
#
# 1 0.016397 -0.005953 -0.012061 0.000000 0.000000 0.000000
# 2 -0.005953 0.041338 -0.011772 0.000000 0.000000 0.000000
# 3 -0.012061 -0.011772 0.025943 0.000000 0.000000 0.000000
# 4 0.000000 0.000000 0.000000 0.308104 0.000000 0.000000
# 5 0.000000 0.000000 0.000000 0.000000 0.023002 0.000000
# 6 0.000000 0.000000 0.000000 0.000000 0.000000 0.028915
#
#
# Mechanical properties :
#
#
# Convention : Reuss Voigt Hill
#
# Bulk Modulus (GPa) = 41.48013 68.36036 54.92024
# Shear Modulus (GPa) = 9.77893 23.49896 16.63895
#
# Velocity S-wave (km/s) = 2.22994 3.45679 2.90878
# Velocity P-wave (km/s) = 5.26527 7.11999 6.26168
#
# Compressibility (1/GPa) = 0.02410793
#
# Stress axis : x y z
#
# Youngs Moduli (GPa) = 60.98695 24.19088 38.54662
#
# Poissons Ratio (x) = 0.14400 0.46490
# Poissons Ratio (y) = 0.36303 0.45375
# Poissons Ratio (z) = 0.73555 0.28476
#
# Static dielectric constant tensor:
#      x y z
#    x 4.946540 0.000000 0.000000 
#    y 0.000000 3.151070 0.000000 
#    z 0.000000 0.000000 2.319910 
# 
# 
# High freq. dielectric constant tensor:
#      x y z
#    x 1.781240 0.000000 0.000000 
#    y 0.000000 1.739470 0.000000 
#    z 0.000000 0.000000 1.778410 
# 
# From -- ./inp_files/27746.got.cif
#   From: 2010.03.12/outbox.cif.g09.slc.cpg/sg20_14_cif.got.tgz:27746.got - 2010.04.14 01:38:04.
