data_PCOD8159107
_publ_section_title
;
Structure prediction by ZEFSAII (Michael W. Deem and Ramdas Pophale) SiO2 
 PCOD8159107
Probable space group: C 2 2 21
;
_chemical_formula_sum "Si O2"
_cell_formula_units_Z 64
_cell_length_a 28.060582
_cell_length_b 9.188687
_cell_length_c 11.147743
_cell_angle_alpha 90.000000
_cell_angle_beta 90.000000
_cell_angle_gamma 90.000000
_cell_volume 2874.332996
_symmetry_space_group_name_H-M "C 2 2 21"
_symmetry_group_IT_number 20
_symmetry_cell_setting 'orthorhombic'
loop_
_space_group_symop_operation_xyz
x,y,z
-x,-y,1/2+z
x,-y,-z
-x,y,1/2-z
1/2+x,1/2+y,z
1/2-x,1/2-y,1/2+z
1/2+x,1/2-y,-z
1/2-x,1/2+y,1/2-z
loop_
_atom_site_type_symbol
_atom_site_label
_atom_site_fract_x
_atom_site_fract_y
_atom_site_fract_z
Si Si1 0.117293 0.019229 0.251206
Si Si2 0.394082 0.766330 0.620501
Si Si3 0.354068 0.029609 0.757451
Si Si4 0.674345 0.282905 0.918823
Si Si5 0.268697 0.837633 0.818464
Si Si6 0.935303 0.716376 0.820152
Si Si7 0.472066 0.153763 0.560586
Si Si8 0.211696 0.986927 0.364953
O O1 0.140192 0.092255 0.133356
O O2 0.072986 0.112368 0.299667
O O3 0.098501 0.859218 0.218666
O O4 0.155761 0.021363 0.357843
O O5 0.389920 0.920707 0.687244
O O6 0.343405 0.749371 0.552665
O O7 0.437857 0.751915 0.526016
O O8 0.314953 0.941168 0.836750
O O9 0.327801 0.135742 0.662183
O O10 0.386328 0.127475 0.848542
O O11 0.729049 0.341908 0.925376
O O12 0.283764 0.670611 0.802990
O O13 0.241850 0.888372 0.699305
O O14 0.952268 0.646422 0.694743
O O15 0.973197 0.708863 0.928703
O O16 0.474168 0.000000 0.500000
O O17 0.229645 0.000000 0.500000
#
# Coordination Sequence:
#
# PCOD8159107 Si02
#       8
#     8   8   8   8   8   8   8   8
#     4  10  22  41  65  92 137 179 219 286 353 417
#     4  12  20  37  74 102 124 171 243 284 344 413
#     4  11  20  38  65  94 136 181 228 282 339 406
#     4  10  21  35  60  97 137 175 223 291 336 390
#     4  11  23  40  65 100 141 191 237 283 336 417
#     4  10  23  42  69  93 141 171 218 296 354 418
#     4  11  21  41  72 102 123 172 229 289 357 414
#     4  11  25  44  66  97 147 191 236 291 352 405
#
# _framework density 22.266036
#
# number of rings (size 3 to 8) (size 9 to 14) (size 15 to 20)
#    0.000    1.250    6.250    0.750    1.750    0.000 
#    2.250    0.625   13.750    0.000    0.000    0.000 
#    0.000    0.000    0.000    0.000    0.000    0.000 
#
# Total GULP energy -396617.061202 kJ/mol
# GULP energy per Si atom -12394.283163 kJ/mol
# Density = 2.221536 g / cm^3
# Si number density = 22.266036 Si / 1000 Ang^3
#
#
#
# Elastic Constant Matrix: (Units=GPa)
#
#
# Indices 1 2 3 4 5 6 
#
# 1 139.2728 44.0060 40.6002 0.0000 0.0000 0.0000
# 2 44.0060 117.4625 32.9250 0.0000 0.0000 0.0000
# 3 40.6002 32.9250 53.2602 0.0000 0.0000 0.0000
# 4 0.0000 0.0000 0.0000 13.0084 0.0000 0.0000
# 5 0.0000 0.0000 0.0000 0.0000 25.9962 0.0000
# 6 0.0000 0.0000 0.0000 0.0000 0.0000 13.8028
#
#
#
# Elastic Compliance Matrix: (Units=1/GPa)
#
#
# Indices 1 2 3 4 5 6 
#
# 1 0.009556 -0.001861 -0.006135 0.000000 0.000000 0.000000
# 2 -0.001861 0.010660 -0.005172 0.000000 0.000000 0.000000
# 3 -0.006135 -0.005172 0.026649 0.000000 0.000000 0.000000
# 4 0.000000 0.000000 0.000000 0.076873 0.000000 0.000000
# 5 0.000000 0.000000 0.000000 0.000000 0.038467 0.000000
# 6 0.000000 0.000000 0.000000 0.000000 0.000000 0.072449
#
#
# Mechanical properties :
#
#
# Convention : Reuss Voigt Hill
#
# Bulk Modulus (GPa) = 48.70454 60.56199 54.63326
# Shear Modulus (GPa) = 18.66835 23.39243 21.03039
#
# Velocity S-wave (km/s) = 2.89869 3.24479 3.07661
# Velocity P-wave (km/s) = 5.75540 6.42624 6.10005
#
# Compressibility (1/GPa) = 0.02053197
#
# Stress axis : x y z
#
# Youngs Moduli (GPa) = 104.64195 93.80837 37.52459
#
# Poissons Ratio (x) = 0.17454 0.23020
# Poissons Ratio (y) = 0.19470 0.19406
# Poissons Ratio (z) = 0.64194 0.48514
#
# Static dielectric constant tensor:
#      x y z
#    x 4.491760 0.000000 0.000000 
#    y 0.000000 4.131130 0.000000 
#    z 0.000000 0.000000 3.600030 
# 
# 
# High freq. dielectric constant tensor:
#      x y z
#    x 1.881020 0.000000 0.000000 
#    y 0.000000 1.886500 0.000000 
#    z 0.000000 0.000000 1.833100 
# 
# From -- ./inp_files/17263.got.cif
#   From: 2010.03.12/outbox.cif.g09.slc.cpg/sg20_9_cif.got.tgz:17263.got - 2010.04.14 01:38:04.
