data_PCOD8159863
_publ_section_title
;
Structure prediction by ZEFSAII (Michael W. Deem and Ramdas Pophale) SiO2 
 PCOD8159863
Probable space group: C 2 2 21
;
_chemical_formula_sum "Si O2"
_cell_formula_units_Z 56
_cell_length_a 14.034526
_cell_length_b 12.306415
_cell_length_c 14.626796
_cell_angle_alpha 90.000000
_cell_angle_beta 90.000000
_cell_angle_gamma 90.000000
_cell_volume 2526.262702
_symmetry_space_group_name_H-M "C 2 2 21"
_symmetry_group_IT_number 20
_symmetry_cell_setting 'orthorhombic'
loop_
_space_group_symop_operation_xyz
x,y,z
-x,-y,1/2+z
x,-y,-z
-x,y,1/2-z
1/2+x,1/2+y,z
1/2-x,1/2-y,1/2+z
1/2+x,1/2-y,-z
1/2-x,1/2+y,1/2-z
loop_
_atom_site_type_symbol
_atom_site_label
_atom_site_fract_x
_atom_site_fract_y
_atom_site_fract_z
Si Si1 0.787922 0.455386 0.728447
Si Si2 0.713070 0.432579 0.093859
Si Si3 0.638948 0.432362 0.577848
Si Si4 0.055242 0.527519 0.895818
Si Si5 0.505591 0.399167 0.148999
Si Si6 0.577025 0.838882 0.647525
Si Si7 0.107417 0.688367 0.553224
O O1 0.732004 0.500356 0.814969
O O2 0.707056 0.407749 0.662614
O O3 0.851441 0.543721 0.669620
O O4 0.849718 0.356315 0.769338
O O5 0.608749 0.381545 0.103782
O O6 0.792244 0.338058 0.100165
O O7 0.720636 0.500000 0.000000
O O8 0.698066 0.500000 0.500000
O O9 0.550948 0.513438 0.590861
O O10 0.592445 0.317648 0.547877
O O11 0.007748 0.425347 0.844943
O O12 0.983059 0.631198 0.895618
O O13 0.085596 0.500000 0.000000
O O14 0.500000 0.449145 0.250000
O O15 0.457106 0.282810 0.154334
O O16 0.621353 0.861013 0.547957
#
# Coordination Sequence:
#
# PCOD8159863 Si02
#       7
#     8   8   8   8   8   8   8
#     4  12  24  45  74 109 142 182 245 301 358 427
#     4  12  25  47  73 102 142 193 241 289 359 441
#     4  12  27  49  69 104 150 187 236 303 354 429
#     4  10  22  44  74 105 135 182 238 296 364 417
#     4  12  26  47  71 103 144 192 242 288 368 434
#     4  11  23  45  75 101 143 188 237 298 356 431
#     4  11  24  47  75 103 145 188 238 298 363 430
#
# _framework density 22.167134000000001
#
# number of rings (size 3 to 8) (size 9 to 14) (size 15 to 20)
#    0.000    0.571    5.714    2.571    4.000    0.000 
#    2.571    1.429    0.000    0.000    0.000    0.000 
#    0.000    0.000    0.000    0.000    0.000    0.000 
#
# Total GULP energy -346953.065749 kJ/mol
# GULP energy per Si atom -12391.180920 kJ/mol
# Density = 2.211668 g / cm^3
# Si number density = 22.167134 Si / 1000 Ang^3
#
#
#
# Elastic Constant Matrix: (Units=GPa)
#
#
# Indices 1 2 3 4 5 6 
#
# 1 103.2230 20.0256 31.4155 0.0000 0.0000 0.0000
# 2 20.0256 87.7247 8.5207 0.0000 0.0000 0.0000
# 3 31.4155 8.5207 109.7230 0.0000 0.0000 0.0000
# 4 0.0000 0.0000 0.0000 -814.2916 0.0000 0.0000
# 5 0.0000 0.0000 0.0000 0.0000 40.7264 0.0000
# 6 0.0000 0.0000 0.0000 0.0000 0.0000 -22.7387
#
#
#
# Elastic Compliance Matrix: (Units=1/GPa)
#
#
# Indices 1 2 3 4 5 6 
#
# 1 0.011028 -0.002228 -0.002985 0.000000 0.000000 0.000000
# 2 -0.002228 0.011936 -0.000289 0.000000 0.000000 0.000000
# 3 -0.002985 -0.000289 0.009991 0.000000 0.000000 0.000000
# 4 0.000000 0.000000 0.000000 -0.001228 0.000000 0.000000
# 5 0.000000 0.000000 0.000000 0.000000 0.024554 0.000000
# 6 0.000000 0.000000 0.000000 0.000000 0.000000 -0.043978
#
#
# Mechanical properties :
#
#
# Convention : Reuss Voigt Hill
#
# Bulk Modulus (GPa) = 45.55308 46.73270 46.14289
# Shear Modulus (GPa) = 163.27462 -143.21352 10.03055
#
# Velocity S-wave (km/s) = 8.59163 -8.04652 2.12950
# Velocity P-wave (km/s) = 10.90944 8.07471 5.18724
#
# Compressibility (1/GPa) = 0.02195241
#
# Stress axis : x y z
#
# Youngs Moduli (GPa) = 90.67602 83.78088 100.09164
#
# Poissons Ratio (x) = 0.18663 0.29873
# Poissons Ratio (y) = 0.20199 0.02894
# Poissons Ratio (z) = 0.27063 0.02422
#
# Static dielectric constant tensor:
#      x y z
#    x 4.065060 0.000000 0.000000 
#    y 0.000000 3.694320 0.000000 
#    z 0.000000 0.000000 4.793660 
# 
# 
# High freq. dielectric constant tensor:
#      x y z
#    x 1.872850 0.000000 0.000000 
#    y 0.000000 1.851490 0.000000 
#    z 0.000000 0.000000 1.903360 
# 
# From -- ./inp_files/20749.got.cif
#   From: 2010.03.12/outbox.cif.g09.slc.cpg/sg20_11_cif.got.tgz:20749.got - 2010.04.14 01:38:04.
