data_PCOD8159804
_publ_section_title
;
Structure prediction by ZEFSAII (Michael W. Deem and Ramdas Pophale) SiO2 
 PCOD8159804
Probable space group: C 2 2 21
;
_chemical_formula_sum "Si O2"
_cell_formula_units_Z 64
_cell_length_a 12.059530
_cell_length_b 20.545434
_cell_length_c 12.123335
_cell_angle_alpha 90.000000
_cell_angle_beta 90.000000
_cell_angle_gamma 90.000000
_cell_volume 3003.777833
_symmetry_space_group_name_H-M "C 2 2 21"
_symmetry_group_IT_number 20
_symmetry_cell_setting 'orthorhombic'
loop_
_space_group_symop_operation_xyz
x,y,z
-x,-y,1/2+z
x,-y,-z
-x,y,1/2-z
1/2+x,1/2+y,z
1/2-x,1/2-y,1/2+z
1/2+x,1/2-y,-z
1/2-x,1/2+y,1/2-z
loop_
_atom_site_type_symbol
_atom_site_label
_atom_site_fract_x
_atom_site_fract_y
_atom_site_fract_z
Si Si1 0.319418 0.989323 0.213631
Si Si2 0.493063 0.161434 0.442871
Si Si3 0.425643 0.308030 0.458626
Si Si4 0.766736 0.299017 0.884170
Si Si5 0.378183 0.402826 0.265986
Si Si6 0.471298 0.954496 0.407423
Si Si7 0.170175 0.157241 0.541454
Si Si8 0.205062 0.625036 0.179997
O O1 0.208453 0.951092 0.175127
O O2 0.385601 0.950784 0.308062
O O3 0.409438 0.989753 0.115460
O O4 0.274656 0.059516 0.251304
O O5 0.432099 0.230441 0.454034
O O6 0.621380 0.163622 0.414875
O O7 0.483647 0.120447 0.555424
O O8 0.427129 0.126991 0.342619
O O9 0.334763 0.330066 0.547859
O O10 0.393637 0.336879 0.338306
O O11 0.544074 0.334182 0.498835
O O12 0.775836 0.223812 0.914839
O O13 0.750256 0.313749 0.753443
O O14 0.500000 0.435261 0.250000
O O15 0.326207 0.390074 0.145897
O O16 0.415136 0.000000 0.500000
O O17 0.235723 0.126311 0.439304
#
# Coordination Sequence:
#
# PCOD8159804 Si02
#       8
#     8   8   8   8   8   8   8   8
#     4  11  25  39  66  97 129 177 215 276 338 407
#     4  11  21  39  66  94 129 173 218 272 338 399
#     4  10  22  43  64  96 127 172 225 282 338 396
#     4  11  23  38  65  95 131 169 218 277 337 408
#     4  10  22  44  66  89 126 171 232 273 328 404
#     4  11  22  40  63  95 138 166 215 270 333 408
#     4  10  23  40  65  94 126 175 218 281 337 402
#     4  12  23  41  65  96 134 174 224 272 349 409
#
# _framework density 21.306502999999999
#
# number of rings (size 3 to 8) (size 9 to 14) (size 15 to 20)
#    0.000    1.250    2.500    3.375    1.750    2.500 
#    2.250    0.000    0.000    0.000    0.000    0.000 
#    0.000    0.000    0.000    0.000    0.000    0.000 
#
# Total GULP energy -396701.928344 kJ/mol
# GULP energy per Si atom -12396.935261 kJ/mol
# Density = 2.125801 g / cm^3
# Si number density = 21.306503 Si / 1000 Ang^3
#
#
#
# Elastic Constant Matrix: (Units=GPa)
#
#
# Indices 1 2 3 4 5 6 
#
# 1 112.2762 28.1939 25.0754 0.0000 0.0000 0.0000
# 2 28.1939 93.7565 22.9052 0.0000 0.0000 0.0000
# 3 25.0754 22.9052 89.4588 0.0000 0.0000 0.0000
# 4 0.0000 0.0000 0.0000 38.9089 0.0000 0.0000
# 5 0.0000 0.0000 0.0000 0.0000 35.5191 0.0000
# 6 0.0000 0.0000 0.0000 0.0000 0.0000 27.9983
#
#
#
# Elastic Compliance Matrix: (Units=1/GPa)
#
#
# Indices 1 2 3 4 5 6 
#
# 1 0.010015 -0.002481 -0.002172 0.000000 0.000000 0.000000
# 2 -0.002481 0.011992 -0.002375 0.000000 0.000000 0.000000
# 3 -0.002172 -0.002375 0.012395 0.000000 0.000000 0.000000
# 4 0.000000 0.000000 0.000000 0.025701 0.000000 0.000000
# 5 0.000000 0.000000 0.000000 0.000000 0.028154 0.000000
# 6 0.000000 0.000000 0.000000 0.000000 0.000000 0.035716
#
#
# Mechanical properties :
#
#
# Convention : Reuss Voigt Hill
#
# Bulk Modulus (GPa) = 49.14909 49.76004 49.45456
# Shear Modulus (GPa) = 34.52767 35.10642 34.81705
#
# Velocity S-wave (km/s) = 4.02994 4.06357 4.04679
# Velocity P-wave (km/s) = 6.69116 6.73958 6.71541
#
# Compressibility (1/GPa) = 0.02034626
#
# Stress axis : x y z
#
# Youngs Moduli (GPa) = 99.85355 83.38735 80.67611
#
# Poissons Ratio (x) = 0.20688 0.17522
# Poissons Ratio (y) = 0.24773 0.19161
# Poissons Ratio (z) = 0.21687 0.19805
#
# Static dielectric constant tensor:
#      x y z
#    x 4.020880 0.000000 0.000000 
#    y 0.000000 3.671220 0.000000 
#    z 0.000000 0.000000 3.958110 
# 
# 
# High freq. dielectric constant tensor:
#      x y z
#    x 1.845600 0.000000 0.000000 
#    y 0.000000 1.823270 0.000000 
#    z 0.000000 0.000000 1.832850 
# 
# From -- ./inp_files/14499.got.cif
#   From: 2010.03.12/outbox.cif.g09.slc.cpg/sg20_8_cif.got.tgz:14499.got - 2010.04.14 01:38:04.
