data_PCOD8159670
_publ_section_title
;
Structure prediction by ZEFSAII (Michael W. Deem and Ramdas Pophale) SiO2 
 PCOD8159670
Probable space group: C 2 2 21
;
_chemical_formula_sum "Si O2"
_cell_formula_units_Z 40
_cell_length_a 8.389798
_cell_length_b 26.946177
_cell_length_c 7.681085
_cell_angle_alpha 90.000000
_cell_angle_beta 90.000000
_cell_angle_gamma 90.000000
_cell_volume 1736.485790
_symmetry_space_group_name_H-M "C 2 2 21"
_symmetry_group_IT_number 20
_symmetry_cell_setting 'orthorhombic'
loop_
_space_group_symop_operation_xyz
x,y,z
-x,-y,1/2+z
x,-y,-z
-x,y,1/2-z
1/2+x,1/2+y,z
1/2-x,1/2-y,1/2+z
1/2+x,1/2-y,-z
1/2-x,1/2+y,1/2-z
loop_
_atom_site_type_symbol
_atom_site_label
_atom_site_fract_x
_atom_site_fract_y
_atom_site_fract_z
Si Si1 0.909376 0.196749 0.495120
Si Si2 0.758838 0.218783 0.147941
Si Si3 0.881739 0.644176 0.615887
Si Si4 0.938292 0.555092 0.052737
Si Si5 0.861050 0.904830 0.362491
O O1 0.776925 0.200087 0.343399
O O2 0.829520 0.227485 0.654557
O O3 0.944244 0.138786 0.525650
O O4 0.070897 0.223935 0.443622
O O5 0.649724 0.179550 0.045881
O O6 0.726548 0.626512 0.714843
O O7 0.000000 0.672831 0.750000
O O8 0.967650 0.593678 0.561261
O O9 0.000000 0.563445 0.250000
O O10 0.989284 0.500000 0.000000
O O11 0.749118 0.562399 0.995228
O O12 0.000000 0.934694 0.250000
#
# Coordination Sequence:
#
# PCOD8159670 Si02
#       5
#     8   8   8   8   8
#     4  11  25  39  62  91 136 178 233 281 343 410
#     4  11  24  40  61  95 131 184 231 283 341 413
#     4  10  22  40  67  92 130 172 224 276 343 412
#     4  11  24  46  74 103 134 177 233 287 351 425
#     4  11  22  43  67  98 138 178 222 289 349 412
#
# _framework density 23.035029999999999
#
# number of rings (size 3 to 8) (size 9 to 14) (size 15 to 20)
#    0.000    1.200    2.000    4.200    8.400    0.000 
#    0.000    3.000    0.000    0.000    0.000    0.000 
#    0.000    0.000    0.000    0.000    0.000    0.000 
#
# Total GULP energy -247763.903690 kJ/mol
# GULP energy per Si atom -12388.195185 kJ/mol
# Density = 2.298260 g / cm^3
# Si number density = 23.035030 Si / 1000 Ang^3
#
#
#
# Elastic Constant Matrix: (Units=GPa)
#
#
# Indices 1 2 3 4 5 6 
#
# 1 82.5548 15.6579 25.3473 0.0000 0.0000 0.0000
# 2 15.6579 85.9426 16.7510 0.0000 0.0000 0.0000
# 3 25.3473 16.7510 92.3701 0.0000 0.0000 0.0000
# 4 0.0000 0.0000 0.0000 25.7281 0.0000 0.0000
# 5 0.0000 0.0000 0.0000 0.0000 49.2435 0.0000
# 6 0.0000 0.0000 0.0000 0.0000 0.0000 18.7784
#
#
#
# Elastic Compliance Matrix: (Units=1/GPa)
#
#
# Indices 1 2 3 4 5 6 
#
# 1 0.013491 -0.001800 -0.003376 0.000000 0.000000 0.000000
# 2 -0.001800 0.012302 -0.001737 0.000000 0.000000 0.000000
# 3 -0.003376 -0.001737 0.012067 0.000000 0.000000 0.000000
# 4 0.000000 0.000000 0.000000 0.038868 0.000000 0.000000
# 5 0.000000 0.000000 0.000000 0.000000 0.020307 0.000000
# 6 0.000000 0.000000 0.000000 0.000000 0.000000 0.053253
#
#
# Mechanical properties :
#
#
# Convention : Reuss Voigt Hill
#
# Bulk Modulus (GPa) = 41.60565 41.81999 41.71282
# Shear Modulus (GPa) = 29.04860 32.29077 30.66968
#
# Velocity S-wave (km/s) = 3.55500 3.74814 3.65284
# Velocity P-wave (km/s) = 5.91200 6.07666 5.99490
#
# Compressibility (1/GPa) = 0.02403520
#
# Stress axis : x y z
#
# Youngs Moduli (GPa) = 74.12348 81.28645 82.86837
#
# Poissons Ratio (x) = 0.14631 0.27973
# Poissons Ratio (y) = 0.13342 0.14394
# Poissons Ratio (z) = 0.25021 0.14120
#
# Static dielectric constant tensor:
#      x y z
#    x 4.419220 0.000000 0.000000 
#    y 0.000000 3.919600 0.000000 
#    z 0.000000 0.000000 4.593190 
# 
# 
# High freq. dielectric constant tensor:
#      x y z
#    x 1.921950 0.000000 0.000000 
#    y 0.000000 1.888070 0.000000 
#    z 0.000000 0.000000 1.920290 
# 
# From -- ./inp_files/6284.got.cif
#   From: 2010.03.12/outbox.cif.g09.slc.cpg/sg20_4_cif.got.tgz:6284.got - 2010.04.14 01:38:04.
