data_PCOD8159411
_publ_section_title
;
Structure prediction by ZEFSAII (Michael W. Deem and Ramdas Pophale) SiO2 
 PCOD8159411
Probable space group: C 2 2 21
;
_chemical_formula_sum "Si O2"
_cell_formula_units_Z 40
_cell_length_a 7.786881
_cell_length_b 16.761448
_cell_length_c 15.406826
_cell_angle_alpha 90.000000
_cell_angle_beta 90.000000
_cell_angle_gamma 90.000000
_cell_volume 2010.889700
_symmetry_space_group_name_H-M "C 2 2 21"
_symmetry_group_IT_number 20
_symmetry_cell_setting 'orthorhombic'
loop_
_space_group_symop_operation_xyz
x,y,z
-x,-y,1/2+z
x,-y,-z
-x,y,1/2-z
1/2+x,1/2+y,z
1/2-x,1/2-y,1/2+z
1/2+x,1/2-y,-z
1/2-x,1/2+y,1/2-z
loop_
_atom_site_type_symbol
_atom_site_label
_atom_site_fract_x
_atom_site_fract_y
_atom_site_fract_z
Si Si1 0.000000 0.848367 0.750000
Si Si2 0.484400 0.770593 0.594780
Si Si3 0.629724 0.747715 0.092339
Si Si4 0.000000 0.154107 0.750000
Si Si5 0.345459 0.913382 0.684482
Si Si6 0.652972 0.092048 0.816854
O O1 0.987214 0.792387 0.665526
O O2 0.833620 0.903324 0.764224
O O3 0.446669 0.730290 0.502125
O O4 0.684386 0.792763 0.599408
O O5 0.438143 0.708253 0.669889
O O6 0.368233 0.849833 0.606654
O O7 0.638727 0.843363 0.106420
O O8 0.162605 0.099383 0.729193
O O9 0.500000 0.895979 0.750000
O O10 0.357851 0.002471 0.645056
O O11 0.500000 0.107349 0.750000
#
# Coordination Sequence:
#
# PCOD8159411 Si02
#       6
#     4   8   8   4   8   8
#     4  12  21  40  65  90 118 162 200 250 303 356
#     4  11  22  38  63  90 124 155 209 252 295 357
#     4  11  23  38  63  90 120 163 202 253 299 356
#     4  10  21  42  59  90 118 158 200 252 293 360
#     4  11  21  39  60  89 120 153 197 246 300 359
#     4  10  22  37  62  86 118 157 194 244 303 354
#
# _framework density 19.891694000000001
#
# number of rings (size 3 to 8) (size 9 to 14) (size 15 to 20)
#    0.000    1.200    4.000    3.000    2.800    0.800 
#    0.000    0.000    0.000    3.600    0.000    0.000 
#    0.000    0.000    0.000    0.000    0.000    0.000 
#
# Total GULP energy -248036.574117 kJ/mol
# GULP energy per Si atom -12401.828706 kJ/mol
# Density = 1.984642 g / cm^3
# Si number density = 19.891694 Si / 1000 Ang^3
#
#
#
# Elastic Constant Matrix: (Units=GPa)
#
#
# Indices 1 2 3 4 5 6 
#
# 1 109.0347 26.9950 12.8299 0.0000 0.0000 0.0000
# 2 26.9950 92.6953 30.8759 0.0000 0.0000 0.0000
# 3 12.8299 30.8759 108.9999 0.0000 0.0000 0.0000
# 4 0.0000 0.0000 0.0000 2.6020 0.0000 0.0000
# 5 0.0000 0.0000 0.0000 0.0000 28.9921 0.0000
# 6 0.0000 0.0000 0.0000 0.0000 0.0000 22.9005
#
#
#
# Elastic Compliance Matrix: (Units=1/GPa)
#
#
# Indices 1 2 3 4 5 6 
#
# 1 0.009899 -0.002755 -0.000385 0.000000 0.000000 0.000000
# 2 -0.002755 0.012678 -0.003267 0.000000 0.000000 0.000000
# 3 -0.000385 -0.003267 0.010145 0.000000 0.000000 0.000000
# 4 0.000000 0.000000 0.000000 0.384316 0.000000 0.000000
# 5 0.000000 0.000000 0.000000 0.000000 0.034492 0.000000
# 6 0.000000 0.000000 0.000000 0.000000 0.000000 0.043667
#
#
# Mechanical properties :
#
#
# Convention : Reuss Voigt Hill
#
# Bulk Modulus (GPa) = 50.22819 50.23683 50.23251
# Shear Modulus (GPa) = 9.71540 26.90087 18.30814
#
# Velocity S-wave (km/s) = 2.21241 3.68144 3.03709
# Velocity P-wave (km/s) = 5.64198 6.58640 6.13240
#
# Compressibility (1/GPa) = 0.01990914
#
# Stress axis : x y z
#
# Youngs Moduli (GPa) = 101.02388 78.87393 98.56986
#
# Poissons Ratio (x) = 0.21726 0.03794
# Poissons Ratio (y) = 0.27827 0.32204
# Poissons Ratio (z) = 0.03888 0.25769
#
# Static dielectric constant tensor:
#      x y z
#    x 3.751700 0.000000 0.000000 
#    y 0.000000 3.544270 0.000000 
#    z 0.000000 0.000000 3.444870 
# 
# 
# High freq. dielectric constant tensor:
#      x y z
#    x 1.796170 0.000000 0.000000 
#    y 0.000000 1.768620 0.000000 
#    z 0.000000 0.000000 1.758260 
# 
# From -- ./inp_files/18557.got.cif
#   From: 2010.03.12/outbox.cif.g09.slc.cpg/sg20_10_cif.got.tgz:18557.got - 2010.04.14 01:38:04.
