data_PCOD8159623
_publ_section_title
;
Structure prediction by ZEFSAII (Michael W. Deem and Ramdas Pophale) SiO2 
 PCOD8159623
Probable space group: C 2 2 21
;
_chemical_formula_sum "Si O2"
_cell_formula_units_Z 40
_cell_length_a 8.800093
_cell_length_b 22.461443
_cell_length_c 9.545941
_cell_angle_alpha 90.000000
_cell_angle_beta 90.000000
_cell_angle_gamma 90.000000
_cell_volume 1886.877306
_symmetry_space_group_name_H-M "C 2 2 21"
_symmetry_group_IT_number 20
_symmetry_cell_setting 'orthorhombic'
loop_
_space_group_symop_operation_xyz
x,y,z
-x,-y,1/2+z
x,-y,-z
-x,y,1/2-z
1/2+x,1/2+y,z
1/2-x,1/2-y,1/2+z
1/2+x,1/2-y,-z
1/2-x,1/2+y,1/2-z
loop_
_atom_site_type_symbol
_atom_site_label
_atom_site_fract_x
_atom_site_fract_y
_atom_site_fract_z
Si Si1 0.000000 0.596496 0.750000
Si Si2 0.851184 0.239944 0.664174
Si Si3 0.215150 0.024375 0.852571
Si Si4 0.500000 0.429513 0.750000
Si Si5 0.009430 0.125790 0.955556
Si Si6 0.198130 0.319823 0.097478
O O1 0.142156 0.555460 0.717493
O O2 0.048248 0.639784 0.879152
O O3 0.880214 0.181733 0.569239
O O4 0.804287 0.291637 0.556668
O O5 0.714607 0.228355 0.775379
O O6 0.000000 0.260183 0.750000
O O7 0.074264 0.068317 0.878089
O O8 0.151955 0.970334 0.757363
O O9 0.275487 0.000000 0.000000
O O10 0.511594 0.385894 0.619012
O O11 0.846664 0.138658 0.886117
#
# Coordination Sequence:
#
# PCOD8159623 Si02
#       6
#     4   8   8   4   8   8
#     4  12  24  39  66  94 136 171 206 282 346 374
#     4  10  24  42  66  98 133 169 217 265 319 400
#     4  10  22  41  63  94 128 168 221 273 324 395
#     4  10  22  39  72  90 118 175 226 270 318 394
#     4  10  22  43  65  93 129 169 225 266 320 397
#     4  11  25  41  68  95 132 177 212 269 330 393
#
# _framework density 21.199047
#
# number of rings (size 3 to 8) (size 9 to 14) (size 15 to 20)
#    0.000    1.600    2.000    1.200    9.800    1.600 
#    3.600    0.000    0.000    0.000    0.000    0.000 
#    0.000    0.000    0.000    0.000    0.000    0.000 
#
# Total GULP energy -247993.281904 kJ/mol
# GULP energy per Si atom -12399.664095 kJ/mol
# Density = 2.115080 g / cm^3
# Si number density = 21.199047 Si / 1000 Ang^3
#
#
#
# Elastic Constant Matrix: (Units=GPa)
#
#
# Indices 1 2 3 4 5 6 
#
# 1 61.8812 23.0577 36.5459 0.0000 0.0000 0.0000
# 2 23.0577 64.8270 45.6976 0.0000 0.0000 0.0000
# 3 36.5459 45.6976 134.9797 0.0000 0.0000 0.0000
# 4 0.0000 0.0000 0.0000 41.0531 0.0000 0.0000
# 5 0.0000 0.0000 0.0000 0.0000 23.6751 0.0000
# 6 0.0000 0.0000 0.0000 0.0000 0.0000 17.5628
#
#
#
# Elastic Compliance Matrix: (Units=1/GPa)
#
#
# Indices 1 2 3 4 5 6 
#
# 1 0.020132 -0.004358 -0.003975 0.000000 0.000000 0.000000
# 2 -0.004358 0.021204 -0.005999 0.000000 0.000000 0.000000
# 3 -0.003975 -0.005999 0.010516 0.000000 0.000000 0.000000
# 4 0.000000 0.000000 0.000000 0.024359 0.000000 0.000000
# 5 0.000000 0.000000 0.000000 0.000000 0.042239 0.000000
# 6 0.000000 0.000000 0.000000 0.000000 0.000000 0.056938
#
#
# Mechanical properties :
#
#
# Convention : Reuss Voigt Hill
#
# Bulk Modulus (GPa) = 43.12700 52.47670 47.80185
# Shear Modulus (GPa) = 23.60928 26.88396 25.24662
#
# Velocity S-wave (km/s) = 3.34083 3.56500 3.45473
# Velocity P-wave (km/s) = 5.93881 6.46171 6.20577
#
# Compressibility (1/GPa) = 0.02318733
#
# Stress axis : x y z
#
# Youngs Moduli (GPa) = 49.67314 47.15981 95.09579
#
# Poissons Ratio (x) = 0.20554 0.37802
# Poissons Ratio (y) = 0.21649 0.57046
# Poissons Ratio (z) = 0.19746 0.28290
#
# Static dielectric constant tensor:
#      x y z
#    x 3.732490 0.000000 0.000000 
#    y 0.000000 3.847550 0.000000 
#    z 0.000000 0.000000 4.062570 
# 
# 
# High freq. dielectric constant tensor:
#      x y z
#    x 1.822200 0.000000 0.000000 
#    y 0.000000 1.829010 0.000000 
#    z 0.000000 0.000000 1.839260 
# 
# From -- ./inp_files/6141.got.cif
#   From: 2010.03.12/outbox.cif.g09.slc.cpg/sg20_4_cif.got.tgz:6141.got - 2010.04.14 01:38:04.
