data_PCOD8159338
_publ_section_title
;
Structure prediction by ZEFSAII (Michael W. Deem and Ramdas Pophale) SiO2 
 PCOD8159338
Probable space group: C 2 2 21
;
_chemical_formula_sum "Si O2"
_cell_formula_units_Z 40
_cell_length_a 23.433818
_cell_length_b 8.904717
_cell_length_c 8.353876
_cell_angle_alpha 90.000000
_cell_angle_beta 90.000000
_cell_angle_gamma 90.000000
_cell_volume 1743.215982
_symmetry_space_group_name_H-M "C 2 2 21"
_symmetry_group_IT_number 20
_symmetry_cell_setting 'orthorhombic'
loop_
_space_group_symop_operation_xyz
x,y,z
-x,-y,1/2+z
x,-y,-z
-x,y,1/2-z
1/2+x,1/2+y,z
1/2-x,1/2-y,1/2+z
1/2+x,1/2-y,-z
1/2-x,1/2+y,1/2-z
loop_
_atom_site_type_symbol
_atom_site_label
_atom_site_fract_x
_atom_site_fract_y
_atom_site_fract_z
Si Si1 0.979909 0.660261 0.430735
Si Si2 0.133497 0.332815 0.778727
Si Si3 0.918100 0.174891 0.026953
Si Si4 0.220970 0.830495 0.024778
Si Si5 0.670873 0.828528 0.278236
O O1 0.996738 0.500000 0.500000
O O2 0.911584 0.686622 0.427306
O O3 0.000000 0.669053 0.250000
O O4 0.014112 0.785079 0.536351
O O5 0.107425 0.273399 0.615455
O O6 0.188768 0.236930 0.821850
O O7 0.149910 0.505635 0.760582
O O8 0.884539 0.224417 0.187460
O O9 0.909394 0.000000 0.000000
O O10 0.288454 0.826717 0.064533
O O11 0.207621 0.732393 0.869380
O O12 0.200070 0.000000 0.000000
#
# Coordination Sequence:
#
# PCOD8159338 Si02
#       5
#     8   8   8   8   8
#     4  10  21  40  65  92 126 171 223 275 335 411
#     4  11  24  44  65  95 134 178 227 275 338 413
#     4  11  23  41  66  95 130 172 223 287 345 397
#     4  12  25  40  64  97 131 171 221 280 336 398
#     4  12  24  43  68  95 133 180 224 275 341 413
#
# _framework density 22.946097000000002
#
# number of rings (size 3 to 8) (size 9 to 14) (size 15 to 20)
#    0.000    0.800    0.000    9.600    0.000    2.400 
#    0.000   11.000    0.000    0.000    0.000    0.000 
#    0.000    0.000    0.000    0.000    0.000    0.000 
#
# Total GULP energy -248031.199834 kJ/mol
# GULP energy per Si atom -12401.559992 kJ/mol
# Density = 2.289387 g / cm^3
# Si number density = 22.946097 Si / 1000 Ang^3
#
#
#
# Elastic Constant Matrix: (Units=GPa)
#
#
# Indices 1 2 3 4 5 6 
#
# 1 142.7347 47.8178 25.6134 0.0000 0.0000 0.0000
# 2 47.8178 153.4897 10.7306 0.0000 0.0000 0.0000
# 3 25.6134 10.7306 48.0531 0.0000 0.0000 0.0000
# 4 0.0000 0.0000 0.0000 40.2269 0.0000 0.0000
# 5 0.0000 0.0000 0.0000 0.0000 39.9914 0.0000
# 6 0.0000 0.0000 0.0000 0.0000 0.0000 20.0798
#
#
#
# Elastic Compliance Matrix: (Units=1/GPa)
#
#
# Indices 1 2 3 4 5 6 
#
# 1 0.008521 -0.002374 -0.004012 0.000000 0.000000 0.000000
# 2 -0.002374 0.007280 -0.000360 0.000000 0.000000 0.000000
# 3 -0.004012 -0.000360 0.023029 0.000000 0.000000 0.000000
# 4 0.000000 0.000000 0.000000 0.024859 0.000000 0.000000
# 5 0.000000 0.000000 0.000000 0.000000 0.025005 0.000000
# 6 0.000000 0.000000 0.000000 0.000000 0.000000 0.049801
#
#
# Mechanical properties :
#
#
# Convention : Reuss Voigt Hill
#
# Bulk Modulus (GPa) = 39.46655 56.95566 48.21111
# Shear Modulus (GPa) = 31.16537 37.40068 34.28302
#
# Velocity S-wave (km/s) = 3.68937 4.04163 3.86951
# Velocity P-wave (km/s) = 5.94858 6.83045 6.40471
#
# Compressibility (1/GPa) = 0.02533791
#
# Stress axis : x y z
#
# Youngs Moduli (GPa) = 117.35269 137.36382 43.42323
#
# Poissons Ratio (x) = 0.32613 0.17421
# Poissons Ratio (y) = 0.27862 0.01564
# Poissons Ratio (z) = 0.47080 0.04947
#
# Static dielectric constant tensor:
#      x y z
#    x 5.057240 0.000000 0.000000 
#    y 0.000000 3.886620 0.000000 
#    z 0.000000 0.000000 5.941720 
# 
# 
# High freq. dielectric constant tensor:
#      x y z
#    x 1.927070 0.000000 0.000000 
#    y 0.000000 1.902500 0.000000 
#    z 0.000000 0.000000 1.906130 
# 
# From -- ./inp_files/6095.got.cif
#   From: 2010.03.12/outbox.cif.g09.slc.cpg/sg20_4_cif.got.tgz:6095.got - 2010.04.14 01:38:04.
