data_PCOD8159599
_publ_section_title
;
Structure prediction by ZEFSAII (Michael W. Deem and Ramdas Pophale) SiO2 
 PCOD8159599
Probable space group: C 2 2 21
;
_chemical_formula_sum "Si O2"
_cell_formula_units_Z 36
_cell_length_a 9.175200
_cell_length_b 9.105816
_cell_length_c 19.215154
_cell_angle_alpha 90.000000
_cell_angle_beta 90.000000
_cell_angle_gamma 90.000000
_cell_volume 1605.381594
_symmetry_space_group_name_H-M "C 2 2 21"
_symmetry_group_IT_number 20
_symmetry_cell_setting 'orthorhombic'
loop_
_space_group_symop_operation_xyz
x,y,z
-x,-y,1/2+z
x,-y,-z
-x,y,1/2-z
1/2+x,1/2+y,z
1/2-x,1/2-y,1/2+z
1/2+x,1/2-y,-z
1/2-x,1/2+y,1/2-z
loop_
_atom_site_type_symbol
_atom_site_label
_atom_site_fract_x
_atom_site_fract_y
_atom_site_fract_z
Si Si1 0.385556 0.244816 0.095236
Si Si2 0.634826 0.928727 0.358892
Si Si3 0.437081 0.755122 0.460963
Si Si4 0.947762 0.001215 0.367176
Si Si5 0.000000 0.773132 0.750000
O O1 0.236094 0.271086 0.052745
O O2 0.418830 0.387359 0.143833
O O3 0.383901 0.105447 0.146882
O O4 0.520220 0.228216 0.041303
O O5 0.525269 0.877982 0.418627
O O6 0.611867 0.837668 0.287726
O O7 0.802940 0.903995 0.379010
O O8 0.484985 0.593217 0.436266
O O9 0.922400 0.118988 0.305039
#
# Coordination Sequence:
#
# PCOD8159599 Si02
#       5
#     8   8   8   8   4
#     4  11  22  38  64  93 123 162 200 244 306 366
#     4  10  23  41  61  88 121 159 203 249 301 359
#     4  10  22  39  60  94 128 155 196 250 304 365
#     4  10  23  40  61  87 121 160 202 250 301 357
#     4  10  24  42  60  86 122 158 206 258 296 348
#
# _framework density 22.424575999999998
#
# number of rings (size 3 to 8) (size 9 to 14) (size 15 to 20)
#    0.000    1.778    0.000    2.667    0.000   18.667 
#    0.000    0.000    0.000    0.000    0.000    0.000 
#    0.000    0.000    0.000    0.000    0.000    0.000 
#
# Total GULP energy -223052.709610 kJ/mol
# GULP energy per Si atom -12391.817201 kJ/mol
# Density = 2.237354 g / cm^3
# Si number density = 22.424576 Si / 1000 Ang^3
#
#
#
# Elastic Constant Matrix: (Units=GPa)
#
#
# Indices 1 2 3 4 5 6 
#
# 1 108.7986 75.3191 20.5451 0.0000 0.0000 0.0000
# 2 75.3191 125.3964 41.3084 0.0000 0.0000 0.0000
# 3 20.5451 41.3084 73.7750 0.0000 0.0000 0.0000
# 4 0.0000 0.0000 0.0000 39.9559 0.0000 0.0000
# 5 0.0000 0.0000 0.0000 0.0000 20.9281 0.0000
# 6 0.0000 0.0000 0.0000 0.0000 0.0000 38.3777
#
#
#
# Elastic Compliance Matrix: (Units=1/GPa)
#
#
# Indices 1 2 3 4 5 6 
#
# 1 0.015809 -0.009865 0.001121 0.000000 0.000000 0.000000
# 2 -0.009865 0.015934 -0.006175 0.000000 0.000000 0.000000
# 3 0.001121 -0.006175 0.016700 0.000000 0.000000 0.000000
# 4 0.000000 0.000000 0.000000 0.025028 0.000000 0.000000
# 5 0.000000 0.000000 0.000000 0.000000 0.047783 0.000000
# 6 0.000000 0.000000 0.000000 0.000000 0.000000 0.026057
#
#
# Mechanical properties :
#
#
# Convention : Reuss Voigt Hill
#
# Bulk Modulus (GPa) = 53.74648 64.70169 59.22408
# Shear Modulus (GPa) = 27.27044 31.23884 29.25464
#
# Velocity S-wave (km/s) = 3.49104 3.73642 3.61581
# Velocity P-wave (km/s) = 6.34583 6.89421 6.62570
#
# Compressibility (1/GPa) = 0.01860587
#
# Stress axis : x y z
#
# Youngs Moduli (GPa) = 63.25579 62.75856 59.88073
#
# Poissons Ratio (x) = 0.61910 -0.06713
# Poissons Ratio (y) = 0.62401 0.36974
# Poissons Ratio (z) = -0.07091 0.38751
#
# Static dielectric constant tensor:
#      x y z
#    x 3.985520 0.000000 0.000000 
#    y 0.000000 4.309110 0.000000 
#    z 0.000000 0.000000 3.880340 
# 
# 
# High freq. dielectric constant tensor:
#      x y z
#    x 1.881680 0.000000 0.000000 
#    y 0.000000 1.900980 0.000000 
#    z 0.000000 0.000000 1.863460 
# 
# From -- ./inp_files/26382.got.cif
#   From: 2010.03.12/outbox.cif.g09.slc.cpg/sg20_14_cif.got.tgz:26382.got - 2010.04.14 01:38:04.
