data_PCOD8159773
_publ_section_title
;
Structure prediction by ZEFSAII (Michael W. Deem and Ramdas Pophale) SiO2 
 PCOD8159773
Probable space group: C 2 2 21
;
_chemical_formula_sum "Si O2"
_cell_formula_units_Z 60
_cell_length_a 9.915787
_cell_length_b 17.206192
_cell_length_c 17.221087
_cell_angle_alpha 90.000000
_cell_angle_beta 90.000000
_cell_angle_gamma 90.000000
_cell_volume 2938.140196
_symmetry_space_group_name_H-M "C 2 2 21"
_symmetry_group_IT_number 20
_symmetry_cell_setting 'orthorhombic'
loop_
_space_group_symop_operation_xyz
x,y,z
-x,-y,1/2+z
x,-y,-z
-x,y,1/2-z
1/2+x,1/2+y,z
1/2-x,1/2-y,1/2+z
1/2+x,1/2-y,-z
1/2-x,1/2+y,1/2-z
loop_
_atom_site_type_symbol
_atom_site_label
_atom_site_fract_x
_atom_site_fract_y
_atom_site_fract_z
Si Si1 0.216729 0.905352 0.094342
Si Si2 0.069574 0.500000 0.500000
Si Si3 0.217293 0.131327 0.615991
Si Si4 0.349296 0.810976 0.231967
Si Si5 0.018319 0.207035 0.977432
Si Si6 0.378601 0.872849 0.536575
Si Si7 0.881057 0.838904 0.868049
Si Si8 0.025360 0.994548 0.336039
O O1 0.272537 0.865358 0.171465
O O2 0.157503 0.840379 0.035499
O O3 0.100689 0.968744 0.110992
O O4 0.341675 0.947245 0.055567
O O5 0.975981 0.445361 0.554169
O O6 0.267978 0.183001 0.687829
O O7 0.333337 0.120856 0.552923
O O8 0.165111 0.045039 0.637022
O O9 0.092212 0.177293 0.581616
O O10 0.500000 0.841010 0.250000
O O11 0.352664 0.721866 0.201272
O O12 0.037311 0.295109 0.953214
O O13 0.971212 0.202722 0.066475
O O14 0.256060 0.872856 0.596541
O O15 0.963786 0.912500 0.836865
O O16 0.000000 0.964115 0.250000
#
# Coordination Sequence:
#
# PCOD8159773 Si02
#       8
#     8   4   8   8   8   8   8   8
#     4  11  23  42  67  93 127 170 217 258 324 384
#     4  12  24  38  64 100 132 158 206 276 318 370
#     4  10  23  41  69  89 129 175 215 261 327 389
#     4  12  23  42  65  96 128 172 214 265 327 390
#     4  10  22  42  67  91 125 173 220 265 307 388
#     4  11  23  42  64  96 131 168 212 267 326 377
#     4  11  23  40  66  97 130 166 223 265 320 381
#     4  11  22  42  65  92 127 173 212 266 316 392
#
# _framework density 20.421081000000001
#
# number of rings (size 3 to 8) (size 9 to 14) (size 15 to 20)
#    0.000    1.067    2.667    4.400    1.867    3.733 
#    4.800    0.000    0.000    0.000    0.000    0.000 
#    0.000    0.000    0.000    0.000    0.000    0.000 
#
# Total GULP energy -372090.030320 kJ/mol
# GULP energy per Si atom -12403.001011 kJ/mol
# Density = 2.037460 g / cm^3
# Si number density = 20.421081 Si / 1000 Ang^3
#
#
#
# Elastic Constant Matrix: (Units=GPa)
#
#
# Indices 1 2 3 4 5 6 
#
# 1 93.9928 38.7464 23.1362 0.0000 0.0000 0.0000
# 2 38.7464 111.6070 6.6675 0.0000 0.0000 0.0000
# 3 23.1362 6.6675 62.0514 0.0000 0.0000 0.0000
# 4 0.0000 0.0000 0.0000 20.0294 0.0000 0.0000
# 5 0.0000 0.0000 0.0000 0.0000 27.0108 0.0000
# 6 0.0000 0.0000 0.0000 0.0000 0.0000 32.7104
#
#
#
# Elastic Compliance Matrix: (Units=1/GPa)
#
#
# Indices 1 2 3 4 5 6 
#
# 1 0.013604 -0.004448 -0.004594 0.000000 0.000000 0.000000
# 2 -0.004448 0.010472 0.000533 0.000000 0.000000 0.000000
# 3 -0.004594 0.000533 0.017771 0.000000 0.000000 0.000000
# 4 0.000000 0.000000 0.000000 0.049927 0.000000 0.000000
# 5 0.000000 0.000000 0.000000 0.000000 0.037022 0.000000
# 6 0.000000 0.000000 0.000000 0.000000 0.000000 0.030571
#
#
# Mechanical properties :
#
#
# Convention : Reuss Voigt Hill
#
# Bulk Modulus (GPa) = 40.27545 44.97238 42.62392
# Shear Modulus (GPa) = 27.07643 29.22354 28.14998
#
# Velocity S-wave (km/s) = 3.64525 3.78702 3.71681
# Velocity P-wave (km/s) = 6.12229 6.41813 6.27195
#
# Compressibility (1/GPa) = 0.02482902
#
# Stress axis : x y z
#
# Youngs Moduli (GPa) = 73.50939 95.48854 56.27029
#
# Poissons Ratio (x) = 0.42476 0.25852
# Poissons Ratio (y) = 0.32699 -0.03001
# Poissons Ratio (z) = 0.33772 -0.05092
#
# Static dielectric constant tensor:
#      x y z
#    x 3.931380 0.000000 0.000000 
#    y 0.000000 3.700090 0.000000 
#    z 0.000000 0.000000 3.753300 
# 
# 
# High freq. dielectric constant tensor:
#      x y z
#    x 1.810750 0.000000 0.000000 
#    y 0.000000 1.806190 0.000000 
#    z 0.000000 0.000000 1.793420 
# 
# From -- ./inp_files/23767.got.cif
#   From: 2010.03.12/outbox.cif.g09.slc.cpg/sg20_12_cif.got.tgz:23767.got - 2010.04.14 01:38:04.
