data_PCOD8159577
_publ_section_title
;
Structure prediction by ZEFSAII (Michael W. Deem and Ramdas Pophale) SiO2 
 PCOD8159577
Probable space group: C 2 2 21
;
_chemical_formula_sum "Si O2"
_cell_formula_units_Z 44
_cell_length_a 15.687405
_cell_length_b 26.802301
_cell_length_c 5.176421
_cell_angle_alpha 90.000000
_cell_angle_beta 90.000000
_cell_angle_gamma 90.000000
_cell_volume 2176.470472
_symmetry_space_group_name_H-M "C 2 2 21"
_symmetry_group_IT_number 20
_symmetry_cell_setting 'orthorhombic'
loop_
_space_group_symop_operation_xyz
x,y,z
-x,-y,1/2+z
x,-y,-z
-x,y,1/2-z
1/2+x,1/2+y,z
1/2-x,1/2-y,1/2+z
1/2+x,1/2-y,-z
1/2-x,1/2+y,1/2-z
loop_
_atom_site_type_symbol
_atom_site_label
_atom_site_fract_x
_atom_site_fract_y
_atom_site_fract_z
Si Si1 0.220384 0.000000 0.000000
Si Si2 0.416667 0.548420 0.128817
Si Si3 0.805499 0.756238 0.014625
Si Si4 0.208580 0.396530 0.458540
Si Si5 0.696040 0.366604 0.524880
Si Si6 0.557511 0.829889 0.500138
O O1 0.282635 0.044212 0.902026
O O2 0.160629 0.974862 0.789720
O O3 0.500000 0.574814 0.250000
O O4 0.375483 0.591664 0.950536
O O5 0.458967 0.500000 0.000000
O O6 0.768139 0.750310 0.301693
O O7 0.880318 0.717088 0.972363
O O8 0.844955 0.811671 0.981250
O O9 0.269399 0.377484 0.688306
O O10 0.111911 0.381152 0.525647
O O11 0.230997 0.368379 0.191938
O O12 0.500000 0.823292 0.750000
O O13 0.500000 0.833415 0.250000
#
# Coordination Sequence:
#
# PCOD8159577 Si02
#       6
#     4   8   8   8   8   8
#     4  10  22  38  64  90 118 174 216 256 304 394
#     4  11  21  36  59  92 135 165 209 264 322 372
#     4  12  22  42  68  94 126 171 220 258 311 385
#     4  11  22  41  65  93 125 163 219 255 312 387
#     4  11  22  39  64  94 123 173 215 254 306 387
#     4  12  25  42  65  97 130 166 206 272 330 368
#
# _framework density 20.216218000000001
#
# number of rings (size 3 to 8) (size 9 to 14) (size 15 to 20)
#    0.000    0.727    6.364    2.182    0.000    0.727 
#    0.000    3.636    0.000    0.000    0.000    0.000 
#    0.000    0.000    0.000    0.000    0.000    0.000 
#
# Total GULP energy -272662.572931 kJ/mol
# GULP energy per Si atom -12393.753315 kJ/mol
# Density = 2.017020 g / cm^3
# Si number density = 20.216218 Si / 1000 Ang^3
#
#
#
# Elastic Constant Matrix: (Units=GPa)
#
#
# Indices 1 2 3 4 5 6 
#
# 1 82.6730 52.1677 6.6226 0.0000 0.0000 0.0000
# 2 52.1677 147.8365 16.3962 0.0000 0.0000 0.0000
# 3 6.6226 16.3962 80.5685 0.0000 0.0000 0.0000
# 4 0.0000 0.0000 0.0000 23.0993 0.0000 0.0000
# 5 0.0000 0.0000 0.0000 0.0000 33.3546 0.0000
# 6 0.0000 0.0000 0.0000 0.0000 0.0000 33.7856
#
#
#
# Elastic Compliance Matrix: (Units=1/GPa)
#
#
# Indices 1 2 3 4 5 6 
#
# 1 0.015563 -0.005473 -0.000165 0.000000 0.000000 0.000000
# 2 -0.005473 0.008845 -0.001350 0.000000 0.000000 0.000000
# 3 -0.000165 -0.001350 0.012700 0.000000 0.000000 0.000000
# 4 0.000000 0.000000 0.000000 0.043291 0.000000 0.000000
# 5 0.000000 0.000000 0.000000 0.000000 0.029981 0.000000
# 6 0.000000 0.000000 0.000000 0.000000 0.000000 0.029598
#
#
# Mechanical properties :
#
#
# Convention : Reuss Voigt Hill
#
# Bulk Modulus (GPa) = 43.23293 51.27233 47.25263
# Shear Modulus (GPa) = 30.92773 33.77400 32.35087
#
# Velocity S-wave (km/s) = 3.91557 4.09178 4.00464
# Velocity P-wave (km/s) = 6.47101 6.90946 6.69382
#
# Compressibility (1/GPa) = 0.02313052
#
# Stress axis : x y z
#
# Youngs Moduli (GPa) = 64.25546 113.05323 78.73917
#
# Poissons Ratio (x) = 0.61878 0.01302
# Poissons Ratio (y) = 0.35170 0.10631
# Poissons Ratio (z) = 0.01063 0.15264
#
# Static dielectric constant tensor:
#      x y z
#    x 3.607340 0.000000 0.000000 
#    y 0.000000 4.426500 0.000000 
#    z 0.000000 0.000000 3.740540 
# 
# 
# High freq. dielectric constant tensor:
#      x y z
#    x 1.769640 0.000000 0.000000 
#    y 0.000000 1.807390 0.000000 
#    z 0.000000 0.000000 1.796760 
# 
# From -- ./inp_files/1952.got.cif
#   From: 2010.03.12/outbox.cif.g09.slc.cpg/sg20_1_cif.got.tgz:1952.got - 2010.04.14 01:38:04.
