data_PCOD8159986
_publ_section_title
;
Structure prediction by ZEFSAII (Michael W. Deem and Ramdas Pophale) SiO2 
 PCOD8159986
Probable space group: C 2 2 21
;
_chemical_formula_sum "Si O2"
_cell_formula_units_Z 40
_cell_length_a 12.033255
_cell_length_b 13.367107
_cell_length_c 8.194684
_cell_angle_alpha 90.000000
_cell_angle_beta 90.000000
_cell_angle_gamma 90.000000
_cell_volume 1318.113341
_symmetry_space_group_name_H-M "C 2 2 21"
_symmetry_group_IT_number 20
_symmetry_cell_setting 'orthorhombic'
loop_
_space_group_symop_operation_xyz
x,y,z
-x,-y,1/2+z
x,-y,-z
-x,y,1/2-z
1/2+x,1/2+y,z
1/2-x,1/2-y,1/2+z
1/2+x,1/2-y,-z
1/2-x,1/2+y,1/2-z
loop_
_atom_site_type_symbol
_atom_site_label
_atom_site_fract_x
_atom_site_fract_y
_atom_site_fract_z
Si Si1 0.618337 0.397835 0.142759
Si Si2 0.380409 0.697750 0.987053
Si Si3 0.000000 0.920074 0.750000
Si Si4 0.380409 0.802250 0.487053
Si Si5 0.381663 0.102165 0.857241
Si Si6 0.500000 0.920074 0.750000
O O1 0.579720 0.360268 0.324913
O O2 0.570655 0.509918 0.123570
O O3 0.571014 0.315127 0.006090
O O4 0.750000 0.400595 0.131144
O O5 0.405431 0.640998 0.155101
O O6 0.250000 0.711611 0.978464
O O7 0.428986 0.815127 0.006090
O O8 0.420280 0.860268 0.324913
O O9 0.405431 0.859002 0.655101
O O10 0.429345 0.990082 0.876430
#
# Coordination Sequence:
#
# PCOD8159986 Si02
#       6
#     8   8   4   8   8   4
#     4  10  23  43  64  89 125 166 207 254 309 369
#     4  10  23  43  64  89 125 166 207 254 309 369
#     4  12  22  34  64  96 122 156 204 254 306 362
#     4  10  23  43  64  89 125 166 207 254 309 369
#     4  10  23  43  64  89 125 166 207 254 309 369
#     4  12  22  34  64  96 122 156 204 254 306 362
#
# _framework density 30.346404
#
# number of rings (size 3 to 8) (size 9 to 14) (size 15 to 20)
#    0.000    1.600    0.000    3.600    0.000   12.800 
#    0.000    0.000    0.000   19.200    0.000    0.000 
#    0.000    0.000    0.000    0.000    0.000    0.000 
#
# Total GULP energy -248214.552348 kJ/mol
# GULP energy per Si atom -12410.727617 kJ/mol
# Density = 3.027733 g / cm^3
# Si number density = 30.346404 Si / 1000 Ang^3
#
#
#
# Elastic Constant Matrix: (Units=GPa)
#
#
# Indices 1 2 3 4 5 6 
#
# 1 69.7274 20.5007 -0.7492 0.0000 0.0000 0.0000
# 2 20.5007 201.9383 -10.2837 0.0000 0.0000 0.0000
# 3 -0.7492 -10.2837 65.0039 0.0000 0.0000 0.0000
# 4 0.0000 0.0000 0.0000 19.3178 0.0000 0.0000
# 5 0.0000 0.0000 0.0000 0.0000 65.5366 0.0000
# 6 0.0000 0.0000 0.0000 0.0000 0.0000 44.0892
#
#
#
# Elastic Compliance Matrix: (Units=1/GPa)
#
#
# Indices 1 2 3 4 5 6 
#
# 1 0.014783 -0.001504 -0.000068 0.000000 0.000000 0.000000
# 2 -0.001504 0.005145 0.000797 0.000000 0.000000 0.000000
# 3 -0.000068 0.000797 0.015509 0.000000 0.000000 0.000000
# 4 0.000000 0.000000 0.000000 0.051766 0.000000 0.000000
# 5 0.000000 0.000000 0.000000 0.000000 0.015259 0.000000
# 6 0.000000 0.000000 0.000000 0.000000 0.000000 0.022681
#
#
# Mechanical properties :
#
#
# Convention : Reuss Voigt Hill
#
# Bulk Modulus (GPa) = 29.50982 39.51169 34.51075
# Shear Modulus (GPa) = 36.23478 47.60218 41.91848
#
# Velocity S-wave (km/s) = 3.45924 3.96489 3.72066
# Velocity P-wave (km/s) = 5.06957 5.83172 5.46395
#
# Compressibility (1/GPa) = 0.03388703
#
# Stress axis : x y z
#
# Youngs Moduli (GPa) = 67.64485 194.35272 64.47894
#
# Poissons Ratio (x) = 0.29235 0.00436
# Poissons Ratio (y) = 0.10175 -0.05137
# Poissons Ratio (z) = 0.00457 -0.15483
#
# Static dielectric constant tensor:
#      x y z
#    x 6.191440 0.000000 0.000000 
#    y 0.000000 6.153650 0.000000 
#    z 0.000000 0.000000 5.927830 
# 
# 
# High freq. dielectric constant tensor:
#      x y z
#    x 2.321170 0.000000 0.000000 
#    y 0.000000 2.260760 0.000000 
#    z 0.000000 0.000000 2.280240 
# 
# From -- ./inp_files/8140.got.cif
#   From: 2010.03.12/outbox.cif.g09.slc.cpg/sg20_5_cif.got.tgz:8140.got - 2010.04.14 01:38:04.
