data_PCOD8159163
_publ_section_title
;
Structure prediction by ZEFSAII (Michael W. Deem and Ramdas Pophale) SiO2 
 PCOD8159163
Probable space group: C 2 2 21
;
_chemical_formula_sum "Si O2"
_cell_formula_units_Z 48
_cell_length_a 8.831560
_cell_length_b 18.099304
_cell_length_c 14.532400
_cell_angle_alpha 90.000000
_cell_angle_beta 90.000000
_cell_angle_gamma 90.000000
_cell_volume 2322.932775
_symmetry_space_group_name_H-M "C 2 2 21"
_symmetry_group_IT_number 20
_symmetry_cell_setting 'orthorhombic'
loop_
_space_group_symop_operation_xyz
x,y,z
-x,-y,1/2+z
x,-y,-z
-x,y,1/2-z
1/2+x,1/2+y,z
1/2-x,1/2-y,1/2+z
1/2+x,1/2-y,-z
1/2-x,1/2+y,1/2-z
loop_
_atom_site_type_symbol
_atom_site_label
_atom_site_fract_x
_atom_site_fract_y
_atom_site_fract_z
Si Si1 0.176517 0.551848 0.088319
Si Si2 0.500000 0.294011 0.250000
Si Si3 0.297900 0.589669 0.680702
Si Si4 0.524753 0.204087 0.064781
Si Si5 0.000000 0.521556 0.750000
Si Si6 0.477958 0.535740 0.400237
Si Si7 0.186739 0.164247 0.016052
O O1 0.140493 0.635866 0.062326
O O2 0.346968 0.546824 0.126829
O O3 0.063630 0.529371 0.169311
O O4 0.150708 0.500000 0.000000
O O5 0.642424 0.350858 0.255894
O O6 0.514637 0.241661 0.163494
O O7 0.126289 0.574223 0.707007
O O8 0.397473 0.514400 0.677511
O O9 0.313192 0.624481 0.581083
O O10 0.358621 0.178548 0.040413
O O11 0.589102 0.260818 0.989121
O O12 0.468754 0.500000 0.500000
O O13 0.390078 0.613941 0.404988
#
# Coordination Sequence:
#
# PCOD8159163 Si02
#       7
#     8   4   8   8   4   8   8
#     4  11  23  39  61  89 122 159 206 256 301 361
#     4  10  23  40  56  80 123 160 188 236 297 364
#     4  10  21  38  59  87 118 154 198 246 300 356
#     4  11  22  38  58  87 121 159 200 244 305 359
#     4  12  23  36  62  92 119 156 204 254 301 356
#     4   9  19  38  62  88 117 155 200 249 306 359
#     4  10  21  37  61  86 119 158 199 250 300 361
#
# _framework density 20.663533999999999
#
# number of rings (size 3 to 8) (size 9 to 14) (size 15 to 20)
#    0.000    1.667    0.000    4.500    0.000    6.667 
#    0.000    0.000    0.000    2.000    0.000    0.000 
#    0.000    0.000    0.000    0.000    0.000    0.000 
#
# Total GULP energy -297606.766352 kJ/mol
# GULP energy per Si atom -12400.281931 kJ/mol
# Density = 2.061650 g / cm^3
# Si number density = 20.663534 Si / 1000 Ang^3
#
#
#
# Elastic Constant Matrix: (Units=GPa)
#
#
# Indices 1 2 3 4 5 6 
#
# 1 151.0929 59.7243 16.6511 0.0000 0.0000 0.0000
# 2 59.7243 143.5157 26.9239 0.0000 0.0000 0.0000
# 3 16.6511 26.9239 36.8005 0.0000 0.0000 0.0000
# 4 0.0000 0.0000 0.0000 17.7403 0.0000 0.0000
# 5 0.0000 0.0000 0.0000 0.0000 35.1016 0.0000
# 6 0.0000 0.0000 0.0000 0.0000 0.0000 44.4024
#
#
#
# Elastic Compliance Matrix: (Units=1/GPa)
#
#
# Indices 1 2 3 4 5 6 
#
# 1 0.007981 -0.003064 -0.001369 0.000000 0.000000 0.000000
# 2 -0.003064 0.009253 -0.005383 0.000000 0.000000 0.000000
# 3 -0.001369 -0.005383 0.031731 0.000000 0.000000 0.000000
# 4 0.000000 0.000000 0.000000 0.056369 0.000000 0.000000
# 5 0.000000 0.000000 0.000000 0.000000 0.028489 0.000000
# 6 0.000000 0.000000 0.000000 0.000000 0.000000 0.022521
#
#
# Mechanical properties :
#
#
# Convention : Reuss Voigt Hill
#
# Bulk Modulus (GPa) = 34.09255 59.77864 46.93560
# Shear Modulus (GPa) = 26.91731 34.65618 30.78674
#
# Velocity S-wave (km/s) = 3.61314 4.09976 3.86412
# Velocity P-wave (km/s) = 5.82590 7.16960 6.53239
#
# Compressibility (1/GPa) = 0.02933192
#
# Stress axis : x y z
#
# Youngs Moduli (GPa) = 125.30414 108.07334 31.51455
#
# Poissons Ratio (x) = 0.33117 0.04315
# Poissons Ratio (y) = 0.38397 0.16965
# Poissons Ratio (z) = 0.17155 0.58177
#
# Static dielectric constant tensor:
#      x y z
#    x 3.914550 0.000000 0.000000 
#    y 0.000000 3.871070 0.000000 
#    z 0.000000 0.000000 3.656180 
# 
# 
# High freq. dielectric constant tensor:
#      x y z
#    x 1.820490 0.000000 0.000000 
#    y 0.000000 1.821520 0.000000 
#    z 0.000000 0.000000 1.798570 
# 
# From -- ./inp_files/18950.got.cif
#   From: 2010.03.12/outbox.cif.g09.slc.cpg/sg20_10_cif.got.tgz:18950.got - 2010.04.14 01:38:04.
