data_PCOD8159477
_publ_section_title
;
Structure prediction by ZEFSAII (Michael W. Deem and Ramdas Pophale) SiO2 
 PCOD8159477
Probable space group: C 2 2 21
;
_chemical_formula_sum "Si O2"
_cell_formula_units_Z 56
_cell_length_a 12.560292
_cell_length_b 14.075917
_cell_length_c 14.355643
_cell_angle_alpha 90.000000
_cell_angle_beta 90.000000
_cell_angle_gamma 90.000000
_cell_volume 2538.043626
_symmetry_space_group_name_H-M "C 2 2 21"
_symmetry_group_IT_number 20
_symmetry_cell_setting 'orthorhombic'
loop_
_space_group_symop_operation_xyz
x,y,z
-x,-y,1/2+z
x,-y,-z
-x,y,1/2-z
1/2+x,1/2+y,z
1/2-x,1/2-y,1/2+z
1/2+x,1/2-y,-z
1/2-x,1/2+y,1/2-z
loop_
_atom_site_type_symbol
_atom_site_label
_atom_site_fract_x
_atom_site_fract_y
_atom_site_fract_z
Si Si1 0.000000 0.253426 0.250000
Si Si2 0.973010 0.430791 0.643930
Si Si3 0.362964 0.801278 0.950745
Si Si4 0.379247 0.415567 0.063103
Si Si5 0.664797 0.634666 0.152593
Si Si6 0.580393 0.500000 0.000000
Si Si7 0.245124 0.492727 0.791959
Si Si8 0.878249 0.597964 0.864084
O O1 0.058410 0.197002 0.166060
O O2 0.089133 0.316176 0.298319
O O3 0.845241 0.447624 0.639478
O O4 0.000000 0.408787 0.750000
O O5 0.022046 0.342880 0.584387
O O6 0.022417 0.530590 0.609097
O O7 0.369738 0.690426 0.977476
O O8 0.272822 0.808459 0.871364
O O9 0.326899 0.860109 0.042073
O O10 0.505806 0.436470 0.069106
O O11 0.316308 0.425584 0.160172
O O12 0.327096 0.500000 0.000000
O O13 0.652436 0.562901 0.066856
O O14 0.677704 0.590422 0.256024
O O15 0.203121 0.534248 0.694005
#
# Coordination Sequence:
#
# PCOD8159477 Si02
#       8
#     4   8   8   8   8   4   8   8
#     4  12  24  42  66  98 138 190 226 266 356 414
#     4  10  21  43  66 102 137 166 219 292 338 400
#     4  12  24  43  74 101 134 178 240 277 337 414
#     4  10  26  49  62  99 142 183 225 281 341 411
#     4  12  24  41  74  99 132 187 232 281 332 421
#     4  10  24  50  60  96 144 178 230 278 346 400
#     4  11  22  46  70 101 140 174 227 288 348 398
#     4  11  22  42  70  98 136 178 221 284 338 409
#
# _framework density 22.064236999999999
#
# number of rings (size 3 to 8) (size 9 to 14) (size 15 to 20)
#    0.429    0.571    5.000    3.857    2.000    1.143 
#    5.143    0.000    0.000    0.000    0.000    0.000 
#    0.000    0.000    0.000    0.000    0.000    0.000 
#
# Total GULP energy -346988.286263 kJ/mol
# GULP energy per Si atom -12392.438795 kJ/mol
# Density = 2.201402 g / cm^3
# Si number density = 22.064237 Si / 1000 Ang^3
#
#
#
# Elastic Constant Matrix: (Units=GPa)
#
#
# Indices 1 2 3 4 5 6 
#
# 1 85.1793 25.7590 21.6607 0.0000 0.0000 0.0000
# 2 25.7590 126.3202 34.9731 0.0000 0.0000 0.0000
# 3 21.6607 34.9731 68.1357 0.0000 0.0000 0.0000
# 4 0.0000 0.0000 0.0000 33.3234 0.0000 0.0000
# 5 0.0000 0.0000 0.0000 0.0000 32.8882 0.0000
# 6 0.0000 0.0000 0.0000 0.0000 0.0000 21.4646
#
#
#
# Elastic Compliance Matrix: (Units=1/GPa)
#
#
# Indices 1 2 3 4 5 6 
#
# 1 0.013104 -0.001770 -0.003257 0.000000 0.000000 0.000000
# 2 -0.001770 0.009467 -0.004296 0.000000 0.000000 0.000000
# 3 -0.003257 -0.004296 0.017917 0.000000 0.000000 0.000000
# 4 0.000000 0.000000 0.000000 0.030009 0.000000 0.000000
# 5 0.000000 0.000000 0.000000 0.000000 0.030406 0.000000
# 6 0.000000 0.000000 0.000000 0.000000 0.000000 0.046588
#
#
# Mechanical properties :
#
#
# Convention : Reuss Voigt Hill
#
# Bulk Modulus (GPa) = 45.78703 49.38008 47.58356
# Shear Modulus (GPa) = 28.83197 30.68474 29.75835
#
# Velocity S-wave (km/s) = 3.61879 3.73326 3.67647
# Velocity P-wave (km/s) = 6.18527 6.40403 6.29560
#
# Compressibility (1/GPa) = 0.02184024
#
# Stress axis : x y z
#
# Youngs Moduli (GPa) = 76.31532 105.63112 55.81197
#
# Poissons Ratio (x) = 0.18700 0.18178
# Poissons Ratio (y) = 0.13510 0.23979
# Poissons Ratio (z) = 0.24856 0.45384
#
# Static dielectric constant tensor:
#      x y z
#    x 3.910210 0.000000 0.000000 
#    y 0.000000 3.942490 0.000000 
#    z 0.000000 0.000000 3.923880 
# 
# 
# High freq. dielectric constant tensor:
#      x y z
#    x 1.863590 0.000000 0.000000 
#    y 0.000000 1.864840 0.000000 
#    z 0.000000 0.000000 1.861050 
# 
# From -- ./inp_files/20778.got.cif
#   From: 2010.03.12/outbox.cif.g09.slc.cpg/sg20_11_cif.got.tgz:20778.got - 2010.04.14 01:38:04.
