data_PCOD8159216
_publ_section_title
;
Structure prediction by ZEFSAII (Michael W. Deem and Ramdas Pophale) SiO2 
 PCOD8159216
Probable space group: C 2 2 21
;
_chemical_formula_sum "Si O2"
_cell_formula_units_Z 40
_cell_length_a 15.192050
_cell_length_b 13.132855
_cell_length_c 9.112994
_cell_angle_alpha 90.000000
_cell_angle_beta 90.000000
_cell_angle_gamma 90.000000
_cell_volume 1818.178905
_symmetry_space_group_name_H-M "C 2 2 21"
_symmetry_group_IT_number 20
_symmetry_cell_setting 'orthorhombic'
loop_
_space_group_symop_operation_xyz
x,y,z
-x,-y,1/2+z
x,-y,-z
-x,y,1/2-z
1/2+x,1/2+y,z
1/2-x,1/2-y,1/2+z
1/2+x,1/2-y,-z
1/2-x,1/2+y,1/2-z
loop_
_atom_site_type_symbol
_atom_site_label
_atom_site_fract_x
_atom_site_fract_y
_atom_site_fract_z
Si Si1 0.260395 0.194501 0.037145
Si Si2 0.597501 0.810546 0.996566
Si Si3 0.000000 0.788730 0.750000
Si Si4 0.181972 0.856040 0.667167
Si Si5 0.212769 0.500000 0.000000
Si Si6 0.500000 0.921547 0.750000
Si Si7 0.875138 0.500000 0.000000
O O1 0.161434 0.212862 0.971570
O O2 0.246965 0.195062 0.212685
O O3 0.318705 0.289397 0.982049
O O4 0.309227 0.094473 0.978212
O O5 0.520373 0.784561 0.111763
O O6 0.653099 0.907060 0.059840
O O7 0.559758 0.844645 0.841685
O O8 0.081841 0.863845 0.720924
O O9 0.223362 0.966253 0.633777
O O10 0.561685 0.989450 0.643047
#
# Coordination Sequence:
#
# PCOD8159216 Si02
#       7
#     8   8   4   8   4   4   4
#     4  10  23  40  63  90 124 165 206 245 306 374
#     4  10  23  43  64  93 125 163 204 254 308 366
#     4  10  22  41  66  91 124 160 204 261 310 351
#     4  10  22  41  63  91 124 163 205 254 306 365
#     4  10  21  38  63  88 124 164 202 240 303 374
#     4  12  26  39  62  99 128 156 206 263 310 353
#     4  12  25  42  63  94 126 162 206 256 307 368
#
# _framework density 22.000035
#
# number of rings (size 3 to 8) (size 9 to 14) (size 15 to 20)
#    0.000    1.600    0.000    4.200    0.000   18.400 
#    0.000    4.000    0.000    6.000    0.000    0.000 
#    0.000    0.000    0.000    0.000    0.000    0.000 
#
# Total GULP energy -247804.121077 kJ/mol
# GULP energy per Si atom -12390.206054 kJ/mol
# Density = 2.194996 g / cm^3
# Si number density = 22.000035 Si / 1000 Ang^3
#
#
#
# Elastic Constant Matrix: (Units=GPa)
#
#
# Indices 1 2 3 4 5 6 
#
# 1 148.9777 64.3150 72.2482 0.0000 0.0000 0.0000
# 2 64.3150 96.4177 48.9350 0.0000 0.0000 0.0000
# 3 72.2482 48.9350 130.0406 0.0000 0.0000 0.0000
# 4 0.0000 0.0000 0.0000 37.4720 0.0000 0.0000
# 5 0.0000 0.0000 0.0000 0.0000 37.0679 0.0000
# 6 0.0000 0.0000 0.0000 0.0000 0.0000 39.6422
#
#
#
# Elastic Compliance Matrix: (Units=1/GPa)
#
#
# Indices 1 2 3 4 5 6 
#
# 1 0.010969 -0.005221 -0.004129 0.000000 0.000000 0.000000
# 2 -0.005221 0.015305 -0.002859 0.000000 0.000000 0.000000
# 3 -0.004129 -0.002859 0.011060 0.000000 0.000000 0.000000
# 4 0.000000 0.000000 0.000000 0.026687 0.000000 0.000000
# 5 0.000000 0.000000 0.000000 0.000000 0.026978 0.000000
# 6 0.000000 0.000000 0.000000 0.000000 0.000000 0.025226
#
#
# Mechanical properties :
#
#
# Convention : Reuss Voigt Hill
#
# Bulk Modulus (GPa) = 77.42552 82.93693 80.18122
# Shear Modulus (GPa) = 34.49530 35.49893 34.99711
#
# Velocity S-wave (km/s) = 3.96405 4.02130 3.99278
# Velocity P-wave (km/s) = 7.49809 7.70335 7.60141
#
# Compressibility (1/GPa) = 0.01291564
#
# Stress axis : x y z
#
# Youngs Moduli (GPa) = 91.16611 65.33791 90.41651
#
# Poissons Ratio (x) = 0.34113 0.37337
# Poissons Ratio (y) = 0.47598 0.25847
# Poissons Ratio (z) = 0.37647 0.18678
#
# Static dielectric constant tensor:
#      x y z
#    x 4.352920 0.000000 0.000000 
#    y 0.000000 3.880960 0.000000 
#    z 0.000000 0.000000 4.070760 
# 
# 
# High freq. dielectric constant tensor:
#      x y z
#    x 1.883100 0.000000 0.000000 
#    y 0.000000 1.838180 0.000000 
#    z 0.000000 0.000000 1.866770 
# 
# From -- ./inp_files/8193.got.cif
#   From: 2010.03.12/outbox.cif.g09.slc.cpg/sg20_5_cif.got.tgz:8193.got - 2010.04.14 01:38:04.
