data_PCOD8159961
_publ_section_title
;
Structure prediction by ZEFSAII (Michael W. Deem and Ramdas Pophale) SiO2 
 PCOD8159961
Probable space group: C 2 2 21
;
_chemical_formula_sum "Si O2"
_cell_formula_units_Z 48
_cell_length_a 8.707657
_cell_length_b 17.772404
_cell_length_c 14.806508
_cell_angle_alpha 90.000000
_cell_angle_beta 90.000000
_cell_angle_gamma 90.000000
_cell_volume 2291.395924
_symmetry_space_group_name_H-M "C 2 2 21"
_symmetry_group_IT_number 20
_symmetry_cell_setting 'orthorhombic'
loop_
_space_group_symop_operation_xyz
x,y,z
-x,-y,1/2+z
x,-y,-z
-x,y,1/2-z
1/2+x,1/2+y,z
1/2-x,1/2-y,1/2+z
1/2+x,1/2-y,-z
1/2-x,1/2+y,1/2-z
loop_
_atom_site_type_symbol
_atom_site_label
_atom_site_fract_x
_atom_site_fract_y
_atom_site_fract_z
Si Si1 0.185320 0.549005 0.088267
Si Si2 0.500000 0.290157 0.250000
Si Si3 0.297108 0.587728 0.676980
Si Si4 0.527356 0.203274 0.065939
Si Si5 0.000000 0.524870 0.750000
Si Si6 0.476538 0.562591 0.344044
Si Si7 0.194196 0.159464 0.012015
O O1 0.149859 0.636282 0.071910
O O2 0.088044 0.524926 0.175775
O O3 0.366825 0.540887 0.105087
O O4 0.141043 0.500000 0.000000
O O5 0.647224 0.345220 0.243131
O O6 0.486487 0.237514 0.163135
O O7 0.387770 0.510960 0.691596
O O8 0.329664 0.607955 0.574255
O O9 0.117990 0.578003 0.697286
O O10 0.600565 0.263604 0.998142
O O11 0.373271 0.173854 0.021461
O O12 0.500000 0.608407 0.250000
O O13 0.366421 0.613487 0.403367
#
# Coordination Sequence:
#
# PCOD8159961 Si02
#       7
#     8   4   8   8   4   8   8
#     4  12  25  43  71  99 137 181 228 288 340 406
#     4  10  23  42  66  88 139 178 212 270 335 400
#     4  11  22  43  66 100 133 178 219 280 337 403
#     4  11  25  44  65 100 136 180 224 274 341 406
#     4  12  23  40  68 106 137 172 234 280 337 404
#     4  12  24  44  71 100 134 178 234 280 343 404
#     4  11  25  43  68  96 139 180 225 278 341 405
#
# _framework density 20.947928000000001
#
# number of rings (size 3 to 8) (size 9 to 14) (size 15 to 20)
#    0.000    0.667    2.500    5.000    2.333    5.333 
#    0.000    0.000    1.833    0.000    0.000    0.000 
#    0.000    0.000    0.000    0.000    0.000    0.000 
#
# Total GULP energy -297678.843477 kJ/mol
# GULP energy per Si atom -12403.285145 kJ/mol
# Density = 2.090025 g / cm^3
# Si number density = 20.947928 Si / 1000 Ang^3
#
#
#
# Elastic Constant Matrix: (Units=GPa)
#
#
# Indices 1 2 3 4 5 6 
#
# 1 116.9167 28.3564 13.8990 0.0000 0.0000 0.0000
# 2 28.3564 101.6181 39.6618 0.0000 0.0000 0.0000
# 3 13.8990 39.6618 91.3315 0.0000 0.0000 0.0000
# 4 0.0000 0.0000 0.0000 25.1207 0.0000 0.0000
# 5 0.0000 0.0000 0.0000 0.0000 40.5754 0.0000
# 6 0.0000 0.0000 0.0000 0.0000 0.0000 24.1220
#
#
#
# Elastic Compliance Matrix: (Units=1/GPa)
#
#
# Indices 1 2 3 4 5 6 
#
# 1 0.009183 -0.002429 -0.000343 0.000000 0.000000 0.000000
# 2 -0.002429 0.012491 -0.005055 0.000000 0.000000 0.000000
# 3 -0.000343 -0.005055 0.013196 0.000000 0.000000 0.000000
# 4 0.000000 0.000000 0.000000 0.039808 0.000000 0.000000
# 5 0.000000 0.000000 0.000000 0.000000 0.024645 0.000000
# 6 0.000000 0.000000 0.000000 0.000000 0.000000 0.041456
#
#
# Mechanical properties :
#
#
# Convention : Reuss Voigt Hill
#
# Bulk Modulus (GPa) = 52.03469 52.63342 52.33406
# Shear Modulus (GPa) = 30.70518 33.16021 31.93269
#
# Velocity S-wave (km/s) = 3.83271 3.98299 3.90857
# Velocity P-wave (km/s) = 6.66935 6.80681 6.73843
#
# Compressibility (1/GPa) = 0.01921795
#
# Stress axis : x y z
#
# Youngs Moduli (GPa) = 108.89819 80.05476 75.77789
#
# Poissons Ratio (x) = 0.19443 0.02597
# Poissons Ratio (y) = 0.26448 0.38305
# Poissons Ratio (z) = 0.03733 0.40467
#
# Static dielectric constant tensor:
#      x y z
#    x 3.885070 0.000000 0.000000 
#    y 0.000000 3.856840 0.000000 
#    z 0.000000 0.000000 4.083420 
# 
# 
# High freq. dielectric constant tensor:
#      x y z
#    x 1.831740 0.000000 0.000000 
#    y 0.000000 1.822570 0.000000 
#    z 0.000000 0.000000 1.837410 
# 
# From -- ./inp_files/18951.got.cif
#   From: 2010.03.12/outbox.cif.g09.slc.cpg/sg20_10_cif.got.tgz:18951.got - 2010.04.14 01:38:04.
