data_PCOD8159068
_publ_section_title
;
Structure prediction by ZEFSAII (Michael W. Deem and Ramdas Pophale) SiO2 
 PCOD8159068
Probable space group: C 2 2 21
;
_chemical_formula_sum "Si O2"
_cell_formula_units_Z 48
_cell_length_a 8.810246
_cell_length_b 18.137326
_cell_length_c 13.845209
_cell_angle_alpha 90.000000
_cell_angle_beta 90.000000
_cell_angle_gamma 90.000000
_cell_volume 2212.385534
_symmetry_space_group_name_H-M "C 2 2 21"
_symmetry_group_IT_number 20
_symmetry_cell_setting 'orthorhombic'
loop_
_space_group_symop_operation_xyz
x,y,z
-x,-y,1/2+z
x,-y,-z
-x,y,1/2-z
1/2+x,1/2+y,z
1/2-x,1/2-y,1/2+z
1/2+x,1/2-y,-z
1/2-x,1/2+y,1/2-z
loop_
_atom_site_type_symbol
_atom_site_label
_atom_site_fract_x
_atom_site_fract_y
_atom_site_fract_z
Si Si1 0.660730 0.158671 0.700102
Si Si2 0.725260 0.250947 0.367714
Si Si3 0.170626 0.394566 0.735911
Si Si4 0.530251 0.265080 0.544030
Si Si5 0.441079 0.589492 0.147941
Si Si6 0.708386 0.513684 0.890314
O O1 0.500000 0.134160 0.750000
O O2 0.773361 0.187328 0.784217
O O3 0.636261 0.223285 0.621630
O O4 0.756130 0.096105 0.644430
O O5 0.754424 0.172398 0.318052
O O6 0.573159 0.252437 0.432042
O O7 0.860867 0.265755 0.443680
O O8 0.258854 0.419131 0.834888
O O9 0.171411 0.464556 0.666894
O O10 0.000000 0.368523 0.750000
O O11 0.533226 0.353173 0.561684
O O12 0.500000 0.622101 0.250000
O O13 0.532562 0.512834 0.127739
O O14 0.751132 0.500000 0.000000
#
# Coordination Sequence:
#
# PCOD8159068 Si02
#       6
#     8   8   8   8   8   8
#     4  10  22  43  69 101 146 182 232 300 351 410
#     4  11  23  40  69 102 140 183 236 296 343 418
#     4  11  23  44  68  95 135 193 228 276 358 424
#     4  11  21  41  68 101 140 180 232 291 353 405
#     4  10  20  44  67  88 138 187 218 279 358 414
#     4  11  23  44  70  98 136 184 232 296 360 417
#
# _framework density 21.696035999999999
#
# number of rings (size 3 to 8) (size 9 to 14) (size 15 to 20)
#    0.000    1.333    5.000    2.000    2.333    0.000 
#    9.000    0.833    0.000    0.000    0.000    0.000 
#    0.000    0.000    0.000    0.000    0.000    0.000 
#
# Total GULP energy -297414.395531 kJ/mol
# GULP energy per Si atom -12392.266480 kJ/mol
# Density = 2.164666 g / cm^3
# Si number density = 21.696036 Si / 1000 Ang^3
#
#
#
# Elastic Constant Matrix: (Units=GPa)
#
#
# Indices 1 2 3 4 5 6 
#
# 1 79.3413 24.4406 15.7430 0.0000 0.0000 0.0000
# 2 24.4406 85.3124 21.4223 0.0000 0.0000 0.0000
# 3 15.7430 21.4223 77.3937 0.0000 0.0000 0.0000
# 4 0.0000 0.0000 0.0000 20.5137 0.0000 0.0000
# 5 0.0000 0.0000 0.0000 0.0000 31.8097 0.0000
# 6 0.0000 0.0000 0.0000 0.0000 0.0000 35.2417
#
#
#
# Elastic Compliance Matrix: (Units=1/GPa)
#
#
# Indices 1 2 3 4 5 6 
#
# 1 0.014073 -0.003560 -0.001877 0.000000 0.000000 0.000000
# 2 -0.003560 0.013498 -0.003012 0.000000 0.000000 0.000000
# 3 -0.001877 -0.003012 0.014136 0.000000 0.000000 0.000000
# 4 0.000000 0.000000 0.000000 0.048748 0.000000 0.000000
# 5 0.000000 0.000000 0.000000 0.000000 0.031437 0.000000
# 6 0.000000 0.000000 0.000000 0.000000 0.000000 0.028375
#
#
# Mechanical properties :
#
#
# Convention : Reuss Voigt Hill
#
# Bulk Modulus (GPa) = 40.30876 40.58437 40.44656
# Shear Modulus (GPa) = 28.50042 29.54247 29.02145
#
# Velocity S-wave (km/s) = 3.62833 3.69406 3.66134
# Velocity P-wave (km/s) = 6.01433 6.07793 6.04622
#
# Compressibility (1/GPa) = 0.02480850
#
# Stress axis : x y z
#
# Youngs Moduli (GPa) = 71.05822 74.08558 70.73896
#
# Poissons Ratio (x) = 0.26377 0.13279
# Poissons Ratio (y) = 0.25299 0.21306
# Poissons Ratio (z) = 0.13339 0.22314
#
# Static dielectric constant tensor:
#      x y z
#    x 3.925290 0.000000 0.000000 
#    y 0.000000 3.692650 0.000000 
#    z 0.000000 0.000000 3.886310 
# 
# 
# High freq. dielectric constant tensor:
#      x y z
#    x 1.847980 0.000000 0.000000 
#    y 0.000000 1.838660 0.000000 
#    z 0.000000 0.000000 1.850470 
# 
# From -- ./inp_files/18894.got.cif
#   From: 2010.03.12/outbox.cif.g09.slc.cpg/sg20_10_cif.got.tgz:18894.got - 2010.04.14 01:38:04.
