data_PCOD8159563
_publ_section_title
;
Structure prediction by ZEFSAII (Michael W. Deem and Ramdas Pophale) SiO2 
 PCOD8159563
Probable space group: C 2 2 21
;
_chemical_formula_sum "Si O2"
_cell_formula_units_Z 36
_cell_length_a 15.330295
_cell_length_b 21.234255
_cell_length_c 5.213844
_cell_angle_alpha 90.000000
_cell_angle_beta 90.000000
_cell_angle_gamma 90.000000
_cell_volume 1697.249046
_symmetry_space_group_name_H-M "C 2 2 21"
_symmetry_group_IT_number 20
_symmetry_cell_setting 'orthorhombic'
loop_
_space_group_symop_operation_xyz
x,y,z
-x,-y,1/2+z
x,-y,-z
-x,y,1/2-z
1/2+x,1/2+y,z
1/2-x,1/2-y,1/2+z
1/2+x,1/2-y,-z
1/2-x,1/2+y,1/2-z
loop_
_atom_site_type_symbol
_atom_site_label
_atom_site_fract_x
_atom_site_fract_y
_atom_site_fract_z
Si Si1 0.558529 0.716644 0.001270
Si Si2 0.780368 0.500000 0.000000
Si Si3 0.710666 0.633061 0.981733
Si Si4 0.582198 0.060154 0.121788
Si Si5 0.809937 0.330652 0.498353
O O1 0.500000 0.720134 0.750000
O O2 0.608342 0.649324 0.020487
O O3 0.635646 0.767235 0.987035
O O4 0.500000 0.727811 0.250000
O O5 0.718878 0.441405 0.084375
O O6 0.840119 0.528513 0.219620
O O7 0.742391 0.673382 0.734978
O O8 0.765181 0.655402 0.228978
O O9 0.500000 0.096424 0.250000
O O10 0.624485 0.111225 0.931748
O O11 0.533948 0.000000 0.000000
#
# Coordination Sequence:
#
# PCOD8159563 Si02
#       5
#     8   4   8   8   8
#     4  12  25  43  64  93 123 160 209 266 308 353
#     4  10  22  38  58  88 122 168 206 248 296 374
#     4  11  23  42  66  90 124 164 209 249 307 371
#     4  11  20  33  55  89 127 162 195 245 302 371
#     4  11  23  40  64  91 125 167 201 247 309 379
#
# _framework density 21.210794
#
# number of rings (size 3 to 8) (size 9 to 14) (size 15 to 20)
#    0.000    0.889    3.333    4.667    0.000    2.667 
#    0.000    1.111    0.000    0.000    0.000    0.000 
#    0.000    0.000    0.000    0.000    0.000    0.000 
#
# Total GULP energy -223066.600178 kJ/mol
# GULP energy per Si atom -12392.588899 kJ/mol
# Density = 2.116252 g / cm^3
# Si number density = 21.210794 Si / 1000 Ang^3
#
#
#
# Elastic Constant Matrix: (Units=GPa)
#
#
# Indices 1 2 3 4 5 6 
#
# 1 76.1762 46.4987 36.5142 0.0000 0.0000 0.0000
# 2 46.4987 96.4392 26.4650 0.0000 0.0000 0.0000
# 3 36.5142 26.4650 124.5687 0.0000 0.0000 0.0000
# 4 0.0000 0.0000 0.0000 22.3004 0.0000 0.0000
# 5 0.0000 0.0000 0.0000 0.0000 19.8517 0.0000
# 6 0.0000 0.0000 0.0000 0.0000 0.0000 26.9943
#
#
#
# Elastic Compliance Matrix: (Units=1/GPa)
#
#
# Indices 1 2 3 4 5 6 
#
# 1 0.020430 -0.008715 -0.004137 0.000000 0.000000 0.000000
# 2 -0.008715 0.014729 -0.000575 0.000000 0.000000 0.000000
# 3 -0.004137 -0.000575 0.009362 0.000000 0.000000 0.000000
# 4 0.000000 0.000000 0.000000 0.044842 0.000000 0.000000
# 5 0.000000 0.000000 0.000000 0.000000 0.050374 0.000000
# 6 0.000000 0.000000 0.000000 0.000000 0.000000 0.037045
#
#
# Mechanical properties :
#
#
# Convention : Reuss Voigt Hill
#
# Bulk Modulus (GPa) = 56.59949 57.34888 56.97419
# Shear Modulus (GPa) = 23.86341 26.34302 25.10321
#
# Velocity S-wave (km/s) = 3.35783 3.52797 3.44395
# Velocity P-wave (km/s) = 6.46340 6.60997 6.53710
#
# Compressibility (1/GPa) = 0.01766800
#
# Stress axis : x y z
#
# Youngs Moduli (GPa) = 48.94659 67.89305 106.80968
#
# Poissons Ratio (x) = 0.59171 0.44188
# Poissons Ratio (y) = 0.42659 0.06137
# Poissons Ratio (z) = 0.20250 0.03901
#
# Static dielectric constant tensor:
#      x y z
#    x 3.854190 0.000000 0.000000 
#    y 0.000000 4.502040 0.000000 
#    z 0.000000 0.000000 2.796630 
# 
# 
# High freq. dielectric constant tensor:
#      x y z
#    x 1.824630 0.000000 0.000000 
#    y 0.000000 1.840770 0.000000 
#    z 0.000000 0.000000 1.834630 
# 
# From -- ./inp_files/1192.got.cif
#   From: 2010.03.12/outbox.cif.g09.slc.cpg/sg20_1_cif.got.tgz:1192.got - 2010.04.14 01:38:04.
