data_PCOD8159554
_publ_section_title
;
Structure prediction by ZEFSAII (Michael W. Deem and Ramdas Pophale) SiO2 
 PCOD8159554
Probable space group: C 2 2 21
;
_chemical_formula_sum "Si O2"
_cell_formula_units_Z 48
_cell_length_a 5.203441
_cell_length_b 27.115328
_cell_length_c 14.614154
_cell_angle_alpha 90.000000
_cell_angle_beta 90.000000
_cell_angle_gamma 90.000000
_cell_volume 2061.954968
_symmetry_space_group_name_H-M "C 2 2 21"
_symmetry_group_IT_number 20
_symmetry_cell_setting 'orthorhombic'
loop_
_space_group_symop_operation_xyz
x,y,z
-x,-y,1/2+z
x,-y,-z
-x,y,1/2-z
1/2+x,1/2+y,z
1/2-x,1/2-y,1/2+z
1/2+x,1/2-y,-z
1/2-x,1/2+y,1/2-z
loop_
_atom_site_type_symbol
_atom_site_label
_atom_site_fract_x
_atom_site_fract_y
_atom_site_fract_z
Si Si1 0.761911 0.164078 0.305846
Si Si2 0.712390 0.118683 0.586659
Si Si3 0.730025 0.428347 0.354053
Si Si4 0.735215 0.718979 0.010239
Si Si5 0.130019 0.000000 0.500000
Si Si6 0.500000 0.995672 0.750000
Si Si7 0.758005 0.934525 0.601326
O O1 0.500000 0.158697 0.250000
O O2 0.694287 0.198801 0.390308
O O3 0.865426 0.110609 0.338362
O O4 0.000000 0.187562 0.250000
O O5 0.457540 0.112647 0.648710
O O6 0.758801 0.175974 0.565539
O O7 0.663511 0.087733 0.494410
O O8 0.953558 0.098116 0.645489
O O9 0.788356 0.457085 0.450298
O O10 0.758867 0.467601 0.270709
O O11 0.447909 0.740412 0.013677
O O12 0.967767 0.023935 0.417185
O O13 0.537047 0.962178 0.659616
#
# Coordination Sequence:
#
# PCOD8159554 Si02
#       7
#     8   8   8   8   4   4   8
#     4  11  24  42  66 102 144 164 208 286 359 383
#     4  10  23  44  63  91 132 170 214 271 335 386
#     4  11  23  38  60  87 133 176 217 264 313 373
#     4  11  23  44  78 102 124 169 225 274 334 426
#     4  10  22  38  58  90 132 188 232 258 308 396
#     4  12  22  36  64  96 134 178 236 264 308 384
#     4  10  22  37  61  95 133 177 219 275 321 375
#
# _framework density 23.278877000000001
#
# number of rings (size 3 to 8) (size 9 to 14) (size 15 to 20)
#    0.000    1.333    0.833    5.000    2.333    9.333 
#    0.000    0.000   18.333    0.000    0.000    0.000 
#    0.000    0.000    0.000    0.000    0.000    0.000 
#
# Total GULP energy -297484.845953 kJ/mol
# GULP energy per Si atom -12395.201915 kJ/mol
# Density = 2.322589 g / cm^3
# Si number density = 23.278877 Si / 1000 Ang^3
#
#
#
# Elastic Constant Matrix: (Units=GPa)
#
#
# Indices 1 2 3 4 5 6 
#
# 1 118.4162 28.3324 17.0029 0.0000 0.0000 0.0000
# 2 28.3324 104.3178 21.1210 0.0000 0.0000 0.0000
# 3 17.0029 21.1210 59.6707 0.0000 0.0000 0.0000
# 4 0.0000 0.0000 0.0000 15.9545 0.0000 0.0000
# 5 0.0000 0.0000 0.0000 0.0000 30.6444 0.0000
# 6 0.0000 0.0000 0.0000 0.0000 0.0000 33.0876
#
#
#
# Elastic Compliance Matrix: (Units=1/GPa)
#
#
# Indices 1 2 3 4 5 6 
#
# 1 0.009223 -0.002125 -0.001876 0.000000 0.000000 0.000000
# 2 -0.002125 0.010816 -0.003223 0.000000 0.000000 0.000000
# 3 -0.001876 -0.003223 0.018434 0.000000 0.000000 0.000000
# 4 0.000000 0.000000 0.000000 0.062678 0.000000 0.000000
# 5 0.000000 0.000000 0.000000 0.000000 0.032632 0.000000
# 6 0.000000 0.000000 0.000000 0.000000 0.000000 0.030223
#
#
# Mechanical properties :
#
#
# Convention : Reuss Voigt Hill
#
# Bulk Modulus (GPa) = 41.62334 46.14636 43.88485
# Shear Modulus (GPa) = 26.81523 30.33387 28.57455
#
# Velocity S-wave (km/s) = 3.39767 3.61371 3.50735
# Velocity P-wave (km/s) = 5.77159 6.10559 5.94094
#
# Compressibility (1/GPa) = 0.02402498
#
# Stress axis : x y z
#
# Youngs Moduli (GPa) = 108.42974 92.45757 54.24796
#
# Poissons Ratio (x) = 0.19648 0.10176
# Poissons Ratio (y) = 0.23042 0.17483
# Poissons Ratio (z) = 0.20339 0.29797
#
# Static dielectric constant tensor:
#      x y z
#    x 3.906390 0.000000 0.000000 
#    y 0.000000 4.186310 0.000000 
#    z 0.000000 0.000000 4.622620 
# 
# 
# High freq. dielectric constant tensor:
#      x y z
#    x 1.918580 0.000000 0.000000 
#    y 0.000000 1.910890 0.000000 
#    z 0.000000 0.000000 1.926900 
# 
# From -- ./inp_files/17822.got.cif
#   From: 2010.03.12/outbox.cif.g09.slc.cpg/sg20_9_cif.got.tgz:17822.got - 2010.04.14 01:38:04.
