data_PCOD8159399
_publ_section_title
;
Structure prediction by ZEFSAII (Michael W. Deem and Ramdas Pophale) SiO2 
 PCOD8159399
Probable space group: C 2 2 21
;
_chemical_formula_sum "Si O2"
_cell_formula_units_Z 40
_cell_length_a 23.328738
_cell_length_b 8.755322
_cell_length_c 8.313780
_cell_angle_alpha 90.000000
_cell_angle_beta 90.000000
_cell_angle_gamma 90.000000
_cell_volume 1698.094662
_symmetry_space_group_name_H-M "C 2 2 21"
_symmetry_group_IT_number 20
_symmetry_cell_setting 'orthorhombic'
loop_
_space_group_symop_operation_xyz
x,y,z
-x,-y,1/2+z
x,-y,-z
-x,y,1/2-z
1/2+x,1/2+y,z
1/2-x,1/2-y,1/2+z
1/2+x,1/2-y,-z
1/2-x,1/2+y,1/2-z
loop_
_atom_site_type_symbol
_atom_site_label
_atom_site_fract_x
_atom_site_fract_y
_atom_site_fract_z
Si Si1 0.329393 0.333259 0.745194
Si Si2 0.968852 0.650660 0.080358
Si Si3 0.413449 0.824541 0.459027
Si Si4 0.870056 0.172606 0.768545
Si Si5 0.279057 0.167951 0.043269
O O1 0.382747 0.218849 0.709018
O O2 0.356222 0.495653 0.789247
O O3 0.288142 0.336791 0.588759
O O4 0.291431 0.279708 0.894867
O O5 0.920391 0.779067 0.105356
O O6 0.000000 0.608427 0.250000
O O7 0.940321 0.500000 0.000000
O O8 0.018146 0.705938 0.955379
O O9 0.388268 0.707451 0.588561
O O10 0.399675 0.000000 0.500000
O O11 0.813677 0.271635 0.803089
O O12 0.300595 0.000000 0.000000
#
# Coordination Sequence:
#
# PCOD8159399 Si02
#       5
#     8   8   8   8   8
#     4  12  25  43  67  98 132 174 226 287 347 400
#     4   9  20  40  68 100 137 180 226 274 333 409
#     4  10  21  41  69  97 132 179 224 273 339 411
#     4  11  23  42  65  98 136 174 227 285 340 400
#     4  12  25  42  65  91 129 177 223 277 341 414
#
# _framework density 23.555814000000002
#
# number of rings (size 3 to 8) (size 9 to 14) (size 15 to 20)
#    0.000    1.200    0.000    6.600    0.000    4.800 
#    0.000   12.000    0.000    0.000    0.000    0.000 
#    0.000    0.000    0.000    0.000    0.000    0.000 
#
# Total GULP energy -247993.598800 kJ/mol
# GULP energy per Si atom -12399.679940 kJ/mol
# Density = 2.350220 g / cm^3
# Si number density = 23.555814 Si / 1000 Ang^3
#
#
#
# Elastic Constant Matrix: (Units=GPa)
#
#
# Indices 1 2 3 4 5 6 
#
# 1 145.0641 68.0916 35.0182 0.0000 0.0000 0.0000
# 2 68.0916 171.6093 32.1867 0.0000 0.0000 0.0000
# 3 35.0182 32.1867 55.3627 0.0000 0.0000 0.0000
# 4 0.0000 0.0000 0.0000 43.2063 0.0000 0.0000
# 5 0.0000 0.0000 0.0000 0.0000 34.7878 0.0000
# 6 0.0000 0.0000 0.0000 0.0000 0.0000 38.1304
#
#
#
# Elastic Compliance Matrix: (Units=1/GPa)
#
#
# Indices 1 2 3 4 5 6 
#
# 1 0.009258 -0.002890 -0.004176 0.000000 0.000000 0.000000
# 2 -0.002890 0.007443 -0.002499 0.000000 0.000000 0.000000
# 3 -0.004176 -0.002499 0.022157 0.000000 0.000000 0.000000
# 4 0.000000 0.000000 0.000000 0.023145 0.000000 0.000000
# 5 0.000000 0.000000 0.000000 0.000000 0.028746 0.000000
# 6 0.000000 0.000000 0.000000 0.000000 0.000000 0.026226
#
#
# Mechanical properties :
#
#
# Convention : Reuss Voigt Hill
#
# Bulk Modulus (GPa) = 50.68949 71.40324 61.04637
# Shear Modulus (GPa) = 35.04362 39.00756 37.02559
#
# Velocity S-wave (km/s) = 3.86124 4.07377 3.96892
# Velocity P-wave (km/s) = 6.43774 7.24608 6.85383
#
# Compressibility (1/GPa) = 0.01972795
#
# Stress axis : x y z
#
# Youngs Moduli (GPa) = 108.01261 134.35999 45.13311
#
# Poissons Ratio (x) = 0.38834 0.18846
# Poissons Ratio (y) = 0.31219 0.11278
# Poissons Ratio (z) = 0.45102 0.33574
#
# Static dielectric constant tensor:
#      x y z
#    x 4.540600 0.000000 0.000000 
#    y 0.000000 4.039490 0.000000 
#    z 0.000000 0.000000 4.278630 
# 
# 
# High freq. dielectric constant tensor:
#      x y z
#    x 1.946150 0.000000 0.000000 
#    y 0.000000 1.923150 0.000000 
#    z 0.000000 0.000000 1.934690 
# 
# From -- ./inp_files/10485.got.cif
#   From: 2010.03.12/outbox.cif.g09.slc.cpg/sg20_6_cif.got.tgz:10485.got - 2010.04.14 01:38:04.
