data_PCOD8159427
_publ_section_title
;
Structure prediction by ZEFSAII (Michael W. Deem and Ramdas Pophale) SiO2 
 PCOD8159427
Probable space group: C 2 2 21
;
_chemical_formula_sum "Si O2"
_cell_formula_units_Z 56
_cell_length_a 9.297257
_cell_length_b 20.429478
_cell_length_c 14.455088
_cell_angle_alpha 90.000000
_cell_angle_beta 90.000000
_cell_angle_gamma 90.000000
_cell_volume 2745.572056
_symmetry_space_group_name_H-M "C 2 2 21"
_symmetry_group_IT_number 20
_symmetry_cell_setting 'orthorhombic'
loop_
_space_group_symop_operation_xyz
x,y,z
-x,-y,1/2+z
x,-y,-z
-x,y,1/2-z
1/2+x,1/2+y,z
1/2-x,1/2-y,1/2+z
1/2+x,1/2-y,-z
1/2-x,1/2+y,1/2-z
loop_
_atom_site_type_symbol
_atom_site_label
_atom_site_fract_x
_atom_site_fract_y
_atom_site_fract_z
Si Si1 0.283042 0.477613 0.601106
Si Si2 0.982465 0.134433 0.353596
Si Si3 0.444313 0.878719 0.967035
Si Si4 0.667363 0.287303 0.242301
Si Si5 0.127015 0.598794 0.674280
Si Si6 0.713689 0.175663 0.100364
Si Si7 0.742896 0.733618 0.070627
O O1 0.336869 0.500000 0.500000
O O2 0.415801 0.438659 0.647326
O O3 0.147380 0.430856 0.588843
O O4 0.231891 0.535537 0.669548
O O5 0.884678 0.182918 0.412014
O O6 0.000000 0.160894 0.250000
O O7 0.137931 0.136186 0.400425
O O8 0.598447 0.881641 0.917198
O O9 0.387676 0.805255 0.952059
O O10 0.452197 0.893966 0.075928
O O11 0.500000 0.308741 0.250000
O O12 0.765351 0.340431 0.189807
O O13 0.683909 0.216200 0.194315
O O14 0.731740 0.282347 0.344578
O O15 0.000000 0.592596 0.750000
O O16 0.696629 0.225264 0.016605
#
# Coordination Sequence:
#
# PCOD8159427 Si02
#       7
#     8   8   8   8   8   8   8
#     4   9  23  46  66  85 124 178 220 270 333 383
#     4  11  24  40  66  96 129 174 222 272 327 393
#     4  10  21  42  65  90 129 175 214 264 334 393
#     4  12  25  38  63 100 132 168 218 270 337 402
#     4  11  24  44  66  93 131 176 225 278 331 400
#     4  12  23  38  64 100 132 164 216 269 330 397
#     4  11  22  39  60  95 138 169 204 267 336 397
#
# _framework density 20.396477999999998
#
# number of rings (size 3 to 8) (size 9 to 14) (size 15 to 20)
#    0.000    1.143    4.286    1.714    2.000    1.714 
#    0.000    3.571    0.000    0.000    0.000    0.000 
#    0.000    0.000    0.000    0.000    0.000    0.000 
#
# Total GULP energy -347236.048999 kJ/mol
# GULP energy per Si atom -12401.287464 kJ/mol
# Density = 2.035005 g / cm^3
# Si number density = 20.396478 Si / 1000 Ang^3
#
#
#
# Elastic Constant Matrix: (Units=GPa)
#
#
# Indices 1 2 3 4 5 6 
#
# 1 141.6698 41.4885 31.0975 0.0000 0.0000 0.0000
# 2 41.4885 80.7188 17.4317 0.0000 0.0000 0.0000
# 3 31.0975 17.4317 66.9955 0.0000 0.0000 0.0000
# 4 0.0000 0.0000 0.0000 26.7093 0.0000 0.0000
# 5 0.0000 0.0000 0.0000 0.0000 33.6623 0.0000
# 6 0.0000 0.0000 0.0000 0.0000 0.0000 17.3472
#
#
#
# Elastic Compliance Matrix: (Units=1/GPa)
#
#
# Indices 1 2 3 4 5 6 
#
# 1 0.008881 -0.003893 -0.003109 0.000000 0.000000 0.000000
# 2 -0.003893 0.014833 -0.002052 0.000000 0.000000 0.000000
# 3 -0.003109 -0.002052 0.016904 0.000000 0.000000 0.000000
# 4 0.000000 0.000000 0.000000 0.037440 0.000000 0.000000
# 5 0.000000 0.000000 0.000000 0.000000 0.029707 0.000000
# 6 0.000000 0.000000 0.000000 0.000000 0.000000 0.057646
#
#
# Mechanical properties :
#
#
# Convention : Reuss Voigt Hill
#
# Bulk Modulus (GPa) = 44.42882 52.15771 48.29326
# Shear Modulus (GPa) = 26.17469 28.83485 27.50477
#
# Velocity S-wave (km/s) = 3.58620 3.76402 3.67618
# Velocity P-wave (km/s) = 6.24321 6.67217 6.46125
#
# Compressibility (1/GPa) = 0.02250791
#
# Stress axis : x y z
#
# Youngs Moduli (GPa) = 112.59449 67.41700 59.15875
#
# Poissons Ratio (x) = 0.26248 0.18395
# Poissons Ratio (y) = 0.43838 0.12141
# Poissons Ratio (z) = 0.35011 0.13835
#
# Static dielectric constant tensor:
#      x y z
#    x 3.944790 0.000000 0.000000 
#    y 0.000000 3.700120 0.000000 
#    z 0.000000 0.000000 3.771450 
# 
# 
# High freq. dielectric constant tensor:
#      x y z
#    x 1.806540 0.000000 0.000000 
#    y 0.000000 1.785320 0.000000 
#    z 0.000000 0.000000 1.804280 
# 
# From -- ./inp_files/19221.got.cif
#   From: 2010.03.12/outbox.cif.g09.slc.cpg/sg20_10_cif.got.tgz:19221.got - 2010.04.14 01:38:04.
