data_PCOD8159082
_publ_section_title
;
Structure prediction by ZEFSAII (Michael W. Deem and Ramdas Pophale) SiO2 
 PCOD8159082
Probable space group: C 2 2 21
;
_chemical_formula_sum "Si O2"
_cell_formula_units_Z 44
_cell_length_a 16.266305
_cell_length_b 9.739400
_cell_length_c 13.905370
_cell_angle_alpha 90.000000
_cell_angle_beta 90.000000
_cell_angle_gamma 90.000000
_cell_volume 2202.945045
_symmetry_space_group_name_H-M "C 2 2 21"
_symmetry_group_IT_number 20
_symmetry_cell_setting 'orthorhombic'
loop_
_space_group_symop_operation_xyz
x,y,z
-x,-y,1/2+z
x,-y,-z
-x,y,1/2-z
1/2+x,1/2+y,z
1/2-x,1/2-y,1/2+z
1/2+x,1/2-y,-z
1/2-x,1/2+y,1/2-z
loop_
_atom_site_type_symbol
_atom_site_label
_atom_site_fract_x
_atom_site_fract_y
_atom_site_fract_z
Si Si1 0.172383 0.594259 0.378237
Si Si2 0.506251 0.871944 0.946385
Si Si3 0.500000 0.483111 0.250000
Si Si4 0.435897 0.629296 0.067054
Si Si5 0.721590 0.193840 0.576527
Si Si6 0.375729 0.746914 0.695398
O O1 0.225486 0.667382 0.461927
O O2 0.206086 0.442304 0.359488
O O3 0.174064 0.685022 0.282794
O O4 0.081519 0.571388 0.416456
O O5 0.551972 0.840694 0.846846
O O6 0.495529 0.735984 0.011569
O O7 0.550791 0.000000 0.000000
O O8 0.485504 0.581013 0.159818
O O9 0.582463 0.393914 0.231470
O O10 0.349120 0.695008 0.099046
O O11 0.416070 0.500000 0.000000
O O12 0.812077 0.238789 0.607571
#
# Coordination Sequence:
#
# PCOD8159082 Si02
#       6
#     8   8   4   8   8   8
#     4  10  20  46  67  85 138 177 212 266 334 392
#     4  11  21  44  69  95 132 178 218 270 326 394
#     4  12  24  38  68  98 130 172 218 274 332 388
#     4  11  22  42  66  95 133 169 219 275 327 385
#     4  10  24  41  65  94 129 173 214 273 333 385
#     4  12  24  42  68 101 129 177 221 271 331 393
#
# _framework density 19.973261000000001
#
# number of rings (size 3 to 8) (size 9 to 14) (size 15 to 20)
#    0.000    1.091    7.273    1.091    2.545    5.091 
#    3.273    0.000    0.000    0.000    0.000    0.000 
#    0.000    0.000    0.000    0.000    0.000    0.000 
#
# Total GULP energy -272783.453331 kJ/mol
# GULP energy per Si atom -12399.247879 kJ/mol
# Density = 1.992780 g / cm^3
# Si number density = 19.973261 Si / 1000 Ang^3
#
#
#
# Elastic Constant Matrix: (Units=GPa)
#
#
# Indices 1 2 3 4 5 6 
#
# 1 58.5220 22.2650 41.7909 0.0000 0.0000 0.0000
# 2 22.2650 104.0585 32.8891 0.0000 0.0000 0.0000
# 3 41.7909 32.8891 97.4575 0.0000 0.0000 0.0000
# 4 0.0000 0.0000 0.0000 28.3560 0.0000 0.0000
# 5 0.0000 0.0000 0.0000 0.0000 35.0632 0.0000
# 6 0.0000 0.0000 0.0000 0.0000 0.0000 12.1730
#
#
#
# Elastic Compliance Matrix: (Units=1/GPa)
#
#
# Indices 1 2 3 4 5 6 
#
# 1 0.025072 -0.002201 -0.010008 0.000000 0.000000 0.000000
# 2 -0.002201 0.010951 -0.002752 0.000000 0.000000 0.000000
# 3 -0.010008 -0.002752 0.015481 0.000000 0.000000 0.000000
# 4 0.000000 0.000000 0.000000 0.035266 0.000000 0.000000
# 5 0.000000 0.000000 0.000000 0.000000 0.028520 0.000000
# 6 0.000000 0.000000 0.000000 0.000000 0.000000 0.082149
#
#
# Mechanical properties :
#
#
# Convention : Reuss Voigt Hill
#
# Bulk Modulus (GPa) = 46.33606 50.43646 48.38626
# Shear Modulus (GPa) = 21.31698 25.99131 23.65414
#
# Velocity S-wave (km/s) = 3.27046 3.61127 3.44509
# Velocity P-wave (km/s) = 6.12459 6.53416 6.33269
#
# Compressibility (1/GPa) = 0.02158147
#
# Stress axis : x y z
#
# Youngs Moduli (GPa) = 39.88492 91.31863 64.59463
#
# Poissons Ratio (x) = 0.20102 0.64649
# Poissons Ratio (y) = 0.08780 0.17774
# Poissons Ratio (z) = 0.39918 0.25127
#
# Static dielectric constant tensor:
#      x y z
#    x 3.443320 0.000000 0.000000 
#    y 0.000000 3.737110 0.000000 
#    z 0.000000 0.000000 3.851720 
# 
# 
# High freq. dielectric constant tensor:
#      x y z
#    x 1.766260 0.000000 0.000000 
#    y 0.000000 1.785680 0.000000 
#    z 0.000000 0.000000 1.784510 
# 
# From -- ./inp_files/21196.got.cif
#   From: 2010.03.12/outbox.cif.g09.slc.cpg/sg20_11_cif.got.tgz:21196.got - 2010.04.14 01:38:04.
