data_PCOD8159777
_publ_section_title
;
Structure prediction by ZEFSAII (Michael W. Deem and Ramdas Pophale) SiO2 
 PCOD8159777
Probable space group: C 2 2 21
;
_chemical_formula_sum "Si O2"
_cell_formula_units_Z 60
_cell_length_a 22.547269
_cell_length_b 5.362604
_cell_length_c 22.026134
_cell_angle_alpha 90.000000
_cell_angle_beta 90.000000
_cell_angle_gamma 90.000000
_cell_volume 2663.225565
_symmetry_space_group_name_H-M "C 2 2 21"
_symmetry_group_IT_number 20
_symmetry_cell_setting 'orthorhombic'
loop_
_space_group_symop_operation_xyz
x,y,z
-x,-y,1/2+z
x,-y,-z
-x,y,1/2-z
1/2+x,1/2+y,z
1/2-x,1/2-y,1/2+z
1/2+x,1/2-y,-z
1/2-x,1/2+y,1/2-z
loop_
_atom_site_type_symbol
_atom_site_label
_atom_site_fract_x
_atom_site_fract_y
_atom_site_fract_z
Si Si1 0.000000 0.043519 0.750000
Si Si2 0.522889 0.867885 0.639795
Si Si3 0.284022 0.820114 0.748774
Si Si4 0.573133 0.243915 0.831389
Si Si5 0.345269 0.029905 0.130094
Si Si6 0.206225 0.977380 0.571715
Si Si7 0.565674 0.616805 0.934701
Si Si8 0.669356 0.087495 0.127693
O O1 0.060100 0.901535 0.771192
O O2 0.031833 0.162495 0.691667
O O3 0.583976 0.009369 0.626362
O O4 0.494780 0.776275 0.575172
O O5 0.473027 0.022004 0.674290
O O6 0.257218 0.557061 0.772148
O O7 0.325835 0.942277 0.799918
O O8 0.314854 0.735480 0.685117
O O9 0.556897 0.384405 0.892138
O O10 0.640627 0.151901 0.838131
O O11 0.329344 0.287640 0.097288
O O12 0.316487 0.788382 0.097912
O O13 0.275425 0.002665 0.587949
O O14 0.198463 0.000000 0.500000
O O15 0.623713 0.777565 0.917619
O O16 0.573080 0.500000 0.000000
#
# Coordination Sequence:
#
# PCOD8159777 Si02
#       8
#     4   8   8   8   8   8   8   8
#     4  10  22  42  68 108 140 186 238 296 370 446
#     4  10  25  44  68 106 141 191 242 298 366 446
#     4  12  25  46  70 105 154 188 247 305 365 452
#     4  10  24  42  68 102 142 182 237 299 370 429
#     4  12  27  49  75 110 147 201 247 301 376 438
#     4  12  29  51  75 109 146 196 256 303 367 443
#     4  10  25  46  72 105 141 189 245 304 369 437
#     4  11  26  44  72 109 139 191 241 307 377 432
#
# _framework density 22.529073
#
# number of rings (size 3 to 8) (size 9 to 14) (size 15 to 20)
#    0.000    1.067    2.667    0.800   16.800    2.133 
#    2.400    0.000    0.000    0.000    0.000    0.000 
#    0.000    0.000    0.000    0.000    0.000    0.000 
#
# Total GULP energy -371662.777015 kJ/mol
# GULP energy per Si atom -12388.759234 kJ/mol
# Density = 2.247780 g / cm^3
# Si number density = 22.529073 Si / 1000 Ang^3
#
#
#
# Elastic Constant Matrix: (Units=GPa)
#
#
# Indices 1 2 3 4 5 6 
#
# 1 108.2522 15.5599 6.8124 0.0000 0.0000 0.0000
# 2 15.5599 93.3846 7.4795 0.0000 0.0000 0.0000
# 3 6.8124 7.4795 92.9949 0.0000 0.0000 0.0000
# 4 0.0000 0.0000 0.0000 1.1194 0.0000 0.0000
# 5 0.0000 0.0000 0.0000 0.0000 9.8908 0.0000
# 6 0.0000 0.0000 0.0000 0.0000 0.0000 15.7181
#
#
#
# Elastic Compliance Matrix: (Units=1/GPa)
#
#
# Indices 1 2 3 4 5 6 
#
# 1 0.009494 -0.001536 -0.000572 0.000000 0.000000 0.000000
# 2 -0.001536 0.011026 -0.000774 0.000000 0.000000 0.000000
# 3 -0.000572 -0.000774 0.010857 0.000000 0.000000 0.000000
# 4 0.000000 0.000000 0.000000 0.893348 0.000000 0.000000
# 5 0.000000 0.000000 0.000000 0.000000 0.101104 0.000000
# 6 0.000000 0.000000 0.000000 0.000000 0.000000 0.063621
#
#
# Mechanical properties :
#
#
# Convention : Reuss Voigt Hill
#
# Bulk Modulus (GPa) = 39.04203 39.37057 39.20630
# Shear Modulus (GPa) = 4.53000 22.99765 13.76382
#
# Velocity S-wave (km/s) = 1.41954 3.19846 2.47439
# Velocity P-wave (km/s) = 4.47817 5.58154 5.06002
#
# Compressibility (1/GPa) = 0.02561342
#
# Stress axis : x y z
#
# Youngs Moduli (GPa) = 105.32421 90.69155 92.10262
#
# Poissons Ratio (x) = 0.13932 0.05268
# Poissons Ratio (y) = 0.16180 0.07132
# Poissons Ratio (z) = 0.06024 0.07022
#
# Static dielectric constant tensor:
#      x y z
#    x 4.220310 0.000000 0.000000 
#    y 0.000000 4.302190 0.000000 
#    z 0.000000 0.000000 3.913360 
# 
# 
# High freq. dielectric constant tensor:
#      x y z
#    x 1.888690 0.000000 0.000000 
#    y 0.000000 1.896670 0.000000 
#    z 0.000000 0.000000 1.893900 
# 
# From -- ./inp_files/28049.got.cif
#   From: 2010.03.12/outbox.cif.g09.slc.cpg/sg20_15_cif.got.tgz:28049.got - 2010.04.14 01:38:04.
