data_PCOD8159196
_publ_section_title
;
Structure prediction by ZEFSAII (Michael W. Deem and Ramdas Pophale) SiO2 
 PCOD8159196
Probable space group: C 2 2 21
;
_chemical_formula_sum "Si O2"
_cell_formula_units_Z 48
_cell_length_a 10.067313
_cell_length_b 23.503826
_cell_length_c 9.227914
_cell_angle_alpha 90.000000
_cell_angle_beta 90.000000
_cell_angle_gamma 90.000000
_cell_volume 2183.512453
_symmetry_space_group_name_H-M "C 2 2 21"
_symmetry_group_IT_number 20
_symmetry_cell_setting 'orthorhombic'
loop_
_space_group_symop_operation_xyz
x,y,z
-x,-y,1/2+z
x,-y,-z
-x,y,1/2-z
1/2+x,1/2+y,z
1/2-x,1/2-y,1/2+z
1/2+x,1/2-y,-z
1/2-x,1/2+y,1/2-z
loop_
_atom_site_type_symbol
_atom_site_label
_atom_site_fract_x
_atom_site_fract_y
_atom_site_fract_z
Si Si1 0.139976 0.237740 0.172780
Si Si2 0.994554 0.889554 0.406128
Si Si3 0.287950 0.393116 0.633492
Si Si4 0.389780 0.735956 0.648886
Si Si5 0.975590 0.554901 0.085685
Si Si6 0.231046 0.937340 0.556218
O O1 0.178544 0.171436 0.173355
O O2 0.251873 0.270474 0.265016
O O3 0.000000 0.247209 0.250000
O O4 0.134401 0.264228 0.009395
O O5 0.888878 0.918853 0.514190
O O6 0.951698 0.824907 0.386129
O O7 0.000000 0.920788 0.250000
O O8 0.141384 0.891224 0.473941
O O9 0.136848 0.396397 0.572979
O O10 0.300255 0.433300 0.773309
O O11 0.500000 0.768847 0.750000
O O12 0.000000 0.535453 0.250000
O O13 0.115257 0.577887 0.021318
O O14 0.924351 0.500000 0.000000
O O15 0.194153 0.000000 0.500000
#
# Coordination Sequence:
#
# PCOD8159196 Si02
#       6
#     8   8   8   8   8   8
#     4  11  22  40  64  91 126 167 210 265 325 387
#     4  10  22  39  58  89 124 157 203 257 308 370
#     4  10  21  39  62  90 123 164 209 256 312 379
#     4  10  22  41  63  90 121 160 209 261 319 382
#     4   9  20  37  59  87 120 159 203 248 301 364
#     4  10  21  38  60  89 125 169 209 249 304 370
#
# _framework density 21.982928999999999
#
# number of rings (size 3 to 8) (size 9 to 14) (size 15 to 20)
#    0.000    2.000    0.000    3.500    0.000    9.333 
#    0.000    6.667    0.000    0.000    0.000    0.000 
#    0.000    0.000    0.000    0.000    0.000    0.000 
#
# Total GULP energy -297491.247782 kJ/mol
# GULP energy per Si atom -12395.468658 kJ/mol
# Density = 2.193289 g / cm^3
# Si number density = 21.982929 Si / 1000 Ang^3
#
#
#
# Elastic Constant Matrix: (Units=GPa)
#
#
# Indices 1 2 3 4 5 6 
#
# 1 174.7847 30.7481 71.2787 0.0000 0.0000 0.0000
# 2 30.7481 43.4477 16.6273 0.0000 0.0000 0.0000
# 3 71.2787 16.6273 139.6458 0.0000 0.0000 0.0000
# 4 0.0000 0.0000 0.0000 26.9624 0.0000 0.0000
# 5 0.0000 0.0000 0.0000 0.0000 42.7127 0.0000
# 6 0.0000 0.0000 0.0000 0.0000 0.0000 23.9265
#
#
#
# Elastic Compliance Matrix: (Units=1/GPa)
#
#
# Indices 1 2 3 4 5 6 
#
# 1 0.007908 -0.004245 -0.003531 0.000000 0.000000 0.000000
# 2 -0.004245 0.026394 -0.000976 0.000000 0.000000 0.000000
# 3 -0.003531 -0.000976 0.009079 0.000000 0.000000 0.000000
# 4 0.000000 0.000000 0.000000 0.037089 0.000000 0.000000
# 5 0.000000 0.000000 0.000000 0.000000 0.023412 0.000000
# 6 0.000000 0.000000 0.000000 0.000000 0.000000 0.041795
#
#
# Mechanical properties :
#
#
# Convention : Reuss Voigt Hill
#
# Bulk Modulus (GPa) = 38.64374 66.13185 52.38780
# Shear Modulus (GPa) = 29.10238 34.66859 31.88548
#
# Velocity S-wave (km/s) = 3.64244 3.97554 3.81263
# Velocity P-wave (km/s) = 5.94197 7.15694 6.57757
#
# Compressibility (1/GPa) = 0.02587741
#
# Stress axis : x y z
#
# Youngs Moduli (GPa) = 126.45182 37.88738 110.13837
#
# Poissons Ratio (x) = 0.16084 0.38890
# Poissons Ratio (y) = 0.53683 0.10747
# Poissons Ratio (z) = 0.44651 0.03697
#
# Static dielectric constant tensor:
#      x y z
#    x 4.517750 0.000000 0.000000 
#    y 0.000000 3.413650 0.000000 
#    z 0.000000 0.000000 5.145350 
# 
# 
# High freq. dielectric constant tensor:
#      x y z
#    x 1.885840 0.000000 0.000000 
#    y 0.000000 1.817080 0.000000 
#    z 0.000000 0.000000 1.884310 
# 
# From -- ./inp_files/6520.got.cif
#   From: 2010.03.12/outbox.cif.g09.slc.cpg/sg20_4_cif.got.tgz:6520.got - 2010.04.14 01:38:04.
