data_PCOD8159608
_publ_section_title
;
Structure prediction by ZEFSAII (Michael W. Deem and Ramdas Pophale) SiO2 
 PCOD8159608
Probable space group: C 2 2 21
;
_chemical_formula_sum "Si O2"
_cell_formula_units_Z 40
_cell_length_a 8.638360
_cell_length_b 12.282571
_cell_length_c 18.633630
_cell_angle_alpha 90.000000
_cell_angle_beta 90.000000
_cell_angle_gamma 90.000000
_cell_volume 1977.051808
_symmetry_space_group_name_H-M "C 2 2 21"
_symmetry_group_IT_number 20
_symmetry_cell_setting 'orthorhombic'
loop_
_space_group_symop_operation_xyz
x,y,z
-x,-y,1/2+z
x,-y,-z
-x,y,1/2-z
1/2+x,1/2+y,z
1/2-x,1/2-y,1/2+z
1/2+x,1/2-y,-z
1/2-x,1/2+y,1/2-z
loop_
_atom_site_type_symbol
_atom_site_label
_atom_site_fract_x
_atom_site_fract_y
_atom_site_fract_z
Si Si1 0.850227 0.120384 0.665510
Si Si2 0.191735 0.183743 0.678943
Si Si3 0.319082 0.884120 0.463878
Si Si4 0.080427 0.874495 0.826650
Si Si5 0.883170 0.739176 0.936491
O O1 0.772051 0.129652 0.743979
O O2 0.739400 0.166271 0.605247
O O3 0.008583 0.189856 0.664462
O O4 0.880389 0.995007 0.646913
O O5 0.276177 0.107267 0.620339
O O6 0.261467 0.305275 0.676445
O O7 0.198993 0.800973 0.498991
O O8 0.492685 0.840464 0.473056
O O9 0.304291 0.000000 0.500000
O O10 0.000000 0.878752 0.750000
O O11 0.961710 0.824787 0.883346
#
# Coordination Sequence:
#
# PCOD8159608 Si02
#       5
#     8   8   8   8   8
#     4  11  22  40  66  92 128 164 211 265 313 368
#     4  10  22  39  63  96 123 163 213 254 313 380
#     4  11  25  42  64  91 130 169 209 259 321 377
#     4  11  21  40  66  93 126 164 206 265 316 365
#     4  11  25  42  65  93 129 166 217 257 313 383
#
# _framework density 20.232144999999999
#
# number of rings (size 3 to 8) (size 9 to 14) (size 15 to 20)
#    0.000    1.200    4.000    2.400    0.000    4.800 
#    0.000    7.000    0.000    0.000    0.000    0.000 
#    0.000    0.000    0.000    0.000    0.000    0.000 
#
# Total GULP energy -248107.048374 kJ/mol
# GULP energy per Si atom -12405.352419 kJ/mol
# Density = 2.018610 g / cm^3
# Si number density = 20.232145 Si / 1000 Ang^3
#
#
#
# Elastic Constant Matrix: (Units=GPa)
#
#
# Indices 1 2 3 4 5 6 
#
# 1 87.3408 52.2097 5.7893 0.0000 0.0000 0.0000
# 2 52.2097 115.4225 31.5215 0.0000 0.0000 0.0000
# 3 5.7893 31.5215 51.5589 0.0000 0.0000 0.0000
# 4 0.0000 0.0000 0.0000 28.0051 0.0000 0.0000
# 5 0.0000 0.0000 0.0000 0.0000 41.4260 0.0000
# 6 0.0000 0.0000 0.0000 0.0000 0.0000 23.4114
#
#
#
# Elastic Compliance Matrix: (Units=1/GPa)
#
#
# Indices 1 2 3 4 5 6 
#
# 1 0.016115 -0.008157 0.003178 0.000000 0.000000 0.000000
# 2 -0.008157 0.014529 -0.007967 0.000000 0.000000 0.000000
# 3 0.003178 -0.007967 0.023909 0.000000 0.000000 0.000000
# 4 0.000000 0.000000 0.000000 0.035708 0.000000 0.000000
# 5 0.000000 0.000000 0.000000 0.000000 0.024139 0.000000
# 6 0.000000 0.000000 0.000000 0.000000 0.000000 0.042714
#
#
# Mechanical properties :
#
#
# Convention : Reuss Voigt Hill
#
# Bulk Modulus (GPa) = 34.89120 48.15147 41.52134
# Shear Modulus (GPa) = 25.96579 29.55527 27.76053
#
# Velocity S-wave (km/s) = 3.58633 3.82620 3.70821
# Velocity P-wave (km/s) = 5.86787 6.58566 6.23710
#
# Compressibility (1/GPa) = 0.02866052
#
# Stress axis : x y z
#
# Youngs Moduli (GPa) = 62.05459 68.82656 41.82495
#
# Poissons Ratio (x) = 0.56142 -0.13290
# Poissons Ratio (y) = 0.50618 0.33321
# Poissons Ratio (z) = -0.19718 0.54833
#
# Static dielectric constant tensor:
#      x y z
#    x 3.467810 0.000000 0.000000 
#    y 0.000000 3.760750 0.000000 
#    z 0.000000 0.000000 3.843320 
# 
# 
# High freq. dielectric constant tensor:
#      x y z
#    x 1.799050 0.000000 0.000000 
#    y 0.000000 1.786390 0.000000 
#    z 0.000000 0.000000 1.804920 
# 
# From -- ./inp_files/23163.got.cif
#   From: 2010.03.12/outbox.cif.g09.slc.cpg/sg20_12_cif.got.tgz:23163.got - 2010.04.14 01:38:04.
