data_PCOD8159502
_publ_section_title
;
Structure prediction by ZEFSAII (Michael W. Deem and Ramdas Pophale) SiO2 
 PCOD8159502
Probable space group: C 2 2 21
;
_chemical_formula_sum "Si O2"
_cell_formula_units_Z 36
_cell_length_a 13.509482
_cell_length_b 5.378438
_cell_length_c 22.960137
_cell_angle_alpha 90.000000
_cell_angle_beta 90.000000
_cell_angle_gamma 90.000000
_cell_volume 1668.281519
_symmetry_space_group_name_H-M "C 2 2 21"
_symmetry_group_IT_number 20
_symmetry_cell_setting 'orthorhombic'
loop_
_space_group_symop_operation_xyz
x,y,z
-x,-y,1/2+z
x,-y,-z
-x,y,1/2-z
1/2+x,1/2+y,z
1/2-x,1/2-y,1/2+z
1/2+x,1/2-y,-z
1/2-x,1/2+y,1/2-z
loop_
_atom_site_type_symbol
_atom_site_label
_atom_site_fract_x
_atom_site_fract_y
_atom_site_fract_z
Si Si1 0.015467 0.767412 0.912447
Si Si2 0.885310 0.500000 0.000000
Si Si3 0.768200 0.331450 0.443027
Si Si4 0.433479 0.031957 0.806587
Si Si5 0.635364 0.472812 0.345810
O O1 0.002945 0.547290 0.864302
O O2 0.965571 0.016443 0.885521
O O3 0.129385 0.807817 0.928765
O O4 0.954288 0.705588 0.970620
O O5 0.815035 0.621911 0.048670
O O6 0.781396 0.500000 0.500000
O O7 0.732411 0.489538 0.387071
O O8 0.500000 0.023133 0.750000
O O9 0.367197 0.781271 0.808609
O O10 0.363061 0.279783 0.804633
#
# Coordination Sequence:
#
# PCOD8159502 Si02
#       5
#     8   4   8   8   8
#     4  10  24  39  63  96 132 169 216 264 323 388
#     4  12  22  40  58  98 136 166 210 270 314 400
#     4  12  22  38  65  94 131 179 210 264 331 387
#     4  10  21  44  69  91 130 173 213 275 329 373
#     4  10  22  42  63  96 131 159 224 267 317 388
#
# _framework density 21.579090999999998
#
# number of rings (size 3 to 8) (size 9 to 14) (size 15 to 20)
#    1.333    0.000    5.556    0.667    0.000    3.556 
#    0.000    2.222    0.000    0.000    0.000    0.000 
#    0.000    0.000    0.000    0.000    0.000    0.000 
#
# Total GULP energy -223062.250522 kJ/mol
# GULP energy per Si atom -12392.347251 kJ/mol
# Density = 2.152998 g / cm^3
# Si number density = 21.579091 Si / 1000 Ang^3
#
#
#
# Elastic Constant Matrix: (Units=GPa)
#
#
# Indices 1 2 3 4 5 6 
#
# 1 119.2744 15.8135 7.3980 0.0000 0.0000 0.0000
# 2 15.8135 111.4077 2.3517 0.0000 0.0000 0.0000
# 3 7.3980 2.3517 40.3208 0.0000 0.0000 0.0000
# 4 0.0000 0.0000 0.0000 28.3870 0.0000 0.0000
# 5 0.0000 0.0000 0.0000 0.0000 15.7956 0.0000
# 6 0.0000 0.0000 0.0000 0.0000 0.0000 16.7557
#
#
#
# Elastic Compliance Matrix: (Units=1/GPa)
#
#
# Indices 1 2 3 4 5 6 
#
# 1 0.008636 -0.001194 -0.001515 0.000000 0.000000 0.000000
# 2 -0.001194 0.009152 -0.000315 0.000000 0.000000 0.000000
# 3 -0.001515 -0.000315 0.025097 0.000000 0.000000 0.000000
# 4 0.000000 0.000000 0.000000 0.035227 0.000000 0.000000
# 5 0.000000 0.000000 0.000000 0.000000 0.063309 0.000000
# 6 0.000000 0.000000 0.000000 0.000000 0.000000 0.059681
#
#
# Mechanical properties :
#
#
# Convention : Reuss Voigt Hill
#
# Bulk Modulus (GPa) = 27.14537 35.79214 31.46875
# Shear Modulus (GPa) = 22.78629 28.55028 25.66829
#
# Velocity S-wave (km/s) = 3.25305 3.64133 3.45265
# Velocity P-wave (km/s) = 5.16881 5.85675 5.52350
#
# Compressibility (1/GPa) = 0.03683870
#
# Stress axis : x y z
#
# Youngs Moduli (GPa) = 115.79057 109.26399 39.84478
#
# Poissons Ratio (x) = 0.13045 0.06036
# Poissons Ratio (y) = 0.13824 0.01254
# Poissons Ratio (z) = 0.17542 0.03439
#
# Static dielectric constant tensor:
#      x y z
#    x 3.607470 0.000000 0.000000 
#    y 0.000000 3.752400 0.000000 
#    z 0.000000 0.000000 3.739340 
# 
# 
# High freq. dielectric constant tensor:
#      x y z
#    x 1.825350 0.000000 0.000000 
#    y 0.000000 1.840400 0.000000 
#    z 0.000000 0.000000 1.838860 
# 
# From -- ./inp_files/28196.got.cif
#   From: 2010.03.12/outbox.cif.g09.slc.cpg/sg20_15_cif.got.tgz:28196.got - 2010.04.14 01:38:04.
