data_PCOD8159988
_publ_section_title
;
Structure prediction by ZEFSAII (Michael W. Deem and Ramdas Pophale) SiO2 
 PCOD8159988
Probable space group: C 2 2 21
;
_chemical_formula_sum "Si O2"
_cell_formula_units_Z 48
_cell_length_a 18.941610
_cell_length_b 16.819515
_cell_length_c 7.432411
_cell_angle_alpha 90.000000
_cell_angle_beta 90.000000
_cell_angle_gamma 90.000000
_cell_volume 2367.882110
_symmetry_space_group_name_H-M "C 2 2 21"
_symmetry_group_IT_number 20
_symmetry_cell_setting 'orthorhombic'
loop_
_space_group_symop_operation_xyz
x,y,z
-x,-y,1/2+z
x,-y,-z
-x,y,1/2-z
1/2+x,1/2+y,z
1/2-x,1/2-y,1/2+z
1/2+x,1/2-y,-z
1/2-x,1/2+y,1/2-z
loop_
_atom_site_type_symbol
_atom_site_label
_atom_site_fract_x
_atom_site_fract_y
_atom_site_fract_z
Si Si1 0.081318 0.342789 0.248230
Si Si2 0.172798 0.841408 0.090965
Si Si3 0.672798 0.841407 0.909034
Si Si4 0.418682 0.342790 0.748230
Si Si5 0.184037 0.089926 0.532002
Si Si6 0.815963 0.589926 0.032002
O O1 0.091886 0.250000 0.288775
O O2 0.118276 0.392112 0.404864
O O3 0.000000 0.367599 0.250000
O O4 0.114681 0.365700 0.056322
O O5 0.163888 0.750000 0.149158
O O6 0.160147 0.897304 0.262652
O O7 0.250586 0.852416 0.008969
O O8 0.114681 0.865701 0.943678
O O9 0.750586 0.852415 0.991029
O O10 0.660145 0.897303 0.737348
O O11 0.500000 0.367599 0.750000
O O12 0.381724 0.392112 0.904866
O O13 0.209094 0.000000 0.500000
O O14 0.790908 0.500000 0.000000
#
# Coordination Sequence:
#
# PCOD8159988 Si02
#       6
#     8   8   8   8   8   8
#     4  10  23  43  64  91 126 164 211 262 308 371
#     4  11  22  39  68  93 121 166 213 256 306 377
#     4  11  22  39  68  93 121 166 213 256 306 377
#     4  10  23  43  64  91 126 164 211 262 308 371
#     4  12  24  39  62  97 127 163 207 265 317 371
#     4  12  24  39  62  97 127 163 207 265 317 371
#
# _framework density 20.271280000000001
#
# number of rings (size 3 to 8) (size 9 to 14) (size 15 to 20)
#    0.000    1.000    3.333    4.000    0.000    1.333 
#    6.000    5.000    0.000    0.000    0.000    0.000 
#    0.000    0.000    0.000    0.000    0.000    0.000 
#
# Total GULP energy -297800.048062 kJ/mol
# GULP energy per Si atom -12408.335336 kJ/mol
# Density = 2.022514 g / cm^3
# Si number density = 20.271280 Si / 1000 Ang^3
#
#
#
# Elastic Constant Matrix: (Units=GPa)
#
#
# Indices 1 2 3 4 5 6 
#
# 1 134.3506 31.2869 67.3979 0.0000 0.0000 0.0000
# 2 31.2869 42.6569 39.9551 0.0000 0.0000 0.0000
# 3 67.3979 39.9551 157.4396 0.0000 0.0000 0.0000
# 4 0.0000 0.0000 0.0000 23.7462 0.0000 0.0000
# 5 0.0000 0.0000 0.0000 0.0000 31.5922 0.0000
# 6 0.0000 0.0000 0.0000 0.0000 0.0000 10.7076
#
#
#
# Elastic Compliance Matrix: (Units=1/GPa)
#
#
# Indices 1 2 3 4 5 6 
#
# 1 0.010069 -0.004392 -0.003196 0.000000 0.000000 0.000000
# 2 -0.004392 0.032669 -0.006411 0.000000 0.000000 0.000000
# 3 -0.003196 -0.006411 0.009347 0.000000 0.000000 0.000000
# 4 0.000000 0.000000 0.000000 0.042112 0.000000 0.000000
# 5 0.000000 0.000000 0.000000 0.000000 0.031653 0.000000
# 6 0.000000 0.000000 0.000000 0.000000 0.000000 0.093392
#
#
# Mechanical properties :
#
#
# Convention : Reuss Voigt Hill
#
# Bulk Modulus (GPa) = 41.51477 67.96967 54.74222
# Shear Modulus (GPa) = 19.58730 26.26302 22.92516
#
# Velocity S-wave (km/s) = 3.11184 3.60332 3.36656
# Velocity P-wave (km/s) = 5.78234 7.13545 6.49423
#
# Compressibility (1/GPa) = 0.02408781
#
# Stress axis : x y z
#
# Youngs Moduli (GPa) = 99.31256 30.61045 106.98991
#
# Poissons Ratio (x) = 0.13443 0.34193
# Poissons Ratio (y) = 0.43616 0.68587
# Poissons Ratio (z) = 0.31740 0.19623
#
# Static dielectric constant tensor:
#      x y z
#    x 3.588210 0.000000 0.000000 
#    y 0.000000 3.572930 0.000000 
#    z 0.000000 0.000000 3.815010 
# 
# 
# High freq. dielectric constant tensor:
#      x y z
#    x 1.784330 0.000000 0.000000 
#    y 0.000000 1.787940 0.000000 
#    z 0.000000 0.000000 1.807230 
# 
# From -- ./inp_files/8448.got.cif
#   From: 2010.03.12/outbox.cif.g09.slc.cpg/sg20_5_cif.got.tgz:8448.got - 2010.04.14 01:38:04.
