data_PCOD8159526
_publ_section_title
;
Structure prediction by ZEFSAII (Michael W. Deem and Ramdas Pophale) SiO2 
 PCOD8159526
Probable space group: C 2 2 21
;
_chemical_formula_sum "Si O2"
_cell_formula_units_Z 56
_cell_length_a 21.450808
_cell_length_b 13.240400
_cell_length_c 9.730536
_cell_angle_alpha 90.000000
_cell_angle_beta 90.000000
_cell_angle_gamma 90.000000
_cell_volume 2763.640351
_symmetry_space_group_name_H-M "C 2 2 21"
_symmetry_group_IT_number 20
_symmetry_cell_setting 'orthorhombic'
loop_
_space_group_symop_operation_xyz
x,y,z
-x,-y,1/2+z
x,-y,-z
-x,y,1/2-z
1/2+x,1/2+y,z
1/2-x,1/2-y,1/2+z
1/2+x,1/2-y,-z
1/2-x,1/2+y,1/2-z
loop_
_atom_site_type_symbol
_atom_site_label
_atom_site_fract_x
_atom_site_fract_y
_atom_site_fract_z
Si Si1 0.743193 0.594061 0.595552
Si Si2 0.939693 0.970571 0.341266
Si Si3 0.756560 0.899141 0.416078
Si Si4 0.851489 0.262045 0.999875
Si Si5 0.925066 0.179146 0.254482
Si Si6 0.648428 0.775472 0.006310
Si Si7 0.426576 0.249790 0.263877
O O1 0.726626 0.500000 0.500000
O O2 0.737375 0.570519 0.756720
O O3 0.695502 0.680274 0.556512
O O4 0.812894 0.630620 0.563597
O O5 0.905900 0.863116 0.318361
O O6 0.000000 0.956605 0.250000
O O7 0.955114 0.000000 0.500000
O O8 0.901138 0.063626 0.276854
O O9 0.686479 0.859690 0.447723
O O10 0.805463 0.814455 0.461177
O O11 0.771693 0.000000 0.500000
O O12 0.895533 0.217934 0.115974
O O13 0.898058 0.288805 0.877613
O O14 0.901113 0.244512 0.379703
O O15 0.000000 0.183524 0.250000
O O16 0.606554 0.817997 0.880216
O O17 0.500000 0.234271 0.250000
#
# Coordination Sequence:
#
# PCOD8159526 Si02
#       7
#     8   8   8   8   8   8   8
#     4  11  26  43  66  95 122 165 215 264 311 364
#     4  10  22  34  52  87 128 169 205 239 298 369
#     4  11  26  43  67  92 125 165 211 267 315 359
#     4  11  25  42  64  96 126 164 212 254 313 378
#     4  11  23  39  64  90 130 170 203 254 313 378
#     4  11  23  42  65  93 128 165 210 255 313 374
#     4  11  23  39  63  94 131 166 207 252 312 380
#
# _framework density 20.26313
#
# number of rings (size 3 to 8) (size 9 to 14) (size 15 to 20)
#    0.000    1.143    4.286    0.857   14.000    0.000 
#    0.000    0.000    0.000    5.143    0.000    0.000 
#    0.000    0.000    0.000    0.000    0.000    0.000 
#
# Total GULP energy -347042.474899 kJ/mol
# GULP energy per Si atom -12394.374104 kJ/mol
# Density = 2.021701 g / cm^3
# Si number density = 20.263130 Si / 1000 Ang^3
#
#
#
# Elastic Constant Matrix: (Units=GPa)
#
#
# Indices 1 2 3 4 5 6 
#
# 1 89.9346 -2.7933 36.4252 0.0000 0.0000 0.0000
# 2 -2.7933 25.8439 14.8966 0.0000 0.0000 0.0000
# 3 36.4252 14.8966 162.9040 0.0000 0.0000 0.0000
# 4 0.0000 0.0000 0.0000 34.6679 0.0000 0.0000
# 5 0.0000 0.0000 0.0000 0.0000 61.5201 0.0000
# 6 0.0000 0.0000 0.0000 0.0000 0.0000 -5.7014
#
#
#
# Elastic Compliance Matrix: (Units=1/GPa)
#
#
# Indices 1 2 3 4 5 6 
#
# 1 0.012460 0.003117 -0.003071 0.000000 0.000000 0.000000
# 2 0.003117 0.041626 -0.004503 0.000000 0.000000 0.000000
# 3 -0.003071 -0.004503 0.007237 0.000000 0.000000 0.000000
# 4 0.000000 0.000000 0.000000 0.028845 0.000000 0.000000
# 5 0.000000 0.000000 0.000000 0.000000 0.016255 0.000000
# 6 0.000000 0.000000 0.000000 0.000000 0.000000 -0.175396
#
#
# Mechanical properties :
#
#
# Convention : Reuss Voigt Hill
#
# Bulk Modulus (GPa) = 19.08097 41.74882 30.41490
# Shear Modulus (GPa) = -117.40431 33.44093 -41.98169
#
# Velocity S-wave (km/s) = -7.62008 4.06684 -4.55667
# Velocity P-wave (km/s) = 8.24523 6.53455 3.55553
#
# Compressibility (1/GPa) = 0.05240824
#
# Stress axis : x y z
#
# Youngs Moduli (GPa) = 80.25800 24.02317 138.17746
#
# Poissons Ratio (x) = -0.07488 0.42435
# Poissons Ratio (y) = -0.25015 0.62227
# Poissons Ratio (z) = 0.24647 0.10819
#
# Static dielectric constant tensor:
#      x y z
#    x 3.430050 0.000000 0.000000 
#    y 0.000000 3.630900 0.000000 
#    z 0.000000 0.000000 4.048650 
# 
# 
# High freq. dielectric constant tensor:
#      x y z
#    x 1.803220 0.000000 0.000000 
#    y 0.000000 1.757980 0.000000 
#    z 0.000000 0.000000 1.817340 
# 
# From -- ./inp_files/8703.got.cif
#   From: 2010.03.12/outbox.cif.g09.slc.cpg/sg20_5_cif.got.tgz:8703.got - 2010.04.14 01:38:04.
