data_PCOD8159798
_publ_section_title
;
Structure prediction by ZEFSAII (Michael W. Deem and Ramdas Pophale) SiO2 
 PCOD8159798
Probable space group: C 2 2 21
;
_chemical_formula_sum "Si O2"
_cell_formula_units_Z 40
_cell_length_a 12.829591
_cell_length_b 8.741402
_cell_length_c 16.080580
_cell_angle_alpha 90.000000
_cell_angle_beta 90.000000
_cell_angle_gamma 90.000000
_cell_volume 1803.414734
_symmetry_space_group_name_H-M "C 2 2 21"
_symmetry_group_IT_number 20
_symmetry_cell_setting 'orthorhombic'
loop_
_space_group_symop_operation_xyz
x,y,z
-x,-y,1/2+z
x,-y,-z
-x,y,1/2-z
1/2+x,1/2+y,z
1/2-x,1/2-y,1/2+z
1/2+x,1/2-y,-z
1/2-x,1/2+y,1/2-z
loop_
_atom_site_type_symbol
_atom_site_label
_atom_site_fract_x
_atom_site_fract_y
_atom_site_fract_z
Si Si1 0.492637 0.247424 0.994647
Si Si2 0.506784 0.498611 0.370761
Si Si3 0.283346 0.432922 0.668915
Si Si4 0.320775 0.000000 0.000000
Si Si5 0.666256 0.000000 0.000000
Si Si6 0.230429 0.921270 0.332826
O O1 0.521574 0.368663 0.063821
O O2 0.391385 0.148492 0.016402
O O3 0.466593 0.336593 0.910384
O O4 0.595976 0.147687 0.985288
O O5 0.404880 0.527703 0.314872
O O6 0.606225 0.436173 0.321226
O O7 0.248287 0.515501 0.583155
O O8 0.266167 0.252740 0.662810
O O9 0.221025 0.500016 0.749370
O O10 0.736960 0.987821 0.917026
#
# Coordination Sequence:
#
# PCOD8159798 Si02
#       6
#     8   8   8   4   4   8
#     4  10  22  42  74 108 138 194 240 300 356 434
#     4  11  23  44  72 103 145 184 245 295 360 427
#     4  12  28  47  73 108 144 194 241 299 363 431
#     4  11  24  47  72 102 150 187 246 297 362 426
#     4  11  24  47  72 102 150 187 246 297 362 426
#     4  12  28  47  73 108 144 194 241 299 363 431
#
# _framework density 22.180143000000001
#
# number of rings (size 3 to 8) (size 9 to 14) (size 15 to 20)
#    0.000    0.800    4.000    3.000    5.600    0.000 
#    0.000    4.000    0.000    0.000    0.000    0.000 
#    0.000    0.000    0.000    0.000    0.000    0.000 
#
# Total GULP energy -247919.109206 kJ/mol
# GULP energy per Si atom -12395.955460 kJ/mol
# Density = 2.212966 g / cm^3
# Si number density = 22.180143 Si / 1000 Ang^3
#
#
#
# Elastic Constant Matrix: (Units=GPa)
#
#
# Indices 1 2 3 4 5 6 
#
# 1 118.9306 30.2365 27.0230 0.0000 0.0000 0.0000
# 2 30.2365 100.4829 18.9639 0.0000 0.0000 0.0000
# 3 27.0230 18.9639 142.6406 0.0000 0.0000 0.0000
# 4 0.0000 0.0000 0.0000 19.8891 0.0000 0.0000
# 5 0.0000 0.0000 0.0000 0.0000 2.0126 0.0000
# 6 0.0000 0.0000 0.0000 0.0000 0.0000 20.4755
#
#
#
# Elastic Compliance Matrix: (Units=1/GPa)
#
#
# Indices 1 2 3 4 5 6 
#
# 1 0.009384 -0.002552 -0.001438 0.000000 0.000000 0.000000
# 2 -0.002552 0.010902 -0.000966 0.000000 0.000000 0.000000
# 3 -0.001438 -0.000966 0.007412 0.000000 0.000000 0.000000
# 4 0.000000 0.000000 0.000000 0.050279 0.000000 0.000000
# 5 0.000000 0.000000 0.000000 0.000000 0.496872 0.000000
# 6 0.000000 0.000000 0.000000 0.000000 0.000000 0.048839
#
#
# Mechanical properties :
#
#
# Convention : Reuss Voigt Hill
#
# Bulk Modulus (GPa) = 56.22875 57.16675 56.69775
# Shear Modulus (GPa) = 7.81825 27.53083 17.67454
#
# Velocity S-wave (km/s) = 1.87951 3.52694 2.82594
# Velocity P-wave (km/s) = 5.48781 6.51272 6.02211
#
# Compressibility (1/GPa) = 0.01778450
#
# Stress axis : x y z
#
# Youngs Moduli (GPa) = 106.56451 91.72422 134.92438
#
# Poissons Ratio (x) = 0.23411 0.19408
# Poissons Ratio (y) = 0.27198 0.13033
# Poissons Ratio (z) = 0.15329 0.08860
#
# Static dielectric constant tensor:
#      x y z
#    x 4.000350 0.000000 0.000000 
#    y 0.000000 4.009080 0.000000 
#    z 0.000000 0.000000 4.162030 
# 
# 
# High freq. dielectric constant tensor:
#      x y z
#    x 1.874530 0.000000 0.000000 
#    y 0.000000 1.879660 0.000000 
#    z 0.000000 0.000000 1.880550 
# 
# From -- ./inp_files/23196.got.cif
#   From: 2010.03.12/outbox.cif.g09.slc.cpg/sg20_12_cif.got.tgz:23196.got - 2010.04.14 01:38:04.
