data_PCOD8159147
_publ_section_title
;
Structure prediction by ZEFSAII (Michael W. Deem and Ramdas Pophale) SiO2 
 PCOD8159147
Probable space group: C 2 2 21
;
_chemical_formula_sum "Si O2"
_cell_formula_units_Z 56
_cell_length_a 13.718458
_cell_length_b 15.410939
_cell_length_c 13.584800
_cell_angle_alpha 90.000000
_cell_angle_beta 90.000000
_cell_angle_gamma 90.000000
_cell_volume 2872.021246
_symmetry_space_group_name_H-M "C 2 2 21"
_symmetry_group_IT_number 20
_symmetry_cell_setting 'orthorhombic'
loop_
_space_group_symop_operation_xyz
x,y,z
-x,-y,1/2+z
x,-y,-z
-x,y,1/2-z
1/2+x,1/2+y,z
1/2-x,1/2-y,1/2+z
1/2+x,1/2-y,-z
1/2-x,1/2+y,1/2-z
loop_
_atom_site_type_symbol
_atom_site_label
_atom_site_fract_x
_atom_site_fract_y
_atom_site_fract_z
Si Si1 0.101743 0.184482 0.525444
Si Si2 0.241250 0.312795 0.857161
Si Si3 0.227484 0.315741 0.177256
Si Si4 0.645871 0.437975 0.914272
Si Si5 0.398973 0.251223 0.514752
Si Si6 0.035960 0.034064 0.648484
Si Si7 0.261181 0.511032 0.221886
O O1 0.166602 0.175661 0.429109
O O2 0.170729 0.203746 0.619750
O O3 0.039457 0.098534 0.554801
O O4 0.015923 0.253991 0.501450
O O5 0.277426 0.253748 0.765607
O O6 0.202293 0.409366 0.828158
O O7 0.149828 0.268938 0.909956
O O8 0.135410 0.312488 0.102562
O O9 0.217335 0.414218 0.218067
O O10 0.648470 0.340644 0.950273
O O11 0.538500 0.457150 0.873415
O O12 0.726765 0.457001 0.832755
O O13 0.679236 0.500000 0.000000
O O14 0.000000 0.082128 0.750000
O O15 0.138624 0.988990 0.661928
#
# Coordination Sequence:
#
# PCOD8159147 Si02
#       7
#     8   8   8   8   8   8   8
#     4  10  22  37  61  89 125 156 194 259 307 367
#     4  11  23  39  60  90 122 160 205 247 311 361
#     4  10  23  40  58  90 123 158 209 242 311 365
#     4  11  18  31  55  88 121 146 187 239 319 374
#     4  11  22  35  58  90 121 158 201 244 298 376
#     4   9  19  31  55  92 116 149 185 244 337 383
#     4  10  21  37  58  81 122 160 188 256 303 366
#
# _framework density 19.498463999999998
#
# number of rings (size 3 to 8) (size 9 to 14) (size 15 to 20)
#    0.000    1.714    2.857    1.714    4.000    5.143 
#    0.000    0.000    0.000    5.143    0.000    0.000 
#    0.000    0.000    0.000    0.000    0.000    0.000 
#
# Total GULP energy -346953.795573 kJ/mol
# GULP energy per Si atom -12391.206985 kJ/mol
# Density = 1.945408 g / cm^3
# Si number density = 19.498464 Si / 1000 Ang^3
#
#
#
# Elastic Constant Matrix: (Units=GPa)
#
#
# Indices 1 2 3 4 5 6 
#
# 1 51.9710 23.0539 17.2298 0.0000 0.0000 0.0000
# 2 23.0539 111.9192 37.3406 0.0000 0.0000 0.0000
# 3 17.2298 37.3406 94.2005 0.0000 0.0000 0.0000
# 4 0.0000 0.0000 0.0000 39.9037 0.0000 0.0000
# 5 0.0000 0.0000 0.0000 0.0000 30.0516 0.0000
# 6 0.0000 0.0000 0.0000 0.0000 0.0000 21.8754
#
#
#
# Elastic Compliance Matrix: (Units=1/GPa)
#
#
# Indices 1 2 3 4 5 6 
#
# 1 0.021688 -0.003623 -0.002531 0.000000 0.000000 0.000000
# 2 -0.003623 0.010902 -0.003659 0.000000 0.000000 0.000000
# 3 -0.002531 -0.003659 0.012529 0.000000 0.000000 0.000000
# 4 0.000000 0.000000 0.000000 0.025060 0.000000 0.000000
# 5 0.000000 0.000000 0.000000 0.000000 0.033276 0.000000
# 6 0.000000 0.000000 0.000000 0.000000 0.000000 0.045713
#
#
# Mechanical properties :
#
#
# Convention : Reuss Voigt Hill
#
# Bulk Modulus (GPa) = 39.22569 45.92659 42.57614
# Shear Modulus (GPa) = 28.20216 30.39722 29.29969
#
# Velocity S-wave (km/s) = 3.80725 3.95264 3.88063
# Velocity P-wave (km/s) = 6.28394 6.66605 6.47782
#
# Compressibility (1/GPa) = 0.02549349
#
# Stress axis : x y z
#
# Youngs Moduli (GPa) = 46.10925 91.72583 79.81561
#
# Poissons Ratio (x) = 0.33233 0.20198
# Poissons Ratio (y) = 0.16706 0.29203
# Poissons Ratio (z) = 0.11669 0.33561
#
# Static dielectric constant tensor:
#      x y z
#    x 3.353240 0.000000 0.000000 
#    y 0.000000 3.343990 0.000000 
#    z 0.000000 0.000000 3.897160 
# 
# 
# High freq. dielectric constant tensor:
#      x y z
#    x 1.726170 0.000000 0.000000 
#    y 0.000000 1.750250 0.000000 
#    z 0.000000 0.000000 1.785610 
# 
# From -- ./inp_files/20862.got.cif
#   From: 2010.03.12/outbox.cif.g09.slc.cpg/sg20_11_cif.got.tgz:20862.got - 2010.04.14 01:38:04.
