data_PCOD8159709
_publ_section_title
;
Structure prediction by ZEFSAII (Michael W. Deem and Ramdas Pophale) SiO2 
 PCOD8159709
Probable space group: C 2 2 21
;
_chemical_formula_sum "Si O2"
_cell_formula_units_Z 48
_cell_length_a 14.660440
_cell_length_b 16.586006
_cell_length_c 8.146667
_cell_angle_alpha 90.000000
_cell_angle_beta 90.000000
_cell_angle_gamma 90.000000
_cell_volume 1980.928442
_symmetry_space_group_name_H-M "C 2 2 21"
_symmetry_group_IT_number 20
_symmetry_cell_setting 'orthorhombic'
loop_
_space_group_symop_operation_xyz
x,y,z
-x,-y,1/2+z
x,-y,-z
-x,y,1/2-z
1/2+x,1/2+y,z
1/2-x,1/2-y,1/2+z
1/2+x,1/2-y,-z
1/2-x,1/2+y,1/2-z
loop_
_atom_site_type_symbol
_atom_site_label
_atom_site_fract_x
_atom_site_fract_y
_atom_site_fract_z
Si Si1 0.947249 0.080418 0.916054
Si Si2 0.103927 0.526218 0.732237
Si Si3 0.126635 0.630617 0.423507
Si Si4 0.215974 0.224473 0.955160
Si Si5 0.247125 0.125324 0.625339
Si Si6 0.007304 0.760496 0.940068
O O1 0.840803 0.067927 0.876177
O O2 0.000000 0.100018 0.750000
O O3 0.954804 0.155315 0.039562
O O4 0.987130 0.000000 0.000000
O O5 0.139572 0.566902 0.568054
O O6 0.111895 0.428054 0.734042
O O7 0.164994 0.566383 0.874941
O O8 0.000000 0.552473 0.750000
O O9 0.222119 0.678278 0.408246
O O10 0.041759 0.692199 0.448962
O O11 0.244897 0.318716 0.963530
O O12 0.109574 0.221986 0.000195
O O13 0.240116 0.187155 0.779471
O O14 0.000000 0.733665 0.750000
#
# Coordination Sequence:
#
# PCOD8159709 Si02
#       6
#     8   8   8   8   8   8
#     4  12  27  50  70 103 144 193 247 304 370 440
#     4  10  22  42  65  98 145 186 239 294 365 431
#     4  10  22  41  66 101 140 186 238 291 363 441
#     4  11  23  42  76 101 143 189 244 304 366 435
#     4  11  24  47  69 107 145 187 248 304 371 439
#     4  12  24  45  76 104 141 190 245 304 373 443
#
# _framework density 24.231061
#
# number of rings (size 3 to 8) (size 9 to 14) (size 15 to 20)
#    0.000    1.000    3.333    4.000    0.000    4.667 
#    6.000    0.000    0.000    0.000    0.000    0.000 
#    0.000    0.000    0.000    0.000    0.000    0.000 
#
# Total GULP energy -297463.903027 kJ/mol
# GULP energy per Si atom -12394.329293 kJ/mol
# Density = 2.417591 g / cm^3
# Si number density = 24.231061 Si / 1000 Ang^3
#
#
#
# Elastic Constant Matrix: (Units=GPa)
#
#
# Indices 1 2 3 4 5 6 
#
# 1 183.6449 51.8046 8.0396 0.0000 0.0000 0.0000
# 2 51.8046 164.1750 33.1529 0.0000 0.0000 0.0000
# 3 8.0396 33.1529 47.9095 0.0000 0.0000 0.0000
# 4 0.0000 0.0000 0.0000 19.2813 0.0000 0.0000
# 5 0.0000 0.0000 0.0000 0.0000 19.5189 0.0000
# 6 0.0000 0.0000 0.0000 0.0000 0.0000 33.4357
#
#
#
# Elastic Compliance Matrix: (Units=1/GPa)
#
#
# Indices 1 2 3 4 5 6 
#
# 1 0.005982 -0.001959 0.000352 0.000000 0.000000 0.000000
# 2 -0.001959 0.007722 -0.005015 0.000000 0.000000 0.000000
# 3 0.000352 -0.005015 0.024284 0.000000 0.000000 0.000000
# 4 0.000000 0.000000 0.000000 0.051864 0.000000 0.000000
# 5 0.000000 0.000000 0.000000 0.000000 0.051232 0.000000
# 6 0.000000 0.000000 0.000000 0.000000 0.000000 0.029908
#
#
# Mechanical properties :
#
#
# Convention : Reuss Voigt Hill
#
# Bulk Modulus (GPa) = 40.41349 64.63597 52.52473
# Shear Modulus (GPa) = 25.97617 34.62933 30.30275
#
# Velocity S-wave (km/s) = 3.27772 3.78448 3.54018
# Velocity P-wave (km/s) = 5.57128 6.76973 6.19953
#
# Compressibility (1/GPa) = 0.02474421
#
# Stress axis : x y z
#
# Youngs Moduli (GPa) = 167.15587 129.50396 41.17970
#
# Poissons Ratio (x) = 0.25366 -0.01447
# Poissons Ratio (y) = 0.32741 0.20650
# Poissons Ratio (z) = -0.05876 0.64942
#
# Static dielectric constant tensor:
#      x y z
#    x 4.833060 0.000000 0.000000 
#    y 0.000000 4.823750 0.000000 
#    z 0.000000 0.000000 3.895150 
# 
# 
# High freq. dielectric constant tensor:
#      x y z
#    x 1.970890 0.000000 0.000000 
#    y 0.000000 1.980590 0.000000 
#    z 0.000000 0.000000 1.940120 
# 
# From -- ./inp_files/8384.got.cif
#   From: 2010.03.12/outbox.cif.g09.slc.cpg/sg20_5_cif.got.tgz:8384.got - 2010.04.14 01:38:04.
