data_PCOD8159985
_publ_section_title
;
Structure prediction by ZEFSAII (Michael W. Deem and Ramdas Pophale) SiO2 
 PCOD8159985
Probable space group: C 2 2 21
;
_chemical_formula_sum "Si O2"
_cell_formula_units_Z 56
_cell_length_a 11.768214
_cell_length_b 10.308306
_cell_length_c 19.592366
_cell_angle_alpha 90.000000
_cell_angle_beta 90.000000
_cell_angle_gamma 90.000000
_cell_volume 2376.756796
_symmetry_space_group_name_H-M "C 2 2 21"
_symmetry_group_IT_number 20
_symmetry_cell_setting 'orthorhombic'
loop_
_space_group_symop_operation_xyz
x,y,z
-x,-y,1/2+z
x,-y,-z
-x,y,1/2-z
1/2+x,1/2+y,z
1/2-x,1/2-y,1/2+z
1/2+x,1/2-y,-z
1/2-x,1/2+y,1/2-z
loop_
_atom_site_type_symbol
_atom_site_label
_atom_site_fract_x
_atom_site_fract_y
_atom_site_fract_z
Si Si1 0.880767 0.348908 0.124454
Si Si2 0.399683 0.278888 0.588315
Si Si3 0.482542 0.086288 0.346625
Si Si4 0.157150 0.742952 0.055927
Si Si5 0.155621 0.634139 0.776593
Si Si6 0.011400 0.965788 0.429554
Si Si7 0.090722 0.141858 0.699483
O O1 0.759900 0.317567 0.092170
O O2 0.891919 0.309552 0.204992
O O3 0.969918 0.266622 0.080955
O O4 0.916429 0.500866 0.119084
O O5 0.322639 0.221067 0.525706
O O6 0.350794 0.233373 0.660425
O O7 0.407667 0.434478 0.585553
O O8 0.383288 0.116128 0.402494
O O9 0.545009 0.211346 0.314455
O O10 0.410523 0.001266 0.290950
O O11 0.045218 0.828570 0.059349
O O12 0.290002 0.624742 0.762874
O O13 0.099591 0.948937 0.367829
O O14 0.078099 0.000000 0.500000
O O15 0.000000 0.076383 0.750000
#
# Coordination Sequence:
#
# PCOD8159985 Si02
#       7
#     8   8   8   8   8   8   8
#     4  11  24  42  69  97 135 176 219 288 340 405
#     4  10  23  43  64 102 133 175 232 278 340 419
#     4  10  23  45  67  99 137 173 226 284 334 415
#     4  10  23  44  67  96 133 179 226 273 344 399
#     4  11  24  41  67 101 133 176 224 279 354 404
#     4   9  21  42  61  91 132 169 223 276 330 402
#     4  11  23  42  67  97 135 180 224 280 347 409
#
# _framework density 23.561520000000002
#
# number of rings (size 3 to 8) (size 9 to 14) (size 15 to 20)
#    0.000    1.714    0.000    4.286    4.000    6.857 
#    7.714    0.000    0.000    0.000    0.000    0.000 
#    0.000    0.000    0.000    0.000    0.000    0.000 
#
# Total GULP energy -346889.631208 kJ/mol
# GULP energy per Si atom -12388.915400 kJ/mol
# Density = 2.350789 g / cm^3
# Si number density = 23.561520 Si / 1000 Ang^3
#
#
#
# Elastic Constant Matrix: (Units=GPa)
#
#
# Indices 1 2 3 4 5 6 
#
# 1 86.1944 26.4655 33.8643 0.0000 0.0000 0.0000
# 2 26.4655 50.6728 53.2613 0.0000 0.0000 0.0000
# 3 33.8643 53.2613 152.0899 0.0000 0.0000 0.0000
# 4 0.0000 0.0000 0.0000 25.1495 0.0000 0.0000
# 5 0.0000 0.0000 0.0000 0.0000 42.6712 0.0000
# 6 0.0000 0.0000 0.0000 0.0000 0.0000 27.4220
#
#
#
# Elastic Compliance Matrix: (Units=1/GPa)
#
#
# Indices 1 2 3 4 5 6 
#
# 1 0.013891 -0.006336 -0.000874 0.000000 0.000000 0.000000
# 2 -0.006336 0.034120 -0.010538 0.000000 0.000000 0.000000
# 3 -0.000874 -0.010538 0.010460 0.000000 0.000000 0.000000
# 4 0.000000 0.000000 0.000000 0.039762 0.000000 0.000000
# 5 0.000000 0.000000 0.000000 0.000000 0.023435 0.000000
# 6 0.000000 0.000000 0.000000 0.000000 0.000000 0.036467
#
#
# Mechanical properties :
#
#
# Convention : Reuss Voigt Hill
#
# Bulk Modulus (GPa) = 43.52665 57.34879 50.43772
# Shear Modulus (GPa) = 24.83994 30.73962 27.78978
#
# Velocity S-wave (km/s) = 3.25046 3.61592 3.43805
# Velocity P-wave (km/s) = 5.70973 6.46730 6.10029
#
# Compressibility (1/GPa) = 0.02297443
#
# Stress axis : x y z
#
# Youngs Moduli (GPa) = 71.99156 29.30843 95.60260
#
# Poissons Ratio (x) = 0.18570 0.08355
# Poissons Ratio (y) = 0.45615 1.00744
# Poissons Ratio (z) = 0.06292 0.30885
#
# Static dielectric constant tensor:
#      x y z
#    x 4.069710 0.000000 0.000000 
#    y 0.000000 4.215330 0.000000 
#    z 0.000000 0.000000 4.886650 
# 
# 
# High freq. dielectric constant tensor:
#      x y z
#    x 1.920570 0.000000 0.000000 
#    y 0.000000 1.921640 0.000000 
#    z 0.000000 0.000000 1.951910 
# 
# From -- ./inp_files/27186.got.cif
#   From: 2010.03.12/outbox.cif.g09.slc.cpg/sg20_14_cif.got.tgz:27186.got - 2010.04.14 01:38:04.
