data_PCOD8159734
_publ_section_title
;
Structure prediction by ZEFSAII (Michael W. Deem and Ramdas Pophale) SiO2 
 PCOD8159734
Probable space group: C 2 2 21
;
_chemical_formula_sum "Si O2"
_cell_formula_units_Z 36
_cell_length_a 27.718597
_cell_length_b 11.643805
_cell_length_c 5.011745
_cell_angle_alpha 90.000000
_cell_angle_beta 90.000000
_cell_angle_gamma 90.000000
_cell_volume 1617.540390
_symmetry_space_group_name_H-M "C 2 2 21"
_symmetry_group_IT_number 20
_symmetry_cell_setting 'orthorhombic'
loop_
_space_group_symop_operation_xyz
x,y,z
-x,-y,1/2+z
x,-y,-z
-x,y,1/2-z
1/2+x,1/2+y,z
1/2-x,1/2-y,1/2+z
1/2+x,1/2-y,-z
1/2-x,1/2+y,1/2-z
loop_
_atom_site_type_symbol
_atom_site_label
_atom_site_fract_x
_atom_site_fract_y
_atom_site_fract_z
Si Si1 0.700972 0.000000 0.000000
Si Si2 0.921415 0.253661 0.894591
Si Si3 0.142193 0.724923 0.895693
Si Si4 0.000000 0.569099 0.250000
Si Si5 0.236604 0.819141 0.747061
Si Si6 0.500000 0.572384 0.750000
O O1 0.736371 0.057898 0.222016
O O2 0.667879 0.900408 0.132515
O O3 0.876514 0.257453 0.694641
O O4 0.954690 0.362702 0.857691
O O5 0.954036 0.142228 0.854379
O O6 0.902343 0.260707 0.195836
O O7 0.180872 0.826824 0.841133
O O8 0.979115 0.500000 0.500000
O O9 0.234708 0.758591 0.457942
O O10 0.480828 0.500000 0.500000
#
# Coordination Sequence:
#
# PCOD8159734 Si02
#       6
#     4   8   8   4   8   4
#     4  10  24  42  70  92 134 196 200 276 356 386
#     4  11  25  43  66 104 132 167 222 281 315 397
#     4  11  23  41  68  99 136 168 233 271 316 405
#     4  11  24  41  62  96 142 169 200 259 342 398
#     4  10  22  42  61  93 131 172 222 272 322 391
#     4  11  24  49  76  92 138 179 216 271 356 390
#
# _framework density 22.25601
#
# number of rings (size 3 to 8) (size 9 to 14) (size 15 to 20)
#    0.000    1.333    0.000    5.333    4.667   10.667 
#    6.000    0.000    4.889    0.000    0.000    0.000 
#    0.000    0.000    0.000    0.000    0.000    0.000 
#
# Total GULP energy -223187.679209 kJ/mol
# GULP energy per Si atom -12399.315512 kJ/mol
# Density = 2.220535 g / cm^3
# Si number density = 22.256010 Si / 1000 Ang^3
#
#
#
# Elastic Constant Matrix: (Units=GPa)
#
#
# Indices 1 2 3 4 5 6 
#
# 1 109.9239 28.5254 7.7742 0.0000 0.0000 0.0000
# 2 28.5254 89.1163 19.5776 0.0000 0.0000 0.0000
# 3 7.7742 19.5776 85.1760 0.0000 0.0000 0.0000
# 4 0.0000 0.0000 0.0000 24.7289 0.0000 0.0000
# 5 0.0000 0.0000 0.0000 0.0000 47.1965 0.0000
# 6 0.0000 0.0000 0.0000 0.0000 0.0000 58.0694
#
#
#
# Elastic Compliance Matrix: (Units=1/GPa)
#
#
# Indices 1 2 3 4 5 6 
#
# 1 0.009924 -0.003136 -0.000185 0.000000 0.000000 0.000000
# 2 -0.003136 0.012809 -0.002658 0.000000 0.000000 0.000000
# 3 -0.000185 -0.002658 0.012368 0.000000 0.000000 0.000000
# 4 0.000000 0.000000 0.000000 0.040439 0.000000 0.000000
# 5 0.000000 0.000000 0.000000 0.000000 0.021188 0.000000
# 6 0.000000 0.000000 0.000000 0.000000 0.000000 0.017221
#
#
# Mechanical properties :
#
#
# Convention : Reuss Voigt Hill
#
# Bulk Modulus (GPa) = 43.20863 43.99673 43.60268
# Shear Modulus (GPa) = 37.41931 41.22155 39.32043
#
# Velocity S-wave (km/s) = 4.10483 4.30833 4.20781
# Velocity P-wave (km/s) = 6.47477 6.67536 6.57583
#
# Compressibility (1/GPa) = 0.02314352
#
# Stress axis : x y z
#
# Youngs Moduli (GPa) = 100.76510 78.07014 80.85256
#
# Poissons Ratio (x) = 0.24483 0.01496
# Poissons Ratio (y) = 0.31600 0.21490
# Poissons Ratio (z) = 0.01864 0.20750
#
# Static dielectric constant tensor:
#      x y z
#    x 4.083270 0.000000 0.000000 
#    y 0.000000 4.012180 0.000000 
#    z 0.000000 0.000000 3.990530 
# 
# 
# High freq. dielectric constant tensor:
#      x y z
#    x 1.888680 0.000000 0.000000 
#    y 0.000000 1.860340 0.000000 
#    z 0.000000 0.000000 1.890890 
# 
# From -- ./inp_files/3596.got.cif
#   From: 2010.03.12/outbox.cif.g09.slc.cpg/sg20_2_cif.got.tgz:3596.got - 2010.04.14 01:38:04.
