data_PCOD8159254
_publ_section_title
;
Structure prediction by ZEFSAII (Michael W. Deem and Ramdas Pophale) SiO2 
 PCOD8159254
Probable space group: C 2 2 21
;
_chemical_formula_sum "Si O2"
_cell_formula_units_Z 44
_cell_length_a 7.865639
_cell_length_b 11.430755
_cell_length_c 24.915533
_cell_angle_alpha 90.000000
_cell_angle_beta 90.000000
_cell_angle_gamma 90.000000
_cell_volume 2240.160364
_symmetry_space_group_name_H-M "C 2 2 21"
_symmetry_group_IT_number 20
_symmetry_cell_setting 'orthorhombic'
loop_
_space_group_symop_operation_xyz
x,y,z
-x,-y,1/2+z
x,-y,-z
-x,y,1/2-z
1/2+x,1/2+y,z
1/2-x,1/2-y,1/2+z
1/2+x,1/2-y,-z
1/2-x,1/2+y,1/2-z
loop_
_atom_site_type_symbol
_atom_site_label
_atom_site_fract_x
_atom_site_fract_y
_atom_site_fract_z
Si Si1 0.854031 0.117863 0.528414
Si Si2 0.166026 0.893600 0.786925
Si Si3 0.657378 0.847574 0.160579
Si Si4 0.000000 0.513682 0.750000
Si Si5 0.037297 0.997915 0.376193
Si Si6 0.459661 0.263217 0.932197
O O1 0.701680 0.186832 0.554422
O O2 0.985095 0.085793 0.575193
O O3 0.947032 0.201630 0.486630
O O4 0.785431 0.000000 0.500000
O O5 0.222979 0.768969 0.810331
O O6 0.328457 0.937817 0.754008
O O7 0.000000 0.879871 0.750000
O O8 0.120363 0.981776 0.835674
O O9 0.811599 0.937638 0.155891
O O10 0.584844 0.818217 0.102110
O O11 0.511552 0.907030 0.196791
O O12 0.099571 0.123512 0.398561
#
# Coordination Sequence:
#
# PCOD8159254 Si02
#       6
#     8   8   8   4   8   8
#     4  10  21  39  61  91 123 161 202 256 311 367
#     4  11  23  41  59  88 124 157 210 262 301 375
#     4  11  23  40  61  89 123 163 210 259 315 373
#     4  12  24  38  64  88 116 170 210 250 330 368
#     4  10  22  40  61  87 125 161 201 263 311 362
#     4  10  22  38  62  89 126 158 209 256 306 382
#
# _framework density 19.641451
#
# number of rings (size 3 to 8) (size 9 to 14) (size 15 to 20)
#    0.000    1.455    2.727    2.182    0.000    4.364 
#    0.000    0.000    0.000    0.000    0.000    0.000 
#    0.000    0.000    0.000    0.000    0.000    0.000 
#
# Total GULP energy -272879.133083 kJ/mol
# GULP energy per Si atom -12403.596958 kJ/mol
# Density = 1.959675 g / cm^3
# Si number density = 19.641451 Si / 1000 Ang^3
#
#
#
# Elastic Constant Matrix: (Units=GPa)
#
#
# Indices 1 2 3 4 5 6 
#
# 1 104.0423 59.2496 41.0729 0.0000 0.0000 0.0000
# 2 59.2496 90.5255 34.9194 0.0000 0.0000 0.0000
# 3 41.0729 34.9194 98.6512 0.0000 0.0000 0.0000
# 4 0.0000 0.0000 0.0000 40.7155 0.0000 0.0000
# 5 0.0000 0.0000 0.0000 0.0000 34.6868 0.0000
# 6 0.0000 0.0000 0.0000 0.0000 0.0000 28.5386
#
#
#
# Elastic Compliance Matrix: (Units=1/GPa)
#
#
# Indices 1 2 3 4 5 6 
#
# 1 0.016295 -0.009321 -0.003485 0.000000 0.000000 0.000000
# 2 -0.009321 0.018125 -0.002535 0.000000 0.000000 0.000000
# 3 -0.003485 -0.002535 0.012485 0.000000 0.000000 0.000000
# 4 0.000000 0.000000 0.000000 0.024561 0.000000 0.000000
# 5 0.000000 0.000000 0.000000 0.000000 0.028829 0.000000
# 6 0.000000 0.000000 0.000000 0.000000 0.000000 0.035040
#
#
# Mechanical properties :
#
#
# Convention : Reuss Voigt Hill
#
# Bulk Modulus (GPa) = 61.63991 62.63364 62.13677
# Shear Modulus (GPa) = 29.16704 31.31997 30.24350
#
# Velocity S-wave (km/s) = 3.85772 3.99756 3.92826
# Velocity P-wave (km/s) = 7.16194 7.29829 7.23043
#
# Compressibility (1/GPa) = 0.01622326
#
# Stress axis : x y z
#
# Youngs Moduli (GPa) = 61.36668 55.17175 80.09596
#
# Poissons Ratio (x) = 0.51426 0.27915
# Poissons Ratio (y) = 0.57201 0.20304
# Poissons Ratio (z) = 0.21387 0.13986
#
# Static dielectric constant tensor:
#      x y z
#    x 3.295760 0.000000 0.000000 
#    y 0.000000 3.554000 0.000000 
#    z 0.000000 0.000000 3.736140 
# 
# 
# High freq. dielectric constant tensor:
#      x y z
#    x 1.751060 0.000000 0.000000 
#    y 0.000000 1.774850 0.000000 
#    z 0.000000 0.000000 1.786990 
# 
# From -- ./inp_files/28648.got.cif
#   From: 2010.03.12/outbox.cif.g09.slc.cpg/sg20_15_cif.got.tgz:28648.got - 2010.04.14 01:38:04.
