data_PCOD8159893
_publ_section_title
;
Structure prediction by ZEFSAII (Michael W. Deem and Ramdas Pophale) SiO2 
 PCOD8159893
Probable space group: C 2 2 21
;
_chemical_formula_sum "Si O2"
_cell_formula_units_Z 52
_cell_length_a 11.268284
_cell_length_b 8.688563
_cell_length_c 25.479562
_cell_angle_alpha 90.000000
_cell_angle_beta 90.000000
_cell_angle_gamma 90.000000
_cell_volume 2494.581497
_symmetry_space_group_name_H-M "C 2 2 21"
_symmetry_group_IT_number 20
_symmetry_cell_setting 'orthorhombic'
loop_
_space_group_symop_operation_xyz
x,y,z
-x,-y,1/2+z
x,-y,-z
-x,y,1/2-z
1/2+x,1/2+y,z
1/2-x,1/2-y,1/2+z
1/2+x,1/2-y,-z
1/2-x,1/2+y,1/2-z
loop_
_atom_site_type_symbol
_atom_site_label
_atom_site_fract_x
_atom_site_fract_y
_atom_site_fract_z
Si Si1 0.278166 0.762869 0.929300
Si Si2 0.995312 0.757460 0.564792
Si Si3 0.914220 0.699668 0.177038
Si Si4 0.881343 0.000000 0.000000
Si Si5 0.400026 0.000000 0.000000
Si Si6 0.644989 0.656067 0.781435
Si Si7 0.397607 0.153379 0.831632
Si Si8 0.000000 0.122039 0.250000
O O1 0.346955 0.739738 0.874524
O O2 0.300311 0.623899 0.969826
O O3 0.139314 0.766908 0.915298
O O4 0.316324 0.925190 0.955192
O O5 0.010003 0.629801 0.520012
O O6 0.088247 0.709146 0.609300
O O7 0.033503 0.922439 0.542795
O O8 0.838547 0.738076 0.229569
O O9 0.943936 0.519593 0.175065
O O10 0.039494 0.786260 0.181008
O O11 0.760695 0.660436 0.816402
O O12 0.614819 0.482777 0.762786
O O13 0.477514 0.268607 0.798782
#
# Coordination Sequence:
#
# PCOD8159893 Si02
#       8
#     8   8   8   4   4   8   8   4
#     4  11  23  44  68  93 132 163 215 268 318 385
#     4  11  25  41  69  98 123 172 213 264 328 381
#     4  10  23  45  65  95 130 176 208 266 324 373
#     4  10  26  44  64  96 128 170 214 264 328 372
#     4  10  22  48  60  96 128 166 212 268 324 382
#     4  10  25  45  62  94 138 168 212 268 315 385
#     4  12  24  40  68  97 126 169 215 259 323 380
#     4  10  24  40  64  94 130 170 216 252 316 386
#
# _framework density 20.845179999999999
#
# number of rings (size 3 to 8) (size 9 to 14) (size 15 to 20)
#    0.000    1.538    1.538    2.769    8.615    1.231 
#   11.077    0.000    0.000    0.000    0.000    0.000 
#    0.000    0.000    0.000    0.000    0.000    0.000 
#
# Total GULP energy -322463.403586 kJ/mol
# GULP energy per Si atom -12402.438599 kJ/mol
# Density = 2.079774 g / cm^3
# Si number density = 20.845180 Si / 1000 Ang^3
#
#
#
# Elastic Constant Matrix: (Units=GPa)
#
#
# Indices 1 2 3 4 5 6 
#
# 1 71.2044 11.7439 44.3956 0.0000 0.0000 0.0000
# 2 11.7439 108.8178 26.5551 0.0000 0.0000 0.0000
# 3 44.3956 26.5551 101.9173 0.0000 0.0000 0.0000
# 4 0.0000 0.0000 0.0000 29.5695 0.0000 0.0000
# 5 0.0000 0.0000 0.0000 0.0000 36.4434 0.0000
# 6 0.0000 0.0000 0.0000 0.0000 0.0000 123.7736
#
#
#
# Elastic Compliance Matrix: (Units=1/GPa)
#
#
# Indices 1 2 3 4 5 6 
#
# 1 0.019281 -0.000033 -0.008390 0.000000 0.000000 0.000000
# 2 -0.000033 0.009814 -0.002542 0.000000 0.000000 0.000000
# 3 -0.008390 -0.002542 0.014129 0.000000 0.000000 0.000000
# 4 0.000000 0.000000 0.000000 0.033819 0.000000 0.000000
# 5 0.000000 0.000000 0.000000 0.000000 0.027440 0.000000
# 6 0.000000 0.000000 0.000000 0.000000 0.000000 0.008079
#
#
# Mechanical properties :
#
#
# Convention : Reuss Voigt Hill
#
# Bulk Modulus (GPa) = 46.96668 49.70320 48.33494
# Shear Modulus (GPa) = 35.31313 51.24030 43.27672
#
# Velocity S-wave (km/s) = 4.12037 4.96334 4.56137
# Velocity P-wave (km/s) = 6.72434 7.53273 7.13998
#
# Compressibility (1/GPa) = 0.02129169
#
# Stress axis : x y z
#
# Youngs Moduli (GPa) = 51.86520 101.89809 70.77598
#
# Poissons Ratio (x) = 0.00340 0.59382
# Poissons Ratio (y) = 0.00173 0.17995
# Poissons Ratio (z) = 0.43515 0.25907
#
# Static dielectric constant tensor:
#      x y z
#    x 3.613330 0.000000 0.000000 
#    y 0.000000 3.994650 0.000000 
#    z 0.000000 0.000000 3.845070 
# 
# 
# High freq. dielectric constant tensor:
#      x y z
#    x 1.808340 0.000000 0.000000 
#    y 0.000000 1.832880 0.000000 
#    z 0.000000 0.000000 1.823870 
# 
# From -- ./inp_files/30313.got.cif
#   From: 2010.03.12/outbox.cif.g09.slc.cpg/sg20_16_cif.got.tgz:30313.got - 2010.04.14 01:38:04.
