data_PCOD8159640
_publ_section_title
;
Structure prediction by ZEFSAII (Michael W. Deem and Ramdas Pophale) SiO2 
 PCOD8159640
Probable space group: C 2 2 21
;
_chemical_formula_sum "Si O2"
_cell_formula_units_Z 48
_cell_length_a 17.696438
_cell_length_b 8.493209
_cell_length_c 15.164388
_cell_angle_alpha 90.000000
_cell_angle_beta 90.000000
_cell_angle_gamma 90.000000
_cell_volume 2279.200639
_symmetry_space_group_name_H-M "C 2 2 21"
_symmetry_group_IT_number 20
_symmetry_cell_setting 'orthorhombic'
loop_
_space_group_symop_operation_xyz
x,y,z
-x,-y,1/2+z
x,-y,-z
-x,y,1/2-z
1/2+x,1/2+y,z
1/2-x,1/2-y,1/2+z
1/2+x,1/2-y,-z
1/2-x,1/2+y,1/2-z
loop_
_atom_site_type_symbol
_atom_site_label
_atom_site_fract_x
_atom_site_fract_y
_atom_site_fract_z
Si Si1 0.959676 0.713079 0.161276
Si Si2 0.700464 0.634457 0.662242
Si Si3 0.408800 0.093471 0.909053
Si Si4 0.180196 0.678598 0.988125
Si Si5 0.766427 0.771275 0.840316
Si Si6 0.525908 0.682533 0.011385
O O1 0.885173 0.816030 0.142210
O O2 0.941252 0.527461 0.163457
O O3 0.000000 0.768051 0.250000
O O4 0.019986 0.738452 0.084110
O O5 0.750945 0.692541 0.580302
O O6 0.728315 0.717786 0.750297
O O7 0.702864 0.447354 0.671016
O O8 0.333081 0.155171 0.865682
O O9 0.465663 0.239435 0.922285
O O10 0.392571 0.000000 0.000000
O O11 0.152133 0.500000 0.000000
O O12 0.204914 0.743159 0.082906
O O13 0.110383 0.783556 0.952906
O O14 0.508464 0.500000 0.000000
#
# Coordination Sequence:
#
# PCOD8159640 Si02
#       6
#     8   8   8   8   8   8
#     4  11  23  41  62  88 123 160 202 253 305 359
#     4  11  24  40  64  93 123 162 207 255 307 366
#     4  10  22  40  63  87 119 163 205 248 307 367
#     4  10  22  41  62  87 123 161 199 248 305 362
#     4  11  23  41  63  91 125 161 205 256 309 365
#     4  11  23  39  62  90 120 159 203 248 303 365
#
# _framework density 21.060016000000001
#
# number of rings (size 3 to 8) (size 9 to 14) (size 15 to 20)
#    0.000    1.333    0.000    6.500    0.000   10.000 
#    0.000    1.667    0.000    0.000    0.000    0.000 
#    0.000    0.000    0.000    0.000    0.000    0.000 
#
# Total GULP energy -297706.754307 kJ/mol
# GULP energy per Si atom -12404.448096 kJ/mol
# Density = 2.101208 g / cm^3
# Si number density = 21.060016 Si / 1000 Ang^3
#
#
#
# Elastic Constant Matrix: (Units=GPa)
#
#
# Indices 1 2 3 4 5 6 
#
# 1 93.4490 30.3736 15.9010 0.0000 0.0000 0.0000
# 2 30.3736 99.0762 9.0247 0.0000 0.0000 0.0000
# 3 15.9010 9.0247 72.5141 0.0000 0.0000 0.0000
# 4 0.0000 0.0000 0.0000 29.0811 0.0000 0.0000
# 5 0.0000 0.0000 0.0000 0.0000 35.4286 0.0000
# 6 0.0000 0.0000 0.0000 0.0000 0.0000 16.0984
#
#
#
# Elastic Compliance Matrix: (Units=1/GPa)
#
#
# Indices 1 2 3 4 5 6 
#
# 1 0.012235 -0.003547 -0.002242 0.000000 0.000000 0.000000
# 2 -0.003547 0.011237 -0.000621 0.000000 0.000000 0.000000
# 3 -0.002242 -0.000621 0.014359 0.000000 0.000000 0.000000
# 4 0.000000 0.000000 0.000000 0.034387 0.000000 0.000000
# 5 0.000000 0.000000 0.000000 0.000000 0.028226 0.000000
# 6 0.000000 0.000000 0.000000 0.000000 0.000000 0.062118
#
#
# Mechanical properties :
#
#
# Convention : Reuss Voigt Hill
#
# Bulk Modulus (GPa) = 39.97858 41.73756 40.85807
# Shear Modulus (GPa) = 27.21564 30.10428 28.65996
#
# Velocity S-wave (km/s) = 3.59874 3.78491 3.69300
# Velocity P-wave (km/s) = 6.02431 6.24197 6.13410
#
# Compressibility (1/GPa) = 0.02501339
#
# Stress axis : x y z
#
# Youngs Moduli (GPa) = 81.73117 88.99087 69.64169
#
# Poissons Ratio (x) = 0.31563 0.15611
# Poissons Ratio (y) = 0.28988 0.04323
# Poissons Ratio (z) = 0.18320 0.05524
#
# Static dielectric constant tensor:
#      x y z
#    x 3.737230 0.000000 0.000000 
#    y 0.000000 3.940340 0.000000 
#    z 0.000000 0.000000 3.827270 
# 
# 
# High freq. dielectric constant tensor:
#      x y z
#    x 1.834720 0.000000 0.000000 
#    y 0.000000 1.835050 0.000000 
#    z 0.000000 0.000000 1.822420 
# 
# From -- ./inp_files/21305.got.cif
#   From: 2010.03.12/outbox.cif.g09.slc.cpg/sg20_11_cif.got.tgz:21305.got - 2010.04.14 01:38:04.
