data_PCOD8159705
_publ_section_title
;
Structure prediction by ZEFSAII (Michael W. Deem and Ramdas Pophale) SiO2 
 PCOD8159705
Probable space group: C 2 2 21
;
_chemical_formula_sum "Si O2"
_cell_formula_units_Z 48
_cell_length_a 6.920917
_cell_length_b 25.022879
_cell_length_c 13.982584
_cell_angle_alpha 90.000000
_cell_angle_beta 90.000000
_cell_angle_gamma 90.000000
_cell_volume 2421.521636
_symmetry_space_group_name_H-M "C 2 2 21"
_symmetry_group_IT_number 20
_symmetry_cell_setting 'orthorhombic'
loop_
_space_group_symop_operation_xyz
x,y,z
-x,-y,1/2+z
x,-y,-z
-x,y,1/2-z
1/2+x,1/2+y,z
1/2-x,1/2-y,1/2+z
1/2+x,1/2-y,-z
1/2-x,1/2+y,1/2-z
loop_
_atom_site_type_symbol
_atom_site_label
_atom_site_fract_x
_atom_site_fract_y
_atom_site_fract_z
Si Si1 0.097796 0.301153 0.429078
Si Si2 0.000000 0.630162 0.750000
Si Si3 0.662524 0.559083 0.818920
Si Si4 0.832182 0.058179 0.328811
Si Si5 0.440653 0.626317 0.504174
Si Si6 0.783681 0.306727 0.582394
Si Si7 0.000000 0.630997 0.250000
O O1 0.265569 0.332093 0.486091
O O2 0.173926 0.246401 0.381390
O O3 0.992796 0.334571 0.345747
O O4 0.942884 0.286343 0.508644
O O5 0.185630 0.592716 0.742415
O O6 0.500000 0.537831 0.750000
O O7 0.746481 0.501826 0.853395
O O8 0.552260 0.595024 0.896218
O O9 0.910877 0.080919 0.426837
O O10 0.648420 0.093429 0.303527
O O11 0.000000 0.063475 0.250000
O O12 0.640653 0.654684 0.476386
O O13 0.881420 0.333154 0.674731
#
# Coordination Sequence:
#
# PCOD8159705 Si02
#       7
#     8   4   8   8   8   8   4
#     4  11  24  41  64  91 127 167 214 262 318 378
#     4  10  23  42  62  90 126 164 207 266 314 376
#     4  10  22  41  65  92 127 164 208 258 319 377
#     4  11  22  40  65  94 128 162 210 259 317 385
#     4  11  22  41  65  92 124 167 209 263 314 384
#     4  12  24  41  65  94 128 167 216 259 322 380
#     4  12  25  40  66  98 128 172 209 270 324 380
#
# _framework density 19.822246
#
# number of rings (size 3 to 8) (size 9 to 14) (size 15 to 20)
#    0.000    1.000    5.000    2.000    0.000    2.667 
#    6.000    0.000    0.000    0.000    0.000    0.000 
#    0.000    0.000    0.000    0.000    0.000    0.000 
#
# Total GULP energy -297471.689163 kJ/mol
# GULP energy per Si atom -12394.653715 kJ/mol
# Density = 1.977713 g / cm^3
# Si number density = 19.822246 Si / 1000 Ang^3
#
#
#
# Elastic Constant Matrix: (Units=GPa)
#
#
# Indices 1 2 3 4 5 6 
#
# 1 92.7226 56.6374 51.2900 0.0000 0.0000 0.0000
# 2 56.6374 156.6839 48.2736 0.0000 0.0000 0.0000
# 3 51.2900 48.2736 83.9857 0.0000 0.0000 0.0000
# 4 0.0000 0.0000 0.0000 -26.3948 0.0000 0.0000
# 5 0.0000 0.0000 0.0000 0.0000 41.0808 0.0000
# 6 0.0000 0.0000 0.0000 0.0000 0.0000 37.6132
#
#
#
# Elastic Compliance Matrix: (Units=1/GPa)
#
#
# Indices 1 2 3 4 5 6 
#
# 1 0.017960 -0.003783 -0.008794 0.000000 0.000000 0.000000
# 2 -0.003783 0.008552 -0.002606 0.000000 0.000000 0.000000
# 3 -0.008794 -0.002606 0.018775 0.000000 0.000000 0.000000
# 4 0.000000 0.000000 0.000000 -0.037886 0.000000 0.000000
# 5 0.000000 0.000000 0.000000 0.000000 0.024342 0.000000
# 6 0.000000 0.000000 0.000000 0.000000 0.000000 0.026586
#
#
# Mechanical properties :
#
#
# Convention : Reuss Voigt Hill
#
# Bulk Modulus (GPa) = 67.01207 71.75493 69.38350
# Shear Modulus (GPa) = 53.37999 22.27259 37.82629
#
# Velocity S-wave (km/s) = 5.19498 3.35567 4.37312
# Velocity P-wave (km/s) = 8.35845 7.16183 7.78317
#
# Compressibility (1/GPa) = 0.01492268
#
# Stress axis : x y z
#
# Youngs Moduli (GPa) = 55.68005 116.92580 53.26266
#
# Poissons Ratio (x) = 0.44229 0.46838
# Poissons Ratio (y) = 0.21062 0.13879
# Poissons Ratio (z) = 0.48964 0.30467
#
# Static dielectric constant tensor:
#      x y z
#    x 3.461870 0.000000 0.000000 
#    y 0.000000 3.748580 0.000000 
#    z 0.000000 0.000000 3.615420 
# 
# 
# High freq. dielectric constant tensor:
#      x y z
#    x 1.776890 0.000000 0.000000 
#    y 0.000000 1.794790 0.000000 
#    z 0.000000 0.000000 1.774070 
# 
# From -- ./inp_files/17817.got.cif
#   From: 2010.03.12/outbox.cif.g09.slc.cpg/sg20_9_cif.got.tgz:17817.got - 2010.04.14 01:38:04.
