data_PCOD8159770
_publ_section_title
;
Structure prediction by ZEFSAII (Michael W. Deem and Ramdas Pophale) SiO2 
 PCOD8159770
Probable space group: C 2 2 21
;
_chemical_formula_sum "Si O2"
_cell_formula_units_Z 60
_cell_length_a 9.383742
_cell_length_b 10.387302
_cell_length_c 29.066223
_cell_angle_alpha 90.000000
_cell_angle_beta 90.000000
_cell_angle_gamma 90.000000
_cell_volume 2833.135972
_symmetry_space_group_name_H-M "C 2 2 21"
_symmetry_group_IT_number 20
_symmetry_cell_setting 'orthorhombic'
loop_
_space_group_symop_operation_xyz
x,y,z
-x,-y,1/2+z
x,-y,-z
-x,y,1/2-z
1/2+x,1/2+y,z
1/2-x,1/2-y,1/2+z
1/2+x,1/2-y,-z
1/2-x,1/2+y,1/2-z
loop_
_atom_site_type_symbol
_atom_site_label
_atom_site_fract_x
_atom_site_fract_y
_atom_site_fract_z
Si Si1 0.540923 0.477610 0.576162
Si Si2 0.500000 0.318879 0.750000
Si Si3 0.744237 0.390479 0.960981
Si Si4 0.799802 0.774088 0.229275
Si Si5 0.997262 0.733447 0.083529
Si Si6 0.328111 0.472735 0.824086
Si Si7 0.775402 0.365238 0.518396
Si Si8 0.942258 0.690600 0.314010
O O1 0.378441 0.430277 0.574862
O O2 0.550845 0.628515 0.563003
O O3 0.616259 0.452381 0.624597
O O4 0.616214 0.396860 0.535682
O O5 0.370123 0.239883 0.727321
O O6 0.433187 0.396760 0.791298
O O7 0.882746 0.377165 0.928812
O O8 0.765188 0.500000 0.000000
O O9 0.717193 0.248601 0.981383
O O10 0.855252 0.794785 0.281910
O O11 0.902773 0.656627 0.209936
O O12 0.840141 0.882877 0.193065
O O13 0.143931 0.684996 0.062907
O O14 0.024763 0.754265 0.137183
O O15 0.161968 0.431955 0.819547
O O16 0.843928 0.500000 0.500000
#
# Coordination Sequence:
#
# PCOD8159770 Si02
#       8
#     8   4   8   8   8   8   8   8
#     4  12  25  43  70 102 138 183 229 297 346 427
#     4  10  24  40  66 100 130 178 230 270 340 410
#     4  12  26  45  70 103 137 185 238 291 356 415
#     4  10  22  42  67  93 138 174 218 278 336 410
#     4  12  24  44  69  99 140 176 235 286 351 420
#     4  11  23  42  67  99 135 180 225 277 350 408
#     4  12  24  47  72  96 140 187 229 292 358 414
#     4  10  22  42  66  99 134 179 225 278 346 410
#
# _framework density 21.177945000000001
#
# number of rings (size 3 to 8) (size 9 to 14) (size 15 to 20)
#    0.000    0.800    5.333    2.400    1.867    2.133 
#    0.000    4.000    0.000    0.000    0.000    0.000 
#    0.000    0.000    0.000    0.000    0.000    0.000 
#
# Total GULP energy -371696.749901 kJ/mol
# GULP energy per Si atom -12389.891663 kJ/mol
# Density = 2.112974 g / cm^3
# Si number density = 21.177945 Si / 1000 Ang^3
#
#
#
# Elastic Constant Matrix: (Units=GPa)
#
#
# Indices 1 2 3 4 5 6 
#
# 1 137.8158 28.7772 42.5671 0.0000 0.0000 0.0000
# 2 28.7772 91.9771 37.5760 0.0000 0.0000 0.0000
# 3 42.5671 37.5760 107.3399 0.0000 0.0000 0.0000
# 4 0.0000 0.0000 0.0000 31.0458 0.0000 0.0000
# 5 0.0000 0.0000 0.0000 0.0000 36.7185 0.0000
# 6 0.0000 0.0000 0.0000 0.0000 0.0000 27.8721
#
#
#
# Elastic Compliance Matrix: (Units=1/GPa)
#
#
# Indices 1 2 3 4 5 6 
#
# 1 0.008439 -0.001486 -0.002827 0.000000 0.000000 0.000000
# 2 -0.001486 0.012948 -0.003944 0.000000 0.000000 0.000000
# 3 -0.002827 -0.003944 0.011818 0.000000 0.000000 0.000000
# 4 0.000000 0.000000 0.000000 0.032211 0.000000 0.000000
# 5 0.000000 0.000000 0.000000 0.000000 0.027234 0.000000
# 6 0.000000 0.000000 0.000000 0.000000 0.000000 0.035878
#
#
# Mechanical properties :
#
#
# Convention : Reuss Voigt Hill
#
# Bulk Modulus (GPa) = 59.90376 61.66371 60.78374
# Shear Modulus (GPa) = 33.19958 34.34144 33.77051
#
# Velocity S-wave (km/s) = 3.96365 4.03124 3.99759
# Velocity P-wave (km/s) = 7.02102 7.13078 7.07611
#
# Compressibility (1/GPa) = 0.01669344
#
# Stress axis : x y z
#
# Youngs Moduli (GPa) = 118.49253 77.23091 84.61924
#
# Poissons Ratio (x) = 0.11474 0.23919
# Poissons Ratio (y) = 0.17604 0.33370
# Poissons Ratio (z) = 0.33494 0.30456
#
# Static dielectric constant tensor:
#      x y z
#    x 4.122280 0.000000 0.000000 
#    y 0.000000 3.779660 0.000000 
#    z 0.000000 0.000000 3.854780 
# 
# 
# High freq. dielectric constant tensor:
#      x y z
#    x 1.845760 0.000000 0.000000 
#    y 0.000000 1.808260 0.000000 
#    z 0.000000 0.000000 1.844720 
# 
# From -- ./inp_files/31043.got.cif
#   From: 2010.03.12/outbox.cif.g09.slc.cpg/sg20_16_cif.got.tgz:31043.got - 2010.04.14 01:38:04.
