data_PCOD8159726
_publ_section_title
;
Structure prediction by ZEFSAII (Michael W. Deem and Ramdas Pophale) SiO2 
 PCOD8159726
Probable space group: C 2 2 21
;
_chemical_formula_sum "Si O2"
_cell_formula_units_Z 60
_cell_length_a 8.008326
_cell_length_b 17.677398
_cell_length_c 19.051742
_cell_angle_alpha 90.000000
_cell_angle_beta 90.000000
_cell_angle_gamma 90.000000
_cell_volume 2697.085881
_symmetry_space_group_name_H-M "C 2 2 21"
_symmetry_group_IT_number 20
_symmetry_cell_setting 'orthorhombic'
loop_
_space_group_symop_operation_xyz
x,y,z
-x,-y,1/2+z
x,-y,-z
-x,y,1/2-z
1/2+x,1/2+y,z
1/2-x,1/2-y,1/2+z
1/2+x,1/2-y,-z
1/2-x,1/2+y,1/2-z
loop_
_atom_site_type_symbol
_atom_site_label
_atom_site_fract_x
_atom_site_fract_y
_atom_site_fract_z
Si Si1 0.846188 0.570805 0.662306
Si Si2 0.000000 0.882148 0.750000
Si Si3 0.718421 0.784126 0.091366
Si Si4 0.946433 0.185764 0.028557
Si Si5 0.888329 0.056552 0.553181
Si Si6 0.360480 0.553245 0.117282
Si Si7 0.691047 0.229457 0.257469
Si Si8 0.278683 0.884211 0.192708
O O1 0.791426 0.624981 0.598014
O O2 0.819098 0.482961 0.640185
O O3 0.728431 0.580134 0.731785
O O4 0.027784 0.598951 0.682005
O O5 0.008234 0.933503 0.680747
O O6 0.173015 0.835637 0.746555
O O7 0.539527 0.744960 0.079224
O O8 0.797983 0.755877 0.162833
O O9 0.834879 0.765611 0.024842
O O10 0.829003 0.131913 0.076594
O O11 0.080091 0.135101 0.986710
O O12 0.806941 0.075646 0.627332
O O13 0.783151 0.000000 0.500000
O O14 0.057138 0.009998 0.567958
O O15 0.500000 0.200116 0.250000
O O16 0.734020 0.295100 0.200234
#
# Coordination Sequence:
#
# PCOD8159726 Si02
#       8
#     8   4   8   8   8   8   8   8
#     4  10  22  42  69  98 136 178 245 294 361 437
#     4  12  24  46  70 102 148 182 244 312 372 424
#     4  11  23  43  66 103 135 188 244 299 362 448
#     4  11  24  41  68  95 143 182 241 293 365 438
#     4  10  22  42  62  96 137 183 229 280 362 447
#     4  11  23  43  67  95 139 191 224 303 365 434
#     4  11  24  44  74 106 142 189 248 310 368 437
#     4  10  22  41  70 101 132 176 243 301 353 439
#
# _framework density 22.246233
#
# number of rings (size 3 to 8) (size 9 to 14) (size 15 to 20)
#    0.000    1.333    2.667    3.200    3.733    1.067 
#    7.200    0.000    0.000    0.000    0.000    0.000 
#    0.000    0.000    0.000    0.000    0.000    0.000 
#
# Total GULP energy -371694.208057 kJ/mol
# GULP energy per Si atom -12389.806935 kJ/mol
# Density = 2.219560 g / cm^3
# Si number density = 22.246233 Si / 1000 Ang^3
#
#
#
# Elastic Constant Matrix: (Units=GPa)
#
#
# Indices 1 2 3 4 5 6 
#
# 1 96.6117 39.2766 29.6126 0.0000 0.0000 0.0000
# 2 39.2766 92.1988 43.9648 0.0000 0.0000 0.0000
# 3 29.6126 43.9648 107.9791 0.0000 0.0000 0.0000
# 4 0.0000 0.0000 0.0000 27.3467 0.0000 0.0000
# 5 0.0000 0.0000 0.0000 0.0000 34.4489 0.0000
# 6 0.0000 0.0000 0.0000 0.0000 0.0000 30.6619
#
#
#
# Elastic Compliance Matrix: (Units=1/GPa)
#
#
# Indices 1 2 3 4 5 6 
#
# 1 0.012736 -0.004666 -0.001593 0.000000 0.000000 0.000000
# 2 -0.004666 0.015169 -0.004896 0.000000 0.000000 0.000000
# 3 -0.001593 -0.004896 0.011692 0.000000 0.000000 0.000000
# 4 0.000000 0.000000 0.000000 0.036567 0.000000 0.000000
# 5 0.000000 0.000000 0.000000 0.000000 0.029029 0.000000
# 6 0.000000 0.000000 0.000000 0.000000 0.000000 0.032614
#
#
# Mechanical properties :
#
#
# Convention : Reuss Voigt Hill
#
# Bulk Modulus (GPa) = 57.85220 58.05530 57.95375
# Shear Modulus (GPa) = 30.14259 30.75387 30.44823
#
# Velocity S-wave (km/s) = 3.68496 3.72214 3.70360
# Velocity P-wave (km/s) = 6.64583 6.68025 6.66306
#
# Compressibility (1/GPa) = 0.01728543
#
# Stress axis : x y z
#
# Youngs Moduli (GPa) = 78.51863 65.92546 85.53172
#
# Poissons Ratio (x) = 0.30760 0.13625
# Poissons Ratio (y) = 0.36635 0.41881
# Poissons Ratio (z) = 0.12508 0.32280
#
# Static dielectric constant tensor:
#      x y z
#    x 3.766680 0.000000 0.000000 
#    y 0.000000 4.087380 0.000000 
#    z 0.000000 0.000000 4.705260 
# 
# 
# High freq. dielectric constant tensor:
#      x y z
#    x 1.842110 0.000000 0.000000 
#    y 0.000000 1.873200 0.000000 
#    z 0.000000 0.000000 1.904090 
# 
# From -- ./inp_files/23787.got.cif
#   From: 2010.03.12/outbox.cif.g09.slc.cpg/sg20_12_cif.got.tgz:23787.got - 2010.04.14 01:38:04.
