data_PCOD8159222
_publ_section_title
;
Structure prediction by ZEFSAII (Michael W. Deem and Ramdas Pophale) SiO2 
 PCOD8159222
Probable space group: C 2 2 21
;
_chemical_formula_sum "Si O2"
_cell_formula_units_Z 36
_cell_length_a 10.887734
_cell_length_b 19.536322
_cell_length_c 7.385059
_cell_angle_alpha 90.000000
_cell_angle_beta 90.000000
_cell_angle_gamma 90.000000
_cell_volume 1570.848407
_symmetry_space_group_name_H-M "C 2 2 21"
_symmetry_group_IT_number 20
_symmetry_cell_setting 'orthorhombic'
loop_
_space_group_symop_operation_xyz
x,y,z
-x,-y,1/2+z
x,-y,-z
-x,y,1/2-z
1/2+x,1/2+y,z
1/2-x,1/2-y,1/2+z
1/2+x,1/2-y,-z
1/2-x,1/2+y,1/2-z
loop_
_atom_site_type_symbol
_atom_site_label
_atom_site_fract_x
_atom_site_fract_y
_atom_site_fract_z
Si Si1 0.500000 0.200366 0.250000
Si Si2 0.000000 0.600930 0.750000
Si Si3 0.247160 0.612612 0.234746
Si Si4 0.145904 0.204200 0.538401
Si Si5 0.353756 0.000000 0.500000
Si Si6 0.761345 0.663908 0.897554
O O1 0.619102 0.154494 0.211054
O O2 0.478097 0.252753 0.079270
O O3 0.938159 0.555310 0.596170
O O4 0.902788 0.648587 0.850680
O O5 0.230241 0.536893 0.152334
O O6 0.283148 0.609484 0.447925
O O7 0.358230 0.650364 0.126519
O O8 0.249609 0.260693 0.486887
O O9 0.181610 0.160049 0.716532
#
# Coordination Sequence:
#
# PCOD8159222 Si02
#       6
#     4   4   8   8   4   8
#     4  10  21  38  64  90 129 160 214 262 314 386
#     4  12  23  36  62  96 131 170 210 262 326 380
#     4  11  23  40  59  94 129 166 209 258 317 383
#     4  11  21  39  58  91 126 165 206 265 317 377
#     4  12  22  38  60  92 132 172 204 260 320 390
#     4  11  22  37  61  89 129 163 211 256 322 381
#
# _framework density 22.917551
#
# number of rings (size 3 to 8) (size 9 to 14) (size 15 to 20)
#    0.000    0.889    6.667    4.667    0.000    0.000 
#    0.000    0.000    0.000    0.000    5.778    0.000 
#    0.000    0.000    0.000    0.000    0.000    0.000 
#
# Total GULP energy -223020.146274 kJ/mol
# GULP energy per Si atom -12390.008126 kJ/mol
# Density = 2.286539 g / cm^3
# Si number density = 22.917551 Si / 1000 Ang^3
#
#
#
# Elastic Constant Matrix: (Units=GPa)
#
#
# Indices 1 2 3 4 5 6 
#
# 1 20.2454 17.2875 7.2655 0.0000 0.0000 0.0000
# 2 17.2875 74.9901 36.3957 0.0000 0.0000 0.0000
# 3 7.2655 36.3957 154.6264 0.0000 0.0000 0.0000
# 4 0.0000 0.0000 0.0000 47.5691 0.0000 0.0000
# 5 0.0000 0.0000 0.0000 0.0000 31.8477 0.0000
# 6 0.0000 0.0000 0.0000 0.0000 0.0000 13.7643
#
#
#
# Elastic Compliance Matrix: (Units=1/GPa)
#
#
# Indices 1 2 3 4 5 6 
#
# 1 0.061535 -0.014431 0.000505 0.000000 0.000000 0.000000
# 2 -0.014431 0.018439 -0.003662 0.000000 0.000000 0.000000
# 3 0.000505 -0.003662 0.007305 0.000000 0.000000 0.000000
# 4 0.000000 0.000000 0.000000 0.021022 0.000000 0.000000
# 5 0.000000 0.000000 0.000000 0.000000 0.031399 0.000000
# 6 0.000000 0.000000 0.000000 0.000000 0.000000 0.072652
#
#
# Mechanical properties :
#
#
# Convention : Reuss Voigt Hill
#
# Bulk Modulus (GPa) = 19.19222 41.30658 30.24940
# Shear Modulus (GPa) = 18.87523 31.23043 25.05283
#
# Velocity S-wave (km/s) = 2.87298 3.69552 3.30990
# Velocity P-wave (km/s) = 4.40432 6.02265 5.27590
#
# Compressibility (1/GPa) = 0.05210446
#
# Stress axis : x y z
#
# Youngs Moduli (GPa) = 16.25080 54.23203 136.88427
#
# Poissons Ratio (x) = 0.78263 -0.06918
# Poissons Ratio (y) = 0.23452 0.50129
# Poissons Ratio (z) = -0.00821 0.19860
#
# Static dielectric constant tensor:
#      x y z
#    x 3.735840 0.000000 0.000000 
#    y 0.000000 4.137330 0.000000 
#    z 0.000000 0.000000 4.575350 
# 
# 
# High freq. dielectric constant tensor:
#      x y z
#    x 1.849860 0.000000 0.000000 
#    y 0.000000 1.887570 0.000000 
#    z 0.000000 0.000000 1.931700 
# 
# From -- ./inp_files/7200.got.cif
#   From: 2010.03.12/outbox.cif.g09.slc.cpg/sg20_4_cif.got.tgz:7200.got - 2010.04.14 01:38:04.
