data_PCOD8159053
_publ_section_title
;
Structure prediction by ZEFSAII (Michael W. Deem and Ramdas Pophale) SiO2 
 PCOD8159053
Probable space group: C 2 2 21
;
_chemical_formula_sum "Si O2"
_cell_formula_units_Z 48
_cell_length_a 17.827215
_cell_length_b 13.731564
_cell_length_c 8.978965
_cell_angle_alpha 90.000000
_cell_angle_beta 90.000000
_cell_angle_gamma 90.000000
_cell_volume 2198.010619
_symmetry_space_group_name_H-M "C 2 2 21"
_symmetry_group_IT_number 20
_symmetry_cell_setting 'orthorhombic'
loop_
_space_group_symop_operation_xyz
x,y,z
-x,-y,1/2+z
x,-y,-z
-x,y,1/2-z
1/2+x,1/2+y,z
1/2-x,1/2-y,1/2+z
1/2+x,1/2-y,-z
1/2-x,1/2+y,1/2-z
loop_
_atom_site_type_symbol
_atom_site_label
_atom_site_fract_x
_atom_site_fract_y
_atom_site_fract_z
Si Si1 0.167413 0.761983 0.515002
Si Si2 0.325022 0.437533 0.636497
Si Si3 0.437321 0.574667 0.125734
Si Si4 0.934722 0.447978 0.355483
Si Si5 0.347786 0.934202 0.866760
Si Si6 0.814104 0.285093 0.348058
O O1 0.095284 0.829772 0.543690
O O2 0.138559 0.678225 0.404755
O O3 0.197848 0.713920 0.668937
O O4 0.237351 0.815680 0.433423
O O5 0.356742 0.500000 0.500000
O O6 0.368110 0.472943 0.784515
O O7 0.238562 0.458385 0.665955
O O8 0.339494 0.323301 0.602806
O O9 0.500000 0.601681 0.250000
O O10 0.467648 0.500000 0.000000
O O11 0.969877 0.500000 0.500000
O O12 0.892535 0.538443 0.279714
O O13 0.878619 0.360226 0.394893
O O14 0.000000 0.405383 0.250000
O O15 0.378374 0.000000 0.000000
#
# Coordination Sequence:
#
# PCOD8159053 Si02
#       6
#     8   8   8   8   8   8
#     4  10  23  42  71 104 139 177 242 289 361 411
#     4   9  21  41  70 101 137 177 232 288 353 407
#     4  11  25  43  65  97 139 185 235 290 356 416
#     4  12  28  45  68 103 151 191 238 287 371 428
#     4  10  20  43  70 101 137 181 230 295 340 428
#     4  10  23  41  70 103 138 181 233 296 341 426
#
# _framework density 21.837928999999999
#
# number of rings (size 3 to 8) (size 9 to 14) (size 15 to 20)
#    0.000    1.667    1.667    1.000    9.333    2.667 
#    0.000    0.833    0.000    0.000    0.000    0.000 
#    0.000    0.000    0.000    0.000    0.000    0.000 
#
# Total GULP energy -297558.509158 kJ/mol
# GULP energy per Si atom -12398.271215 kJ/mol
# Density = 2.178822 g / cm^3
# Si number density = 21.837929 Si / 1000 Ang^3
#
#
#
# Elastic Constant Matrix: (Units=GPa)
#
#
# Indices 1 2 3 4 5 6 
#
# 1 100.6920 46.8879 36.2833 0.0000 0.0000 0.0000
# 2 46.8879 90.5951 38.0186 0.0000 0.0000 0.0000
# 3 36.2833 38.0186 83.8164 0.0000 0.0000 0.0000
# 4 0.0000 0.0000 0.0000 41.8202 0.0000 0.0000
# 5 0.0000 0.0000 0.0000 0.0000 46.3172 0.0000
# 6 0.0000 0.0000 0.0000 0.0000 0.0000 15.3410
#
#
#
# Elastic Compliance Matrix: (Units=1/GPa)
#
#
# Indices 1 2 3 4 5 6 
#
# 1 0.013820 -0.005733 -0.003382 0.000000 0.000000 0.000000
# 2 -0.005733 0.016012 -0.004781 0.000000 0.000000 0.000000
# 3 -0.003382 -0.004781 0.015563 0.000000 0.000000 0.000000
# 4 0.000000 0.000000 0.000000 0.023912 0.000000 0.000000
# 5 0.000000 0.000000 0.000000 0.000000 0.021590 0.000000
# 6 0.000000 0.000000 0.000000 0.000000 0.000000 0.065185
#
#
# Mechanical properties :
#
#
# Convention : Reuss Voigt Hill
#
# Bulk Modulus (GPa) = 56.80932 57.49812 57.15372
# Shear Modulus (GPa) = 26.35166 30.95659 28.65412
#
# Velocity S-wave (km/s) = 3.47752 3.76914 3.62626
# Velocity P-wave (km/s) = 6.49574 6.73264 6.61525
#
# Compressibility (1/GPa) = 0.01760274
#
# Stress axis : x y z
#
# Youngs Moduli (GPa) = 72.36113 62.45428 64.25323
#
# Poissons Ratio (x) = 0.35806 0.21729
# Poissons Ratio (y) = 0.41486 0.30719
# Poissons Ratio (z) = 0.24471 0.29859
#
# Static dielectric constant tensor:
#      x y z
#    x 3.905680 0.000000 0.000000 
#    y 0.000000 3.855100 0.000000 
#    z 0.000000 0.000000 4.133720 
# 
# 
# High freq. dielectric constant tensor:
#      x y z
#    x 1.854420 0.000000 0.000000 
#    y 0.000000 1.849550 0.000000 
#    z 0.000000 0.000000 1.863220 
# 
# From -- ./inp_files/9332.got.cif
#   From: 2010.03.12/outbox.cif.g09.slc.cpg/sg20_5_cif.got.tgz:9332.got - 2010.04.14 01:38:04.
