data_PCOD8159896
_publ_section_title
;
Structure prediction by ZEFSAII (Michael W. Deem and Ramdas Pophale) SiO2 
 PCOD8159896
Probable space group: C 2 2 21
;
_chemical_formula_sum "Si O2"
_cell_formula_units_Z 40
_cell_length_a 9.725946
_cell_length_b 11.157492
_cell_length_c 13.774606
_cell_angle_alpha 90.000000
_cell_angle_beta 90.000000
_cell_angle_gamma 90.000000
_cell_volume 1494.781188
_symmetry_space_group_name_H-M "C 2 2 21"
_symmetry_group_IT_number 20
_symmetry_cell_setting 'orthorhombic'
loop_
_space_group_symop_operation_xyz
x,y,z
-x,-y,1/2+z
x,-y,-z
-x,y,1/2-z
1/2+x,1/2+y,z
1/2-x,1/2-y,1/2+z
1/2+x,1/2-y,-z
1/2-x,1/2+y,1/2-z
loop_
_atom_site_type_symbol
_atom_site_label
_atom_site_fract_x
_atom_site_fract_y
_atom_site_fract_z
Si Si1 0.754466 0.424514 0.380054
Si Si2 0.237534 0.822274 0.966203
Si Si3 0.010630 0.431172 0.645003
Si Si4 0.521836 0.587776 0.355426
Si Si5 0.321889 0.162536 0.827894
O O1 0.783436 0.319626 0.456574
O O2 0.610653 0.486243 0.409456
O O3 0.746295 0.359016 0.274424
O O4 0.858496 0.537833 0.393862
O O5 0.391862 0.858824 0.929408
O O6 0.123209 0.895810 0.908599
O O7 0.218681 0.852278 0.080224
O O8 0.062444 0.564036 0.664354
O O9 0.000000 0.362733 0.750000
O O10 0.500000 0.531444 0.250000
O O11 0.603220 0.710934 0.337307
#
# Coordination Sequence:
#
# PCOD8159896 Si02
#       5
#     8   8   8   8   8
#     4  11  26  51  78 108 150 210 246 309 391 452
#     4  12  26  50  77 115 154 197 257 320 373 454
#     4  10  22  48  77 101 148 197 241 306 383 443
#     4  12  24  51  79 106 158 201 252 323 377 446
#     4  11  24  48  78 107 156 201 247 311 383 449
#
# _framework density 26.75977
#
# number of rings (size 3 to 8) (size 9 to 14) (size 15 to 20)
#    0.000    0.800    4.000    3.600    0.000    3.200 
#   21.600    0.000    0.000    0.000    0.000    0.000 
#    0.000    0.000    0.000    0.000    0.000    0.000 
#
# Total GULP energy -247884.836849 kJ/mol
# GULP energy per Si atom -12394.241842 kJ/mol
# Density = 2.669886 g / cm^3
# Si number density = 26.759770 Si / 1000 Ang^3
#
#
#
# Elastic Constant Matrix: (Units=GPa)
#
#
# Indices 1 2 3 4 5 6 
#
# 1 127.7545 24.4803 38.6287 0.0000 0.0000 0.0000
# 2 24.4803 56.3987 19.4325 0.0000 0.0000 0.0000
# 3 38.6287 19.4325 152.6315 0.0000 0.0000 0.0000
# 4 0.0000 0.0000 0.0000 39.0971 0.0000 0.0000
# 5 0.0000 0.0000 0.0000 0.0000 23.6126 0.0000
# 6 0.0000 0.0000 0.0000 0.0000 0.0000 31.3448
#
#
#
# Elastic Compliance Matrix: (Units=1/GPa)
#
#
# Indices 1 2 3 4 5 6 
#
# 1 0.009019 -0.003272 -0.001866 0.000000 0.000000 0.000000
# 2 -0.003272 0.019731 -0.001684 0.000000 0.000000 0.000000
# 3 -0.001866 -0.001684 0.007238 0.000000 0.000000 0.000000
# 4 0.000000 0.000000 0.000000 0.025577 0.000000 0.000000
# 5 0.000000 0.000000 0.000000 0.000000 0.042350 0.000000
# 6 0.000000 0.000000 0.000000 0.000000 0.000000 0.031903
#
#
# Mechanical properties :
#
#
# Convention : Reuss Voigt Hill
#
# Bulk Modulus (GPa) = 44.75306 55.76305 50.25806
# Shear Modulus (GPa) = 31.86523 35.76045 33.81284
#
# Velocity S-wave (km/s) = 3.45452 3.65958 3.55853
# Velocity P-wave (km/s) = 5.71594 6.22417 5.97546
#
# Compressibility (1/GPa) = 0.02234484
#
# Stress axis : x y z
#
# Youngs Moduli (GPa) = 110.88158 50.68098 138.15241
#
# Poissons Ratio (x) = 0.16581 0.25778
# Poissons Ratio (y) = 0.36277 0.23266
# Poissons Ratio (z) = 0.20690 0.08535
#
# Static dielectric constant tensor:
#      x y z
#    x 4.813730 0.000000 0.000000 
#    y 0.000000 4.731130 0.000000 
#    z 0.000000 0.000000 4.902720 
# 
# 
# High freq. dielectric constant tensor:
#      x y z
#    x 2.065920 0.000000 0.000000 
#    y 0.000000 2.075050 0.000000 
#    z 0.000000 0.000000 2.091570 
# 
# From -- ./inp_files/19665.got.cif
#   From: 2010.03.12/outbox.cif.g09.slc.cpg/sg20_10_cif.got.tgz:19665.got - 2010.04.14 01:38:04.
