data_PCOD8159300
_publ_section_title
;
Structure prediction by ZEFSAII (Michael W. Deem and Ramdas Pophale) SiO2 
 PCOD8159300
Probable space group: C 2 2 21
;
_chemical_formula_sum "Si O2"
_cell_formula_units_Z 52
_cell_length_a 9.582769
_cell_length_b 10.470605
_cell_length_c 26.700807
_cell_angle_alpha 90.000000
_cell_angle_beta 90.000000
_cell_angle_gamma 90.000000
_cell_volume 2679.089259
_symmetry_space_group_name_H-M "C 2 2 21"
_symmetry_group_IT_number 20
_symmetry_cell_setting 'orthorhombic'
loop_
_space_group_symop_operation_xyz
x,y,z
-x,-y,1/2+z
x,-y,-z
-x,y,1/2-z
1/2+x,1/2+y,z
1/2-x,1/2-y,1/2+z
1/2+x,1/2-y,-z
1/2-x,1/2+y,1/2-z
loop_
_atom_site_type_symbol
_atom_site_label
_atom_site_fract_x
_atom_site_fract_y
_atom_site_fract_z
Si Si1 0.659839 0.130045 0.022857
Si Si2 0.804293 0.579110 0.371186
Si Si3 0.500000 0.742763 0.750000
Si Si4 0.043701 0.489957 0.698084
Si Si5 0.953437 0.811969 0.987666
Si Si6 0.023706 0.968972 0.413722
Si Si7 0.312193 0.642247 0.667245
O O1 0.605580 0.106286 0.078717
O O2 0.794159 0.223596 0.026007
O O3 0.541108 0.181618 0.986070
O O4 0.722611 0.000000 0.000000
O O5 0.666379 0.496100 0.383106
O O6 0.763198 0.715153 0.346987
O O7 0.907077 0.497410 0.336625
O O8 0.393898 0.650533 0.720259
O O9 0.576240 0.838552 0.709699
O O10 0.176150 0.555304 0.673102
O O11 0.000000 0.560003 0.750000
O O12 0.018825 0.905240 0.945619
O O13 0.959971 0.858547 0.045137
O O14 0.905729 0.926668 0.374797
#
# Coordination Sequence:
#
# PCOD8159300 Si02
#       7
#     8   8   4   8   8   8   8
#     4  11  21  40  62  84 127 165 197 248 301 350
#     4  10  21  40  59  87 122 158 199 246 299 362
#     4   8  22  40  60  86 120 152 200 250 302 350
#     4   9  22  42  58  88 121 147 204 256 293 358
#     4  10  21  40  58  91 126 156 201 249 292 352
#     4  10  21  40  61  88 125 157 199 249 293 359
#     4  11  21  40  65  84 120 161 197 248 307 362
#
# _framework density 19.409582
#
# number of rings (size 3 to 8) (size 9 to 14) (size 15 to 20)
#    0.462    1.538    4.615    0.000    2.154    3.692 
#    5.538    0.000    0.000    0.000    0.000    0.000 
#    0.000    0.000    0.000    0.000    0.000    0.000 
#
# Total GULP energy -322166.770699 kJ/mol
# GULP energy per Si atom -12391.029642 kJ/mol
# Density = 1.936540 g / cm^3
# Si number density = 19.409582 Si / 1000 Ang^3
#
#
#
# Elastic Constant Matrix: (Units=GPa)
#
#
# Indices 1 2 3 4 5 6 
#
# 1 110.8054 45.7864 50.5267 0.0000 0.0000 0.0000
# 2 45.7864 47.4310 15.6493 0.0000 0.0000 0.0000
# 3 50.5267 15.6493 99.1699 0.0000 0.0000 0.0000
# 4 0.0000 0.0000 0.0000 11.0316 0.0000 0.0000
# 5 0.0000 0.0000 0.0000 0.0000 33.7326 0.0000
# 6 0.0000 0.0000 0.0000 0.0000 0.0000 28.9602
#
#
#
# Elastic Compliance Matrix: (Units=1/GPa)
#
#
# Indices 1 2 3 4 5 6 
#
# 1 0.018775 -0.015790 -0.007074 0.000000 0.000000 0.000000
# 2 -0.015790 0.035521 0.002440 0.000000 0.000000 0.000000
# 3 -0.007074 0.002440 0.013303 0.000000 0.000000 0.000000
# 4 0.000000 0.000000 0.000000 0.090649 0.000000 0.000000
# 5 0.000000 0.000000 0.000000 0.000000 0.029645 0.000000
# 6 0.000000 0.000000 0.000000 0.000000 0.000000 0.034530
#
#
# Mechanical properties :
#
#
# Convention : Reuss Voigt Hill
#
# Bulk Modulus (GPa) = 37.38328 53.48122 45.43225
# Shear Modulus (GPa) = 18.36955 24.44116 21.40536
#
# Velocity S-wave (km/s) = 3.07973 3.55242 3.32448
# Velocity P-wave (km/s) = 5.65228 6.66634 6.18014
#
# Compressibility (1/GPa) = 0.02674992
#
# Stress axis : x y z
#
# Youngs Moduli (GPa) = 53.26103 28.15228 75.17096
#
# Poissons Ratio (x) = 0.44453 0.53178
# Poissons Ratio (y) = 0.84101 -0.18340
# Poissons Ratio (z) = 0.37678 -0.06869
#
# Static dielectric constant tensor:
#      x y z
#    x 3.305780 0.000000 0.000000 
#    y 0.000000 3.368080 0.000000 
#    z 0.000000 0.000000 3.740210 
# 
# 
# High freq. dielectric constant tensor:
#      x y z
#    x 1.741870 0.000000 0.000000 
#    y 0.000000 1.735040 0.000000 
#    z 0.000000 0.000000 1.771200 
# 
# From -- ./inp_files/30115.got.cif
#   From: 2010.03.12/outbox.cif.g09.slc.cpg/sg20_16_cif.got.tgz:30115.got - 2010.04.14 01:38:04.
