data_PCOD8159857
_publ_section_title
;
Structure prediction by ZEFSAII (Michael W. Deem and Ramdas Pophale) SiO2 
 PCOD8159857
Probable space group: C 2 2 21
;
_chemical_formula_sum "Si O2"
_cell_formula_units_Z 32
_cell_length_a 28.507080
_cell_length_b 5.473779
_cell_length_c 8.783087
_cell_angle_alpha 90.000000
_cell_angle_beta 90.000000
_cell_angle_gamma 90.000000
_cell_volume 1370.525682
_symmetry_space_group_name_H-M "C 2 2 21"
_symmetry_group_IT_number 20
_symmetry_cell_setting 'orthorhombic'
loop_
_space_group_symop_operation_xyz
x,y,z
-x,-y,1/2+z
x,-y,-z
-x,y,1/2-z
1/2+x,1/2+y,z
1/2-x,1/2-y,1/2+z
1/2+x,1/2-y,-z
1/2-x,1/2+y,1/2-z
loop_
_atom_site_type_symbol
_atom_site_label
_atom_site_fract_x
_atom_site_fract_y
_atom_site_fract_z
Si Si1 0.274366 0.248764 0.096298
Si Si2 0.177629 0.047625 0.171875
Si Si3 0.500000 0.334140 0.250000
Si Si4 0.586410 0.630335 0.341567
Si Si5 0.028948 0.500000 0.500000
O O1 0.310133 0.293842 0.237707
O O2 0.222991 0.224311 0.171901
O O3 0.276694 0.500000 0.000000
O O4 0.286734 0.000000 0.000000
O O5 0.134069 0.180185 0.251326
O O6 0.162351 0.000000 0.000000
O O7 0.548167 0.483488 0.244191
O O8 0.503472 0.189142 0.090405
O O9 0.598886 0.500000 0.500000
O O10 0.562742 0.889562 0.371634
#
# Coordination Sequence:
#
# PCOD8159857 Si02
#       5
#     8   8   4   8   4
#     4  11  25  50  75 103 156 202 246 311 379 437
#     4  11  24  45  72 108 141 192 247 310 363 440
#     4  10  22  44  72 100 142 180 238 286 362 432
#     4  10  23  45  68 101 142 188 237 288 367 438
#     4  10  22  44  72 102 138 192 224 298 360 430
#
# _framework density 23.348704000000001
#
# number of rings (size 3 to 8) (size 9 to 14) (size 15 to 20)
#    0.000    1.500    0.000    4.500    0.000    5.000 
#   54.000    0.000    2.750    0.000    0.000    0.000 
#    0.000    0.000    0.000    0.000    0.000    0.000 
#
# Total GULP energy -198302.814513 kJ/mol
# GULP energy per Si atom -12393.925907 kJ/mol
# Density = 2.329556 g / cm^3
# Si number density = 23.348704 Si / 1000 Ang^3
#
#
#
# Elastic Constant Matrix: (Units=GPa)
#
#
# Indices 1 2 3 4 5 6 
#
# 1 122.5479 41.4687 78.7754 0.0000 0.0000 0.0000
# 2 41.4687 132.7130 62.4508 0.0000 0.0000 0.0000
# 3 78.7754 62.4508 146.1181 0.0000 0.0000 0.0000
# 4 0.0000 0.0000 0.0000 36.6452 0.0000 0.0000
# 5 0.0000 0.0000 0.0000 0.0000 45.7177 0.0000
# 6 0.0000 0.0000 0.0000 0.0000 0.0000 0.7018
#
#
#
# Elastic Compliance Matrix: (Units=1/GPa)
#
#
# Indices 1 2 3 4 5 6 
#
# 1 0.012578 -0.000925 -0.006386 0.000000 0.000000 0.000000
# 2 -0.000925 0.009500 -0.003561 0.000000 0.000000 0.000000
# 3 -0.006386 -0.003561 0.011809 0.000000 0.000000 0.000000
# 4 0.000000 0.000000 0.000000 0.027289 0.000000 0.000000
# 5 0.000000 0.000000 0.000000 0.000000 0.021873 0.000000
# 6 0.000000 0.000000 0.000000 0.000000 0.000000 1.424882
#
#
# Mechanical properties :
#
#
# Convention : Reuss Voigt Hill
#
# Bulk Modulus (GPa) = 82.35978 85.19652 83.77815
# Shear Modulus (GPa) = 3.26004 31.19189 17.22596
#
# Velocity S-wave (km/s) = 1.18291 3.65898 2.71914
# Velocity P-wave (km/s) = 6.10050 7.37691 6.76886
#
# Compressibility (1/GPa) = 0.01214185
#
# Stress axis : x y z
#
# Youngs Moduli (GPa) = 79.50455 105.26179 84.68472
#
# Poissons Ratio (x) = 0.09741 0.54075
# Poissons Ratio (y) = 0.07357 0.30160
# Poissons Ratio (z) = 0.50768 0.37489
#
# Static dielectric constant tensor:
#      x y z
#    x 4.092470 0.000000 0.000000 
#    y 0.000000 4.267860 0.000000 
#    z 0.000000 0.000000 4.458850 
# 
# 
# High freq. dielectric constant tensor:
#      x y z
#    x 1.915160 0.000000 0.000000 
#    y 0.000000 1.914970 0.000000 
#    z 0.000000 0.000000 1.941320 
# 
# From -- ./inp_files/11309.got.cif
#   From: 2010.03.12/outbox.cif.g09.slc.cpg/sg20_6_cif.got.tgz:11309.got - 2010.04.14 01:38:04.
