data_PCOD8159943
_publ_section_title
;
Structure prediction by ZEFSAII (Michael W. Deem and Ramdas Pophale) SiO2 
 PCOD8159943
Probable space group: C 2 2 21
;
_chemical_formula_sum "Si O2"
_cell_formula_units_Z 32
_cell_length_a 12.830908
_cell_length_b 15.049958
_cell_length_c 8.248540
_cell_angle_alpha 90.000000
_cell_angle_beta 90.000000
_cell_angle_gamma 90.000000
_cell_volume 1592.831236
_symmetry_space_group_name_H-M "C 2 2 21"
_symmetry_group_IT_number 20
_symmetry_cell_setting 'orthorhombic'
loop_
_space_group_symop_operation_xyz
x,y,z
-x,-y,1/2+z
x,-y,-z
-x,y,1/2-z
1/2+x,1/2+y,z
1/2-x,1/2-y,1/2+z
1/2+x,1/2-y,-z
1/2-x,1/2+y,1/2-z
loop_
_atom_site_type_symbol
_atom_site_label
_atom_site_fract_x
_atom_site_fract_y
_atom_site_fract_z
Si Si1 0.029956 0.402386 0.935134
Si Si2 0.885045 0.737886 0.917660
Si Si3 0.920455 0.908223 0.098358
Si Si4 0.785690 0.316887 0.402389
O O1 0.000000 0.394129 0.750000
O O2 0.019631 0.500000 0.000000
O O3 0.146558 0.367115 0.961717
O O4 0.948439 0.348161 0.039171
O O5 0.862203 0.728452 0.727168
O O6 0.947097 0.828482 0.969356
O O7 0.773553 0.735951 0.008944
O O8 0.802049 0.887864 0.163958
O O9 0.000000 0.907626 0.250000
O O10 0.927157 0.000000 0.000000
#
# Coordination Sequence:
#
# PCOD8159943 Si02
#       4
#     8   8   8   8
#     4  12  24  42  68  99 139 180 234 291 353 419
#     4  10  23  41  69  97 137 180 231 290 353 415
#     4  10  24  44  66  98 138 187 236 286 348 424
#     4  10  23  43  66 100 135 182 227 292 347 418
#
# _framework density 20.090015000000001
#
# number of rings (size 3 to 8) (size 9 to 14) (size 15 to 20)
#    1.500    0.000    0.000    5.250    3.500    2.000 
#    0.000    0.000    0.000    0.000    0.000    0.000 
#    0.000    0.000    0.000    0.000    0.000    0.000 
#
# Total GULP energy -198220.379107 kJ/mol
# GULP energy per Si atom -12388.773694 kJ/mol
# Density = 2.004429 g / cm^3
# Si number density = 20.090015 Si / 1000 Ang^3
#
#
#
# Elastic Constant Matrix: (Units=GPa)
#
#
# Indices 1 2 3 4 5 6 
#
# 1 120.7789 52.9571 52.4672 0.0000 0.0000 0.0000
# 2 52.9571 -102.8810 -53.0822 0.0000 0.0000 0.0000
# 3 52.4672 -53.0822 77.1350 0.0000 0.0000 0.0000
# 4 0.0000 0.0000 0.0000 39.9039 0.0000 0.0000
# 5 0.0000 0.0000 0.0000 0.0000 53.8314 0.0000
# 6 0.0000 0.0000 0.0000 0.0000 0.0000 -9.3290
#
#
#
# Elastic Compliance Matrix: (Units=1/GPa)
#
#
# Indices 1 2 3 4 5 6 
#
# 1 0.007043 0.004499 -0.001694 0.000000 0.000000 0.000000
# 2 0.004499 -0.004299 -0.006019 0.000000 0.000000 0.000000
# 3 -0.001694 -0.006019 0.009975 0.000000 0.000000 0.000000
# 4 0.000000 0.000000 0.000000 0.025060 0.000000 0.000000
# 5 0.000000 0.000000 0.000000 0.000000 0.018577 0.000000
# 6 0.000000 0.000000 0.000000 0.000000 0.000000 -0.107193
#
#
# Mechanical properties :
#
#
# Convention : Reuss Voigt Hill
#
# Bulk Modulus (GPa) = 158.93257 22.19078 90.56168
# Shear Modulus (GPa) = -118.16671 19.72733 -49.21969
#
# Velocity S-wave (km/s) = -7.67765 3.13700 -4.95507
# Velocity P-wave (km/s) = 0.82878 4.91840 3.52687
#
# Compressibility (1/GPa) = 0.00629198
#
# Stress axis : x y z
#
# Youngs Moduli (GPa) = 141.98967 -232.63267 100.25263
#
# Poissons Ratio (x) = 1.04669 0.16985
# Poissons Ratio (y) = -0.63886 0.60338
# Poissons Ratio (z) = 0.24056 -1.40013
#
# Static dielectric constant tensor:
#      x y z
#    x 3.784180 0.000000 0.000000 
#    y 0.000000 3.593240 0.000000 
#    z 0.000000 0.000000 4.724550 
# 
# 
# High freq. dielectric constant tensor:
#      x y z
#    x 1.796100 0.000000 0.000000 
#    y 0.000000 1.780530 0.000000 
#    z 0.000000 0.000000 1.781950 
# 
# From -- ./inp_files/6790.got.cif
#   From: 2010.03.12/outbox.cif.g09.slc.cpg/sg20_4_cif.got.tgz:6790.got - 2010.04.14 01:38:04.
