data_PCOD8159830
_publ_section_title
;
Structure prediction by ZEFSAII (Michael W. Deem and Ramdas Pophale) SiO2 
 PCOD8159830
Probable space group: C 2 2 21
;
_chemical_formula_sum "Si O2"
_cell_formula_units_Z 48
_cell_length_a 8.691863
_cell_length_b 28.627967
_cell_length_c 8.247983
_cell_angle_alpha 90.000000
_cell_angle_beta 90.000000
_cell_angle_gamma 90.000000
_cell_volume 2052.348638
_symmetry_space_group_name_H-M "C 2 2 21"
_symmetry_group_IT_number 20
_symmetry_cell_setting 'orthorhombic'
loop_
_space_group_symop_operation_xyz
x,y,z
-x,-y,1/2+z
x,-y,-z
-x,y,1/2-z
1/2+x,1/2+y,z
1/2-x,1/2-y,1/2+z
1/2+x,1/2-y,-z
1/2-x,1/2+y,1/2-z
loop_
_atom_site_type_symbol
_atom_site_label
_atom_site_fract_x
_atom_site_fract_y
_atom_site_fract_z
Si Si1 0.500000 0.966499 0.750000
Si Si2 0.822502 0.694483 0.576742
Si Si3 0.666653 0.225320 0.567925
Si Si4 0.778787 0.599956 0.412307
Si Si5 0.860198 0.840067 0.640817
Si Si6 0.527408 0.420268 0.061549
Si Si7 0.732954 0.000000 0.500000
O O1 0.577983 0.934647 0.889401
O O2 0.627321 0.998369 0.661209
O O3 0.702025 0.719142 0.451837
O O4 0.775875 0.704269 0.762267
O O5 0.820448 0.638904 0.547845
O O6 0.988747 0.715816 0.538865
O O7 0.761863 0.203385 0.419289
O O8 0.746671 0.624504 0.240864
O O9 0.632516 0.569052 0.468356
O O10 0.925321 0.867583 0.484469
O O11 0.000000 0.820510 0.750000
O O12 0.500000 0.425252 0.250000
O O13 0.659812 0.454793 0.002094
#
# Coordination Sequence:
#
# PCOD8159830 Si02
#       7
#     4   8   8   8   8   8   4
#     4  12  28  50  74 108 148 182 242 302 378 426
#     4  11  26  43  70 105 147 195 242 295 358 419
#     4  11  25  44  69 105 148 192 248 296 349 428
#     4  11  24  47  73 103 145 192 236 301 361 433
#     4  10  22  43  72 100 141 186 245 294 361 419
#     4  11  26  45  75 103 140 185 241 293 370 442
#     4  12  30  48  76 108 140 192 238 308 368 444
#
# _framework density 23.387839
#
# number of rings (size 3 to 8) (size 9 to 14) (size 15 to 20)
#    0.000    1.000    1.667    3.000   11.667    2.000 
#    0.000    0.000    0.000    0.000    0.000    0.000 
#    0.000    0.000    0.000    0.000    0.000    0.000 
#
# Total GULP energy -297750.331911 kJ/mol
# GULP energy per Si atom -12406.263830 kJ/mol
# Density = 2.333461 g / cm^3
# Si number density = 23.387839 Si / 1000 Ang^3
#
#
#
# Elastic Constant Matrix: (Units=GPa)
#
#
# Indices 1 2 3 4 5 6 
#
# 1 129.2518 49.7133 40.7516 0.0000 0.0000 0.0000
# 2 49.7133 81.1094 31.1562 0.0000 0.0000 0.0000
# 3 40.7516 31.1562 104.5895 0.0000 0.0000 0.0000
# 4 0.0000 0.0000 0.0000 23.1803 0.0000 0.0000
# 5 0.0000 0.0000 0.0000 0.0000 42.9029 0.0000
# 6 0.0000 0.0000 0.0000 0.0000 0.0000 41.7511
#
#
#
# Elastic Compliance Matrix: (Units=1/GPa)
#
#
# Indices 1 2 3 4 5 6 
#
# 1 0.010670 -0.005582 -0.002495 0.000000 0.000000 0.000000
# 2 -0.005582 0.016842 -0.002842 0.000000 0.000000 0.000000
# 3 -0.002495 -0.002842 0.011380 0.000000 0.000000 0.000000
# 4 0.000000 0.000000 0.000000 0.043140 0.000000 0.000000
# 5 0.000000 0.000000 0.000000 0.000000 0.023308 0.000000
# 6 0.000000 0.000000 0.000000 0.000000 0.000000 0.023951
#
#
# Mechanical properties :
#
#
# Convention : Reuss Voigt Hill
#
# Bulk Modulus (GPa) = 58.63478 62.02143 60.32811
# Shear Modulus (GPa) = 31.88487 34.45550 33.17019
#
# Velocity S-wave (km/s) = 3.69631 3.84242 3.77007
# Velocity P-wave (km/s) = 6.58346 6.80161 6.69342
#
# Compressibility (1/GPa) = 0.01705472
#
# Stress axis : x y z
#
# Youngs Moduli (GPa) = 93.71852 59.37580 87.87414
#
# Poissons Ratio (x) = 0.33142 0.21923
# Poissons Ratio (y) = 0.52311 0.24976
# Poissons Ratio (z) = 0.23381 0.16876
#
# Static dielectric constant tensor:
#      x y z
#    x 4.312640 0.000000 0.000000 
#    y 0.000000 4.120460 0.000000 
#    z 0.000000 0.000000 4.142290 
# 
# 
# High freq. dielectric constant tensor:
#      x y z
#    x 1.937140 0.000000 0.000000 
#    y 0.000000 1.919460 0.000000 
#    z 0.000000 0.000000 1.930480 
# 
# From -- ./inp_files/6597.got.cif
#   From: 2010.03.12/outbox.cif.g09.slc.cpg/sg20_4_cif.got.tgz:6597.got - 2010.04.14 01:38:04.
