data_PCOD8159381
_publ_section_title
;
Structure prediction by ZEFSAII (Michael W. Deem and Ramdas Pophale) SiO2 
 PCOD8159381
Probable space group: C 2 2 21
;
_chemical_formula_sum "Si O2"
_cell_formula_units_Z 48
_cell_length_a 9.731487
_cell_length_b 14.026773
_cell_length_c 16.993550
_cell_angle_alpha 90.000000
_cell_angle_beta 90.000000
_cell_angle_gamma 90.000000
_cell_volume 2319.642671
_symmetry_space_group_name_H-M "C 2 2 21"
_symmetry_group_IT_number 20
_symmetry_cell_setting 'orthorhombic'
loop_
_space_group_symop_operation_xyz
x,y,z
-x,-y,1/2+z
x,-y,-z
-x,y,1/2-z
1/2+x,1/2+y,z
1/2-x,1/2-y,1/2+z
1/2+x,1/2-y,-z
1/2-x,1/2+y,1/2-z
loop_
_atom_site_type_symbol
_atom_site_label
_atom_site_fract_x
_atom_site_fract_y
_atom_site_fract_z
Si Si1 0.466981 0.265995 0.622455
Si Si2 0.212897 0.181537 0.266072
Si Si3 0.134053 0.892795 0.018610
Si Si4 0.651126 0.990864 0.283654
Si Si5 0.429374 0.928289 0.059274
Si Si6 0.620958 0.347445 0.195616
O O1 0.343236 0.277610 0.683646
O O2 0.604134 0.307801 0.662984
O O3 0.438033 0.322953 0.542907
O O4 0.478520 0.153912 0.598953
O O5 0.257126 0.072549 0.255330
O O6 0.352970 0.235222 0.290633
O O7 0.299410 0.879946 0.014945
O O8 0.080465 0.867404 0.105781
O O9 0.087775 0.000000 0.000000
O O10 0.500000 0.978113 0.250000
O O11 0.632474 0.003194 0.377134
O O12 0.736284 0.893451 0.274414
O O13 0.511881 0.000000 0.000000
O O14 0.500000 0.386774 0.250000
#
# Coordination Sequence:
#
# PCOD8159381 Si02
#       6
#     8   8   8   8   8   8
#     4  11  22  40  69  96 131 175 229 275 335 405
#     4  11  23  40  67  95 130 176 225 280 331 394
#     4  10  22  40  63  93 131 174 217 272 341 395
#     4  11  23  42  69  94 131 173 222 269 335 401
#     4  10  21  41  64  91 129 175 217 271 336 396
#     4  11  24  42  66 101 135 171 225 280 332 405
#
# _framework density 20.692841000000001
#
# number of rings (size 3 to 8) (size 9 to 14) (size 15 to 20)
#    0.000    1.333    3.333    4.500    4.667    4.000 
#    0.000    0.000    0.000    0.000    0.000    0.000 
#    0.000    0.000    0.000    0.000    0.000    0.000 
#
# Total GULP energy -297476.357262 kJ/mol
# GULP energy per Si atom -12394.848219 kJ/mol
# Density = 2.064574 g / cm^3
# Si number density = 20.692841 Si / 1000 Ang^3
#
#
#
# Elastic Constant Matrix: (Units=GPa)
#
#
# Indices 1 2 3 4 5 6 
#
# 1 76.3241 15.4736 57.6499 0.0000 0.0000 0.0000
# 2 15.4736 89.8752 57.4975 0.0000 0.0000 0.0000
# 3 57.6499 57.4975 139.9803 0.0000 0.0000 0.0000
# 4 0.0000 0.0000 0.0000 42.9105 0.0000 0.0000
# 5 0.0000 0.0000 0.0000 0.0000 20.3731 0.0000
# 6 0.0000 0.0000 0.0000 0.0000 0.0000 14.2492
#
#
#
# Elastic Compliance Matrix: (Units=1/GPa)
#
#
# Indices 1 2 3 4 5 6 
#
# 1 0.019393 0.002402 -0.008973 0.000000 0.000000 0.000000
# 2 0.002402 0.015390 -0.007311 0.000000 0.000000 0.000000
# 3 -0.008973 -0.007311 0.013842 0.000000 0.000000 0.000000
# 4 0.000000 0.000000 0.000000 0.023304 0.000000 0.000000
# 5 0.000000 0.000000 0.000000 0.000000 0.049084 0.000000
# 6 0.000000 0.000000 0.000000 0.000000 0.000000 0.070179
#
#
# Mechanical properties :
#
#
# Convention : Reuss Voigt Hill
#
# Bulk Modulus (GPa) = 47.93658 63.04684 55.49171
# Shear Modulus (GPa) = 22.13252 27.21046 24.67149
#
# Velocity S-wave (km/s) = 3.27398 3.63018 3.45667
# Velocity P-wave (km/s) = 6.12438 6.93578 6.54267
#
# Compressibility (1/GPa) = 0.02086090
#
# Stress axis : x y z
#
# Youngs Moduli (GPa) = 51.56498 64.97710 72.24159
#
# Poissons Ratio (x) = -0.15607 0.64826
# Poissons Ratio (y) = -0.12385 0.52814
# Poissons Ratio (z) = 0.46272 0.47503
#
# Static dielectric constant tensor:
#      x y z
#    x 3.628910 0.000000 0.000000 
#    y 0.000000 3.737320 0.000000 
#    z 0.000000 0.000000 4.050420 
# 
# 
# High freq. dielectric constant tensor:
#      x y z
#    x 1.789170 0.000000 0.000000 
#    y 0.000000 1.811520 0.000000 
#    z 0.000000 0.000000 1.824430 
# 
# From -- ./inp_files/23476.got.cif
#   From: 2010.03.12/outbox.cif.g09.slc.cpg/sg20_12_cif.got.tgz:23476.got - 2010.04.14 01:38:04.
