data_PCOD8159807
_publ_section_title
;
Structure prediction by ZEFSAII (Michael W. Deem and Ramdas Pophale) SiO2 
 PCOD8159807
Probable space group: C 2 2 21
;
_chemical_formula_sum "Si O2"
_cell_formula_units_Z 40
_cell_length_a 19.806401
_cell_length_b 12.947543
_cell_length_c 6.990815
_cell_angle_alpha 90.000000
_cell_angle_beta 90.000000
_cell_angle_gamma 90.000000
_cell_volume 1792.754160
_symmetry_space_group_name_H-M "C 2 2 21"
_symmetry_group_IT_number 20
_symmetry_cell_setting 'orthorhombic'
loop_
_space_group_symop_operation_xyz
x,y,z
-x,-y,1/2+z
x,-y,-z
-x,y,1/2-z
1/2+x,1/2+y,z
1/2-x,1/2-y,1/2+z
1/2+x,1/2-y,-z
1/2-x,1/2+y,1/2-z
loop_
_atom_site_type_symbol
_atom_site_label
_atom_site_fract_x
_atom_site_fract_y
_atom_site_fract_z
Si Si1 0.395158 0.000000 0.000000
Si Si2 0.693121 0.181420 0.427594
Si Si3 0.167882 0.842730 0.748485
Si Si4 0.000000 0.395022 0.750000
Si Si5 0.099957 0.244036 0.893725
Si Si6 0.923232 0.978484 0.286258
O O1 0.442589 0.970844 0.824547
O O2 0.347678 0.096771 0.949137
O O3 0.767598 0.136986 0.385342
O O4 0.692655 0.282582 0.560423
O O5 0.660252 0.199902 0.219670
O O6 0.129401 0.946960 0.671013
O O7 0.116512 0.779331 0.885269
O O8 0.965516 0.318695 0.594475
O O9 0.084595 0.143940 0.757983
O O10 0.000000 0.014982 0.250000
O O11 0.901234 0.000000 0.500000
#
# Coordination Sequence:
#
# PCOD8159807 Si02
#       6
#     4   8   8   4   8   8
#     4  10  26  40  66  94 130 168 222 266 308 390
#     4  11  24  43  63  92 129 173 217 262 317 377
#     4  11  24  40  68  93 129 173 213 264 324 380
#     4  10  22  44  66  90 130 168 216 270 320 374
#     4  10  22  43  65  92 128 167 210 269 319 379
#     4  10  23  39  65  99 128 160 212 266 323 388
#
# _framework density 22.312038999999999
#
# number of rings (size 3 to 8) (size 9 to 14) (size 15 to 20)
#    0.000    1.600    3.000    0.000    9.800    1.600 
#    0.000    0.000    0.000    0.000    0.000    0.000 
#    0.000    0.000    0.000    0.000    0.000    0.000 
#
# Total GULP energy -247827.867572 kJ/mol
# GULP energy per Si atom -12391.393379 kJ/mol
# Density = 2.226126 g / cm^3
# Si number density = 22.312039 Si / 1000 Ang^3
#
#
#
# Elastic Constant Matrix: (Units=GPa)
#
#
# Indices 1 2 3 4 5 6 
#
# 1 124.7273 42.1344 -4.8453 0.0000 0.0000 0.0000
# 2 42.1344 99.1668 -0.6990 0.0000 0.0000 0.0000
# 3 -4.8453 -0.6990 31.4867 0.0000 0.0000 0.0000
# 4 0.0000 0.0000 0.0000 29.6963 0.0000 0.0000
# 5 0.0000 0.0000 0.0000 0.0000 28.1193 0.0000
# 6 0.0000 0.0000 0.0000 0.0000 0.0000 14.0052
#
#
#
# Elastic Compliance Matrix: (Units=1/GPa)
#
#
# Indices 1 2 3 4 5 6 
#
# 1 0.009419 -0.003992 0.001361 0.000000 0.000000 0.000000
# 2 -0.003992 0.011778 -0.000353 0.000000 0.000000 0.000000
# 3 0.001361 -0.000353 0.031961 0.000000 0.000000 0.000000
# 4 0.000000 0.000000 0.000000 0.033674 0.000000 0.000000
# 5 0.000000 0.000000 0.000000 0.000000 0.035563 0.000000
# 6 0.000000 0.000000 0.000000 0.000000 0.000000 0.071402
#
#
# Mechanical properties :
#
#
# Convention : Reuss Voigt Hill
#
# Bulk Modulus (GPa) = 21.19144 36.50679 28.84912
# Shear Modulus (GPa) = 23.20232 28.95019 26.07625
#
# Velocity S-wave (km/s) = 3.22825 3.60601 3.42235
# Velocity P-wave (km/s) = 4.83878 5.80820 5.34551
#
# Compressibility (1/GPa) = 0.04718886
#
# Stress axis : x y z
#
# Youngs Moduli (GPa) = 106.16793 84.90516 31.28816
#
# Poissons Ratio (x) = 0.33898 -0.04258
# Poissons Ratio (y) = 0.42387 0.01104
# Poissons Ratio (z) = -0.14447 0.02996
#
# Static dielectric constant tensor:
#      x y z
#    x 4.183690 0.000000 0.000000 
#    y 0.000000 4.476540 0.000000 
#    z 0.000000 0.000000 3.562390 
# 
# 
# High freq. dielectric constant tensor:
#      x y z
#    x 1.892880 0.000000 0.000000 
#    y 0.000000 1.880100 0.000000 
#    z 0.000000 0.000000 1.851630 
# 
# From -- ./inp_files/7261.got.cif
#   From: 2010.03.12/outbox.cif.g09.slc.cpg/sg20_4_cif.got.tgz:7261.got - 2010.04.14 01:38:04.
