data_PCOD8159205
_publ_section_title
;
Structure prediction by ZEFSAII (Michael W. Deem and Ramdas Pophale) SiO2 
 PCOD8159205
Probable space group: C 2 2 21
;
_chemical_formula_sum "Si O2"
_cell_formula_units_Z 52
_cell_length_a 14.095181
_cell_length_b 7.943591
_cell_length_c 20.896719
_cell_angle_alpha 90.000000
_cell_angle_beta 90.000000
_cell_angle_gamma 90.000000
_cell_volume 2339.729415
_symmetry_space_group_name_H-M "C 2 2 21"
_symmetry_group_IT_number 20
_symmetry_cell_setting 'orthorhombic'
loop_
_space_group_symop_operation_xyz
x,y,z
-x,-y,1/2+z
x,-y,-z
-x,y,1/2-z
1/2+x,1/2+y,z
1/2-x,1/2-y,1/2+z
1/2+x,1/2-y,-z
1/2-x,1/2+y,1/2-z
loop_
_atom_site_type_symbol
_atom_site_label
_atom_site_fract_x
_atom_site_fract_y
_atom_site_fract_z
Si Si1 0.216072 0.601876 0.817914
Si Si2 0.500000 0.627461 0.750000
Si Si3 0.641617 0.641241 0.271980
Si Si4 0.926636 0.686864 0.893451
Si Si5 0.820948 0.801786 0.012151
Si Si6 0.604342 0.193104 0.358754
Si Si7 0.375052 0.132871 0.553849
O O1 0.253497 0.429308 0.786994
O O2 0.142087 0.688780 0.769444
O O3 0.295988 0.745146 0.829338
O O4 0.164280 0.541683 0.882313
O O5 0.411515 0.506332 0.733635
O O6 0.480313 0.737215 0.813797
O O7 0.588270 0.672862 0.339172
O O8 0.911513 0.506196 0.860918
O O9 0.028897 0.727482 0.925394
O O10 0.847825 0.701556 0.948581
O O11 0.896959 0.761906 0.068254
O O12 0.711721 0.747594 0.029543
O O13 0.821596 0.000000 0.000000
O O14 0.404554 0.000000 0.500000
#
# Coordination Sequence:
#
# PCOD8159205 Si02
#       7
#     8   4   8   8   8   8   8
#     4  10  22  40  62  92 130 170 217 267 334 396
#     4  10  22  40  60  92 130 166 212 270 330 390
#     4  11  22  39  63  93 131 174 217 273 330 396
#     4  12  23  40  66  94 127 174 224 274 334 393
#     4  10  21  42  63  87 127 171 221 280 332 390
#     4  10  22  39  61  91 129 170 217 276 332 396
#     4  10  21  38  61  90 121 164 217 271 327 388
#
# _framework density 22.224791
#
# number of rings (size 3 to 8) (size 9 to 14) (size 15 to 20)
#    0.000    1.538    0.000    6.923    0.000    4.308 
#    0.000   10.769    0.000    3.692    0.000    0.000 
#    0.000    0.000    0.000    0.000    0.000    0.000 
#
# Total GULP energy -322262.114472 kJ/mol
# GULP energy per Si atom -12394.696710 kJ/mol
# Density = 2.217421 g / cm^3
# Si number density = 22.224791 Si / 1000 Ang^3
#
#
#
# Elastic Constant Matrix: (Units=GPa)
#
#
# Indices 1 2 3 4 5 6 
#
# 1 77.1098 21.5149 43.2083 0.0000 0.0000 0.0000
# 2 21.5149 84.3852 42.3504 0.0000 0.0000 0.0000
# 3 43.2083 42.3504 139.4093 0.0000 0.0000 0.0000
# 4 0.0000 0.0000 0.0000 44.8067 0.0000 0.0000
# 5 0.0000 0.0000 0.0000 0.0000 39.3510 0.0000
# 6 0.0000 0.0000 0.0000 0.0000 0.0000 28.6936
#
#
#
# Elastic Compliance Matrix: (Units=1/GPa)
#
#
# Indices 1 2 3 4 5 6 
#
# 1 0.015940 -0.001870 -0.004373 0.000000 0.000000 0.000000
# 2 -0.001870 0.014201 -0.003735 0.000000 0.000000 0.000000
# 3 -0.004373 -0.003735 0.009663 0.000000 0.000000 0.000000
# 4 0.000000 0.000000 0.000000 0.022318 0.000000 0.000000
# 5 0.000000 0.000000 0.000000 0.000000 0.025412 0.000000
# 6 0.000000 0.000000 0.000000 0.000000 0.000000 0.034851
#
#
# Mechanical properties :
#
#
# Convention : Reuss Voigt Hill
#
# Bulk Modulus (GPa) = 50.37580 57.22795 53.80187
# Shear Modulus (GPa) = 33.56679 35.49233 34.52956
#
# Velocity S-wave (km/s) = 3.89051 4.00055 3.94591
# Velocity P-wave (km/s) = 6.54959 6.86620 6.70976
#
# Compressibility (1/GPa) = 0.01985080
#
# Stress axis : x y z
#
# Youngs Moduli (GPa) = 62.73394 70.41539 103.48887
#
# Poissons Ratio (x) = 0.13166 0.45251
# Poissons Ratio (y) = 0.11729 0.38650
# Poissons Ratio (z) = 0.27431 0.26298
#
# Static dielectric constant tensor:
#      x y z
#    x 4.161320 0.000000 0.000000 
#    y 0.000000 3.703780 0.000000 
#    z 0.000000 0.000000 4.294870 
# 
# 
# High freq. dielectric constant tensor:
#      x y z
#    x 1.870080 0.000000 0.000000 
#    y 0.000000 1.850710 0.000000 
#    z 0.000000 0.000000 1.895380 
# 
# From -- ./inp_files/27501.got.cif
#   From: 2010.03.12/outbox.cif.g09.slc.cpg/sg20_14_cif.got.tgz:27501.got - 2010.04.14 01:38:04.
