data_PCOD8159979
_publ_section_title
;
Structure prediction by ZEFSAII (Michael W. Deem and Ramdas Pophale) SiO2 
 PCOD8159979
Probable space group: C 2 2 21
;
_chemical_formula_sum "Si O2"
_cell_formula_units_Z 32
_cell_length_a 7.753207
_cell_length_b 7.128272
_cell_length_c 22.097190
_cell_angle_alpha 90.000000
_cell_angle_beta 90.000000
_cell_angle_gamma 90.000000
_cell_volume 1221.244701
_symmetry_space_group_name_H-M "C 2 2 21"
_symmetry_group_IT_number 20
_symmetry_cell_setting 'orthorhombic'
loop_
_space_group_symop_operation_xyz
x,y,z
-x,-y,1/2+z
x,-y,-z
-x,y,1/2-z
1/2+x,1/2+y,z
1/2-x,1/2-y,1/2+z
1/2+x,1/2-y,-z
1/2-x,1/2+y,1/2-z
loop_
_atom_site_type_symbol
_atom_site_label
_atom_site_fract_x
_atom_site_fract_y
_atom_site_fract_z
Si Si1 0.085512 0.199434 0.973220
Si Si2 0.569447 0.790484 0.409671
Si Si3 0.942037 0.547699 0.315896
Si Si4 0.923699 0.912753 0.139288
O O1 0.239210 0.276511 0.930448
O O2 0.917473 0.175919 0.929124
O O3 0.039577 0.335464 0.029429
O O4 0.143316 0.000000 0.000000
O O5 0.488787 0.618232 0.370042
O O6 0.575205 0.972310 0.367031
O O7 0.956368 0.775682 0.319280
O O8 0.000000 0.478884 0.250000
O O9 0.760119 0.448761 0.329617
#
# Coordination Sequence:
#
# PCOD8159979 Si02
#       4
#     8   8   8   8
#     4  10  23  42  78 116 155 202 261 333 414 483
#     4  11  25  47  75 114 159 203 261 335 407 480
#     4  12  30  47  78 107 155 215 272 325 394 476
#     4  11  26  49  71 111 150 201 262 325 399 470
#
# _framework density 26.202772
#
# number of rings (size 3 to 8) (size 9 to 14) (size 15 to 20)
#    0.000    1.000    2.500    1.500   14.000    1.000 
#    0.000    0.000    0.000    0.000    0.000    0.000 
#    0.000    0.000    0.000    0.000    0.000    0.000 
#
# Total GULP energy -198217.329819 kJ/mol
# GULP energy per Si atom -12388.583114 kJ/mol
# Density = 2.614313 g / cm^3
# Si number density = 26.202772 Si / 1000 Ang^3
#
#
#
# Elastic Constant Matrix: (Units=GPa)
#
#
# Indices 1 2 3 4 5 6 
#
# 1 89.8335 22.4190 0.4368 0.0000 0.0000 0.0000
# 2 22.4190 94.4848 36.7070 0.0000 0.0000 0.0000
# 3 0.4368 36.7070 46.7434 0.0000 0.0000 0.0000
# 4 0.0000 0.0000 0.0000 40.1520 0.0000 0.0000
# 5 0.0000 0.0000 0.0000 0.0000 38.3885 0.0000
# 6 0.0000 0.0000 0.0000 0.0000 0.0000 38.5350
#
#
#
# Elastic Compliance Matrix: (Units=1/GPa)
#
#
# Indices 1 2 3 4 5 6 
#
# 1 0.012135 -0.004080 0.003091 0.000000 0.000000 0.000000
# 2 -0.004080 0.016602 -0.012999 0.000000 0.000000 0.000000
# 3 0.003091 -0.012999 0.031573 0.000000 0.000000 0.000000
# 4 0.000000 0.000000 0.000000 0.024905 0.000000 0.000000
# 5 0.000000 0.000000 0.000000 0.000000 0.026049 0.000000
# 6 0.000000 0.000000 0.000000 0.000000 0.000000 0.025950
#
#
# Mechanical properties :
#
#
# Convention : Reuss Voigt Hill
#
# Bulk Modulus (GPa) = 30.92888 38.90970 34.91929
# Shear Modulus (GPa) = 28.41406 34.84836 31.63121
#
# Velocity S-wave (km/s) = 3.29658 3.65080 3.47820
# Velocity P-wave (km/s) = 5.13023 5.71427 5.43010
#
# Compressibility (1/GPa) = 0.03233225
#
# Stress axis : x y z
#
# Youngs Moduli (GPa) = 82.40702 60.23396 31.67305
#
# Poissons Ratio (x) = 0.24576 -0.09789
# Poissons Ratio (y) = 0.33622 0.41172
# Poissons Ratio (z) = -0.25469 0.78299
#
# Static dielectric constant tensor:
#      x y z
#    x 4.260580 0.000000 0.000000 
#    y 0.000000 4.815700 0.000000 
#    z 0.000000 0.000000 4.890230 
# 
# 
# High freq. dielectric constant tensor:
#      x y z
#    x 2.019380 0.000000 0.000000 
#    y 0.000000 2.055410 0.000000 
#    z 0.000000 0.000000 2.052890 
# 
# From -- ./inp_files/26351.got.cif
#   From: 2010.03.12/outbox.cif.g09.slc.cpg/sg20_14_cif.got.tgz:26351.got - 2010.04.14 01:38:04.
