data_PCOD8159676
_publ_section_title
;
Structure prediction by ZEFSAII (Michael W. Deem and Ramdas Pophale) SiO2 
 PCOD8159676
Probable space group: C 2 2 21
;
_chemical_formula_sum "Si O2"
_cell_formula_units_Z 40
_cell_length_a 17.559110
_cell_length_b 14.221336
_cell_length_c 7.692972
_cell_angle_alpha 90.000000
_cell_angle_beta 90.000000
_cell_angle_gamma 90.000000
_cell_volume 1921.042834
_symmetry_space_group_name_H-M "C 2 2 21"
_symmetry_group_IT_number 20
_symmetry_cell_setting 'orthorhombic'
loop_
_space_group_symop_operation_xyz
x,y,z
-x,-y,1/2+z
x,-y,-z
-x,y,1/2-z
1/2+x,1/2+y,z
1/2-x,1/2-y,1/2+z
1/2+x,1/2-y,-z
1/2-x,1/2+y,1/2-z
loop_
_atom_site_type_symbol
_atom_site_label
_atom_site_fract_x
_atom_site_fract_y
_atom_site_fract_z
Si Si1 0.000000 0.669176 0.250000
Si Si2 0.770685 0.061314 0.169358
Si Si3 0.883121 0.775546 0.869247
Si Si4 0.135968 0.000000 0.000000
Si Si5 0.140319 0.598424 0.414807
Si Si6 0.447532 0.694670 0.488774
O O1 0.050657 0.601406 0.369207
O O2 0.938217 0.735491 0.348420
O O3 0.823883 0.142559 0.095962
O O4 0.693689 0.107779 0.245347
O O5 0.812893 0.005878 0.326399
O O6 0.750259 0.000000 0.000000
O O7 0.898609 0.758959 0.665539
O O8 0.962079 0.808130 0.955229
O O9 0.845123 0.681973 0.948094
O O10 0.081729 0.910015 0.026318
O O11 0.160177 0.500000 0.500000
#
# Coordination Sequence:
#
# PCOD8159676 Si02
#       6
#     4   8   8   4   8   8
#     4  10  24  40  66  96 122 176 226 276 322 378
#     4  11  25  41  67  99 134 177 216 274 342 397
#     4   9  22  42  64  95 134 174 216 272 335 398
#     4  10  22  40  68 102 140 166 214 274 334 418
#     4  11  25  44  62  91 130 175 232 269 320 387
#     4   9  20  39  66 101 130 168 216 274 339 394
#
# _framework density 20.822025
#
# number of rings (size 3 to 8) (size 9 to 14) (size 15 to 20)
#    0.000    2.000    1.000    0.000    7.000   12.000 
#    0.000    0.000    0.000    0.000    0.000    0.000 
#    0.000    0.000    0.000    0.000    0.000    0.000 
#
# Total GULP energy -247945.271845 kJ/mol
# GULP energy per Si atom -12397.263592 kJ/mol
# Density = 2.077463 g / cm^3
# Si number density = 20.822025 Si / 1000 Ang^3
#
#
#
# Elastic Constant Matrix: (Units=GPa)
#
#
# Indices 1 2 3 4 5 6 
#
# 1 79.4438 55.7698 31.7641 0.0000 0.0000 0.0000
# 2 55.7698 118.7157 59.9897 0.0000 0.0000 0.0000
# 3 31.7641 59.9897 110.1805 0.0000 0.0000 0.0000
# 4 0.0000 0.0000 0.0000 40.0930 0.0000 0.0000
# 5 0.0000 0.0000 0.0000 0.0000 27.6889 0.0000
# 6 0.0000 0.0000 0.0000 0.0000 0.0000 19.4495
#
#
#
# Elastic Compliance Matrix: (Units=1/GPa)
#
#
# Indices 1 2 3 4 5 6 
#
# 1 0.018838 -0.008423 -0.000845 0.000000 0.000000 0.000000
# 2 -0.008423 0.015387 -0.005949 0.000000 0.000000 0.000000
# 3 -0.000845 -0.005949 0.012559 0.000000 0.000000 0.000000
# 4 0.000000 0.000000 0.000000 0.024942 0.000000 0.000000
# 5 0.000000 0.000000 0.000000 0.000000 0.036116 0.000000
# 6 0.000000 0.000000 0.000000 0.000000 0.000000 0.051415
#
#
# Mechanical properties :
#
#
# Convention : Reuss Voigt Hill
#
# Bulk Modulus (GPa) = 61.16377 67.04303 64.10340
# Shear Modulus (GPa) = 25.62260 28.16736 26.89498
#
# Velocity S-wave (km/s) = 3.51173 3.68199 3.59787
# Velocity P-wave (km/s) = 6.77357 7.09536 6.93633
#
# Compressibility (1/GPa) = 0.01634955
#
# Stress axis : x y z
#
# Youngs Moduli (GPa) = 53.08385 64.99169 79.62532
#
# Poissons Ratio (x) = 0.54741 0.06728
# Poissons Ratio (y) = 0.44711 0.47372
# Poissons Ratio (z) = 0.04485 0.38666
#
# Static dielectric constant tensor:
#      x y z
#    x 3.730680 0.000000 0.000000 
#    y 0.000000 3.722130 0.000000 
#    z 0.000000 0.000000 3.993870 
# 
# 
# High freq. dielectric constant tensor:
#      x y z
#    x 1.818890 0.000000 0.000000 
#    y 0.000000 1.808760 0.000000 
#    z 0.000000 0.000000 1.824060 
# 
# From -- ./inp_files/9163.got.cif
#   From: 2010.03.12/outbox.cif.g09.slc.cpg/sg20_5_cif.got.tgz:9163.got - 2010.04.14 01:38:04.
