data_PCOD8159634
_publ_section_title
;
Structure prediction by ZEFSAII (Michael W. Deem and Ramdas Pophale) SiO2 
 PCOD8159634
Probable space group: C 2 2 21
;
_chemical_formula_sum "Si O2"
_cell_formula_units_Z 56
_cell_length_a 13.388387
_cell_length_b 12.204393
_cell_length_c 17.162104
_cell_angle_alpha 90.000000
_cell_angle_beta 90.000000
_cell_angle_gamma 90.000000
_cell_volume 2804.238651
_symmetry_space_group_name_H-M "C 2 2 21"
_symmetry_group_IT_number 20
_symmetry_cell_setting 'orthorhombic'
loop_
_space_group_symop_operation_xyz
x,y,z
-x,-y,1/2+z
x,-y,-z
-x,y,1/2-z
1/2+x,1/2+y,z
1/2-x,1/2-y,1/2+z
1/2+x,1/2-y,-z
1/2-x,1/2+y,1/2-z
loop_
_atom_site_type_symbol
_atom_site_label
_atom_site_fract_x
_atom_site_fract_y
_atom_site_fract_z
Si Si1 0.913945 0.841813 0.688301
Si Si2 0.784250 0.953359 0.278415
Si Si3 0.043825 0.875620 0.988903
Si Si4 0.220646 0.218474 0.659004
Si Si5 0.811981 0.874034 0.999637
Si Si6 0.685276 0.262003 0.110278
Si Si7 0.113212 0.384819 0.749122
O O1 0.824718 0.754956 0.699562
O O2 0.000000 0.812674 0.750000
O O3 0.953049 0.837333 0.600346
O O4 0.872430 0.962813 0.703718
O O5 0.821151 0.888529 0.202248
O O6 0.769435 0.872263 0.351902
O O7 0.679624 0.006848 0.254390
O O8 0.929435 0.867986 0.014765
O O9 0.107929 0.793559 0.042154
O O10 0.083437 0.000000 0.000000
O O11 0.239521 0.193547 0.569196
O O12 0.139446 0.314961 0.671337
O O13 0.776375 0.812358 0.921769
O O14 0.775095 0.000000 0.000000
O O15 0.630562 0.189603 0.175021
O O16 0.000000 0.424895 0.750000
#
# Coordination Sequence:
#
# PCOD8159634 Si02
#       7
#     8   8   8   8   8   8   8
#     4  11  24  39  64  93 126 160 217 267 316 379
#     4  10  23  39  64  89 125 164 206 258 320 372
#     4  11  23  40  64  96 123 165 210 268 318 375
#     4  10  22  41  60  89 123 167 202 258 315 378
#     4  11  24  39  64  91 127 162 213 257 319 381
#     4  11  22  43  64  91 129 168 207 268 319 378
#     4  10  22  40  62  88 123 165 211 250 313 386
#
# _framework density 19.96977
#
# number of rings (size 3 to 8) (size 9 to 14) (size 15 to 20)
#    0.000    1.429    2.857    1.714   10.000    2.857 
#    0.000    0.000    0.000    0.000    0.000    0.000 
#    0.000    0.000    0.000    0.000    0.000    0.000 
#
# Total GULP energy -347222.442055 kJ/mol
# GULP energy per Si atom -12400.801502 kJ/mol
# Density = 1.992432 g / cm^3
# Si number density = 19.969770 Si / 1000 Ang^3
#
#
#
# Elastic Constant Matrix: (Units=GPa)
#
#
# Indices 1 2 3 4 5 6 
#
# 1 87.2448 17.4038 13.0984 0.0000 0.0000 0.0000
# 2 17.4038 60.2133 13.4876 0.0000 0.0000 0.0000
# 3 13.0984 13.4876 97.2114 0.0000 0.0000 0.0000
# 4 0.0000 0.0000 0.0000 35.6081 0.0000 0.0000
# 5 0.0000 0.0000 0.0000 0.0000 32.5821 0.0000
# 6 0.0000 0.0000 0.0000 0.0000 0.0000 20.5932
#
#
#
# Elastic Compliance Matrix: (Units=1/GPa)
#
#
# Indices 1 2 3 4 5 6 
#
# 1 0.012298 -0.003285 -0.001201 0.000000 0.000000 0.000000
# 2 -0.003285 0.018018 -0.002057 0.000000 0.000000 0.000000
# 3 -0.001201 -0.002057 0.010734 0.000000 0.000000 0.000000
# 4 0.000000 0.000000 0.000000 0.028083 0.000000 0.000000
# 5 0.000000 0.000000 0.000000 0.000000 0.030692 0.000000
# 6 0.000000 0.000000 0.000000 0.000000 0.000000 0.048560
#
#
# Mechanical properties :
#
#
# Convention : Reuss Voigt Hill
#
# Bulk Modulus (GPa) = 35.76252 36.96103 36.36178
# Shear Modulus (GPa) = 29.27516 31.13533 30.20525
#
# Velocity S-wave (km/s) = 3.83296 3.95286 3.89337
# Velocity P-wave (km/s) = 6.12666 6.27552 6.20153
#
# Compressibility (1/GPa) = 0.02796223
#
# Stress axis : x y z
#
# Youngs Moduli (GPa) = 81.31586 55.49989 93.16072
#
# Poissons Ratio (x) = 0.18234 0.11190
# Poissons Ratio (y) = 0.26716 0.19165
# Poissons Ratio (z) = 0.09767 0.11418
#
# Static dielectric constant tensor:
#      x y z
#    x 3.447150 0.000000 0.000000 
#    y 0.000000 3.692790 0.000000 
#    z 0.000000 0.000000 3.684650 
# 
# 
# High freq. dielectric constant tensor:
#      x y z
#    x 1.770080 0.000000 0.000000 
#    y 0.000000 1.783940 0.000000 
#    z 0.000000 0.000000 1.788520 
# 
# From -- ./inp_files/20748.got.cif
#   From: 2010.03.12/outbox.cif.g09.slc.cpg/sg20_11_cif.got.tgz:20748.got - 2010.04.14 01:38:04.
