data_PCOD8159844
_publ_section_title
;
Structure prediction by ZEFSAII (Michael W. Deem and Ramdas Pophale) SiO2 
 PCOD8159844
Probable space group: C 2 2 21
;
_chemical_formula_sum "Si O2"
_cell_formula_units_Z 40
_cell_length_a 8.511586
_cell_length_b 12.510962
_cell_length_c 19.001695
_cell_angle_alpha 90.000000
_cell_angle_beta 90.000000
_cell_angle_gamma 90.000000
_cell_volume 2023.454948
_symmetry_space_group_name_H-M "C 2 2 21"
_symmetry_group_IT_number 20
_symmetry_cell_setting 'orthorhombic'
loop_
_space_group_symop_operation_xyz
x,y,z
-x,-y,1/2+z
x,-y,-z
-x,y,1/2-z
1/2+x,1/2+y,z
1/2-x,1/2-y,1/2+z
1/2+x,1/2-y,-z
1/2-x,1/2+y,1/2-z
loop_
_atom_site_type_symbol
_atom_site_label
_atom_site_fract_x
_atom_site_fract_y
_atom_site_fract_z
Si Si1 0.393415 0.883675 0.467566
Si Si2 0.369403 0.948347 0.136942
Si Si3 0.041788 0.810876 0.461687
Si Si4 0.669442 0.500000 0.000000
Si Si5 0.000000 0.605544 0.250000
Si Si6 0.600816 0.691548 0.812031
O O1 0.467272 0.895286 0.389330
O O2 0.226055 0.828186 0.468969
O O3 0.510396 0.809644 0.512830
O O4 0.379863 0.000000 0.500000
O O5 0.272025 0.857810 0.177724
O O6 0.401370 0.038771 0.194080
O O7 0.277308 0.995901 0.069580
O O8 0.941719 0.895931 0.507249
O O9 0.001762 0.824679 0.380920
O O10 0.878567 0.682487 0.292823
O O11 0.500000 0.633590 0.750000
#
# Coordination Sequence:
#
# PCOD8159844 Si02
#       6
#     8   8   8   4   4   8
#     4  12  25  41  71 101 132 174 221 276 342 387
#     4  11  23  42  68  98 134 173 228 275 330 404
#     4  11  23  43  68  99 136 171 224 282 333 403
#     4  10  22  44  68 100 132 176 228 282 336 388
#     4  10  24  42  70  88 138 176 220 266 342 386
#     4   9  23  42  63  90 134 175 218 269 328 394
#
# _framework density 19.768170000000001
#
# number of rings (size 3 to 8) (size 9 to 14) (size 15 to 20)
#    0.600    0.800    2.000    3.600    5.600    0.000 
#    0.000    0.000    0.000    0.000    0.000    0.000 
#    0.000    0.000    0.000    0.000    0.000    0.000 
#
# Total GULP energy -247950.911289 kJ/mol
# GULP energy per Si atom -12397.545564 kJ/mol
# Density = 1.972318 g / cm^3
# Si number density = 19.768170 Si / 1000 Ang^3
#
#
#
# Elastic Constant Matrix: (Units=GPa)
#
#
# Indices 1 2 3 4 5 6 
#
# 1 138.1155 68.3186 52.7431 0.0000 0.0000 0.0000
# 2 68.3186 126.6028 55.2776 0.0000 0.0000 0.0000
# 3 52.7431 55.2776 103.4140 0.0000 0.0000 0.0000
# 4 0.0000 0.0000 0.0000 38.8253 0.0000 0.0000
# 5 0.0000 0.0000 0.0000 0.0000 13.9285 0.0000
# 6 0.0000 0.0000 0.0000 0.0000 0.0000 35.1543
#
#
#
# Elastic Compliance Matrix: (Units=1/GPa)
#
#
# Indices 1 2 3 4 5 6 
#
# 1 0.010568 -0.004369 -0.003054 0.000000 0.000000 0.000000
# 2 -0.004369 0.012110 -0.004245 0.000000 0.000000 0.000000
# 3 -0.003054 -0.004245 0.013497 0.000000 0.000000 0.000000
# 4 0.000000 0.000000 0.000000 0.025756 0.000000 0.000000
# 5 0.000000 0.000000 0.000000 0.000000 0.071795 0.000000
# 6 0.000000 0.000000 0.000000 0.000000 0.000000 0.028446
#
#
# Mechanical properties :
#
#
# Convention : Reuss Voigt Hill
#
# Bulk Modulus (GPa) = 77.89482 80.09011 78.99247
# Shear Modulus (GPa) = 26.34527 30.36781 28.35654
#
# Velocity S-wave (km/s) = 3.65459 3.92369 3.79153
# Velocity P-wave (km/s) = 7.56953 7.81855 7.69505
#
# Compressibility (1/GPa) = 0.01283782
#
# Stress axis : x y z
#
# Youngs Moduli (GPa) = 94.62604 82.57816 74.09295
#
# Poissons Ratio (x) = 0.36080 0.22631
# Poissons Ratio (y) = 0.41343 0.31450
# Poissons Ratio (z) = 0.28903 0.35052
#
# Static dielectric constant tensor:
#      x y z
#    x 3.788980 0.000000 0.000000 
#    y 0.000000 3.760910 0.000000 
#    z 0.000000 0.000000 3.705180 
# 
# 
# High freq. dielectric constant tensor:
#      x y z
#    x 1.770650 0.000000 0.000000 
#    y 0.000000 1.777600 0.000000 
#    z 0.000000 0.000000 1.773070 
# 
# From -- ./inp_files/23222.got.cif
#   From: 2010.03.12/outbox.cif.g09.slc.cpg/sg20_12_cif.got.tgz:23222.got - 2010.04.14 01:38:04.
