data_PCOD8159448
_publ_section_title
;
Structure prediction by ZEFSAII (Michael W. Deem and Ramdas Pophale) SiO2 
 PCOD8159448
Probable space group: C 2 2 21
;
_chemical_formula_sum "Si O2"
_cell_formula_units_Z 40
_cell_length_a 15.161652
_cell_length_b 15.878115
_cell_length_c 7.330268
_cell_angle_alpha 90.000000
_cell_angle_beta 90.000000
_cell_angle_gamma 90.000000
_cell_volume 1764.677386
_symmetry_space_group_name_H-M "C 2 2 21"
_symmetry_group_IT_number 20
_symmetry_cell_setting 'orthorhombic'
loop_
_space_group_symop_operation_xyz
x,y,z
-x,-y,1/2+z
x,-y,-z
-x,y,1/2-z
1/2+x,1/2+y,z
1/2-x,1/2-y,1/2+z
1/2+x,1/2-y,-z
1/2-x,1/2+y,1/2-z
loop_
_atom_site_type_symbol
_atom_site_label
_atom_site_fract_x
_atom_site_fract_y
_atom_site_fract_z
Si Si1 0.145766 0.238845 0.528938
Si Si2 0.669310 0.194093 0.101833
Si Si3 0.915820 0.932319 0.858849
Si Si4 0.767745 0.477621 0.710344
Si Si5 0.402734 0.119374 0.759115
O O1 0.250328 0.244759 0.490184
O O2 0.124199 0.245504 0.746480
O O3 0.119232 0.146336 0.470646
O O4 0.095892 0.310570 0.415582
O O5 0.692628 0.115006 0.233557
O O6 0.607860 0.164627 0.936786
O O7 0.836254 0.972739 0.733545
O O8 0.000000 0.900499 0.750000
O O9 0.952170 0.000000 0.000000
O O10 0.769322 0.500000 0.500000
O O11 0.827237 0.549416 0.809261
O O12 0.500000 0.076428 0.750000
#
# Coordination Sequence:
#
# PCOD8159448 Si02
#       5
#     8   8   8   8   8
#     4  11  22  42  71  99 131 177 228 277 345 400
#     4  10  21  42  68  96 135 180 220 275 340 406
#     4  10  22  45  67  96 132 175 230 284 338 402
#     4   8  19  42  67  92 135 179 218 273 339 405
#     4  11  23  43  68 101 141 180 222 283 331 404
#
# _framework density 22.667031999999999
#
# number of rings (size 3 to 8) (size 9 to 14) (size 15 to 20)
#    0.000    2.000    2.000    1.800    0.000    1.600 
#   25.200    0.000    0.000    0.000    0.000    0.000 
#    0.000    0.000    0.000    0.000    0.000    0.000 
#
# Total GULP energy -247823.380420 kJ/mol
# GULP energy per Si atom -12391.169021 kJ/mol
# Density = 2.261544 g / cm^3
# Si number density = 22.667032 Si / 1000 Ang^3
#
#
#
# Elastic Constant Matrix: (Units=GPa)
#
#
# Indices 1 2 3 4 5 6 
#
# 1 122.6037 17.0379 19.8563 0.0000 0.0000 0.0000
# 2 17.0379 61.5722 2.4439 0.0000 0.0000 0.0000
# 3 19.8563 2.4439 81.4138 0.0000 0.0000 0.0000
# 4 0.0000 0.0000 0.0000 34.2817 0.0000 0.0000
# 5 0.0000 0.0000 0.0000 0.0000 20.2551 0.0000
# 6 0.0000 0.0000 0.0000 0.0000 0.0000 -1.2400
#
#
#
# Elastic Compliance Matrix: (Units=1/GPa)
#
#
# Indices 1 2 3 4 5 6 
#
# 1 0.008821 -0.002358 -0.002081 0.000000 0.000000 0.000000
# 2 -0.002358 0.016891 0.000068 0.000000 0.000000 0.000000
# 3 -0.002081 0.000068 0.012788 0.000000 0.000000 0.000000
# 4 0.000000 0.000000 0.000000 0.029170 0.000000 0.000000
# 5 0.000000 0.000000 0.000000 0.000000 0.049370 0.000000
# 6 0.000000 0.000000 0.000000 0.000000 0.000000 -0.806466
#
#
# Mechanical properties :
#
#
# Convention : Reuss Voigt Hill
#
# Bulk Modulus (GPa) = 33.60354 38.25178 35.92766
# Shear Modulus (GPa) = -7.45418 25.74281 9.14431
#
# Velocity S-wave (km/s) = -1.81541 3.37366 2.01071
# Velocity P-wave (km/s) = 3.23462 5.66459 4.61250
#
# Compressibility (1/GPa) = 0.02975877
#
# Stress axis : x y z
#
# Youngs Moduli (GPa) = 113.36510 59.20319 78.19627
#
# Poissons Ratio (x) = 0.13962 0.16270
# Poissons Ratio (y) = 0.26735 -0.00533
# Poissons Ratio (z) = 0.23587 -0.00403
#
# Static dielectric constant tensor:
#      x y z
#    x 4.297960 0.000000 0.000000 
#    y 0.000000 4.585030 0.000000 
#    z 0.000000 0.000000 3.833410 
# 
# 
# High freq. dielectric constant tensor:
#      x y z
#    x 1.884700 0.000000 0.000000 
#    y 0.000000 1.899780 0.000000 
#    z 0.000000 0.000000 1.876060 
# 
# From -- ./inp_files/8102.got.cif
#   From: 2010.03.12/outbox.cif.g09.slc.cpg/sg20_5_cif.got.tgz:8102.got - 2010.04.14 01:38:04.
