data_PCOD8159074
_publ_section_title
;
Structure prediction by ZEFSAII (Michael W. Deem and Ramdas Pophale) SiO2 
 PCOD8159074
Probable space group: C 2 2 21
;
_chemical_formula_sum "Si O2"
_cell_formula_units_Z 44
_cell_length_a 14.728151
_cell_length_b 16.010288
_cell_length_c 9.132940
_cell_angle_alpha 90.000000
_cell_angle_beta 90.000000
_cell_angle_gamma 90.000000
_cell_volume 2153.564963
_symmetry_space_group_name_H-M "C 2 2 21"
_symmetry_group_IT_number 20
_symmetry_cell_setting 'orthorhombic'
loop_
_space_group_symop_operation_xyz
x,y,z
-x,-y,1/2+z
x,-y,-z
-x,y,1/2-z
1/2+x,1/2+y,z
1/2-x,1/2-y,1/2+z
1/2+x,1/2-y,-z
1/2-x,1/2+y,1/2-z
loop_
_atom_site_type_symbol
_atom_site_label
_atom_site_fract_x
_atom_site_fract_y
_atom_site_fract_z
Si Si1 0.718568 0.772181 0.428089
Si Si2 0.726069 0.857097 0.145493
Si Si3 0.595345 0.011799 0.826702
Si Si4 0.899132 0.865437 0.794607
Si Si5 0.268840 0.075325 0.114577
Si Si6 0.342064 0.500000 0.000000
O O1 0.770720 0.810570 0.286166
O O2 0.785670 0.708556 0.513308
O O3 0.632913 0.718242 0.376219
O O4 0.683946 0.846765 0.532389
O O5 0.627677 0.892088 0.196220
O O6 0.780948 0.940095 0.101501
O O7 0.500000 0.996621 0.750000
O O8 0.668935 0.948457 0.753902
O O9 0.587198 0.000000 0.000000
O O10 0.830278 0.892096 0.665078
O O11 0.907229 0.943705 0.902896
O O12 0.000000 0.843667 0.750000
O O13 0.257843 0.000000 0.000000
#
# Coordination Sequence:
#
# PCOD8159074 Si02
#       6
#     8   8   8   8   8   4
#     4  11  23  41  68  98 133 183 229 278 348 407
#     4  11  21  42  70  93 136 179 228 283 341 409
#     4  12  25  43  69 101 135 180 231 288 344 414
#     4  11  24  42  68 102 139 180 226 288 339 406
#     4  12  23  45  70  98 133 187 236 281 348 417
#     4  10  20  44  70  94 132 178 234 274 340 404
#
# _framework density 20.431238
#
# number of rings (size 3 to 8) (size 9 to 14) (size 15 to 20)
#    0.000    0.727    6.364    1.636    1.273    0.727 
#    0.000    0.000    0.000    0.000    0.000    0.000 
#    0.000    0.000    0.000    0.000    0.000    0.000 
#
# Total GULP energy -272649.977161 kJ/mol
# GULP energy per Si atom -12393.180780 kJ/mol
# Density = 2.038474 g / cm^3
# Si number density = 20.431238 Si / 1000 Ang^3
#
#
#
# Elastic Constant Matrix: (Units=GPa)
#
#
# Indices 1 2 3 4 5 6 
#
# 1 99.4985 49.4671 52.4387 0.0000 0.0000 0.0000
# 2 49.4671 161.2263 73.4162 0.0000 0.0000 0.0000
# 3 52.4387 73.4162 148.6861 0.0000 0.0000 0.0000
# 4 0.0000 0.0000 0.0000 59.7416 0.0000 0.0000
# 5 0.0000 0.0000 0.0000 0.0000 28.2630 0.0000
# 6 0.0000 0.0000 0.0000 0.0000 0.0000 13.4631
#
#
#
# Elastic Compliance Matrix: (Units=1/GPa)
#
#
# Indices 1 2 3 4 5 6 
#
# 1 0.013062 -0.002464 -0.003390 0.000000 0.000000 0.000000
# 2 -0.002464 0.008466 -0.003311 0.000000 0.000000 0.000000
# 3 -0.003390 -0.003311 0.009556 0.000000 0.000000 0.000000
# 4 0.000000 0.000000 0.000000 0.016739 0.000000 0.000000
# 5 0.000000 0.000000 0.000000 0.000000 0.035382 0.000000
# 6 0.000000 0.000000 0.000000 0.000000 0.000000 0.074277
#
#
# Mechanical properties :
#
#
# Convention : Reuss Voigt Hill
#
# Bulk Modulus (GPa) = 78.40842 84.45052 81.42947
# Shear Modulus (GPa) = 27.76784 35.89949 31.83366
#
# Velocity S-wave (km/s) = 3.69058 4.19631 3.95154
# Velocity P-wave (km/s) = 7.52466 8.05621 7.79497
#
# Compressibility (1/GPa) = 0.01275373
#
# Stress axis : x y z
#
# Youngs Moduli (GPa) = 76.55738 118.11494 104.64332
#
# Poissons Ratio (x) = 0.29103 0.35476
# Poissons Ratio (y) = 0.18863 0.34652
# Poissons Ratio (z) = 0.25954 0.39113
#
# Static dielectric constant tensor:
#      x y z
#    x 3.325190 0.000000 0.000000 
#    y 0.000000 4.151680 0.000000 
#    z 0.000000 0.000000 4.088480 
# 
# 
# High freq. dielectric constant tensor:
#      x y z
#    x 1.748430 0.000000 0.000000 
#    y 0.000000 1.828200 0.000000 
#    z 0.000000 0.000000 1.822630 
# 
# From -- ./inp_files/8310.got.cif
#   From: 2010.03.12/outbox.cif.g09.slc.cpg/sg20_5_cif.got.tgz:8310.got - 2010.04.14 01:38:04.
