data_PCOD8159116
_publ_section_title
;
Structure prediction by ZEFSAII (Michael W. Deem and Ramdas Pophale) SiO2 
 PCOD8159116
Probable space group: C 2 2 21
;
_chemical_formula_sum "Si O2"
_cell_formula_units_Z 56
_cell_length_a 15.612016
_cell_length_b 31.654595
_cell_length_c 5.116559
_cell_angle_alpha 90.000000
_cell_angle_beta 90.000000
_cell_angle_gamma 90.000000
_cell_volume 2528.562748
_symmetry_space_group_name_H-M "C 2 2 21"
_symmetry_group_IT_number 20
_symmetry_cell_setting 'orthorhombic'
loop_
_space_group_symop_operation_xyz
x,y,z
-x,-y,1/2+z
x,-y,-z
-x,y,1/2-z
1/2+x,1/2+y,z
1/2-x,1/2-y,1/2+z
1/2+x,1/2-y,-z
1/2-x,1/2+y,1/2-z
loop_
_atom_site_type_symbol
_atom_site_label
_atom_site_fract_x
_atom_site_fract_y
_atom_site_fract_z
Si Si1 0.058051 0.127436 0.003988
Si Si2 0.665765 0.709256 0.989155
Si Si3 0.216229 0.547914 0.009411
Si Si4 0.592572 0.156650 0.311715
Si Si5 0.899341 0.617479 0.687816
Si Si6 0.643577 0.760347 0.491917
Si Si7 0.174070 0.048823 0.987754
O O1 0.000000 0.133399 0.750000
O O2 0.136388 0.160884 0.015497
O O3 0.093869 0.079836 0.024582
O O4 0.000000 0.137192 0.250000
O O5 0.624106 0.739899 0.210704
O O6 0.636526 0.723354 0.702928
O O7 0.767505 0.713638 0.018985
O O8 0.253691 0.558403 0.294561
O O9 0.185692 0.500000 0.000000
O O10 0.130780 0.573412 0.934881
O O11 0.289268 0.558249 0.798683
O O12 0.500000 0.135919 0.250000
O O13 0.643280 0.128961 0.531830
O O14 0.576036 0.203600 0.426819
O O15 0.635556 0.153042 0.023223
O O16 0.000000 0.618166 0.750000
O O17 0.142542 0.000000 0.000000
#
# Coordination Sequence:
#
# PCOD8159116 Si02
#       7
#     8   8   8   8   8   8   8
#     4  12  26  43  64  97 129 165 209 260 333 386
#     4  10  23  39  59  88 123 156 212 256 301 374
#     4  10  21  39  63  91 122 163 212 255 311 375
#     4  10  21  36  57  87 119 160 205 244 302 360
#     4  10  21  36  56  90 127 158 204 255 301 365
#     4  10  21  40  60  88 121 164 207 253 305 359
#     4  10  23  43  66  95 123 162 214 261 315 385
#
# _framework density 22.146968999999999
#
# number of rings (size 3 to 8) (size 9 to 14) (size 15 to 20)
#    0.000    1.714    0.000    3.429    4.000    2.286 
#    0.000    4.286    0.000    0.000    0.000    0.000 
#    0.000    0.000    0.000    0.000    0.000    0.000 
#
# Total GULP energy -346984.749691 kJ/mol
# GULP energy per Si atom -12392.312489 kJ/mol
# Density = 2.209656 g / cm^3
# Si number density = 22.146969 Si / 1000 Ang^3
#
#
#
# Elastic Constant Matrix: (Units=GPa)
#
#
# Indices 1 2 3 4 5 6 
#
# 1 33.4029 39.3836 28.7693 0.0000 0.0000 0.0000
# 2 39.3836 116.4792 32.3379 0.0000 0.0000 0.0000
# 3 28.7693 32.3379 137.0487 0.0000 0.0000 0.0000
# 4 0.0000 0.0000 0.0000 36.1954 0.0000 0.0000
# 5 0.0000 0.0000 0.0000 0.0000 24.6883 0.0000
# 6 0.0000 0.0000 0.0000 0.0000 0.0000 36.6132
#
#
#
# Elastic Compliance Matrix: (Units=1/GPa)
#
#
# Indices 1 2 3 4 5 6 
#
# 1 0.056809 -0.017012 -0.007911 0.000000 0.000000 0.000000
# 2 -0.017012 0.014281 0.000201 0.000000 0.000000 0.000000
# 3 -0.007911 0.000201 0.008910 0.000000 0.000000 0.000000
# 4 0.000000 0.000000 0.000000 0.027628 0.000000 0.000000
# 5 0.000000 0.000000 0.000000 0.000000 0.040505 0.000000
# 6 0.000000 0.000000 0.000000 0.000000 0.000000 0.027313
#
#
# Mechanical properties :
#
#
# Convention : Reuss Voigt Hill
#
# Bulk Modulus (GPa) = 32.72590 54.21248 43.46919
# Shear Modulus (GPa) = 21.26986 31.92870 26.59928
#
# Velocity S-wave (km/s) = 3.10239 3.80106 3.46935
# Velocity P-wave (km/s) = 5.25755 6.61783 5.97652
#
# Compressibility (1/GPa) = 0.03055684
#
# Stress axis : x y z
#
# Youngs Moduli (GPa) = 17.60286 70.02177 112.23457
#
# Poissons Ratio (x) = 1.19119 0.88792
# Poissons Ratio (y) = 0.29945 -0.02259
# Poissons Ratio (z) = 0.13926 -0.01409
#
# Static dielectric constant tensor:
#      x y z
#    x 3.594190 0.000000 0.000000 
#    y 0.000000 3.916080 0.000000 
#    z 0.000000 0.000000 4.705620 
# 
# 
# High freq. dielectric constant tensor:
#      x y z
#    x 1.839030 0.000000 0.000000 
#    y 0.000000 1.869960 0.000000 
#    z 0.000000 0.000000 1.905220 
# 
# From -- ./inp_files/2236.got.cif
#   From: 2010.03.12/outbox.cif.g09.slc.cpg/sg20_2_cif.got.tgz:2236.got - 2010.04.14 01:38:04.
