data_PCOD8159582
_publ_section_title
;
Structure prediction by ZEFSAII (Michael W. Deem and Ramdas Pophale) SiO2 
 PCOD8159582
Probable space group: C 2 2 21
;
_chemical_formula_sum "Si O2"
_cell_formula_units_Z 40
_cell_length_a 8.960794
_cell_length_b 22.808140
_cell_length_c 8.470272
_cell_angle_alpha 90.000000
_cell_angle_beta 90.000000
_cell_angle_gamma 90.000000
_cell_volume 1731.146094
_symmetry_space_group_name_H-M "C 2 2 21"
_symmetry_group_IT_number 20
_symmetry_cell_setting 'orthorhombic'
loop_
_space_group_symop_operation_xyz
x,y,z
-x,-y,1/2+z
x,-y,-z
-x,y,1/2-z
1/2+x,1/2+y,z
1/2-x,1/2-y,1/2+z
1/2+x,1/2-y,-z
1/2-x,1/2+y,1/2-z
loop_
_atom_site_type_symbol
_atom_site_label
_atom_site_fract_x
_atom_site_fract_y
_atom_site_fract_z
Si Si1 0.769984 0.426674 0.845649
Si Si2 0.765741 0.917985 0.021662
Si Si3 0.691939 0.202788 0.881221
Si Si4 0.980590 0.000000 0.500000
Si Si5 0.869788 0.691160 0.983118
Si Si6 0.991046 0.500000 0.500000
O O1 0.748538 0.408617 0.666155
O O2 0.617118 0.459634 0.886864
O O3 0.905862 0.472209 0.863626
O O4 0.805293 0.371164 0.958548
O O5 0.614530 0.950391 0.080894
O O6 0.905425 0.955463 0.087626
O O7 0.791426 0.854788 0.095807
O O8 0.549505 0.196474 0.000154
O O9 0.654035 0.204378 0.698904
O O10 0.788401 0.259838 0.914852
#
# Coordination Sequence:
#
# PCOD8159582 Si02
#       6
#     8   8   8   4   8   4
#     4  11  23  43  69  98 135 177 221 275 331 391
#     4  11  23  43  69  98 135 177 221 275 331 391
#     4  11  26  46  70 100 133 174 223 277 335 398
#     4  10  26  42  62 104 138 178 218 270 328 394
#     4  11  26  46  70 100 133 174 223 277 335 398
#     4  10  22  38  66 100 130 170 218 270 332 402
#
# _framework density 23.106079999999999
#
# number of rings (size 3 to 8) (size 9 to 14) (size 15 to 20)
#    0.000    1.200    2.000    2.400    2.800   12.000 
#    0.000    0.000    0.000    0.000    0.000    0.000 
#    0.000    0.000    0.000    0.000    0.000    0.000 
#
# Total GULP energy -247906.985752 kJ/mol
# GULP energy per Si atom -12395.349288 kJ/mol
# Density = 2.305349 g / cm^3
# Si number density = 23.106080 Si / 1000 Ang^3
#
#
#
# Elastic Constant Matrix: (Units=GPa)
#
#
# Indices 1 2 3 4 5 6 
#
# 1 138.3206 66.9802 7.3047 0.0000 0.0000 0.0000
# 2 66.9802 149.2480 36.8643 0.0000 0.0000 0.0000
# 3 7.3047 36.8643 30.6947 0.0000 0.0000 0.0000
# 4 0.0000 0.0000 0.0000 30.5936 0.0000 0.0000
# 5 0.0000 0.0000 0.0000 0.0000 17.6787 0.0000
# 6 0.0000 0.0000 0.0000 0.0000 0.0000 -362.8870
#
#
#
# Elastic Compliance Matrix: (Units=1/GPa)
#
#
# Indices 1 2 3 4 5 6 
#
# 1 0.009587 -0.005316 0.004103 0.000000 0.000000 0.000000
# 2 -0.005316 0.012474 -0.013716 0.000000 0.000000 0.000000
# 3 0.004103 -0.013716 0.048075 0.000000 0.000000 0.000000
# 4 0.000000 0.000000 0.000000 0.032687 0.000000 0.000000
# 5 0.000000 0.000000 0.000000 0.000000 0.056565 0.000000
# 6 0.000000 0.000000 0.000000 0.000000 0.000000 -0.002756
#
#
# Mechanical properties :
#
#
# Convention : Reuss Voigt Hill
#
# Bulk Modulus (GPa) = 24.82724 60.06243 42.44483
# Shear Modulus (GPa) = 25.01040 -49.11533 -12.05246
#
# Velocity S-wave (km/s) = 3.29358 -4.61547 -2.28637
# Velocity P-wave (km/s) = 5.02312 1.53389 3.38223
#
# Compressibility (1/GPa) = 0.04027835
#
# Stress axis : x y z
#
# Youngs Moduli (GPa) = 104.30681 80.16777 20.80064
#
# Poissons Ratio (x) = 0.42617 -0.08534
# Poissons Ratio (y) = 0.55449 0.28530
# Poissons Ratio (z) = -0.42796 1.09958
#
# Static dielectric constant tensor:
#      x y z
#    x 4.654410 0.000000 0.000000 
#    y 0.000000 4.313990 0.000000 
#    z 0.000000 0.000000 4.196120 
# 
# 
# High freq. dielectric constant tensor:
#      x y z
#    x 1.926830 0.000000 0.000000 
#    y 0.000000 1.923560 0.000000 
#    z 0.000000 0.000000 1.903030 
# 
# From -- ./inp_files/6153.got.cif
#   From: 2010.03.12/outbox.cif.g09.slc.cpg/sg20_4_cif.got.tgz:6153.got - 2010.04.14 01:38:04.
