data_PCOD8159365
_publ_section_title
;
Structure prediction by ZEFSAII (Michael W. Deem and Ramdas Pophale) SiO2 
 PCOD8159365
Probable space group: C 2 2 21
;
_chemical_formula_sum "Si O2"
_cell_formula_units_Z 40
_cell_length_a 24.642738
_cell_length_b 8.192671
_cell_length_c 9.130538
_cell_angle_alpha 90.000000
_cell_angle_beta 90.000000
_cell_angle_gamma 90.000000
_cell_volume 1843.362901
_symmetry_space_group_name_H-M "C 2 2 21"
_symmetry_group_IT_number 20
_symmetry_cell_setting 'orthorhombic'
loop_
_space_group_symop_operation_xyz
x,y,z
-x,-y,1/2+z
x,-y,-z
-x,y,1/2-z
1/2+x,1/2+y,z
1/2-x,1/2-y,1/2+z
1/2+x,1/2-y,-z
1/2-x,1/2+y,1/2-z
loop_
_atom_site_type_symbol
_atom_site_label
_atom_site_fract_x
_atom_site_fract_y
_atom_site_fract_z
Si Si1 0.164173 0.756275 0.398666
Si Si2 0.361200 0.391896 0.803820
Si Si3 0.547169 0.429448 0.145983
Si Si4 0.212587 0.822568 0.946562
Si Si5 0.871370 0.354975 0.609337
O O1 0.130492 0.782720 0.549431
O O2 0.223703 0.691773 0.431297
O O3 0.133887 0.626073 0.288433
O O4 0.169004 0.935193 0.327427
O O5 0.419633 0.428846 0.731871
O O6 0.321206 0.285642 0.701606
O O7 0.500000 0.359661 0.250000
O O8 0.585333 0.286839 0.085423
O O9 0.519326 0.500000 0.000000
O O10 0.190085 0.693941 0.064706
O O11 0.195529 0.000000 0.000000
O O12 0.890435 0.500000 0.500000
#
# Coordination Sequence:
#
# PCOD8159365 Si02
#       5
#     8   8   8   8   8
#     4  10  23  34  62  94 132 186 214 264 323 406
#     4  10  21  41  59  97 136 163 236 277 321 403
#     4  11  23  45  74  96 123 175 225 291 344 393
#     4  12  21  39  60  92 138 181 229 258 327 398
#     4  11  24  42  63  94 139 171 216 283 337 399
#
# _framework density 21.699470999999999
#
# number of rings (size 3 to 8) (size 9 to 14) (size 15 to 20)
#    0.000    1.200    6.000    1.200   11.200    0.000 
#    0.000    1.000    0.000    4.800    0.000    0.000 
#    0.000    0.000    0.000    0.000    0.000    0.000 
#
# Total GULP energy -247791.154474 kJ/mol
# GULP energy per Si atom -12389.557724 kJ/mol
# Density = 2.165008 g / cm^3
# Si number density = 21.699471 Si / 1000 Ang^3
#
#
#
# Elastic Constant Matrix: (Units=GPa)
#
#
# Indices 1 2 3 4 5 6 
#
# 1 67.4313 17.1568 36.7348 0.0000 0.0000 0.0000
# 2 17.1568 49.8504 52.3754 0.0000 0.0000 0.0000
# 3 36.7348 52.3754 162.4175 0.0000 0.0000 0.0000
# 4 0.0000 0.0000 0.0000 44.5305 0.0000 0.0000
# 5 0.0000 0.0000 0.0000 0.0000 36.1485 0.0000
# 6 0.0000 0.0000 0.0000 0.0000 0.0000 13.9917
#
#
#
# Elastic Compliance Matrix: (Units=1/GPa)
#
#
# Indices 1 2 3 4 5 6 
#
# 1 0.017162 -0.002765 -0.002990 0.000000 0.000000 0.000000
# 2 -0.002765 0.030785 -0.009302 0.000000 0.000000 0.000000
# 3 -0.002990 -0.009302 0.009833 0.000000 0.000000 0.000000
# 4 0.000000 0.000000 0.000000 0.022457 0.000000 0.000000
# 5 0.000000 0.000000 0.000000 0.000000 0.027664 0.000000
# 6 0.000000 0.000000 0.000000 0.000000 0.000000 0.071471
#
#
# Mechanical properties :
#
#
# Convention : Reuss Voigt Hill
#
# Bulk Modulus (GPa) = 36.14581 54.69258 45.41920
# Shear Modulus (GPa) = 22.86164 30.49630 26.67897
#
# Velocity S-wave (km/s) = 3.24938 3.75292 3.51019
# Velocity P-wave (km/s) = 5.54721 6.63615 6.11597
#
# Compressibility (1/GPa) = 0.02766572
#
# Stress axis : x y z
#
# Youngs Moduli (GPa) = 58.26711 32.48369 101.70027
#
# Poissons Ratio (x) = 0.08983 0.30408
# Poissons Ratio (y) = 0.16113 0.94600
# Poissons Ratio (z) = 0.17422 0.30216
#
# Static dielectric constant tensor:
#      x y z
#    x 3.569060 0.000000 0.000000 
#    y 0.000000 3.660570 0.000000 
#    z 0.000000 0.000000 4.533260 
# 
# 
# High freq. dielectric constant tensor:
#      x y z
#    x 1.822710 0.000000 0.000000 
#    y 0.000000 1.816780 0.000000 
#    z 0.000000 0.000000 1.885460 
# 
# From -- ./inp_files/6247.got.cif
#   From: 2010.03.12/outbox.cif.g09.slc.cpg/sg20_4_cif.got.tgz:6247.got - 2010.04.14 01:38:04.
