data_PCOD8159768
_publ_section_title
;
Structure prediction by ZEFSAII (Michael W. Deem and Ramdas Pophale) SiO2 
 PCOD8159768
Probable space group: C 2 2 21
;
_chemical_formula_sum "Si O2"
_cell_formula_units_Z 60
_cell_length_a 17.498838
_cell_length_b 8.542541
_cell_length_c 17.544833
_cell_angle_alpha 90.000000
_cell_angle_beta 90.000000
_cell_angle_gamma 90.000000
_cell_volume 2622.681309
_symmetry_space_group_name_H-M "C 2 2 21"
_symmetry_group_IT_number 20
_symmetry_cell_setting 'orthorhombic'
loop_
_space_group_symop_operation_xyz
x,y,z
-x,-y,1/2+z
x,-y,-z
-x,y,1/2-z
1/2+x,1/2+y,z
1/2-x,1/2-y,1/2+z
1/2+x,1/2-y,-z
1/2-x,1/2+y,1/2-z
loop_
_atom_site_type_symbol
_atom_site_label
_atom_site_fract_x
_atom_site_fract_y
_atom_site_fract_z
Si Si1 0.678052 0.922225 0.661210
Si Si2 0.822494 0.876959 0.369970
Si Si3 0.584213 0.183133 0.869499
Si Si4 0.959033 0.845798 0.474296
Si Si5 0.500000 0.401574 0.750000
Si Si6 0.710427 0.960844 0.834661
Si Si7 0.135315 0.915235 0.302415
Si Si8 0.028181 0.444604 0.585257
O O1 0.676459 0.955286 0.750054
O O2 0.656477 0.739329 0.648501
O O3 0.607463 0.005570 0.619906
O O4 0.754452 0.993935 0.622102
O O5 0.886605 0.922187 0.430465
O O6 0.802535 0.694145 0.385429
O O7 0.856040 0.880434 0.286220
O O8 0.559719 0.300234 0.801171
O O9 0.672626 0.123101 0.866195
O O10 0.536009 0.023047 0.861608
O O11 0.569720 0.251147 0.952663
O O12 0.010719 0.742123 0.416973
O O13 0.007209 0.000000 0.500000
O O14 0.449649 0.508265 0.808916
O O15 0.802017 0.962004 0.831240
O O16 0.024219 0.500000 0.500000
#
# Coordination Sequence:
#
# PCOD8159768 Si02
#       8
#     8   8   8   8   4   8   8   8
#     4  10  23  40  68  93 137 171 225 292 346 410
#     4  10  22  43  67  95 130 180 229 281 352 416
#     4  11  24  41  70  97 135 182 229 291 344 420
#     4  11  24  41  68  94 136 181 234 279 347 424
#     4  12  26  40  72 106 142 180 236 286 366 412
#     4  10  22  42  66  98 130 172 229 294 345 409
#     4  10  25  39  66 100 136 172 229 288 347 416
#     4  10  23  44  62  94 133 178 227 283 348 423
#
# _framework density 22.87735
#
# number of rings (size 3 to 8) (size 9 to 14) (size 15 to 20)
#    0.000    1.600    1.333    1.600   14.933    0.533 
#    0.000    0.000    0.000    0.000    0.000    0.000 
#    0.000    0.000    0.000    0.000    0.000    0.000 
#
# Total GULP energy -371641.944990 kJ/mol
# GULP energy per Si atom -12388.064833 kJ/mol
# Density = 2.282528 g / cm^3
# Si number density = 22.877350 Si / 1000 Ang^3
#
#
#
# Elastic Constant Matrix: (Units=GPa)
#
#
# Indices 1 2 3 4 5 6 
#
# 1 116.5790 36.7503 10.1103 0.0000 0.0000 0.0000
# 2 36.7503 117.2657 -6.0598 0.0000 0.0000 0.0000
# 3 10.1103 -6.0598 20.0308 0.0000 0.0000 0.0000
# 4 0.0000 0.0000 0.0000 20.0189 0.0000 0.0000
# 5 0.0000 0.0000 0.0000 0.0000 21.0105 0.0000
# 6 0.0000 0.0000 0.0000 0.0000 0.0000 34.4292
#
#
#
# Elastic Compliance Matrix: (Units=1/GPa)
#
#
# Indices 1 2 3 4 5 6 
#
# 1 0.010230 -0.003528 -0.006231 0.000000 0.000000 0.000000
# 2 -0.003528 0.009880 0.004770 0.000000 0.000000 0.000000
# 3 -0.006231 0.004770 0.054511 0.000000 0.000000 0.000000
# 4 0.000000 0.000000 0.000000 0.049953 0.000000 0.000000
# 5 0.000000 0.000000 0.000000 0.000000 0.047595 0.000000
# 6 0.000000 0.000000 0.000000 0.000000 0.000000 0.029045
#
#
# Mechanical properties :
#
#
# Convention : Reuss Voigt Hill
#
# Bulk Modulus (GPa) = 15.46975 37.27524 26.37249
# Shear Modulus (GPa) = 21.48312 29.29672 25.38992
#
# Velocity S-wave (km/s) = 3.06773 3.58243 3.33502
# Velocity P-wave (km/s) = 4.39598 5.78279 5.13640
#
# Compressibility (1/GPa) = 0.06464227
#
# Stress axis : x y z
#
# Youngs Moduli (GPa) = 97.74721 101.21643 18.34490
#
# Poissons Ratio (x) = 0.35711 0.11431
# Poissons Ratio (y) = 0.34487 -0.08750
# Poissons Ratio (z) = 0.60907 -0.48277
#
# Static dielectric constant tensor:
#      x y z
#    x 4.159470 0.000000 0.000000 
#    y 0.000000 4.681290 0.000000 
#    z 0.000000 0.000000 3.870930 
# 
# 
# High freq. dielectric constant tensor:
#      x y z
#    x 1.896380 0.000000 0.000000 
#    y 0.000000 1.921210 0.000000 
#    z 0.000000 0.000000 1.883220 
# 
# From -- ./inp_files/25283.got.cif
#   From: 2010.03.12/outbox.cif.g09.slc.cpg/sg20_13_cif.got.tgz:25283.got - 2010.04.14 01:38:04.
