data_PCOD8159015
_publ_section_title
;
Structure prediction by ZEFSAII (Michael W. Deem and Ramdas Pophale) SiO2 
 PCOD8159015
Probable space group: C 2 2 21
;
_chemical_formula_sum "Si O2"
_cell_formula_units_Z 40
_cell_length_a 22.344456
_cell_length_b 8.695236
_cell_length_c 9.795525
_cell_angle_alpha 90.000000
_cell_angle_beta 90.000000
_cell_angle_gamma 90.000000
_cell_volume 1903.175669
_symmetry_space_group_name_H-M "C 2 2 21"
_symmetry_group_IT_number 20
_symmetry_cell_setting 'orthorhombic'
loop_
_space_group_symop_operation_xyz
x,y,z
-x,-y,1/2+z
x,-y,-z
-x,y,1/2-z
1/2+x,1/2+y,z
1/2-x,1/2-y,1/2+z
1/2+x,1/2-y,-z
1/2-x,1/2+y,1/2-z
loop_
_atom_site_type_symbol
_atom_site_label
_atom_site_fract_x
_atom_site_fract_y
_atom_site_fract_z
Si Si1 0.583093 0.515057 0.646831
Si Si2 0.809527 0.068277 0.652112
Si Si3 0.085933 0.490921 0.150544
Si Si4 0.711137 0.932436 0.849306
Si Si5 0.000000 0.742677 0.250000
Si Si6 0.500000 0.263669 0.750000
O O1 0.616815 0.500000 0.500000
O O2 0.626892 0.537344 0.774454
O O3 0.536837 0.656790 0.641691
O O4 0.541864 0.364055 0.653625
O O5 0.793892 0.247695 0.642613
O O6 0.812536 0.000000 0.500000
O O7 0.762240 0.976254 0.742892
O O8 0.150454 0.499881 0.225638
O O9 0.047059 0.339530 0.168187
O O10 0.046007 0.639753 0.168254
O O11 0.111445 0.500000 0.000000
O O12 0.726220 0.000000 0.000000
#
# Coordination Sequence:
#
# PCOD8159015 Si02
#       6
#     8   8   8   8   4   4
#     4  11  24  41  67 100 140 177 226 272 336 401
#     4  12  27  46  73 100 136 180 230 286 346 408
#     4  10  21  40  67  95 134 173 222 272 341 399
#     4  11  25  47  73 100 136 176 230 285 345 408
#     4  10  20  42  62  98 134 176 222 270 334 398
#     4  10  24  38  66 100 134 184 218 278 322 414
#
# _framework density 21.017502
#
# number of rings (size 3 to 8) (size 9 to 14) (size 15 to 20)
#    0.000    1.200    2.000    3.000    8.400    3.200 
#    0.000    1.000    0.000    0.000    0.000    0.000 
#    0.000    0.000    0.000    0.000    0.000    0.000 
#
# Total GULP energy -247790.128237 kJ/mol
# GULP energy per Si atom -12389.506412 kJ/mol
# Density = 2.096966 g / cm^3
# Si number density = 21.017502 Si / 1000 Ang^3
#
#
#
# Elastic Constant Matrix: (Units=GPa)
#
#
# Indices 1 2 3 4 5 6 
#
# 1 123.6598 47.6273 53.7612 0.0000 0.0000 0.0000
# 2 47.6273 150.8736 51.8973 0.0000 0.0000 0.0000
# 3 53.7612 51.8973 140.5157 0.0000 0.0000 0.0000
# 4 0.0000 0.0000 0.0000 17.2923 0.0000 0.0000
# 5 0.0000 0.0000 0.0000 0.0000 30.8885 0.0000
# 6 0.0000 0.0000 0.0000 0.0000 0.0000 68.2115
#
#
#
# Elastic Compliance Matrix: (Units=1/GPa)
#
#
# Indices 1 2 3 4 5 6 
#
# 1 0.010284 -0.002169 -0.003134 0.000000 0.000000 0.000000
# 2 -0.002169 0.008050 -0.002143 0.000000 0.000000 0.000000
# 3 -0.003134 -0.002143 0.009107 0.000000 0.000000 0.000000
# 4 0.000000 0.000000 0.000000 0.057829 0.000000 0.000000
# 5 0.000000 0.000000 0.000000 0.000000 0.032375 0.000000
# 6 0.000000 0.000000 0.000000 0.000000 0.000000 0.014660
#
#
# Mechanical properties :
#
#
# Convention : Reuss Voigt Hill
#
# Bulk Modulus (GPa) = 79.68198 80.18008 79.93103
# Shear Modulus (GPa) = 33.02934 40.72936 36.87935
#
# Velocity S-wave (km/s) = 3.96854 4.40691 4.19345
# Velocity P-wave (km/s) = 7.68073 8.00790 7.84602
#
# Compressibility (1/GPa) = 0.01254989
#
# Stress axis : x y z
#
# Youngs Moduli (GPa) = 97.23494 124.22489 109.80204
#
# Poissons Ratio (x) = 0.26939 0.34411
# Poissons Ratio (y) = 0.21086 0.23535
# Poissons Ratio (z) = 0.30472 0.26627
#
# Static dielectric constant tensor:
#      x y z
#    x 3.960700 0.000000 0.000000 
#    y 0.000000 8.582920 0.000000 
#    z 0.000000 0.000000 3.559840 
# 
# 
# High freq. dielectric constant tensor:
#      x y z
#    x 1.844740 0.000000 0.000000 
#    y 0.000000 1.840480 0.000000 
#    z 0.000000 0.000000 1.810830 
# 
# From -- ./inp_files/6310.got.cif
#   From: 2010.03.12/outbox.cif.g09.slc.cpg/sg20_4_cif.got.tgz:6310.got - 2010.04.14 01:38:04.
