data_PCOD8159368
_publ_section_title
;
Structure prediction by ZEFSAII (Michael W. Deem and Ramdas Pophale) SiO2 
 PCOD8159368
Probable space group: C 2 2 21
;
_chemical_formula_sum "Si O2"
_cell_formula_units_Z 64
_cell_length_a 24.834048
_cell_length_b 14.374741
_cell_length_c 8.766409
_cell_angle_alpha 90.000000
_cell_angle_beta 90.000000
_cell_angle_gamma 90.000000
_cell_volume 3129.459054
_symmetry_space_group_name_H-M "C 2 2 21"
_symmetry_group_IT_number 20
_symmetry_cell_setting 'orthorhombic'
loop_
_space_group_symop_operation_xyz
x,y,z
-x,-y,1/2+z
x,-y,-z
-x,y,1/2-z
1/2+x,1/2+y,z
1/2-x,1/2-y,1/2+z
1/2+x,1/2-y,-z
1/2-x,1/2+y,1/2-z
loop_
_atom_site_type_symbol
_atom_site_label
_atom_site_fract_x
_atom_site_fract_y
_atom_site_fract_z
Si Si1 0.795668 0.166757 0.349821
Si Si2 0.554123 0.953665 0.663462
Si Si3 0.635388 0.795325 0.977671
Si Si4 0.558015 0.250540 0.251491
Si Si5 0.789819 0.696836 0.910067
Si Si6 0.342071 0.949567 0.289149
Si Si7 0.831177 0.200041 0.805696
Si Si8 0.277661 0.490928 0.173195
O O1 0.851993 0.212740 0.401674
O O2 0.767586 0.242837 0.235321
O O3 0.758277 0.148285 0.496643
O O4 0.808251 0.069666 0.269135
O O5 0.500000 0.986943 0.750000
O O6 0.554832 0.842201 0.643646
O O7 0.554897 0.000000 0.500000
O O8 0.608128 0.982813 0.755946
O O9 0.646564 0.895553 0.051832
O O10 0.573589 0.785378 0.921052
O O11 0.674524 0.779029 0.828427
O O12 0.500000 0.300972 0.250000
O O13 0.603930 0.322402 0.310012
O O14 0.832981 0.620724 0.852985
O O15 0.818626 0.766824 0.024889
O O16 0.286476 0.006089 0.310231
O O17 0.795354 0.109841 0.762854
O O18 0.296662 0.500000 0.000000
#
# Coordination Sequence:
#
# PCOD8159368 Si02
#       8
#     8   8   8   8   8   8   8   8
#     4  11  23  38  60  89 130 163 215 254 317 384
#     4  11  26  42  64  94 129 170 213 267 310 371
#     4   9  22  40  65  85 122 170 205 257 317 378
#     4   9  22  41  69  88 119 166 220 257 321 373
#     4  11  22  38  58  85 126 169 204 252 307 387
#     4  11  26  38  59  93 130 168 213 255 314 380
#     4  10  21  41  62  87 124 162 208 261 321 377
#     4  12  26  36  60  93 126 167 211 264 321 379
#
# _framework density 20.45082
#
# number of rings (size 3 to 8) (size 9 to 14) (size 15 to 20)
#    0.750    0.750    1.250    3.750   10.500    1.500 
#    0.000    0.000    0.000    1.500    0.000    0.000 
#    0.000    0.000    0.000    0.000    0.000    0.000 
#
# Total GULP energy -396544.198496 kJ/mol
# GULP energy per Si atom -12392.006203 kJ/mol
# Density = 2.040427 g / cm^3
# Si number density = 20.450820 Si / 1000 Ang^3
#
#
#
# Elastic Constant Matrix: (Units=GPa)
#
#
# Indices 1 2 3 4 5 6 
#
# 1 100.2186 -0.8303 6.5083 0.0000 0.0000 0.0000
# 2 -0.8303 43.8876 3.1671 0.0000 0.0000 0.0000
# 3 6.5083 3.1671 91.3907 0.0000 0.0000 0.0000
# 4 0.0000 0.0000 0.0000 26.4334 0.0000 0.0000
# 5 0.0000 0.0000 0.0000 0.0000 24.7591 0.0000
# 6 0.0000 0.0000 0.0000 0.0000 0.0000 20.1494
#
#
#
# Elastic Compliance Matrix: (Units=1/GPa)
#
#
# Indices 1 2 3 4 5 6 
#
# 1 0.010027 0.000242 -0.000722 0.000000 0.000000 0.000000
# 2 0.000242 0.022848 -0.000809 0.000000 0.000000 0.000000
# 3 -0.000722 -0.000809 0.011022 0.000000 0.000000 0.000000
# 4 0.000000 0.000000 0.000000 0.037831 0.000000 0.000000
# 5 0.000000 0.000000 0.000000 0.000000 0.040389 0.000000
# 6 0.000000 0.000000 0.000000 0.000000 0.000000 0.049629
#
#
# Mechanical properties :
#
#
# Convention : Reuss Voigt Hill
#
# Bulk Modulus (GPa) = 24.20264 28.13190 26.16727
# Shear Modulus (GPa) = 26.58184 29.37850 27.98017
#
# Velocity S-wave (km/s) = 3.60918 3.79429 3.70289
# Velocity P-wave (km/s) = 5.40633 5.74293 5.57717
#
# Compressibility (1/GPa) = 0.04131780
#
# Stress axis : x y z
#
# Youngs Moduli (GPa) = 99.72969 43.76664 90.73165
#
# Poissons Ratio (x) = -0.01058 0.06555
# Poissons Ratio (y) = -0.02412 0.07340
# Poissons Ratio (z) = 0.07205 0.03541
#
# Static dielectric constant tensor:
#      x y z
#    x 3.727390 0.000000 0.000000 
#    y 0.000000 3.463330 0.000000 
#    z 0.000000 0.000000 3.881720 
# 
# 
# High freq. dielectric constant tensor:
#      x y z
#    x 1.778800 0.000000 0.000000 
#    y 0.000000 1.775790 0.000000 
#    z 0.000000 0.000000 1.815210 
# 
# From -- ./inp_files/10830.got.cif
#   From: 2010.03.12/outbox.cif.g09.slc.cpg/sg20_6_cif.got.tgz:10830.got - 2010.04.14 01:38:04.
