data_PCOD8159479
_publ_section_title
;
Structure prediction by ZEFSAII (Michael W. Deem and Ramdas Pophale) SiO2 
 PCOD8159479
Probable space group: C 2 2 21
;
_chemical_formula_sum "Si O2"
_cell_formula_units_Z 48
_cell_length_a 8.496577
_cell_length_b 27.318005
_cell_length_c 9.378547
_cell_angle_alpha 90.000000
_cell_angle_beta 90.000000
_cell_angle_gamma 90.000000
_cell_volume 2176.850164
_symmetry_space_group_name_H-M "C 2 2 21"
_symmetry_group_IT_number 20
_symmetry_cell_setting 'orthorhombic'
loop_
_space_group_symop_operation_xyz
x,y,z
-x,-y,1/2+z
x,-y,-z
-x,y,1/2-z
1/2+x,1/2+y,z
1/2-x,1/2-y,1/2+z
1/2+x,1/2-y,-z
1/2-x,1/2+y,1/2-z
loop_
_atom_site_type_symbol
_atom_site_label
_atom_site_fract_x
_atom_site_fract_y
_atom_site_fract_z
Si Si1 0.347042 0.917388 0.331357
Si Si2 0.831113 0.949460 0.434800
Si Si3 0.033549 0.416043 0.590696
Si Si4 0.067307 0.779567 0.905985
Si Si5 0.062951 0.698608 0.401142
Si Si6 0.440994 0.360529 0.102925
O O1 0.500000 0.896297 0.250000
O O2 0.250904 0.953609 0.223319
O O3 0.410075 0.941753 0.479503
O O4 0.243200 0.870919 0.377242
O O5 0.709247 0.930870 0.552294
O O6 0.975332 0.912382 0.426818
O O7 0.897096 0.000000 0.500000
O O8 0.019683 0.357825 0.577233
O O9 0.000000 0.435121 0.750000
O O10 0.251053 0.791990 0.912812
O O11 0.000000 0.775187 0.750000
O O12 0.033504 0.728272 0.981147
O O13 0.967319 0.823110 0.976543
O O14 0.000000 0.717365 0.250000
O O15 0.500000 0.336263 0.250000
#
# Coordination Sequence:
#
# PCOD8159479 Si02
#       6
#     8   8   8   8   8   8
#     4   9  21  40  66  95 128 175 219 272 333 402
#     4  10  21  43  66  94 133 174 226 280 332 402
#     4  10  22  40  66  96 138 174 221 278 338 403
#     4  12  26  42  68  98 135 180 227 283 342 406
#     4  11  25  45  64  99 140 177 228 278 340 412
#     4  10  22  42  65  96 135 176 224 275 340 407
#
# _framework density 22.050208999999999
#
# number of rings (size 3 to 8) (size 9 to 14) (size 15 to 20)
#    0.000    1.667    1.667    1.500    7.000    4.000 
#    0.000   10.833    0.000    0.000    0.000    0.000 
#    0.000    0.000    0.000    0.000    0.000    0.000 
#
# Total GULP energy -297511.253848 kJ/mol
# GULP energy per Si atom -12396.302244 kJ/mol
# Density = 2.200002 g / cm^3
# Si number density = 22.050209 Si / 1000 Ang^3
#
#
#
# Elastic Constant Matrix: (Units=GPa)
#
#
# Indices 1 2 3 4 5 6 
#
# 1 58.4371 -10.4894 11.4577 0.0000 0.0000 0.0000
# 2 -10.4894 73.9494 30.7388 0.0000 0.0000 0.0000
# 3 11.4577 30.7388 156.2157 0.0000 0.0000 0.0000
# 4 0.0000 0.0000 0.0000 31.6429 0.0000 0.0000
# 5 0.0000 0.0000 0.0000 0.0000 33.5772 0.0000
# 6 0.0000 0.0000 0.0000 0.0000 0.0000 22.4817
#
#
#
# Elastic Compliance Matrix: (Units=1/GPa)
#
#
# Indices 1 2 3 4 5 6 
#
# 1 0.018114 0.003400 -0.001998 0.000000 0.000000 0.000000
# 2 0.003400 0.015365 -0.003273 0.000000 0.000000 0.000000
# 3 -0.001998 -0.003273 0.007192 0.000000 0.000000 0.000000
# 4 0.000000 0.000000 0.000000 0.031603 0.000000 0.000000
# 5 0.000000 0.000000 0.000000 0.000000 0.029782 0.000000
# 6 0.000000 0.000000 0.000000 0.000000 0.000000 0.044481
#
#
# Mechanical properties :
#
#
# Convention : Reuss Voigt Hill
#
# Bulk Modulus (GPa) = 27.07794 39.11294 33.09544
# Shear Modulus (GPa) = 30.75246 34.66669 32.70958
#
# Velocity S-wave (km/s) = 3.73856 3.96936 3.85569
# Velocity P-wave (km/s) = 5.56261 6.22771 5.90453
#
# Compressibility (1/GPa) = 0.03693043
#
# Stress axis : x y z
#
# Youngs Moduli (GPa) = 55.20489 65.08107 139.04490
#
# Poissons Ratio (x) = -0.22126 0.27775
# Poissons Ratio (y) = -0.18769 0.45507
# Poissons Ratio (z) = 0.11028 0.21300
#
# Static dielectric constant tensor:
#      x y z
#    x 4.115890 0.000000 0.000000 
#    y 0.000000 3.735470 0.000000 
#    z 0.000000 0.000000 4.325950 
# 
# 
# High freq. dielectric constant tensor:
#      x y z
#    x 1.877530 0.000000 0.000000 
#    y 0.000000 1.845150 0.000000 
#    z 0.000000 0.000000 1.885410 
# 
# From -- ./inp_files/6552.got.cif
#   From: 2010.03.12/outbox.cif.g09.slc.cpg/sg20_4_cif.got.tgz:6552.got - 2010.04.14 01:38:04.
