data_PCOD8159309
_publ_section_title
;
Structure prediction by ZEFSAII (Michael W. Deem and Ramdas Pophale) SiO2 
 PCOD8159309
Probable space group: C 2 2 21
;
_chemical_formula_sum "Si O2"
_cell_formula_units_Z 48
_cell_length_a 5.015601
_cell_length_b 23.565636
_cell_length_c 20.263018
_cell_angle_alpha 90.000000
_cell_angle_beta 90.000000
_cell_angle_gamma 90.000000
_cell_volume 2395.004180
_symmetry_space_group_name_H-M "C 2 2 21"
_symmetry_group_IT_number 20
_symmetry_cell_setting 'orthorhombic'
loop_
_space_group_symop_operation_xyz
x,y,z
-x,-y,1/2+z
x,-y,-z
-x,y,1/2-z
1/2+x,1/2+y,z
1/2-x,1/2-y,1/2+z
1/2+x,1/2-y,-z
1/2-x,1/2+y,1/2-z
loop_
_atom_site_type_symbol
_atom_site_label
_atom_site_fract_x
_atom_site_fract_y
_atom_site_fract_z
Si Si1 0.409342 0.036649 0.823876
Si Si2 0.759383 0.825402 0.705637
Si Si3 0.642275 0.561596 0.477144
Si Si4 0.857714 0.422519 0.890604
Si Si5 0.889371 0.903856 0.118703
Si Si6 0.757430 0.697951 0.706015
O O1 0.500000 0.051158 0.750000
O O2 0.648448 0.052336 0.872452
O O3 0.147093 0.072944 0.842148
O O4 0.374157 0.969179 0.832339
O O5 0.500000 0.828052 0.750000
O O6 0.726776 0.862844 0.640525
O O7 0.825510 0.761445 0.680912
O O8 0.000000 0.849285 0.750000
O O9 0.741125 0.500000 0.500000
O O10 0.366832 0.554378 0.439104
O O11 0.572761 0.601393 0.540067
O O12 0.868586 0.588252 0.430315
O O13 0.798547 0.842264 0.144049
O O14 0.500000 0.700564 0.750000
O O15 0.000000 0.673354 0.750000
#
# Coordination Sequence:
#
# PCOD8159309 Si02
#       6
#     8   8   8   8   8   8
#     4  12  23  35  58  88 119 147 194 256 301 353
#     4  10  22  41  64  88 119 155 194 249 307 355
#     4  12  23  41  59  84 125 169 198 237 300 362
#     4  12  23  40  61  88 119 159 204 240 300 364
#     4  12  23  38  59  87 119 158 201 241 298 360
#     4  10  21  40  62  86 118 154 194 246 307 355
#
# _framework density 20.041720000000002
#
# number of rings (size 3 to 8) (size 9 to 14) (size 15 to 20)
#    0.000    0.667    3.333    6.000    0.000    1.333 
#    0.000    1.667    0.000    0.000    0.000    0.000 
#    0.000    0.000    0.000    0.000    0.000    0.000 
#
# Total GULP energy -297693.843608 kJ/mol
# GULP energy per Si atom -12403.910150 kJ/mol
# Density = 1.999610 g / cm^3
# Si number density = 20.041720 Si / 1000 Ang^3
#
#
#
# Elastic Constant Matrix: (Units=GPa)
#
#
# Indices 1 2 3 4 5 6 
#
# 1 117.4649 26.9459 18.5777 0.0000 0.0000 0.0000
# 2 26.9459 90.1191 60.6693 0.0000 0.0000 0.0000
# 3 18.5777 60.6693 81.8101 0.0000 0.0000 0.0000
# 4 0.0000 0.0000 0.0000 20.3717 0.0000 0.0000
# 5 0.0000 0.0000 0.0000 0.0000 31.5698 0.0000
# 6 0.0000 0.0000 0.0000 0.0000 0.0000 28.7693
#
#
#
# Elastic Compliance Matrix: (Units=1/GPa)
#
#
# Indices 1 2 3 4 5 6 
#
# 1 0.009140 -0.002667 -0.000098 0.000000 0.000000 0.000000
# 2 -0.002667 0.022938 -0.016405 0.000000 0.000000 0.000000
# 3 -0.000098 -0.016405 0.024411 0.000000 0.000000 0.000000
# 4 0.000000 0.000000 0.000000 0.049088 0.000000 0.000000
# 5 0.000000 0.000000 0.000000 0.000000 0.031676 0.000000
# 6 0.000000 0.000000 0.000000 0.000000 0.000000 0.034759
#
#
# Mechanical properties :
#
#
# Convention : Reuss Voigt Hill
#
# Bulk Modulus (GPa) = 55.09586 55.75332 55.42459
# Shear Modulus (GPa) = 23.10519 28.35556 25.73038
#
# Velocity S-wave (km/s) = 3.39906 3.76550 3.58696
# Velocity P-wave (km/s) = 6.55401 6.83991 6.69848
#
# Compressibility (1/GPa) = 0.01815019
#
# Stress axis : x y z
#
# Youngs Moduli (GPa) = 109.40329 43.59617 40.96503
#
# Poissons Ratio (x) = 0.11629 0.00400
# Poissons Ratio (y) = 0.29182 0.67202
# Poissons Ratio (z) = 0.01068 0.71518
#
# Static dielectric constant tensor:
#      x y z
#    x 3.873150 0.000000 0.000000 
#    y 0.000000 3.758490 0.000000 
#    z 0.000000 0.000000 3.553850 
# 
# 
# High freq. dielectric constant tensor:
#      x y z
#    x 1.805210 0.000000 0.000000 
#    y 0.000000 1.775100 0.000000 
#    z 0.000000 0.000000 1.774570 
# 
# From -- ./inp_files/22818.got.cif
#   From: 2010.03.12/outbox.cif.g09.slc.cpg/sg20_12_cif.got.tgz:22818.got - 2010.04.14 01:38:04.
