data_PCOD8159630
_publ_section_title
;
Structure prediction by ZEFSAII (Michael W. Deem and Ramdas Pophale) SiO2 
 PCOD8159630
Probable space group: C 2 2 21
;
_chemical_formula_sum "Si O2"
_cell_formula_units_Z 64
_cell_length_a 15.500525
_cell_length_b 8.863231
_cell_length_c 21.935306
_cell_angle_alpha 90.000000
_cell_angle_beta 90.000000
_cell_angle_gamma 90.000000
_cell_volume 3013.576173
_symmetry_space_group_name_H-M "C 2 2 21"
_symmetry_group_IT_number 20
_symmetry_cell_setting 'orthorhombic'
loop_
_space_group_symop_operation_xyz
x,y,z
-x,-y,1/2+z
x,-y,-z
-x,y,1/2-z
1/2+x,1/2+y,z
1/2-x,1/2-y,1/2+z
1/2+x,1/2-y,-z
1/2-x,1/2+y,1/2-z
loop_
_atom_site_type_symbol
_atom_site_label
_atom_site_fract_x
_atom_site_fract_y
_atom_site_fract_z
Si Si1 0.111641 0.096743 0.635020
Si Si2 0.174181 0.736459 0.253345
Si Si3 0.943013 0.045072 0.568918
Si Si4 0.277518 0.946957 0.433583
Si Si5 0.888365 0.259177 0.139879
Si Si6 0.428846 0.222324 0.611701
Si Si7 0.646307 0.116190 0.764406
Si Si8 0.698514 0.264337 0.118646
O O1 0.106828 0.193011 0.697934
O O2 0.196910 0.142943 0.596011
O O3 0.025756 0.133085 0.596292
O O4 0.117473 0.919954 0.648417
O O5 0.268238 0.785897 0.275887
O O6 0.167999 0.557229 0.249150
O O7 0.159924 0.803326 0.185446
O O8 0.860155 0.154446 0.568394
O O9 0.965255 0.000000 0.500000
O O10 0.918270 0.902837 0.611289
O O11 0.363138 0.843201 0.438805
O O12 0.248126 0.000000 0.500000
O O13 0.304180 0.085532 0.390690
O O14 0.906305 0.324641 0.206611
O O15 0.798090 0.320927 0.112397
O O16 0.969172 0.308251 0.096973
O O17 0.410693 0.144258 0.676212
#
# Coordination Sequence:
#
# PCOD8159630 Si02
#       8
#     8   8   8   8   8   8   8   8
#     4  10  22  42  64  93 124 170 214 270 325 387
#     4  11  21  38  64  96 130 160 213 266 335 391
#     4  11  25  43  64  93 129 173 225 267 313 386
#     4  11  21  40  65  90 125 171 218 262 320 388
#     4   9  22  38  61  89 127 165 208 259 324 389
#     4  11  22  40  62  90 125 171 216 256 327 376
#     4  11  21  37  62  96 133 168 206 266 326 401
#     4  10  22  40  60  90 127 164 211 270 323 376
#
# _framework density 21.237227000000001
#
# number of rings (size 3 to 8) (size 9 to 14) (size 15 to 20)
#    0.000    1.500    2.500    3.000    5.250    1.500 
#    2.250    0.625    0.000    0.000    0.000    0.000 
#    0.000    0.000    0.000    0.000    0.000    0.000 
#
# Total GULP energy -396675.763508 kJ/mol
# GULP energy per Si atom -12396.117610 kJ/mol
# Density = 2.118889 g / cm^3
# Si number density = 21.237227 Si / 1000 Ang^3
#
#
#
# Elastic Constant Matrix: (Units=GPa)
#
#
# Indices 1 2 3 4 5 6 
#
# 1 129.6874 53.4616 38.7937 0.0000 0.0000 0.0000
# 2 53.4616 67.0528 20.5475 0.0000 0.0000 0.0000
# 3 38.7937 20.5475 80.7864 0.0000 0.0000 0.0000
# 4 0.0000 0.0000 0.0000 29.5684 0.0000 0.0000
# 5 0.0000 0.0000 0.0000 0.0000 30.0049 0.0000
# 6 0.0000 0.0000 0.0000 0.0000 0.0000 27.4956
#
#
#
# Elastic Compliance Matrix: (Units=1/GPa)
#
#
# Indices 1 2 3 4 5 6 
#
# 1 0.012450 -0.008779 -0.003746 0.000000 0.000000 0.000000
# 2 -0.008779 0.022364 -0.001473 0.000000 0.000000 0.000000
# 3 -0.003746 -0.001473 0.014552 0.000000 0.000000 0.000000
# 4 0.000000 0.000000 0.000000 0.033820 0.000000 0.000000
# 5 0.000000 0.000000 0.000000 0.000000 0.033328 0.000000
# 6 0.000000 0.000000 0.000000 0.000000 0.000000 0.036369
#
#
# Mechanical properties :
#
#
# Convention : Reuss Voigt Hill
#
# Bulk Modulus (GPa) = 46.79086 55.90359 51.34722
# Shear Modulus (GPa) = 26.59548 28.39536 27.49542
#
# Velocity S-wave (km/s) = 3.54263 3.66054 3.60207
# Velocity P-wave (km/s) = 6.23008 6.65182 6.44440
#
# Compressibility (1/GPa) = 0.02137170
#
# Stress axis : x y z
#
# Youngs Moduli (GPa) = 80.31953 44.71409 68.72098
#
# Poissons Ratio (x) = 0.39254 0.25741
# Poissons Ratio (y) = 0.70511 0.10120
# Poissons Ratio (z) = 0.30086 0.06585
#
# Static dielectric constant tensor:
#      x y z
#    x 4.061080 0.000000 0.000000 
#    y 0.000000 3.664680 0.000000 
#    z 0.000000 0.000000 3.732660 
# 
# 
# High freq. dielectric constant tensor:
#      x y z
#    x 1.841160 0.000000 0.000000 
#    y 0.000000 1.815850 0.000000 
#    z 0.000000 0.000000 1.825020 
# 
# From -- ./inp_files/29354.got.cif
#   From: 2010.03.12/outbox.cif.g09.slc.cpg/sg20_15_cif.got.tgz:29354.got - 2010.04.14 01:38:04.
