data_PCOD8159483
_publ_section_title
;
Structure prediction by ZEFSAII (Michael W. Deem and Ramdas Pophale) SiO2 
 PCOD8159483
Probable space group: C 2 2 21
;
_chemical_formula_sum "Si O2"
_cell_formula_units_Z 52
_cell_length_a 7.688309
_cell_length_b 17.104555
_cell_length_c 17.397980
_cell_angle_alpha 90.000000
_cell_angle_beta 90.000000
_cell_angle_gamma 90.000000
_cell_volume 2287.923172
_symmetry_space_group_name_H-M "C 2 2 21"
_symmetry_group_IT_number 20
_symmetry_cell_setting 'orthorhombic'
loop_
_space_group_symop_operation_xyz
x,y,z
-x,-y,1/2+z
x,-y,-z
-x,y,1/2-z
1/2+x,1/2+y,z
1/2-x,1/2-y,1/2+z
1/2+x,1/2-y,-z
1/2-x,1/2+y,1/2-z
loop_
_atom_site_type_symbol
_atom_site_label
_atom_site_fract_x
_atom_site_fract_y
_atom_site_fract_z
Si Si1 0.500000 0.457942 0.750000
Si Si2 0.781573 0.152553 0.155534
Si Si3 0.082340 0.750872 0.914313
Si Si4 0.209422 0.348043 0.478382
Si Si5 0.245380 0.061512 0.838052
Si Si6 0.300445 0.211204 0.741859
Si Si7 0.497461 0.954444 0.924085
O O1 0.660575 0.407958 0.720113
O O2 0.581036 0.508821 0.818214
O O3 0.698744 0.228630 0.200551
O O4 0.640337 0.107047 0.104919
O O5 0.950419 0.178263 0.106347
O O6 0.227400 0.727218 0.849269
O O7 0.968746 0.675125 0.934467
O O8 0.186482 0.773175 0.991380
O O9 0.319963 0.392866 0.413818
O O10 0.170441 0.404243 0.550116
O O11 0.272192 0.121559 0.766544
O O12 0.424182 0.013268 0.857926
O O13 0.500000 0.236056 0.750000
O O14 0.569093 0.000000 0.000000
#
# Coordination Sequence:
#
# PCOD8159483 Si02
#       7
#     4   8   8   8   8   8   8
#     4  12  26  40  66  98 132 178 218 282 332 402
#     4  11  22  44  68  95 131 178 227 272 333 403
#     4  11  22  41  69  95 136 171 232 275 340 393
#     4  11  23  41  67  99 134 177 219 282 340 409
#     4  11  25  45  64  98 137 172 221 279 343 397
#     4  10  21  43  68  90 131 177 219 277 327 396
#     4  10  25  42  69 100 136 177 225 276 350 412
#
# _framework density 22.728034999999998
#
# number of rings (size 3 to 8) (size 9 to 14) (size 15 to 20)
#    0.000    1.231    5.385    1.846    2.154    2.462 
#    0.000    0.000    0.000    0.000    0.000    0.000 
#    0.000    0.000    0.000    0.000    0.000    0.000 
#
# Total GULP energy -322227.365684 kJ/mol
# GULP energy per Si atom -12393.360219 kJ/mol
# Density = 2.267631 g / cm^3
# Si number density = 22.728035 Si / 1000 Ang^3
#
#
#
# Elastic Constant Matrix: (Units=GPa)
#
#
# Indices 1 2 3 4 5 6 
#
# 1 37.4973 25.5127 26.2102 0.0000 0.0000 0.0000
# 2 25.5127 121.6824 41.5150 0.0000 0.0000 0.0000
# 3 26.2102 41.5150 90.2225 0.0000 0.0000 0.0000
# 4 0.0000 0.0000 0.0000 44.1285 0.0000 0.0000
# 5 0.0000 0.0000 0.0000 0.0000 30.4079 0.0000
# 6 0.0000 0.0000 0.0000 0.0000 0.0000 28.7273
#
#
#
# Elastic Compliance Matrix: (Units=1/GPa)
#
#
# Indices 1 2 3 4 5 6 
#
# 1 0.035563 -0.004664 -0.008185 0.000000 0.000000 0.000000
# 2 -0.004664 0.010360 -0.003412 0.000000 0.000000 0.000000
# 3 -0.008185 -0.003412 0.015032 0.000000 0.000000 0.000000
# 4 0.000000 0.000000 0.000000 0.022661 0.000000 0.000000
# 5 0.000000 0.000000 0.000000 0.000000 0.032886 0.000000
# 6 0.000000 0.000000 0.000000 0.000000 0.000000 0.034810
#
#
# Mechanical properties :
#
#
# Convention : Reuss Voigt Hill
#
# Bulk Modulus (GPa) = 35.17127 48.43090 41.80108
# Shear Modulus (GPa) = 25.86482 31.06369 28.46426
#
# Velocity S-wave (km/s) = 3.37711 3.70098 3.54274
# Velocity P-wave (km/s) = 5.54210 6.29429 5.93014
#
# Compressibility (1/GPa) = 0.02843230
#
# Stress axis : x y z
#
# Youngs Moduli (GPa) = 28.11891 96.52383 66.52595
#
# Poissons Ratio (x) = 0.45017 0.54454
# Poissons Ratio (y) = 0.13114 0.22700
# Poissons Ratio (z) = 0.23016 0.32936
#
# Static dielectric constant tensor:
#      x y z
#    x 3.584430 0.000000 0.000000 
#    y 0.000000 4.269350 0.000000 
#    z 0.000000 0.000000 4.538730 
# 
# 
# High freq. dielectric constant tensor:
#      x y z
#    x 1.849580 0.000000 0.000000 
#    y 0.000000 1.916020 0.000000 
#    z 0.000000 0.000000 1.909050 
# 
# From -- ./inp_files/23715.got.cif
#   From: 2010.03.12/outbox.cif.g09.slc.cpg/sg20_12_cif.got.tgz:23715.got - 2010.04.14 01:38:04.
