data_PCOD8159413
_publ_section_title
;
Structure prediction by ZEFSAII (Michael W. Deem and Ramdas Pophale) SiO2 
 PCOD8159413
Probable space group: C 2 2 21
;
_chemical_formula_sum "Si O2"
_cell_formula_units_Z 32
_cell_length_a 9.072791
_cell_length_b 10.210425
_cell_length_c 16.831079
_cell_angle_alpha 90.000000
_cell_angle_beta 90.000000
_cell_angle_gamma 90.000000
_cell_volume 1559.181541
_symmetry_space_group_name_H-M "C 2 2 21"
_symmetry_group_IT_number 20
_symmetry_cell_setting 'orthorhombic'
loop_
_space_group_symop_operation_xyz
x,y,z
-x,-y,1/2+z
x,-y,-z
-x,y,1/2-z
1/2+x,1/2+y,z
1/2-x,1/2-y,1/2+z
1/2+x,1/2-y,-z
1/2-x,1/2+y,1/2-z
loop_
_atom_site_type_symbol
_atom_site_label
_atom_site_fract_x
_atom_site_fract_y
_atom_site_fract_z
Si Si1 0.304829 0.268165 0.816968
Si Si2 0.759316 0.854646 0.983355
Si Si3 0.561688 0.671001 0.081066
Si Si4 0.151834 0.995950 0.208435
O O1 0.209495 0.307200 0.895632
O O2 0.478926 0.263520 0.841871
O O3 0.273685 0.379736 0.751866
O O4 0.259814 0.126980 0.784575
O O5 0.939171 0.852565 0.987871
O O6 0.694060 0.760328 0.050447
O O7 0.699401 0.000000 0.000000
O O8 0.627999 0.534434 0.115202
O O9 0.000000 0.954129 0.250000
#
# Coordination Sequence:
#
# PCOD8159413 Si02
#       4
#     8   8   8   8
#     4   9  23  40  66  91 125 169 206 268 313 369
#     4  10  23  39  62  93 129 166 205 259 316 373
#     4   9  23  39  65  88 131 161 213 258 313 378
#     4  10  21  42  62  94 125 167 215 263 315 375
#
# _framework density 20.523589000000001
#
# number of rings (size 3 to 8) (size 9 to 14) (size 15 to 20)
#    1.500    1.000    0.000    0.000    7.000    2.000 
#    4.500    0.000    0.000    0.000    0.000    0.000 
#    0.000    0.000    0.000    0.000    0.000    0.000 
#
# Total GULP energy -198260.293024 kJ/mol
# GULP energy per Si atom -12391.268314 kJ/mol
# Density = 2.047688 g / cm^3
# Si number density = 20.523589 Si / 1000 Ang^3
#
#
#
# Elastic Constant Matrix: (Units=GPa)
#
#
# Indices 1 2 3 4 5 6 
#
# 1 46.2193 47.3990 20.1996 0.0000 0.0000 0.0000
# 2 47.3990 152.0800 42.4306 0.0000 0.0000 0.0000
# 3 20.1996 42.4306 64.8948 0.0000 0.0000 0.0000
# 4 0.0000 0.0000 0.0000 36.3342 0.0000 0.0000
# 5 0.0000 0.0000 0.0000 0.0000 34.2296 0.0000
# 6 0.0000 0.0000 0.0000 0.0000 0.0000 28.5459
#
#
#
# Elastic Compliance Matrix: (Units=1/GPa)
#
#
# Indices 1 2 3 4 5 6 
#
# 1 0.032755 -0.009007 -0.004306 0.000000 0.000000 0.000000
# 2 -0.009007 0.010520 -0.004074 0.000000 0.000000 0.000000
# 3 -0.004306 -0.004074 0.019414 0.000000 0.000000 0.000000
# 4 0.000000 0.000000 0.000000 0.027522 0.000000 0.000000
# 5 0.000000 0.000000 0.000000 0.000000 0.029214 0.000000
# 6 0.000000 0.000000 0.000000 0.000000 0.000000 0.035031
#
#
# Mechanical properties :
#
#
# Convention : Reuss Voigt Hill
#
# Bulk Modulus (GPa) = 35.82599 53.69474 44.76036
# Shear Modulus (GPa) = 25.18417 30.03294 27.60855
#
# Velocity S-wave (km/s) = 3.50678 3.82951 3.67169
# Velocity P-wave (km/s) = 5.82156 6.76556 6.31123
#
# Compressibility (1/GPa) = 0.02791270
#
# Stress axis : x y z
#
# Youngs Moduli (GPa) = 30.52932 95.06052 51.50942
#
# Poissons Ratio (x) = 0.85625 0.22181
# Poissons Ratio (y) = 0.27499 0.20987
# Poissons Ratio (z) = 0.13147 0.38731
#
# Static dielectric constant tensor:
#      x y z
#    x 3.342460 0.000000 0.000000 
#    y 0.000000 3.454280 0.000000 
#    z 0.000000 0.000000 3.659540 
# 
# 
# High freq. dielectric constant tensor:
#      x y z
#    x 1.770960 0.000000 0.000000 
#    y 0.000000 1.797180 0.000000 
#    z 0.000000 0.000000 1.805280 
# 
# From -- ./inp_files/18196.got.cif
#   From: 2010.03.12/outbox.cif.g09.slc.cpg/sg20_10_cif.got.tgz:18196.got - 2010.04.14 01:38:04.
