data_PCOD8159862
_publ_section_title
;
Structure prediction by ZEFSAII (Michael W. Deem and Ramdas Pophale) SiO2 
 PCOD8159862
Probable space group: C 2 2 21
;
_chemical_formula_sum "Si O2"
_cell_formula_units_Z 36
_cell_length_a 9.555951
_cell_length_b 16.847838
_cell_length_c 9.724640
_cell_angle_alpha 90.000000
_cell_angle_beta 90.000000
_cell_angle_gamma 90.000000
_cell_volume 1565.638978
_symmetry_space_group_name_H-M "C 2 2 21"
_symmetry_group_IT_number 20
_symmetry_cell_setting 'orthorhombic'
loop_
_space_group_symop_operation_xyz
x,y,z
-x,-y,1/2+z
x,-y,-z
-x,y,1/2-z
1/2+x,1/2+y,z
1/2-x,1/2-y,1/2+z
1/2+x,1/2-y,-z
1/2-x,1/2+y,1/2-z
loop_
_atom_site_type_symbol
_atom_site_label
_atom_site_fract_x
_atom_site_fract_y
_atom_site_fract_z
Si Si1 0.753455 0.378737 0.772995
Si Si2 0.334764 0.063411 0.769245
Si Si3 0.326980 0.412253 0.018643
Si Si4 0.000000 0.731464 0.250000
Si Si5 0.120351 0.141093 0.953737
O O1 0.791288 0.471647 0.778994
O O2 0.698772 0.359578 0.617841
O O3 0.885109 0.325789 0.815748
O O4 0.635098 0.351060 0.881218
O O5 0.500000 0.072872 0.750000
O O6 0.264690 0.116819 0.647952
O O7 0.268634 0.104321 0.904560
O O8 0.488191 0.417352 0.066602
O O9 0.267761 0.500000 0.000000
O O10 0.072832 0.779663 0.125836
#
# Coordination Sequence:
#
# PCOD8159862 Si02
#       5
#     8   8   8   4   8
#     4  11  26  44  74 101 145 188 243 293 367 426
#     4  11  23  44  76 108 138 188 239 301 358 433
#     4  10  22  44  73 108 138 179 246 300 348 427
#     4  12  28  46  64 110 150 186 236 308 352 448
#     4  12  25  46  73 100 146 187 239 296 365 427
#
# _framework density 22.993807
#
# number of rings (size 3 to 8) (size 9 to 14) (size 15 to 20)
#    0.000    0.889    3.333    2.667    6.222    5.333 
#    0.000    0.000    0.000    0.000    0.000    0.000 
#    0.000    0.000    0.000    0.000    0.000    0.000 
#
# Total GULP energy -223007.298388 kJ/mol
# GULP energy per Si atom -12389.294355 kJ/mol
# Density = 2.294147 g / cm^3
# Si number density = 22.993807 Si / 1000 Ang^3
#
#
#
# Elastic Constant Matrix: (Units=GPa)
#
#
# Indices 1 2 3 4 5 6 
#
# 1 154.6462 25.0500 53.1733 0.0000 0.0000 0.0000
# 2 25.0500 76.2210 41.1130 0.0000 0.0000 0.0000
# 3 53.1733 41.1130 157.9971 0.0000 0.0000 0.0000
# 4 0.0000 0.0000 0.0000 8.7542 0.0000 0.0000
# 5 0.0000 0.0000 0.0000 0.0000 37.1871 0.0000
# 6 0.0000 0.0000 0.0000 0.0000 0.0000 40.4016
#
#
#
# Elastic Compliance Matrix: (Units=1/GPa)
#
#
# Indices 1 2 3 4 5 6 
#
# 1 0.007417 -0.001269 -0.002166 0.000000 0.000000 0.000000
# 2 -0.001269 0.015479 -0.003601 0.000000 0.000000 0.000000
# 3 -0.002166 -0.003601 0.007995 0.000000 0.000000 0.000000
# 4 0.000000 0.000000 0.000000 0.114231 0.000000 0.000000
# 5 0.000000 0.000000 0.000000 0.000000 0.026891 0.000000
# 6 0.000000 0.000000 0.000000 0.000000 0.000000 0.024751
#
#
# Mechanical properties :
#
#
# Convention : Reuss Voigt Hill
#
# Bulk Modulus (GPa) = 59.45546 69.72631 64.59088
# Shear Modulus (GPa) = 23.10087 35.23712 29.16900
#
# Velocity S-wave (km/s) = 3.17307 3.91891 3.56555
# Velocity P-wave (km/s) = 6.27198 7.13211 6.71583
#
# Compressibility (1/GPa) = 0.01681931
#
# Stress axis : x y z
#
# Youngs Moduli (GPa) = 134.83188 64.60329 125.07734
#
# Poissons Ratio (x) = 0.08200 0.27089
# Poissons Ratio (y) = 0.17114 0.45036
# Poissons Ratio (z) = 0.29201 0.23262
#
# Static dielectric constant tensor:
#      x y z
#    x 4.099950 0.000000 0.000000 
#    y 0.000000 3.846670 0.000000 
#    z 0.000000 0.000000 4.608210 
# 
# 
# High freq. dielectric constant tensor:
#      x y z
#    x 1.913090 0.000000 0.000000 
#    y 0.000000 1.883000 0.000000 
#    z 0.000000 0.000000 1.925850 
# 
# From -- ./inp_files/5914.got.cif
#   From: 2010.03.12/outbox.cif.g09.slc.cpg/sg20_3_cif.got.tgz:5914.got - 2010.04.14 01:38:04.
