data_PCOD8159332
_publ_section_title
;
Structure prediction by ZEFSAII (Michael W. Deem and Ramdas Pophale) SiO2 
 PCOD8159332
Probable space group: C 2 2 21
;
_chemical_formula_sum "Si O2"
_cell_formula_units_Z 48
_cell_length_a 18.667690
_cell_length_b 8.252164
_cell_length_c 14.991014
_cell_angle_alpha 90.000000
_cell_angle_beta 90.000000
_cell_angle_gamma 90.000000
_cell_volume 2309.348308
_symmetry_space_group_name_H-M "C 2 2 21"
_symmetry_group_IT_number 20
_symmetry_cell_setting 'orthorhombic'
loop_
_space_group_symop_operation_xyz
x,y,z
-x,-y,1/2+z
x,-y,-z
-x,y,1/2-z
1/2+x,1/2+y,z
1/2-x,1/2-y,1/2+z
1/2+x,1/2-y,-z
1/2-x,1/2+y,1/2-z
loop_
_atom_site_type_symbol
_atom_site_label
_atom_site_fract_x
_atom_site_fract_y
_atom_site_fract_z
Si Si1 0.600407 0.382911 0.077933
Si Si2 0.598386 0.690167 0.175532
Si Si3 0.022125 0.689856 0.346911
Si Si4 0.202169 0.682910 0.969765
Si Si5 0.445234 0.186051 0.860678
Si Si6 0.866550 0.184155 0.972582
O O1 0.613114 0.496324 0.165251
O O2 0.543831 0.237593 0.089333
O O3 0.571164 0.500000 0.000000
O O4 0.674767 0.301046 0.048277
O O5 0.658067 0.790866 0.121411
O O6 0.601868 0.744459 0.278391
O O7 0.519897 0.719344 0.133521
O O8 0.036029 0.500063 0.345210
O O9 0.092845 0.783289 0.379768
O O10 0.000000 0.753834 0.250000
O O11 0.284533 0.728700 0.954507
O O12 0.192641 0.500000 0.000000
O O13 0.399429 0.202151 0.950334
O O14 0.876946 0.000000 0.000000
#
# Coordination Sequence:
#
# PCOD8159332 Si02
#       6
#     8   8   8   8   8   8
#     4  10  22  39  67  95 125 174 211 261 325 383
#     4  10  21  40  64  96 128 165 217 266 319 380
#     4  12  24  40  66 100 127 167 217 266 325 378
#     4  10  22  43  65  93 133 173 215 260 322 388
#     4  11  23  42  65  97 131 164 217 274 316 377
#     4  11  25  44  65  97 131 174 214 266 325 387
#
# _framework density 20.785086
#
# number of rings (size 3 to 8) (size 9 to 14) (size 15 to 20)
#    0.000    1.333    1.667    5.000    4.667    4.000 
#    3.000    0.000    0.000    0.000    0.000    0.000 
#    0.000    0.000    0.000    0.000    0.000    0.000 
#
# Total GULP energy -297617.409656 kJ/mol
# GULP energy per Si atom -12400.725402 kJ/mol
# Density = 2.073778 g / cm^3
# Si number density = 20.785086 Si / 1000 Ang^3
#
#
#
# Elastic Constant Matrix: (Units=GPa)
#
#
# Indices 1 2 3 4 5 6 
#
# 1 151.4290 47.2656 75.7510 0.0000 0.0000 0.0000
# 2 47.2656 101.6645 49.4052 0.0000 0.0000 0.0000
# 3 75.7510 49.4052 122.7784 0.0000 0.0000 0.0000
# 4 0.0000 0.0000 0.0000 34.9581 0.0000 0.0000
# 5 0.0000 0.0000 0.0000 0.0000 24.8572 0.0000
# 6 0.0000 0.0000 0.0000 0.0000 0.0000 34.2417
#
#
#
# Elastic Compliance Matrix: (Units=1/GPa)
#
#
# Indices 1 2 3 4 5 6 
#
# 1 0.009877 -0.002027 -0.005278 0.000000 0.000000 0.000000
# 2 -0.002027 0.012643 -0.003837 0.000000 0.000000 0.000000
# 3 -0.005278 -0.003837 0.012945 0.000000 0.000000 0.000000
# 4 0.000000 0.000000 0.000000 0.028606 0.000000 0.000000
# 5 0.000000 0.000000 0.000000 0.000000 0.040230 0.000000
# 6 0.000000 0.000000 0.000000 0.000000 0.000000 0.029204
#
#
# Mechanical properties :
#
#
# Convention : Reuss Voigt Hill
#
# Bulk Modulus (GPa) = 75.86573 80.07950 77.97261
# Shear Modulus (GPa) = 31.21441 32.37475 31.79458
#
# Velocity S-wave (km/s) = 3.87947 3.95092 3.91536
# Velocity P-wave (km/s) = 7.52638 7.70870 7.61808
#
# Compressibility (1/GPa) = 0.01318118
#
# Stress axis : x y z
#
# Youngs Moduli (GPa) = 101.24829 79.09341 77.24900
#
# Poissons Ratio (x) = 0.16032 0.40772
# Poissons Ratio (y) = 0.20522 0.29641
# Poissons Ratio (z) = 0.53439 0.30348
#
# Static dielectric constant tensor:
#      x y z
#    x 3.741570 0.000000 0.000000 
#    y 0.000000 3.937760 0.000000 
#    z 0.000000 0.000000 3.909660 
# 
# 
# High freq. dielectric constant tensor:
#      x y z
#    x 1.804450 0.000000 0.000000 
#    y 0.000000 1.829530 0.000000 
#    z 0.000000 0.000000 1.811040 
# 
# From -- ./inp_files/21269.got.cif
#   From: 2010.03.12/outbox.cif.g09.slc.cpg/sg20_11_cif.got.tgz:21269.got - 2010.04.14 01:38:04.
