data_PCOD8159761
_publ_section_title
;
Structure prediction by ZEFSAII (Michael W. Deem and Ramdas Pophale) SiO2 
 PCOD8159761
Probable space group: C 2 2 21
;
_chemical_formula_sum "Si O2"
_cell_formula_units_Z 60
_cell_length_a 7.721690
_cell_length_b 29.062742
_cell_length_c 11.570827
_cell_angle_alpha 90.000000
_cell_angle_beta 90.000000
_cell_angle_gamma 90.000000
_cell_volume 2596.649603
_symmetry_space_group_name_H-M "C 2 2 21"
_symmetry_group_IT_number 20
_symmetry_cell_setting 'orthorhombic'
loop_
_space_group_symop_operation_xyz
x,y,z
-x,-y,1/2+z
x,-y,-z
-x,y,1/2-z
1/2+x,1/2+y,z
1/2-x,1/2-y,1/2+z
1/2+x,1/2-y,-z
1/2-x,1/2+y,1/2-z
loop_
_atom_site_type_symbol
_atom_site_label
_atom_site_fract_x
_atom_site_fract_y
_atom_site_fract_z
Si Si1 0.273587 0.242831 0.676005
Si Si2 0.500000 0.511955 0.250000
Si Si3 0.103081 0.546012 0.937429
Si Si4 0.683498 0.331287 0.693433
Si Si5 0.986466 0.212669 0.001978
Si Si6 0.324616 0.661522 0.679668
Si Si7 0.831989 0.426066 0.679404
Si Si8 0.255782 0.057634 0.812614
O O1 0.228745 0.284783 0.760631
O O2 0.106298 0.242332 0.594998
O O3 0.447846 0.253325 0.603785
O O4 0.301201 0.194665 0.744757
O O5 0.342232 0.542747 0.197687
O O6 0.407839 0.475921 0.340729
O O7 0.220484 0.557117 0.826762
O O8 0.909921 0.538550 0.890626
O O9 0.167778 0.500000 0.000000
O O10 0.122511 0.581774 0.043326
O O11 0.500000 0.341400 0.750000
O O12 0.650213 0.323799 0.556249
O O13 0.801900 0.374657 0.724429
O O14 0.145723 0.185052 0.945028
O O15 0.500000 0.655869 0.750000
O O16 0.253941 0.611062 0.653227
O O17 0.000000 0.446542 0.750000
#
# Coordination Sequence:
#
# PCOD8159761 Si02
#       8
#     8   4   8   8   8   8   8   8
#     4  10  22  42  67 101 141 186 245 304 357 451
#     4  12  24  50  82 100 154 198 252 306 382 442
#     4  11  25  49  72 104 153 182 242 317 370 452
#     4  10  23  44  67 102 146 194 251 299 369 456
#     4  10  22  42  67  95 144 189 241 299 373 431
#     4  10  22  42  66 102 139 184 253 303 361 452
#     4  12  27  48  75 115 150 196 254 314 376 456
#     4  11  25  49  73 111 143 196 251 307 383 453
#
# _framework density 23.106698000000002
#
# number of rings (size 3 to 8) (size 9 to 14) (size 15 to 20)
#    0.000    1.333    2.667    1.600    3.733    4.800 
#   21.600    0.000    0.000    0.000    0.000    0.000 
#    0.000    0.000    0.000    0.000    0.000    0.000 
#
# Total GULP energy -371686.343508 kJ/mol
# GULP energy per Si atom -12389.544784 kJ/mol
# Density = 2.305411 g / cm^3
# Si number density = 23.106698 Si / 1000 Ang^3
#
#
#
# Elastic Constant Matrix: (Units=GPa)
#
#
# Indices 1 2 3 4 5 6 
#
# 1 103.2859 39.2263 35.1765 0.0000 0.0000 0.0000
# 2 39.2263 135.2376 31.3128 0.0000 0.0000 0.0000
# 3 35.1765 31.3128 112.5669 0.0000 0.0000 0.0000
# 4 0.0000 0.0000 0.0000 19.6501 0.0000 0.0000
# 5 0.0000 0.0000 0.0000 0.0000 31.6642 0.0000
# 6 0.0000 0.0000 0.0000 0.0000 0.0000 33.2344
#
#
#
# Elastic Compliance Matrix: (Units=1/GPa)
#
#
# Indices 1 2 3 4 5 6 
#
# 1 0.011704 -0.002723 -0.002900 0.000000 0.000000 0.000000
# 2 -0.002723 0.008537 -0.001524 0.000000 0.000000 0.000000
# 3 -0.002900 -0.001524 0.010214 0.000000 0.000000 0.000000
# 4 0.000000 0.000000 0.000000 0.050890 0.000000 0.000000
# 5 0.000000 0.000000 0.000000 0.000000 0.031581 0.000000
# 6 0.000000 0.000000 0.000000 0.000000 0.000000 0.030089
#
#
# Mechanical properties :
#
#
# Convention : Reuss Voigt Hill
#
# Bulk Modulus (GPa) = 61.87832 62.50241 62.19037
# Shear Modulus (GPa) = 30.73217 33.26809 32.00013
#
# Velocity S-wave (km/s) = 3.65089 3.79853 3.72544
# Velocity P-wave (km/s) = 6.67903 6.80784 6.74374
#
# Compressibility (1/GPa) = 0.01616075
#
# Stress axis : x y z
#
# Youngs Moduli (GPa) = 85.44286 117.13572 97.90824
#
# Poissons Ratio (x) = 0.31900 0.28392
# Poissons Ratio (y) = 0.23269 0.14919
# Poissons Ratio (z) = 0.24777 0.17849
#
# Static dielectric constant tensor:
#      x y z
#    x 4.148360 0.000000 0.000000 
#    y 0.000000 4.374390 0.000000 
#    z 0.000000 0.000000 4.820470 
# 
# 
# High freq. dielectric constant tensor:
#      x y z
#    x 1.908160 0.000000 0.000000 
#    y 0.000000 1.917520 0.000000 
#    z 0.000000 0.000000 1.912620 
# 
# From -- ./inp_files/13308.got.cif
#   From: 2010.03.12/outbox.cif.g09.slc.cpg/sg20_7_cif.got.tgz:13308.got - 2010.04.14 01:38:04.
