data_PCOD8159696
_publ_section_title
;
Structure prediction by ZEFSAII (Michael W. Deem and Ramdas Pophale) SiO2 
 PCOD8159696
Probable space group: C 2 2 21
;
_chemical_formula_sum "Si O2"
_cell_formula_units_Z 36
_cell_length_a 14.570325
_cell_length_b 18.118423
_cell_length_c 7.045536
_cell_angle_alpha 90.000000
_cell_angle_beta 90.000000
_cell_angle_gamma 90.000000
_cell_volume 1859.960290
_symmetry_space_group_name_H-M "C 2 2 21"
_symmetry_group_IT_number 20
_symmetry_cell_setting 'orthorhombic'
loop_
_space_group_symop_operation_xyz
x,y,z
-x,-y,1/2+z
x,-y,-z
-x,y,1/2-z
1/2+x,1/2+y,z
1/2-x,1/2-y,1/2+z
1/2+x,1/2-y,-z
1/2-x,1/2+y,1/2-z
loop_
_atom_site_type_symbol
_atom_site_label
_atom_site_fract_x
_atom_site_fract_y
_atom_site_fract_z
Si Si1 0.772699 0.562677 0.348238
Si Si2 0.000000 0.814491 0.250000
Si Si3 0.130938 0.500000 0.500000
Si Si4 0.575184 0.826126 0.895393
Si Si5 0.561106 0.420767 0.573411
Si Si6 0.000000 0.397609 0.250000
O O1 0.805147 0.500000 0.500000
O O2 0.798660 0.541480 0.135893
O O3 0.823811 0.640280 0.377018
O O4 0.665315 0.576001 0.359756
O O5 0.075850 0.761944 0.146454
O O6 0.053205 0.863194 0.402581
O O7 0.068583 0.447510 0.371482
O O8 0.500000 0.864067 0.750000
O O9 0.550315 0.841418 0.111540
O O10 0.526316 0.500000 0.500000
O O11 0.500000 0.394825 0.750000
#
# Coordination Sequence:
#
# PCOD8159696 Si02
#       6
#     8   4   4   8   8   4
#     4  11  23  40  66 104 133 173 224 269 330 399
#     4  10  24  47  67  94 132 174 222 272 344 399
#     4  12  20  32  64 102 138 176 214 266 324 400
#     4  10  22  41  62  99 138 171 209 266 339 408
#     4  11  25  46  72  92 125 176 232 289 329 386
#     4  12  20  35  63  94 148 178 200 264 338 401
#
# _framework density 19.355253000000001
#
# number of rings (size 3 to 8) (size 9 to 14) (size 15 to 20)
#    0.667    0.444    5.556    1.333    3.111    0.000 
#    4.000    0.000    0.000    0.000    0.000    0.000 
#    0.000    0.000    0.000    0.000    0.000    0.000 
#
# Total GULP energy -223111.426944 kJ/mol
# GULP energy per Si atom -12395.079275 kJ/mol
# Density = 1.931120 g / cm^3
# Si number density = 19.355253 Si / 1000 Ang^3
#
#
#
# Elastic Constant Matrix: (Units=GPa)
#
#
# Indices 1 2 3 4 5 6 
#
# 1 97.8468 47.2872 60.7760 0.0000 0.0000 0.0000
# 2 47.2872 130.2414 65.1326 0.0000 0.0000 0.0000
# 3 60.7760 65.1326 160.6850 0.0000 0.0000 0.0000
# 4 0.0000 0.0000 0.0000 43.6888 0.0000 0.0000
# 5 0.0000 0.0000 0.0000 0.0000 32.7617 0.0000
# 6 0.0000 0.0000 0.0000 0.0000 0.0000 -6.2196
#
#
#
# Elastic Compliance Matrix: (Units=1/GPa)
#
#
# Indices 1 2 3 4 5 6 
#
# 1 0.014302 -0.003120 -0.004145 0.000000 0.000000 0.000000
# 2 -0.003120 0.010311 -0.002999 0.000000 0.000000 0.000000
# 3 -0.004145 -0.002999 0.009007 0.000000 0.000000 0.000000
# 4 0.000000 0.000000 0.000000 0.022889 0.000000 0.000000
# 5 0.000000 0.000000 0.000000 0.000000 0.030523 0.000000
# 6 0.000000 0.000000 0.000000 0.000000 0.000000 -0.160781
#
#
# Mechanical properties :
#
#
# Convention : Reuss Voigt Hill
#
# Bulk Modulus (GPa) = 76.38519 81.68497 79.03508
# Shear Modulus (GPa) = -102.34116 28.41800 -36.96158
#
# Velocity S-wave (km/s) = -7.27942 3.83591 -4.37468
# Velocity P-wave (km/s) = 5.57698 7.86852 3.92497
#
# Compressibility (1/GPa) = 0.01309154
#
# Stress axis : x y z
#
# Youngs Moduli (GPa) = 69.91805 96.98595 111.02638
#
# Poissons Ratio (x) = 0.30259 0.46020
# Poissons Ratio (y) = 0.21814 0.33300
# Poissons Ratio (z) = 0.28981 0.29089
#
# Static dielectric constant tensor:
#      x y z
#    x 3.307510 0.000000 0.000000 
#    y 0.000000 3.472710 0.000000 
#    z 0.000000 0.000000 3.869870 
# 
# 
# High freq. dielectric constant tensor:
#      x y z
#    x 1.739960 0.000000 0.000000 
#    y 0.000000 1.744310 0.000000 
#    z 0.000000 0.000000 1.775970 
# 
# From -- ./inp_files/1788.got.cif
#   From: 2010.03.12/outbox.cif.g09.slc.cpg/sg20_1_cif.got.tgz:1788.got - 2010.04.14 01:38:04.
