data_PCOD8159849
_publ_section_title
;
Structure prediction by ZEFSAII (Michael W. Deem and Ramdas Pophale) SiO2 
 PCOD8159849
Probable space group: C 2 2 21
;
_chemical_formula_sum "Si O2"
_cell_formula_units_Z 60
_cell_length_a 5.587151
_cell_length_b 20.977371
_cell_length_c 22.834749
_cell_angle_alpha 90.000000
_cell_angle_beta 90.000000
_cell_angle_gamma 90.000000
_cell_volume 2676.317970
_symmetry_space_group_name_H-M "C 2 2 21"
_symmetry_group_IT_number 20
_symmetry_cell_setting 'orthorhombic'
loop_
_space_group_symop_operation_xyz
x,y,z
-x,-y,1/2+z
x,-y,-z
-x,y,1/2-z
1/2+x,1/2+y,z
1/2-x,1/2-y,1/2+z
1/2+x,1/2-y,-z
1/2-x,1/2+y,1/2-z
loop_
_atom_site_type_symbol
_atom_site_label
_atom_site_fract_x
_atom_site_fract_y
_atom_site_fract_z
Si Si1 0.857221 0.148951 0.196488
Si Si2 0.328139 0.856986 0.106609
Si Si3 0.468841 0.442084 0.901167
Si Si4 0.551609 0.732875 0.818897
Si Si5 0.466902 0.349593 0.501637
Si Si6 0.710261 0.760474 0.074787
Si Si7 0.960464 0.492787 0.130036
Si Si8 0.500000 0.949732 0.750000
O O1 0.708780 0.204978 0.166227
O O2 0.709463 0.093920 0.227211
O O3 0.000000 0.181591 0.250000
O O4 0.012463 0.114094 0.146584
O O5 0.173233 0.833961 0.162548
O O6 0.457349 0.793533 0.084354
O O7 0.492711 0.916548 0.124006
O O8 0.174507 0.881126 0.051820
O O9 0.421695 0.409599 0.964147
O O10 0.717357 0.482921 0.903212
O O11 0.217673 0.479176 0.890055
O O12 0.500000 0.729684 0.750000
O O13 0.321588 0.742563 0.860083
O O14 0.307608 0.310295 0.548481
O O15 0.657778 0.301987 0.474062
O O16 0.907228 0.505738 0.197910
#
# Coordination Sequence:
#
# PCOD8159849 Si02
#       8
#     8   8   8   8   8   8   8   4
#     4  11  22  41  69 103 142 181 242 306 365 428
#     4  11  27  49  71 102 149 197 245 301 370 458
#     4  11  27  45  76 105 142 192 249 303 363 433
#     4  11  27  42  73 111 146 187 244 313 373 446
#     4  11  25  45  73 104 141 191 244 309 375 441
#     4  11  25  46  71 105 143 191 241 307 385 439
#     4  11  27  48  71 109 143 200 246 299 368 440
#     4  10  22  44  68  98 146 192 240 298 362 434
#
# _framework density 22.418859000000001
#
# number of rings (size 3 to 8) (size 9 to 14) (size 15 to 20)
#    0.000    1.067    3.333    0.800   14.933    1.600 
#    2.400    0.000    0.000    0.000    0.000    0.000 
#    0.000    0.000    0.000    0.000    0.000    0.000 
#
# Total GULP energy -371794.885328 kJ/mol
# GULP energy per Si atom -12393.162844 kJ/mol
# Density = 2.236783 g / cm^3
# Si number density = 22.418859 Si / 1000 Ang^3
#
#
#
# Elastic Constant Matrix: (Units=GPa)
#
#
# Indices 1 2 3 4 5 6 
#
# 1 84.3352 20.2610 17.5104 0.0000 0.0000 0.0000
# 2 20.2610 100.1677 44.9820 0.0000 0.0000 0.0000
# 3 17.5104 44.9820 105.7482 0.0000 0.0000 0.0000
# 4 0.0000 0.0000 0.0000 28.2838 0.0000 0.0000
# 5 0.0000 0.0000 0.0000 0.0000 14.4170 0.0000
# 6 0.0000 0.0000 0.0000 0.0000 0.0000 32.2738
#
#
#
# Elastic Compliance Matrix: (Units=1/GPa)
#
#
# Indices 1 2 3 4 5 6 
#
# 1 0.012593 -0.001991 -0.001238 0.000000 0.000000 0.000000
# 2 -0.001991 0.012655 -0.005053 0.000000 0.000000 0.000000
# 3 -0.001238 -0.005053 0.011811 0.000000 0.000000 0.000000
# 4 0.000000 0.000000 0.000000 0.035356 0.000000 0.000000
# 5 0.000000 0.000000 0.000000 0.000000 0.069363 0.000000
# 6 0.000000 0.000000 0.000000 0.000000 0.000000 0.030985
#
#
# Mechanical properties :
#
#
# Convention : Reuss Voigt Hill
#
# Bulk Modulus (GPa) = 48.79572 50.63976 49.71774
# Shear Modulus (GPa) = 25.48942 28.82808 27.15875
#
# Velocity S-wave (km/s) = 3.37555 3.58981 3.48433
# Velocity P-wave (km/s) = 6.08319 6.31026 6.19776
#
# Compressibility (1/GPa) = 0.02049360
#
# Stress axis : x y z
#
# Youngs Moduli (GPa) = 79.40981 79.01785 84.66638
#
# Poissons Ratio (x) = 0.15733 0.10484
# Poissons Ratio (y) = 0.15812 0.42786
# Poissons Ratio (z) = 0.09833 0.39932
#
# Static dielectric constant tensor:
#      x y z
#    x 4.021280 0.000000 0.000000 
#    y 0.000000 3.965050 0.000000 
#    z 0.000000 0.000000 4.329020 
# 
# 
# High freq. dielectric constant tensor:
#      x y z
#    x 1.877500 0.000000 0.000000 
#    y 0.000000 1.881380 0.000000 
#    z 0.000000 0.000000 1.900340 
# 
# From -- ./inp_files/26217.got.cif
#   From: 2010.03.12/outbox.cif.g09.slc.cpg/sg20_14_cif.got.tgz:26217.got - 2010.04.14 01:38:04.
