data_PCOD8159550
_publ_section_title
;
Structure prediction by ZEFSAII (Michael W. Deem and Ramdas Pophale) SiO2 
 PCOD8159550
Probable space group: C 2 2 21
;
_chemical_formula_sum "Si O2"
_cell_formula_units_Z 40
_cell_length_a 23.415050
_cell_length_b 9.011345
_cell_length_c 9.084806
_cell_angle_alpha 90.000000
_cell_angle_beta 90.000000
_cell_angle_gamma 90.000000
_cell_volume 1916.904002
_symmetry_space_group_name_H-M "C 2 2 21"
_symmetry_group_IT_number 20
_symmetry_cell_setting 'orthorhombic'
loop_
_space_group_symop_operation_xyz
x,y,z
-x,-y,1/2+z
x,-y,-z
-x,y,1/2-z
1/2+x,1/2+y,z
1/2-x,1/2-y,1/2+z
1/2+x,1/2-y,-z
1/2-x,1/2+y,1/2-z
loop_
_atom_site_type_symbol
_atom_site_label
_atom_site_fract_x
_atom_site_fract_y
_atom_site_fract_z
Si Si1 0.345854 0.599169 0.365864
Si Si2 0.681923 0.684033 0.707516
Si Si3 0.554011 0.689350 0.657263
Si Si4 0.946046 0.161676 0.168638
Si Si5 0.731485 0.833329 0.974242
O O1 0.373173 0.500000 0.500000
O O2 0.310881 0.487222 0.259373
O O3 0.391915 0.690582 0.272065
O O4 0.306070 0.723534 0.430056
O O5 0.615640 0.734246 0.726306
O O6 0.723973 0.788712 0.803713
O O7 0.703548 0.687190 0.537358
O O8 0.500000 0.756703 0.750000
O O9 0.547452 0.513915 0.651119
O O10 0.556042 0.745271 0.488539
O O11 0.000000 0.231972 0.250000
O O12 0.709793 0.000000 0.000000
#
# Coordination Sequence:
#
# PCOD8159550 Si02
#       5
#     8   8   8   8   8
#     4   9  20  36  56  86 119 147 191 244 288 337
#     4  10  22  37  60  84 117 150 191 245 284 347
#     4   9  19  32  52  85 117 143 183 241 304 337
#     4   9  18  28  56  84 113 145 184 237 294 343
#     4  11  23  37  59  83 116 156 193 231 288 341
#
# _framework density 20.866983000000001
#
# number of rings (size 3 to 8) (size 9 to 14) (size 15 to 20)
#    0.000    2.400    0.000    1.200   19.600    0.000 
#    0.000    0.000    0.000    1.200    0.000    0.000 
#    0.000    0.000    0.000    0.000    0.000    0.000 
#
# Total GULP energy -247805.477961 kJ/mol
# GULP energy per Si atom -12390.273898 kJ/mol
# Density = 2.081949 g / cm^3
# Si number density = 20.866983 Si / 1000 Ang^3
#
#
#
# Elastic Constant Matrix: (Units=GPa)
#
#
# Indices 1 2 3 4 5 6 
#
# 1 108.0980 24.6376 55.7824 0.0000 0.0000 0.0000
# 2 24.6376 47.4322 7.8931 0.0000 0.0000 0.0000
# 3 55.7824 7.8931 119.7693 0.0000 0.0000 0.0000
# 4 0.0000 0.0000 0.0000 13.7555 0.0000 0.0000
# 5 0.0000 0.0000 0.0000 0.0000 46.1437 0.0000
# 6 0.0000 0.0000 0.0000 0.0000 0.0000 4.3157
#
#
#
# Elastic Compliance Matrix: (Units=1/GPa)
#
#
# Indices 1 2 3 4 5 6 
#
# 1 0.013745 -0.006142 -0.005997 0.000000 0.000000 0.000000
# 2 -0.006142 0.024061 0.001275 0.000000 0.000000 0.000000
# 3 -0.005997 0.001275 0.011059 0.000000 0.000000 0.000000
# 4 0.000000 0.000000 0.000000 0.072698 0.000000 0.000000
# 5 0.000000 0.000000 0.000000 0.000000 0.021671 0.000000
# 6 0.000000 0.000000 0.000000 0.000000 0.000000 0.231714
#
#
# Mechanical properties :
#
#
# Convention : Reuss Voigt Hill
#
# Bulk Modulus (GPa) = 36.85063 50.21396 43.53229
# Shear Modulus (GPa) = 12.32372 25.30874 18.81623
#
# Velocity S-wave (km/s) = 2.43283 3.48639 3.00613
# Velocity P-wave (km/s) = 5.05862 6.35001 5.74075
#
# Compressibility (1/GPa) = 0.02713658
#
# Stress axis : x y z
#
# Youngs Moduli (GPa) = 72.75148 41.56145 90.42788
#
# Poissons Ratio (x) = 0.25526 0.54231
# Poissons Ratio (y) = 0.44682 -0.11528
# Poissons Ratio (z) = 0.43630 -0.05298
#
# Static dielectric constant tensor:
#      x y z
#    x 3.799740 0.000000 0.000000 
#    y 0.000000 3.298420 0.000000 
#    z 0.000000 0.000000 4.329680 
# 
# 
# High freq. dielectric constant tensor:
#      x y z
#    x 1.815450 0.000000 0.000000 
#    y 0.000000 1.751080 0.000000 
#    z 0.000000 0.000000 1.840640 
# 
# From -- ./inp_files/6115.got.cif
#   From: 2010.03.12/outbox.cif.g09.slc.cpg/sg20_4_cif.got.tgz:6115.got - 2010.04.14 01:38:04.
