data_PCOD8159581
_publ_section_title
;
Structure prediction by ZEFSAII (Michael W. Deem and Ramdas Pophale) SiO2 
 PCOD8159581
Probable space group: C 2 2 21
;
_chemical_formula_sum "Si O2"
_cell_formula_units_Z 52
_cell_length_a 19.406785
_cell_length_b 5.282132
_cell_length_c 21.932238
_cell_angle_alpha 90.000000
_cell_angle_beta 90.000000
_cell_angle_gamma 90.000000
_cell_volume 2248.256173
_symmetry_space_group_name_H-M "C 2 2 21"
_symmetry_group_IT_number 20
_symmetry_cell_setting 'orthorhombic'
loop_
_space_group_symop_operation_xyz
x,y,z
-x,-y,1/2+z
x,-y,-z
-x,y,1/2-z
1/2+x,1/2+y,z
1/2-x,1/2-y,1/2+z
1/2+x,1/2-y,-z
1/2-x,1/2+y,1/2-z
loop_
_atom_site_type_symbol
_atom_site_label
_atom_site_fract_x
_atom_site_fract_y
_atom_site_fract_z
Si Si1 0.394886 0.500000 0.000000
Si Si2 0.639651 0.715461 0.620996
Si Si3 0.615989 0.980569 0.066219
Si Si4 0.124797 0.041568 0.864376
Si Si5 0.757416 0.156779 0.286864
Si Si6 0.535028 0.905646 0.425528
Si Si7 0.483403 0.460280 0.818317
O O1 0.348863 0.528222 0.937667
O O2 0.447859 0.270833 0.984274
O O3 0.710079 0.795041 0.653625
O O4 0.588329 0.611580 0.673672
O O5 0.604326 0.941831 0.585577
O O6 0.653920 0.197640 0.106545
O O7 0.625222 0.694035 0.089176
O O8 0.535072 0.056457 0.059889
O O9 0.650862 0.000000 0.000000
O O10 0.169941 0.958144 0.806877
O O11 0.048959 0.121583 0.840968
O O12 0.773074 0.427263 0.254497
O O13 0.520168 0.781700 0.360445
O O14 0.500000 0.372535 0.750000
#
# Coordination Sequence:
#
# PCOD8159581 Si02
#       7
#     4   8   8   8   8   8   8
#     4  10  22  40  68 104 140 184 246 310 362 430
#     4  11  23  43  70 102 140 187 245 298 374 431
#     4  11  22  41  68  98 143 177 227 289 363 416
#     4  11  24  44  64 105 131 184 235 286 348 434
#     4  12  29  50  75  98 148 197 240 296 371 448
#     4  10  22  38  66 104 137 184 236 303 362 433
#     4  10  22  38  65  99 139 174 236 297 356 418
#
# _framework density 23.129038999999999
#
# number of rings (size 3 to 8) (size 9 to 14) (size 15 to 20)
#    0.000    1.231    1.538    3.692   10.769    0.615 
#    1.385    1.538    0.000    0.000    0.000    0.000 
#    0.000    0.000    0.000    0.000    0.000    0.000 
#
# Total GULP energy -322103.899433 kJ/mol
# GULP energy per Si atom -12388.611517 kJ/mol
# Density = 2.307640 g / cm^3
# Si number density = 23.129039 Si / 1000 Ang^3
#
#
#
# Elastic Constant Matrix: (Units=GPa)
#
#
# Indices 1 2 3 4 5 6 
#
# 1 41.9161 9.3809 12.3258 0.0000 0.0000 0.0000
# 2 9.3809 73.8304 26.0597 0.0000 0.0000 0.0000
# 3 12.3258 26.0597 146.2679 0.0000 0.0000 0.0000
# 4 0.0000 0.0000 0.0000 35.7079 0.0000 0.0000
# 5 0.0000 0.0000 0.0000 0.0000 33.0217 0.0000
# 6 0.0000 0.0000 0.0000 0.0000 0.0000 26.6541
#
#
#
# Elastic Compliance Matrix: (Units=1/GPa)
#
#
# Indices 1 2 3 4 5 6 
#
# 1 0.024918 -0.002588 -0.001639 0.000000 0.000000 0.000000
# 2 -0.002588 0.014722 -0.002405 0.000000 0.000000 0.000000
# 3 -0.001639 -0.002405 0.007403 0.000000 0.000000 0.000000
# 4 0.000000 0.000000 0.000000 0.028005 0.000000 0.000000
# 5 0.000000 0.000000 0.000000 0.000000 0.030283 0.000000
# 6 0.000000 0.000000 0.000000 0.000000 0.000000 0.037518
#
#
# Mechanical properties :
#
#
# Convention : Reuss Voigt Hill
#
# Bulk Modulus (GPa) = 29.60246 39.72749 34.66498
# Shear Modulus (GPa) = 29.87346 33.35994 31.61670
#
# Velocity S-wave (km/s) = 3.59778 3.80194 3.70127
# Velocity P-wave (km/s) = 5.48501 6.04042 5.76940
#
# Compressibility (1/GPa) = 0.03378097
#
# Stress axis : x y z
#
# Youngs Moduli (GPa) = 40.13128 67.92464 135.07414
#
# Poissons Ratio (x) = 0.17577 0.22136
# Poissons Ratio (y) = 0.10385 0.32484
# Poissons Ratio (z) = 0.06577 0.16335
#
# Static dielectric constant tensor:
#      x y z
#    x 3.901170 0.000000 0.000000 
#    y 0.000000 4.243030 0.000000 
#    z 0.000000 0.000000 4.572380 
# 
# 
# High freq. dielectric constant tensor:
#      x y z
#    x 1.885500 0.000000 0.000000 
#    y 0.000000 1.914750 0.000000 
#    z 0.000000 0.000000 1.934400 
# 
# From -- ./inp_files/27883.got.cif
#   From: 2010.03.12/outbox.cif.g09.slc.cpg/sg20_14_cif.got.tgz:27883.got - 2010.04.14 01:38:04.
