data_PCOD8159097
_publ_section_title
;
Structure prediction by ZEFSAII (Michael W. Deem and Ramdas Pophale) SiO2 
 PCOD8159097
Probable space group: C 2 2 21
;
_chemical_formula_sum "Si O2"
_cell_formula_units_Z 64
_cell_length_a 22.438552
_cell_length_b 16.024706
_cell_length_c 9.040018
_cell_angle_alpha 90.000000
_cell_angle_beta 90.000000
_cell_angle_gamma 90.000000
_cell_volume 3250.530110
_symmetry_space_group_name_H-M "C 2 2 21"
_symmetry_group_IT_number 20
_symmetry_cell_setting 'orthorhombic'
loop_
_space_group_symop_operation_xyz
x,y,z
-x,-y,1/2+z
x,-y,-z
-x,y,1/2-z
1/2+x,1/2+y,z
1/2-x,1/2-y,1/2+z
1/2+x,1/2-y,-z
1/2-x,1/2+y,1/2-z
loop_
_atom_site_type_symbol
_atom_site_label
_atom_site_fract_x
_atom_site_fract_y
_atom_site_fract_z
Si Si1 0.301329 0.578928 0.926071
Si Si2 0.994684 0.758095 0.573954
Si Si3 0.526558 0.925979 0.409246
Si Si4 0.888457 0.776689 0.064491
Si Si5 0.831761 0.406760 0.460234
Si Si6 0.287906 0.417354 0.416709
Si Si7 0.124842 0.762992 0.088253
Si Si8 0.845802 0.618159 0.884439
O O1 0.340244 0.655504 0.972385
O O2 0.237421 0.591954 0.001528
O O3 0.295796 0.562838 0.753479
O O4 0.333089 0.500000 0.000000
O O5 0.931466 0.789417 0.512548
O O6 0.000000 0.769945 0.750000
O O7 0.005719 0.662247 0.524215
O O8 0.047041 0.808942 0.491450
O O9 0.500000 0.933775 0.250000
O O10 0.598050 0.942351 0.412399
O O11 0.495919 0.000000 0.500000
O O12 0.891469 0.761144 0.239398
O O13 0.865809 0.702740 0.961299
O O14 0.858152 0.500000 0.500000
O O15 0.859028 0.333237 0.558788
O O16 0.840614 0.376162 0.292382
O O17 0.312726 0.500000 0.500000
O O18 0.323639 0.331143 0.453335
O O19 0.217395 0.408575 0.455901
#
# Coordination Sequence:
#
# PCOD8159097 Si02
#       8
#     8   8   8   8   8   8   8   8
#     4   9  20  37  57  84 115 147 187 239 292 346
#     4  10  22  39  56  78 108 148 192 235 288 352
#     4  10  21  34  51  77 109 145 187 228 273 329
#     4  10  21  37  58  84 113 148 191 238 293 347
#     4  10  21  36  56  84 118 154 193 233 282 345
#     4  10  22  38  59  87 116 149 194 243 295 350
#     4  11  22  38  59  85 116 150 191 244 294 345
#     4  10  21  37  56  83 118 155 195 238 286 348
#
# _framework density 19.689094999999998
#
# number of rings (size 3 to 8) (size 9 to 14) (size 15 to 20)
#    0.000    2.000    0.000    3.750    0.000   11.000 
#    0.000    0.625    0.000    0.000    0.000    0.000 
#    0.000    0.000    0.000    0.000    0.000    0.000 
#
# Total GULP energy -396480.738043 kJ/mol
# GULP energy per Si atom -12390.023064 kJ/mol
# Density = 1.964428 g / cm^3
# Si number density = 19.689095 Si / 1000 Ang^3
#
#
#
# Elastic Constant Matrix: (Units=GPa)
#
#
# Indices 1 2 3 4 5 6 
#
# 1 116.2016 47.6369 39.8393 0.0000 0.0000 0.0000
# 2 47.6369 83.7681 40.0513 0.0000 0.0000 0.0000
# 3 39.8393 40.0513 64.4796 0.0000 0.0000 0.0000
# 4 0.0000 0.0000 0.0000 31.9236 0.0000 0.0000
# 5 0.0000 0.0000 0.0000 0.0000 31.4664 0.0000
# 6 0.0000 0.0000 0.0000 0.0000 0.0000 20.8256
#
#
#
# Elastic Compliance Matrix: (Units=1/GPa)
#
#
# Indices 1 2 3 4 5 6 
#
# 1 0.012094 -0.004701 -0.004552 0.000000 0.000000 0.000000
# 2 -0.004701 0.018808 -0.008778 0.000000 0.000000 0.000000
# 3 -0.004552 -0.008778 0.023774 0.000000 0.000000 0.000000
# 4 0.000000 0.000000 0.000000 0.031325 0.000000 0.000000
# 5 0.000000 0.000000 0.000000 0.000000 0.031780 0.000000
# 6 0.000000 0.000000 0.000000 0.000000 0.000000 0.048018
#
#
# Mechanical properties :
#
#
# Convention : Reuss Voigt Hill
#
# Bulk Modulus (GPa) = 53.72531 57.72269 55.72400
# Shear Modulus (GPa) = 24.03102 25.97125 25.00114
#
# Velocity S-wave (km/s) = 3.49739 3.63584 3.56729
# Velocity P-wave (km/s) = 6.60720 6.85613 6.73281
#
# Compressibility (1/GPa) = 0.01861320
#
# Stress axis : x y z
#
# Youngs Moduli (GPa) = 82.68883 53.16905 42.06294
#
# Poissons Ratio (x) = 0.24994 0.19148
# Poissons Ratio (y) = 0.38870 0.36923
# Poissons Ratio (z) = 0.37642 0.46672
#
# Static dielectric constant tensor:
#      x y z
#    x 4.100540 0.000000 0.000000 
#    y 0.000000 4.210130 0.000000 
#    z 0.000000 0.000000 3.495590 
# 
# 
# High freq. dielectric constant tensor:
#      x y z
#    x 1.778090 0.000000 0.000000 
#    y 0.000000 1.754680 0.000000 
#    z 0.000000 0.000000 1.770760 
# 
# From -- ./inp_files/10803.got.cif
#   From: 2010.03.12/outbox.cif.g09.slc.cpg/sg20_6_cif.got.tgz:10803.got - 2010.04.14 01:38:04.
