data_PCOD8159547
_publ_section_title
;
Structure prediction by ZEFSAII (Michael W. Deem and Ramdas Pophale) SiO2 
 PCOD8159547
Probable space group: C 2 2 21
;
_chemical_formula_sum "Si O2"
_cell_formula_units_Z 64
_cell_length_a 25.216654
_cell_length_b 10.905933
_cell_length_c 11.657680
_cell_angle_alpha 90.000000
_cell_angle_beta 90.000000
_cell_angle_gamma 90.000000
_cell_volume 3205.991855
_symmetry_space_group_name_H-M "C 2 2 21"
_symmetry_group_IT_number 20
_symmetry_cell_setting 'orthorhombic'
loop_
_space_group_symop_operation_xyz
x,y,z
-x,-y,1/2+z
x,-y,-z
-x,y,1/2-z
1/2+x,1/2+y,z
1/2-x,1/2-y,1/2+z
1/2+x,1/2-y,-z
1/2-x,1/2+y,1/2-z
loop_
_atom_site_type_symbol
_atom_site_label
_atom_site_fract_x
_atom_site_fract_y
_atom_site_fract_z
Si Si1 0.164377 0.575482 0.769453
Si Si2 0.757823 0.371310 0.448832
Si Si3 0.388016 0.131811 0.960841
Si Si4 0.329514 0.186055 0.365788
Si Si5 0.516787 0.697361 0.425955
Si Si6 0.419963 0.127708 0.545994
Si Si7 0.463438 0.440890 0.153465
Si Si8 0.147158 0.820042 0.354492
O O1 0.212033 0.654565 0.828149
O O2 0.157763 0.614691 0.636152
O O3 0.178896 0.432517 0.784262
O O4 0.110276 0.601730 0.836303
O O5 0.778955 0.500000 0.500000
O O6 0.778863 0.281712 0.550987
O O7 0.695222 0.375965 0.428931
O O8 0.435895 0.207585 0.906986
O O9 0.368349 0.197832 0.076536
O O10 0.409447 0.000000 0.000000
O O11 0.381325 0.177174 0.446230
O O12 0.335539 0.296156 0.275971
O O13 0.462402 0.771249 0.415950
O O14 0.514693 0.627667 0.544627
O O15 0.525690 0.586775 0.336638
O O16 0.446059 0.000000 0.500000
O O17 0.500000 0.377906 0.250000
O O18 0.400261 0.417768 0.157638
#
# Coordination Sequence:
#
# PCOD8159547 Si02
#       8
#     8   8   8   8   8   8   8   8
#     4   9  19  37  56  87 116 148 187 247 299 349
#     4   9  21  37  60  83 115 151 201 239 292 362
#     4  11  22  35  55  86 122 143 188 244 304 345
#     4   9  18  38  59  86 112 152 189 246 301 345
#     4  10  22  37  57  85 115 156 196 239 287 344
#     4   9  18  35  62  85 115 147 195 238 298 356
#     4  10  23  40  56  81 118 160 201 233 280 347
#     4  11  22  36  62  83 118 159 193 242 295 358
#
# _framework density 19.962620999999999
#
# number of rings (size 3 to 8) (size 9 to 14) (size 15 to 20)
#    0.000    2.250    1.250    2.625    7.000    0.000 
#    0.000    0.000    0.000    0.000    0.000    0.000 
#    0.000    0.000    0.000    0.000    0.000    0.000 
#
# Total GULP energy -396440.250676 kJ/mol
# GULP energy per Si atom -12388.757834 kJ/mol
# Density = 1.991718 g / cm^3
# Si number density = 19.962621 Si / 1000 Ang^3
#
#
#
# Elastic Constant Matrix: (Units=GPa)
#
#
# Indices 1 2 3 4 5 6 
#
# 1 120.0149 37.2458 33.8890 0.0000 0.0000 0.0000
# 2 37.2458 80.2353 22.4585 0.0000 0.0000 0.0000
# 3 33.8890 22.4585 92.3286 0.0000 0.0000 0.0000
# 4 0.0000 0.0000 0.0000 -5.1249 0.0000 0.0000
# 5 0.0000 0.0000 0.0000 0.0000 26.5680 0.0000
# 6 0.0000 0.0000 0.0000 0.0000 0.0000 18.5290
#
#
#
# Elastic Compliance Matrix: (Units=1/GPa)
#
#
# Indices 1 2 3 4 5 6 
#
# 1 0.010381 -0.004027 -0.002831 0.000000 0.000000 0.000000
# 2 -0.004027 0.014936 -0.002155 0.000000 0.000000 0.000000
# 3 -0.002831 -0.002155 0.012394 0.000000 0.000000 0.000000
# 4 0.000000 0.000000 0.000000 -0.195126 0.000000 0.000000
# 5 0.000000 0.000000 0.000000 0.000000 0.037639 0.000000
# 6 0.000000 0.000000 0.000000 0.000000 0.000000 0.053969
#
#
# Mechanical properties :
#
#
# Convention : Reuss Voigt Hill
#
# Bulk Modulus (GPa) = 50.79789 53.30725 52.05257
# Shear Modulus (GPa) = -121.30462 21.26012 -50.02225
#
# Velocity S-wave (km/s) = -7.80370 3.26697 -5.01122
# Velocity P-wave (km/s) = 7.46293 6.40252 2.71137
#
# Compressibility (1/GPa) = 0.01968586
#
# Stress axis : x y z
#
# Youngs Moduli (GPa) = 96.32671 66.95330 80.68298
#
# Poissons Ratio (x) = 0.26960 0.22841
# Poissons Ratio (y) = 0.38788 0.17388
# Poissons Ratio (z) = 0.27270 0.14429
#
# Static dielectric constant tensor:
#      x y z
#    x 3.467940 0.000000 0.000000 
#    y 0.000000 3.613940 0.000000 
#    z 0.000000 0.000000 3.693250 
# 
# 
# High freq. dielectric constant tensor:
#      x y z
#    x 1.770220 0.000000 0.000000 
#    y 0.000000 1.758010 0.000000 
#    z 0.000000 0.000000 1.790750 
# 
# From -- ./inp_files/16801.got.cif
#   From: 2010.03.12/outbox.cif.g09.slc.cpg/sg20_9_cif.got.tgz:16801.got - 2010.04.14 01:38:04.
