data_PCOD8159060
_publ_section_title
;
Structure prediction by ZEFSAII (Michael W. Deem and Ramdas Pophale) SiO2 
 PCOD8159060
Probable space group: C 2 2 21
;
_chemical_formula_sum "Si O2"
_cell_formula_units_Z 60
_cell_length_a 14.270671
_cell_length_b 11.447954
_cell_length_c 15.944044
_cell_angle_alpha 90.000000
_cell_angle_beta 90.000000
_cell_angle_gamma 90.000000
_cell_volume 2604.778232
_symmetry_space_group_name_H-M "C 2 2 21"
_symmetry_group_IT_number 20
_symmetry_cell_setting 'orthorhombic'
loop_
_space_group_symop_operation_xyz
x,y,z
-x,-y,1/2+z
x,-y,-z
-x,y,1/2-z
1/2+x,1/2+y,z
1/2-x,1/2-y,1/2+z
1/2+x,1/2-y,-z
1/2-x,1/2+y,1/2-z
loop_
_atom_site_type_symbol
_atom_site_label
_atom_site_fract_x
_atom_site_fract_y
_atom_site_fract_z
Si Si1 0.665306 0.624915 0.044099
Si Si2 0.859796 0.353496 0.871272
Si Si3 0.171585 0.425674 0.262663
Si Si4 0.845125 0.791765 0.295635
Si Si5 0.114808 0.000000 0.500000
Si Si6 0.398621 0.673414 0.273820
Si Si7 0.015137 0.197682 0.924494
Si Si8 0.255530 0.415176 0.856514
O O1 0.774903 0.653174 0.061259
O O2 0.611246 0.637286 0.130649
O O3 0.655249 0.500000 0.000000
O O4 0.606186 0.713088 0.984471
O O5 0.874829 0.479736 0.826653
O O6 0.842915 0.256119 0.799370
O O7 0.953671 0.317283 0.921930
O O8 0.272617 0.397816 0.303520
O O9 0.108592 0.311217 0.249929
O O10 0.189110 0.475776 0.168745
O O11 0.947409 0.829315 0.329501
O O12 0.811086 0.696273 0.364341
O O13 0.183322 0.930408 0.561345
O O14 0.050881 0.909271 0.450678
O O15 0.500000 0.628148 0.250000
O O16 0.321347 0.601889 0.224262
#
# Coordination Sequence:
#
# PCOD8159060 Si02
#       8
#     8   8   8   8   4   8   8   8
#     4  12  25  50  72 107 152 200 246 311 380 443
#     4  11  24  48  75 106 144 193 254 306 373 448
#     4  10  20  43  76  98 135 198 238 303 367 440
#     4  10  22  45  73 101 135 189 250 301 358 452
#     4  12  26  42  64 112 146 184 238 324 362 436
#     4  11  24  44  71 107 145 190 256 305 370 454
#     4  12  27  41  71 107 143 183 245 309 372 432
#     4  10  23  41  69  98 142 193 242 296 379 430
#
# _framework density 23.034590999999999
#
# number of rings (size 3 to 8) (size 9 to 14) (size 15 to 20)
#    0.000    1.067    4.667    2.800    1.867    2.133 
#    2.400    0.000    1.467    0.000    0.000    0.000 
#    0.000    0.000    0.000    0.000    0.000    0.000 
#
# Total GULP energy -371763.796999 kJ/mol
# GULP energy per Si atom -12392.126567 kJ/mol
# Density = 2.298216 g / cm^3
# Si number density = 23.034591 Si / 1000 Ang^3
#
#
#
# Elastic Constant Matrix: (Units=GPa)
#
#
# Indices 1 2 3 4 5 6 
#
# 1 94.6761 23.7978 55.2081 0.0000 0.0000 0.0000
# 2 23.7978 91.2865 51.5985 0.0000 0.0000 0.0000
# 3 55.2081 51.5985 116.9485 0.0000 0.0000 0.0000
# 4 0.0000 0.0000 0.0000 25.5301 0.0000 0.0000
# 5 0.0000 0.0000 0.0000 0.0000 407.4484 0.0000
# 6 0.0000 0.0000 0.0000 0.0000 0.0000 44.8917
#
#
#
# Elastic Compliance Matrix: (Units=1/GPa)
#
#
# Indices 1 2 3 4 5 6 
#
# 1 0.014575 0.000119 -0.006933 0.000000 0.000000 0.000000
# 2 0.000119 0.014595 -0.006496 0.000000 0.000000 0.000000
# 3 -0.006933 -0.006496 0.014690 0.000000 0.000000 0.000000
# 4 0.000000 0.000000 0.000000 0.039169 0.000000 0.000000
# 5 0.000000 0.000000 0.000000 0.000000 0.002454 0.000000
# 6 0.000000 0.000000 0.000000 0.000000 0.000000 0.022276
#
#
# Mechanical properties :
#
#
# Convention : Reuss Voigt Hill
#
# Bulk Modulus (GPa) = 58.00242 62.67996 60.34119
# Shear Modulus (GPa) = 35.68224 107.06117 71.37170
#
# Velocity S-wave (km/s) = 3.94009 6.82491 5.57242
# Velocity P-wave (km/s) = 6.77749 9.45389 8.22528
#
# Compressibility (1/GPa) = 0.01724066
#
# Stress axis : x y z
#
# Youngs Moduli (GPa) = 68.60940 68.51630 68.07505
#
# Poissons Ratio (x) = -0.00817 0.47198
# Poissons Ratio (y) = -0.00818 0.44220
# Poissons Ratio (z) = 0.47568 0.44506
#
# Static dielectric constant tensor:
#      x y z
#    x 4.457920 0.000000 0.000000 
#    y 0.000000 -4.003580 0.000000 
#    z 0.000000 0.000000 4.079000 
# 
# 
# High freq. dielectric constant tensor:
#      x y z
#    x 1.916350 0.000000 0.000000 
#    y 0.000000 1.906430 0.000000 
#    z 0.000000 0.000000 1.907120 
# 
# From -- ./inp_files/24949.got.cif
#   From: 2010.03.12/outbox.cif.g09.slc.cpg/sg20_13_cif.got.tgz:24949.got - 2010.04.14 01:38:04.
