data_PCOD8159919
_publ_section_title
;
Structure prediction by ZEFSAII (Michael W. Deem and Ramdas Pophale) SiO2 
 PCOD8159919
Probable space group: C 2 2 21
;
_chemical_formula_sum "Si O2"
_cell_formula_units_Z 44
_cell_length_a 18.534966
_cell_length_b 12.774889
_cell_length_c 8.769357
_cell_angle_alpha 90.000000
_cell_angle_beta 90.000000
_cell_angle_gamma 90.000000
_cell_volume 2076.427058
_symmetry_space_group_name_H-M "C 2 2 21"
_symmetry_group_IT_number 20
_symmetry_cell_setting 'orthorhombic'
loop_
_space_group_symop_operation_xyz
x,y,z
-x,-y,1/2+z
x,-y,-z
-x,y,1/2-z
1/2+x,1/2+y,z
1/2-x,1/2-y,1/2+z
1/2+x,1/2-y,-z
1/2-x,1/2+y,1/2-z
loop_
_atom_site_type_symbol
_atom_site_label
_atom_site_fract_x
_atom_site_fract_y
_atom_site_fract_z
Si Si1 0.718992 0.587883 0.803826
Si Si2 0.560402 0.168307 0.354991
Si Si3 0.033394 0.211235 0.087012
Si Si4 0.094261 0.000000 0.000000
Si Si5 0.658620 0.000000 0.500000
Si Si6 0.160564 0.708811 0.092516
Si Si7 0.766377 0.500000 0.500000
O O1 0.644582 0.540919 0.864142
O O2 0.724691 0.707341 0.870990
O O3 0.719048 0.567602 0.621103
O O4 0.790701 0.528813 0.858718
O O5 0.500000 0.108642 0.250000
O O6 0.522987 0.254147 0.459844
O O7 0.612637 0.229314 0.241487
O O8 0.605170 0.092524 0.460438
O O9 0.000000 0.242384 0.250000
O O10 0.042718 0.087230 0.071933
O O11 0.112611 0.265053 0.058780
O O12 0.186204 0.588843 0.084366
#
# Coordination Sequence:
#
# PCOD8159919 Si02
#       7
#     8   8   8   4   4   8   4
#     4  10  24  41  68  95 131 175 219 283 330 401
#     4  10  23  41  61  90 130 172 212 275 324 393
#     4  10  23  40  69  94 129 180 222 276 335 399
#     4   9  22  46  61  97 136 163 228 282 336 405
#     4  11  22  43  64  88 133 171 214 272 344 379
#     4  10  24  43  61 101 137 163 232 272 329 410
#     4  12  24  41  71  97 131 186 214 276 350 392
#
# _framework density 21.190248
#
# number of rings (size 3 to 8) (size 9 to 14) (size 15 to 20)
#    0.000    1.818    1.818    0.000    5.091   10.182 
#    0.000    0.000    0.000    0.000    0.000    0.000 
#    0.000    0.000    0.000    0.000    0.000    0.000 
#
# Total GULP energy -272641.703099 kJ/mol
# GULP energy per Si atom -12392.804686 kJ/mol
# Density = 2.114202 g / cm^3
# Si number density = 21.190248 Si / 1000 Ang^3
#
#
#
# Elastic Constant Matrix: (Units=GPa)
#
#
# Indices 1 2 3 4 5 6 
#
# 1 72.4452 38.9910 38.0683 0.0000 0.0000 0.0000
# 2 38.9910 130.7988 34.3337 0.0000 0.0000 0.0000
# 3 38.0683 34.3337 121.0641 0.0000 0.0000 0.0000
# 4 0.0000 0.0000 0.0000 29.2283 0.0000 0.0000
# 5 0.0000 0.0000 0.0000 0.0000 30.5015 0.0000
# 6 0.0000 0.0000 0.0000 0.0000 0.0000 38.6665
#
#
#
# Elastic Compliance Matrix: (Units=1/GPa)
#
#
# Indices 1 2 3 4 5 6 
#
# 1 0.018550 -0.004320 -0.004608 0.000000 0.000000 0.000000
# 2 -0.004320 0.009266 -0.001269 0.000000 0.000000 0.000000
# 3 -0.004608 -0.001269 0.010069 0.000000 0.000000 0.000000
# 4 0.000000 0.000000 0.000000 0.034213 0.000000 0.000000
# 5 0.000000 0.000000 0.000000 0.000000 0.032785 0.000000
# 6 0.000000 0.000000 0.000000 0.000000 0.000000 0.025862
#
#
# Mechanical properties :
#
#
# Convention : Reuss Voigt Hill
#
# Bulk Modulus (GPa) = 57.17396 60.78823 58.98109
# Shear Modulus (GPa) = 31.85293 33.87361 32.86327
#
# Velocity S-wave (km/s) = 3.88130 4.00252 3.94238
# Velocity P-wave (km/s) = 6.86483 7.07880 6.97263
#
# Compressibility (1/GPa) = 0.01749048
#
# Stress axis : x y z
#
# Youngs Moduli (GPa) = 53.90828 107.91667 99.31459
#
# Poissons Ratio (x) = 0.46622 0.45762
# Poissons Ratio (y) = 0.23290 0.12608
# Poissons Ratio (z) = 0.24840 0.13700
#
# Static dielectric constant tensor:
#      x y z
#    x 3.875710 0.000000 0.000000 
#    y 0.000000 3.893280 0.000000 
#    z 0.000000 0.000000 3.785240 
# 
# 
# High freq. dielectric constant tensor:
#      x y z
#    x 1.827320 0.000000 0.000000 
#    y 0.000000 1.827870 0.000000 
#    z 0.000000 0.000000 1.835760 
# 
# From -- ./inp_files/9306.got.cif
#   From: 2010.03.12/outbox.cif.g09.slc.cpg/sg20_5_cif.got.tgz:9306.got - 2010.04.14 01:38:04.
