data_PCOD8159792
_publ_section_title
;
Structure prediction by ZEFSAII (Michael W. Deem and Ramdas Pophale) SiO2 
 PCOD8159792
Probable space group: C 2 2 21
;
_chemical_formula_sum "Si O2"
_cell_formula_units_Z 40
_cell_length_a 19.520265
_cell_length_b 16.424208
_cell_length_c 5.490918
_cell_angle_alpha 90.000000
_cell_angle_beta 90.000000
_cell_angle_gamma 90.000000
_cell_volume 1760.415176
_symmetry_space_group_name_H-M "C 2 2 21"
_symmetry_group_IT_number 20
_symmetry_cell_setting 'orthorhombic'
loop_
_space_group_symop_operation_xyz
x,y,z
-x,-y,1/2+z
x,-y,-z
-x,y,1/2-z
1/2+x,1/2+y,z
1/2-x,1/2-y,1/2+z
1/2+x,1/2-y,-z
1/2-x,1/2+y,1/2-z
loop_
_atom_site_type_symbol
_atom_site_label
_atom_site_fract_x
_atom_site_fract_y
_atom_site_fract_z
Si Si1 0.080462 0.132591 0.741512
Si Si2 0.357516 0.370474 0.747544
Si Si3 0.893436 0.500000 0.500000
Si Si4 0.109528 0.714054 0.516119
Si Si5 0.707540 0.918817 0.649071
Si Si6 0.500000 0.113943 0.750000
O O1 0.108746 0.088630 0.492388
O O2 0.101486 0.228716 0.723830
O O3 0.000000 0.118997 0.750000
O O4 0.113037 0.095417 0.989956
O O5 0.374255 0.273632 0.754751
O O6 0.276914 0.386026 0.766392
O O7 0.847023 0.562916 0.356187
O O8 0.939658 0.443794 0.335077
O O9 0.173124 0.651881 0.511339
O O10 0.035862 0.669936 0.546568
O O11 0.723850 0.000000 0.500000
#
# Coordination Sequence:
#
# PCOD8159792 Si02
#       6
#     8   8   4   8   8   4
#     4  10  22  42  71 107 135 174 236 307 362 407
#     4  10  26  42  72 103 144 186 239 302 350 425
#     4  12  28  42  66  98 150 196 232 284 358 448
#     4  10  25  38  70  99 142 187 238 301 344 434
#     4  12  27  45  65 102 145 200 241 285 364 432
#     4  12  22  44  64 104 142 188 234 288 364 424
#
# _framework density 22.721913000000001
#
# number of rings (size 3 to 8) (size 9 to 14) (size 15 to 20)
#    1.200    0.000    2.000    3.000   11.200    0.000 
#    0.000    0.000    0.000    2.400    0.000    0.000 
#    0.000    0.000    0.000    0.000    0.000    0.000 
#
# Total GULP energy -247826.957954 kJ/mol
# GULP energy per Si atom -12391.347898 kJ/mol
# Density = 2.267020 g / cm^3
# Si number density = 22.721913 Si / 1000 Ang^3
#
#
#
# Elastic Constant Matrix: (Units=GPa)
#
#
# Indices 1 2 3 4 5 6 
#
# 1 186.5813 27.0679 59.8174 0.0000 0.0000 0.0000
# 2 27.0679 35.9335 4.6812 0.0000 0.0000 0.0000
# 3 59.8174 4.6812 148.9439 0.0000 0.0000 0.0000
# 4 0.0000 0.0000 0.0000 -2.2120 0.0000 0.0000
# 5 0.0000 0.0000 0.0000 0.0000 39.2456 0.0000
# 6 0.0000 0.0000 0.0000 0.0000 0.0000 42.9502
#
#
#
# Elastic Compliance Matrix: (Units=1/GPa)
#
#
# Indices 1 2 3 4 5 6 
#
# 1 0.006905 -0.004860 -0.002620 0.000000 0.000000 0.000000
# 2 -0.004860 0.031364 0.000966 0.000000 0.000000 0.000000
# 3 -0.002620 0.000966 0.007736 0.000000 0.000000 0.000000
# 4 0.000000 0.000000 0.000000 -0.452088 0.000000 0.000000
# 5 0.000000 0.000000 0.000000 0.000000 0.025481 0.000000
# 6 0.000000 0.000000 0.000000 0.000000 0.000000 0.023283
#
#
# Mechanical properties :
#
#
# Convention : Reuss Voigt Hill
#
# Bulk Modulus (GPa) = 30.32451 61.62127 45.97289
# Shear Modulus (GPa) = -15.00152 34.65624 9.82736
#
# Velocity S-wave (km/s) = -2.57227 3.90966 2.08193
# Velocity P-wave (km/s) = 2.13374 6.89632 5.10451
#
# Compressibility (1/GPa) = 0.03297663
#
# Stress axis : x y z
#
# Youngs Moduli (GPa) = 144.82980 31.88355 129.26752
#
# Poissons Ratio (x) = 0.15495 0.33871
# Poissons Ratio (y) = 0.70384 -0.12487
# Poissons Ratio (z) = 0.37949 -0.03080
#
# Static dielectric constant tensor:
#      x y z
#    x 4.061620 0.000000 0.000000 
#    y 0.000000 4.106060 0.000000 
#    z 0.000000 0.000000 3.964850 
# 
# 
# High freq. dielectric constant tensor:
#      x y z
#    x 1.907490 0.000000 0.000000 
#    y 0.000000 1.891050 0.000000 
#    z 0.000000 0.000000 1.887700 
# 
# From -- ./inp_files/2503.got.cif
#   From: 2010.03.12/outbox.cif.g09.slc.cpg/sg20_2_cif.got.tgz:2503.got - 2010.04.14 01:38:04.
