data_PCOD8159686
_publ_section_title
;
Structure prediction by ZEFSAII (Michael W. Deem and Ramdas Pophale) SiO2 
 PCOD8159686
Probable space group: C 2 2 21
;
_chemical_formula_sum "Si O2"
_cell_formula_units_Z 36
_cell_length_a 5.670374
_cell_length_b 22.192633
_cell_length_c 13.455578
_cell_angle_alpha 90.000000
_cell_angle_beta 90.000000
_cell_angle_gamma 90.000000
_cell_volume 1693.257056
_symmetry_space_group_name_H-M "C 2 2 21"
_symmetry_group_IT_number 20
_symmetry_cell_setting 'orthorhombic'
loop_
_space_group_symop_operation_xyz
x,y,z
-x,-y,1/2+z
x,-y,-z
-x,y,1/2-z
1/2+x,1/2+y,z
1/2-x,1/2-y,1/2+z
1/2+x,1/2-y,-z
1/2-x,1/2+y,1/2-z
loop_
_atom_site_type_symbol
_atom_site_label
_atom_site_fract_x
_atom_site_fract_y
_atom_site_fract_z
Si Si1 0.656192 0.500000 0.000000
Si Si2 0.252448 0.184070 0.308709
Si Si3 0.355133 0.681781 0.650167
Si Si4 0.031899 0.571407 0.640748
Si Si5 0.640071 0.387836 0.503276
O O1 0.804262 0.521331 0.906510
O O2 0.522213 0.441764 0.957143
O O3 0.500000 0.173565 0.250000
O O4 0.254611 0.251021 0.353387
O O5 0.271730 0.138430 0.400924
O O6 0.000000 0.174945 0.250000
O O7 0.500000 0.669211 0.750000
O O8 0.133414 0.638342 0.648663
O O9 0.507854 0.667435 0.551707
O O10 0.000000 0.544820 0.750000
O O11 0.798118 0.577464 0.576678
#
# Coordination Sequence:
#
# PCOD8159686 Si02
#       5
#     4   8   8   8   8
#     4  10  26  46  66 102 138 180 256 292 364 424
#     4  11  28  47  70 110 154 193 236 296 368 437
#     4  10  22  40  73 106 140 178 237 293 360 436
#     4  11  22  44  72 100 136 185 241 303 352 428
#     4  11  25  46  70 104 141 193 241 297 359 430
#
# _framework density 21.260802000000002
#
# number of rings (size 3 to 8) (size 9 to 14) (size 15 to 20)
#    0.000    1.333    2.222    1.333   12.444    0.000 
#    8.000    0.000    0.000    0.000    0.000    0.000 
#    0.000    0.000    0.000    0.000    0.000    0.000 
#
# Total GULP energy -223093.656083 kJ/mol
# GULP energy per Si atom -12394.092005 kJ/mol
# Density = 2.121241 g / cm^3
# Si number density = 21.260802 Si / 1000 Ang^3
#
#
#
# Elastic Constant Matrix: (Units=GPa)
#
#
# Indices 1 2 3 4 5 6 
#
# 1 117.3496 40.4003 62.0836 0.0000 0.0000 0.0000
# 2 40.4003 104.6349 84.8910 0.0000 0.0000 0.0000
# 3 62.0836 84.8910 145.5639 0.0000 0.0000 0.0000
# 4 0.0000 0.0000 0.0000 -11.7873 0.0000 0.0000
# 5 0.0000 0.0000 0.0000 0.0000 43.6106 0.0000
# 6 0.0000 0.0000 0.0000 0.0000 0.0000 -13.6659
#
#
#
# Elastic Compliance Matrix: (Units=1/GPa)
#
#
# Indices 1 2 3 4 5 6 
#
# 1 0.011043 -0.000840 -0.004220 0.000000 0.000000 0.000000
# 2 -0.000840 0.018204 -0.010258 0.000000 0.000000 0.000000
# 3 -0.004220 -0.010258 0.014652 0.000000 0.000000 0.000000
# 4 0.000000 0.000000 0.000000 -0.084837 0.000000 0.000000
# 5 0.000000 0.000000 0.000000 0.000000 0.022930 0.000000
# 6 0.000000 0.000000 0.000000 0.000000 0.000000 -0.073175
#
#
# Mechanical properties :
#
#
# Convention : Reuss Voigt Hill
#
# Bulk Modulus (GPa) = 75.39827 82.47757 78.93792
# Shear Modulus (GPa) = -89.08550 15.64306 -36.72122
#
# Velocity S-wave (km/s) = -6.48014 2.71545 -4.16044
# Velocity P-wave (km/s) = 4.52208 6.97919 3.75898
#
# Compressibility (1/GPa) = 0.01326290
#
# Stress axis : x y z
#
# Youngs Moduli (GPa) = 90.55160 54.93402 68.25032
#
# Poissons Ratio (x) = 0.04615 0.28802
# Poissons Ratio (y) = 0.07608 0.70010
# Poissons Ratio (z) = 0.38214 0.56350
#
# Static dielectric constant tensor:
#      x y z
#    x 4.102580 0.000000 0.000000 
#    y 0.000000 3.596870 0.000000 
#    z 0.000000 0.000000 3.920970 
# 
# 
# High freq. dielectric constant tensor:
#      x y z
#    x 1.842750 0.000000 0.000000 
#    y 0.000000 1.839050 0.000000 
#    z 0.000000 0.000000 1.838410 
# 
# From -- ./inp_files/12068.got.cif
#   From: 2010.03.12/outbox.cif.g09.slc.cpg/sg20_7_cif.got.tgz:12068.got - 2010.04.14 01:38:04.
