data_PCOD8159301
_publ_section_title
;
Structure prediction by ZEFSAII (Michael W. Deem and Ramdas Pophale) SiO2 
 PCOD8159301
Probable space group: C 2 2 21
;
_chemical_formula_sum "Si O2"
_cell_formula_units_Z 52
_cell_length_a 13.056941
_cell_length_b 9.294847
_cell_length_c 23.853622
_cell_angle_alpha 90.000000
_cell_angle_beta 90.000000
_cell_angle_gamma 90.000000
_cell_volume 2894.929687
_symmetry_space_group_name_H-M "C 2 2 21"
_symmetry_group_IT_number 20
_symmetry_cell_setting 'orthorhombic'
loop_
_space_group_symop_operation_xyz
x,y,z
-x,-y,1/2+z
x,-y,-z
-x,y,1/2-z
1/2+x,1/2+y,z
1/2-x,1/2-y,1/2+z
1/2+x,1/2-y,-z
1/2-x,1/2+y,1/2-z
loop_
_atom_site_type_symbol
_atom_site_label
_atom_site_fract_x
_atom_site_fract_y
_atom_site_fract_z
Si Si1 0.698208 0.163978 0.302810
Si Si2 0.405476 0.830674 0.499579
Si Si3 0.000000 0.754373 0.250000
Si Si4 0.739910 0.839723 0.091078
Si Si5 0.201653 0.146931 0.796212
Si Si6 0.242227 0.335358 0.903306
Si Si7 0.402992 0.653147 0.006825
O O1 0.574759 0.155842 0.289660
O O2 0.717190 0.228412 0.364055
O O3 0.750291 0.270675 0.257419
O O4 0.752928 0.011543 0.298616
O O5 0.363085 0.777479 0.438621
O O6 0.341232 0.774914 0.552739
O O7 0.521397 0.782242 0.506246
O O8 0.398790 0.000000 0.500000
O O9 0.923667 0.852612 0.288785
O O10 0.722002 0.999530 0.116720
O O11 0.815003 0.853465 0.038913
O O12 0.237557 0.231928 0.850553
O O13 0.354436 0.324677 0.931536
O O14 0.461976 0.500000 0.000000
#
# Coordination Sequence:
#
# PCOD8159301 Si02
#       7
#     8   8   4   8   8   8   8
#     4  10  21  40  61  85 117 150 194 245 294 350
#     4   9  19  34  54  81 114 152 190 234 287 344
#     4   8  24  40  62  86 112 156 194 232 314 338
#     4   9  19  37  56  79 116 153 188 240 290 338
#     4  10  21  40  61  85 117 150 194 245 294 350
#     4   9  19  37  56  79 116 153 188 240 290 338
#     4   9  19  34  54  81 114 152 190 234 287 344
#
# _framework density 17.962440000000001
#
# number of rings (size 3 to 8) (size 9 to 14) (size 15 to 20)
#    0.923    1.846    0.000    2.769    2.154    2.462 
#    5.538    3.846    0.000    0.000    0.000    0.000 
#    0.000    0.000    0.000    0.000    0.000    0.000 
#
# Total GULP energy -322104.247424 kJ/mol
# GULP energy per Si atom -12388.624901 kJ/mol
# Density = 1.792156 g / cm^3
# Si number density = 17.962440 Si / 1000 Ang^3
#
#
#
# Elastic Constant Matrix: (Units=GPa)
#
#
# Indices 1 2 3 4 5 6 
#
# 1 82.8550 35.9608 16.6239 0.0000 0.0000 0.0000
# 2 35.9608 82.3805 44.0352 0.0000 0.0000 0.0000
# 3 16.6239 44.0352 85.7790 0.0000 0.0000 0.0000
# 4 0.0000 0.0000 0.0000 31.2573 0.0000 0.0000
# 5 0.0000 0.0000 0.0000 0.0000 14.3788 0.0000
# 6 0.0000 0.0000 0.0000 0.0000 0.0000 32.7164
#
#
#
# Elastic Compliance Matrix: (Units=1/GPa)
#
#
# Indices 1 2 3 4 5 6 
#
# 1 0.014914 -0.006843 0.000623 0.000000 0.000000 0.000000
# 2 -0.006843 0.019869 -0.008874 0.000000 0.000000 0.000000
# 3 0.000623 -0.008874 0.016093 0.000000 0.000000 0.000000
# 4 0.000000 0.000000 0.000000 0.031993 0.000000 0.000000
# 5 0.000000 0.000000 0.000000 0.000000 0.069547 0.000000
# 6 0.000000 0.000000 0.000000 0.000000 0.000000 0.030566
#
#
# Mechanical properties :
#
#
# Convention : Reuss Voigt Hill
#
# Bulk Modulus (GPa) = 48.33837 49.36158 48.84997
# Shear Modulus (GPa) = 22.72041 25.96347 24.34194
#
# Velocity S-wave (km/s) = 3.56038 3.80601 3.68524
# Velocity P-wave (km/s) = 6.62352 6.84502 6.73518
#
# Compressibility (1/GPa) = 0.02068750
#
# Stress axis : x y z
#
# Youngs Moduli (GPa) = 67.04890 50.32857 62.14011
#
# Poissons Ratio (x) = 0.34441 -0.03869
# Poissons Ratio (y) = 0.45884 0.55142
# Poissons Ratio (z) = -0.04175 0.44661
#
# Static dielectric constant tensor:
#      x y z
#    x 3.219860 0.000000 0.000000 
#    y 0.000000 3.204510 0.000000 
#    z 0.000000 0.000000 3.379910 
# 
# 
# High freq. dielectric constant tensor:
#      x y z
#    x 1.683370 0.000000 0.000000 
#    y 0.000000 1.682840 0.000000 
#    z 0.000000 0.000000 1.699540 
# 
# From -- ./inp_files/29272.got.cif
#   From: 2010.03.12/outbox.cif.g09.slc.cpg/sg20_15_cif.got.tgz:29272.got - 2010.04.14 01:38:04.
