data_PCOD8159625
_publ_section_title
;
Structure prediction by ZEFSAII (Michael W. Deem and Ramdas Pophale) SiO2 
 PCOD8159625
Probable space group: C 2 2 21
;
_chemical_formula_sum "Si O2"
_cell_formula_units_Z 48
_cell_length_a 24.022545
_cell_length_b 5.232556
_cell_length_c 17.802125
_cell_angle_alpha 90.000000
_cell_angle_beta 90.000000
_cell_angle_gamma 90.000000
_cell_volume 2237.714864
_symmetry_space_group_name_H-M "C 2 2 21"
_symmetry_group_IT_number 20
_symmetry_cell_setting 'orthorhombic'
loop_
_space_group_symop_operation_xyz
x,y,z
-x,-y,1/2+z
x,-y,-z
-x,y,1/2-z
1/2+x,1/2+y,z
1/2-x,1/2-y,1/2+z
1/2+x,1/2-y,-z
1/2-x,1/2+y,1/2-z
loop_
_atom_site_type_symbol
_atom_site_label
_atom_site_fract_x
_atom_site_fract_y
_atom_site_fract_z
Si Si1 0.451330 0.500000 0.500000
Si Si2 0.197107 0.911861 0.684640
Si Si3 0.018303 0.648979 0.603476
Si Si4 0.072927 0.253862 0.855010
Si Si5 0.865860 0.742471 0.956672
Si Si6 0.500000 0.537708 0.250000
Si Si7 0.178180 0.583637 0.225706
O O1 0.490344 0.276830 0.531056
O O2 0.412894 0.415516 0.428971
O O3 0.178727 0.857945 0.600485
O O4 0.171671 0.690871 0.736555
O O5 0.263815 0.898891 0.681917
O O6 0.175025 0.185543 0.714100
O O7 0.081911 0.597028 0.581811
O O8 0.983098 0.400257 0.622055
O O9 0.022242 0.808669 0.679378
O O10 0.128175 0.410618 0.835118
O O11 0.054768 0.111787 0.778634
O O12 0.837534 0.500000 0.000000
O O13 0.885461 0.000000 0.000000
#
# Coordination Sequence:
#
# PCOD8159625 Si02
#       7
#     4   8   8   8   8   4   8
#     4  10  22  40  54  84 130 166 206 240 334 384
#     4  10  23  45  68  95 128 169 224 273 331 381
#     4  11  23  40  58  92 129 171 208 263 327 392
#     4  11  23  38  62  94 125 173 210 270 320 402
#     4  12  25  41  66  96 133 177 213 270 326 399
#     4  10  24  36  62  94 126 162 222 264 318 394
#     4  10  23  43  70  95 127 170 217 283 326 376
#
# _framework density 21.450453
#
# number of rings (size 3 to 8) (size 9 to 14) (size 15 to 20)
#    0.000    1.333    0.833    4.000   11.667    0.000 
#    1.500    1.667    0.000    0.000    0.000    0.000 
#    0.000    0.000    0.000    0.000    0.000    0.000 
#
# Total GULP energy -297434.628003 kJ/mol
# GULP energy per Si atom -12393.109500 kJ/mol
# Density = 2.140163 g / cm^3
# Si number density = 21.450453 Si / 1000 Ang^3
#
#
#
# Elastic Constant Matrix: (Units=GPa)
#
#
# Indices 1 2 3 4 5 6 
#
# 1 67.4822 4.2509 35.3925 0.0000 0.0000 0.0000
# 2 4.2509 71.5340 3.5351 0.0000 0.0000 0.0000
# 3 35.3925 3.5351 97.0198 0.0000 0.0000 0.0000
# 4 0.0000 0.0000 0.0000 -62.9105 0.0000 0.0000
# 5 0.0000 0.0000 0.0000 0.0000 16.7942 0.0000
# 6 0.0000 0.0000 0.0000 0.0000 0.0000 22.5674
#
#
#
# Elastic Compliance Matrix: (Units=1/GPa)
#
#
# Indices 1 2 3 4 5 6 
#
# 1 0.018366 -0.000762 -0.006672 0.000000 0.000000 0.000000
# 2 -0.000762 0.014036 -0.000234 0.000000 0.000000 0.000000
# 3 -0.006672 -0.000234 0.012750 0.000000 0.000000 0.000000
# 4 0.000000 0.000000 0.000000 -0.015896 0.000000 0.000000
# 5 0.000000 0.000000 0.000000 0.000000 0.059544 0.000000
# 6 0.000000 0.000000 0.000000 0.000000 0.000000 0.044312
#
#
# Mechanical properties :
#
#
# Convention : Reuss Voigt Hill
#
# Bulk Modulus (GPa) = 33.53778 35.82145 34.67961
# Shear Modulus (GPa) = 31.56843 8.14738 19.85791
#
# Velocity S-wave (km/s) = 3.84042 1.95102 3.04593
# Velocity P-wave (km/s) = 5.94425 4.67024 5.34534
#
# Compressibility (1/GPa) = 0.02981712
#
# Stress axis : x y z
#
# Youngs Moduli (GPa) = 54.44829 71.24446 78.43352
#
# Poissons Ratio (x) = 0.05427 0.52332
# Poissons Ratio (y) = 0.04147 0.01832
# Poissons Ratio (z) = 0.36329 0.01664
#
# Static dielectric constant tensor:
#      x y z
#    x 3.766050 0.000000 0.000000 
#    y 0.000000 4.076410 0.000000 
#    z 0.000000 0.000000 4.046590 
# 
# 
# High freq. dielectric constant tensor:
#      x y z
#    x 1.825750 0.000000 0.000000 
#    y 0.000000 1.850930 0.000000 
#    z 0.000000 0.000000 1.852490 
# 
# From -- ./inp_files/25594.got.cif
#   From: 2010.03.12/outbox.cif.g09.slc.cpg/sg20_13_cif.got.tgz:25594.got - 2010.04.14 01:38:04.
