data_PCOD8159197
_publ_section_title
;
Structure prediction by ZEFSAII (Michael W. Deem and Ramdas Pophale) SiO2 
 PCOD8159197
Probable space group: C 2 2 21
;
_chemical_formula_sum "Si O2"
_cell_formula_units_Z 48
_cell_length_a 11.919061
_cell_length_b 16.343262
_cell_length_c 11.799097
_cell_angle_alpha 90.000000
_cell_angle_beta 90.000000
_cell_angle_gamma 90.000000
_cell_volume 2298.420872
_symmetry_space_group_name_H-M "C 2 2 21"
_symmetry_group_IT_number 20
_symmetry_cell_setting 'orthorhombic'
loop_
_space_group_symop_operation_xyz
x,y,z
-x,-y,1/2+z
x,-y,-z
-x,y,1/2-z
1/2+x,1/2+y,z
1/2-x,1/2-y,1/2+z
1/2+x,1/2-y,-z
1/2-x,1/2+y,1/2-z
loop_
_atom_site_type_symbol
_atom_site_label
_atom_site_fract_x
_atom_site_fract_y
_atom_site_fract_z
Si Si1 0.564367 0.404064 0.978340
Si Si2 0.863871 0.189680 0.940737
Si Si3 0.381079 0.594861 0.719116
Si Si4 0.259352 0.434364 0.705344
Si Si5 0.312358 0.909842 0.550564
Si Si6 0.954191 0.357279 0.872601
O O1 0.443764 0.360429 0.971266
O O2 0.620638 0.366372 0.092589
O O3 0.546846 0.500000 0.000000
O O4 0.641019 0.390384 0.867099
O O5 0.870588 0.167308 0.808303
O O6 0.895680 0.284730 0.944749
O O7 0.737803 0.164413 0.975452
O O8 0.500000 0.549592 0.750000
O O9 0.280952 0.530060 0.724967
O O10 0.246934 0.394873 0.828351
O O11 0.141171 0.426591 0.640204
O O12 0.445843 0.897048 0.554958
O O13 0.285446 0.000000 0.500000
O O14 0.000000 0.327571 0.750000
#
# Coordination Sequence:
#
# PCOD8159197 Si02
#       6
#     8   8   8   8   8   8
#     4   9  19  32  60  92 122 158 206 267 318 377
#     4  11  21  38  64  93 125 163 217 269 326 378
#     4   9  18  34  62  95 120 155 210 266 318 378
#     4  10  21  38  60  90 127 164 210 256 328 384
#     4  11  23  40  66  91 127 173 215 262 318 398
#     4  10  24  42  61  88 130 177 209 264 331 387
#
# _framework density 20.883904000000001
#
# number of rings (size 3 to 8) (size 9 to 14) (size 15 to 20)
#    0.000    2.000    1.667    2.000    7.000    2.000 
#    0.000    0.000    0.000    0.000    0.000    0.000 
#    0.000    0.000    0.000    0.000    0.000    0.000 
#
# Total GULP energy -297392.618695 kJ/mol
# GULP energy per Si atom -12391.359112 kJ/mol
# Density = 2.083637 g / cm^3
# Si number density = 20.883904 Si / 1000 Ang^3
#
#
#
# Elastic Constant Matrix: (Units=GPa)
#
#
# Indices 1 2 3 4 5 6 
#
# 1 107.9786 42.3291 35.3729 0.0000 0.0000 0.0000
# 2 42.3291 63.3051 24.0477 0.0000 0.0000 0.0000
# 3 35.3729 24.0477 83.5303 0.0000 0.0000 0.0000
# 4 0.0000 0.0000 0.0000 19.8186 0.0000 0.0000
# 5 0.0000 0.0000 0.0000 0.0000 30.5294 0.0000
# 6 0.0000 0.0000 0.0000 0.0000 0.0000 26.4039
#
#
#
# Elastic Compliance Matrix: (Units=1/GPa)
#
#
# Indices 1 2 3 4 5 6 
#
# 1 0.013392 -0.007635 -0.003473 0.000000 0.000000 0.000000
# 2 -0.007635 0.022089 -0.003126 0.000000 0.000000 0.000000
# 3 -0.003473 -0.003126 0.014342 0.000000 0.000000 0.000000
# 4 0.000000 0.000000 0.000000 0.050458 0.000000 0.000000
# 5 0.000000 0.000000 0.000000 0.000000 0.032755 0.000000
# 6 0.000000 0.000000 0.000000 0.000000 0.000000 0.037873
#
#
# Mechanical properties :
#
#
# Convention : Reuss Voigt Hill
#
# Bulk Modulus (GPa) = 46.82722 50.92371 48.87546
# Shear Modulus (GPa) = 24.21349 25.55470 24.88409
#
# Velocity S-wave (km/s) = 3.40874 3.50187 3.45562
# Velocity P-wave (km/s) = 6.16149 6.38654 6.27503
#
# Compressibility (1/GPa) = 0.02135510
#
# Stress axis : x y z
#
# Youngs Moduli (GPa) = 74.67173 45.27079 69.72346
#
# Poissons Ratio (x) = 0.34565 0.24215
# Poissons Ratio (y) = 0.57014 0.21795
# Poissons Ratio (z) = 0.25934 0.14152
#
# Static dielectric constant tensor:
#      x y z
#    x 3.882020 0.000000 0.000000 
#    y 0.000000 3.321570 0.000000 
#    z 0.000000 0.000000 4.005010 
# 
# 
# High freq. dielectric constant tensor:
#      x y z
#    x 1.817120 0.000000 0.000000 
#    y 0.000000 1.783500 0.000000 
#    z 0.000000 0.000000 1.819150 
# 
# From -- ./inp_files/14106.got.cif
#   From: 2010.03.12/outbox.cif.g09.slc.cpg/sg20_8_cif.got.tgz:14106.got - 2010.04.14 01:38:04.
