data_PCOD8159865
_publ_section_title
;
Structure prediction by ZEFSAII (Michael W. Deem and Ramdas Pophale) SiO2 
 PCOD8159865
Probable space group: C 2 2 21
;
_chemical_formula_sum "Si O2"
_cell_formula_units_Z 60
_cell_length_a 12.646723
_cell_length_b 18.951395
_cell_length_c 11.893350
_cell_angle_alpha 90.000000
_cell_angle_beta 90.000000
_cell_angle_gamma 90.000000
_cell_volume 2850.515386
_symmetry_space_group_name_H-M "C 2 2 21"
_symmetry_group_IT_number 20
_symmetry_cell_setting 'orthorhombic'
loop_
_space_group_symop_operation_xyz
x,y,z
-x,-y,1/2+z
x,-y,-z
-x,y,1/2-z
1/2+x,1/2+y,z
1/2-x,1/2-y,1/2+z
1/2+x,1/2-y,-z
1/2-x,1/2+y,1/2-z
loop_
_atom_site_type_symbol
_atom_site_label
_atom_site_fract_x
_atom_site_fract_y
_atom_site_fract_z
Si Si1 0.102614 0.500000 0.500000
Si Si2 0.754895 0.577270 0.832818
Si Si3 0.484997 0.869797 0.882523
Si Si4 0.662160 0.802607 0.018491
Si Si5 0.835585 0.295035 0.043032
Si Si6 0.541130 0.577784 0.955655
Si Si7 0.986138 0.797759 0.624649
Si Si8 0.699764 0.565351 0.585373
O O1 0.183629 0.482833 0.400004
O O2 0.021518 0.557472 0.451566
O O3 0.825595 0.647256 0.857007
O O4 0.633550 0.592440 0.866630
O O5 0.753083 0.549142 0.705292
O O6 0.500000 0.881361 0.750000
O O7 0.589526 0.828529 0.917379
O O8 0.381939 0.826127 0.924780
O O9 0.718714 0.731700 0.979294
O O10 0.589105 0.772241 0.119935
O O11 0.744202 0.863097 0.048048
O O12 0.900466 0.227053 0.081202
O O13 0.424755 0.581303 0.900201
O O14 0.562022 0.500000 0.000000
O O15 0.552800 0.634859 0.054646
O O16 0.000000 0.825775 0.750000
O O17 0.719772 0.500000 0.500000
#
# Coordination Sequence:
#
# PCOD8159865 Si02
#       8
#     4   8   8   8   8   8   8   8
#     4  10  24  44  68  98 130 178 232 270 350 406
#     4  11  22  44  70  91 138 176 223 284 335 412
#     4  10  25  42  69  99 134 178 224 283 337 410
#     4  11  23  44  65  98 137 169 230 276 339 408
#     4  10  22  45  63 100 129 175 228 267 348 405
#     4  11  23  43  62  99 135 175 225 272 342 403
#     4  11  23  42  68  96 134 172 221 284 335 410
#     4  11  26  41  67 101 134 179 226 283 346 407
#
# _framework density 21.048824
#
# number of rings (size 3 to 8) (size 9 to 14) (size 15 to 20)
#    0.000    1.333    3.333    1.200    2.800    4.267 
#    0.000    1.333    0.000    0.000    0.000    0.000 
#    0.000    0.000    0.000    0.000    0.000    0.000 
#
# Total GULP energy -371760.843070 kJ/mol
# GULP energy per Si atom -12392.028102 kJ/mol
# Density = 2.100092 g / cm^3
# Si number density = 21.048824 Si / 1000 Ang^3
#
#
#
# Elastic Constant Matrix: (Units=GPa)
#
#
# Indices 1 2 3 4 5 6 
#
# 1 90.2197 34.8204 30.8253 0.0000 0.0000 0.0000
# 2 34.8204 103.5145 50.6948 0.0000 0.0000 0.0000
# 3 30.8253 50.6948 141.1556 0.0000 0.0000 0.0000
# 4 0.0000 0.0000 0.0000 25.4096 0.0000 0.0000
# 5 0.0000 0.0000 0.0000 0.0000 12.9864 0.0000
# 6 0.0000 0.0000 0.0000 0.0000 0.0000 37.6144
#
#
#
# Elastic Compliance Matrix: (Units=1/GPa)
#
#
# Indices 1 2 3 4 5 6 
#
# 1 0.013008 -0.003621 -0.001540 0.000000 0.000000 0.000000
# 2 -0.003621 0.012730 -0.003781 0.000000 0.000000 0.000000
# 3 -0.001540 -0.003781 0.008779 0.000000 0.000000 0.000000
# 4 0.000000 0.000000 0.000000 0.039355 0.000000 0.000000
# 5 0.000000 0.000000 0.000000 0.000000 0.077004 0.000000
# 6 0.000000 0.000000 0.000000 0.000000 0.000000 0.026586
#
#
# Mechanical properties :
#
#
# Convention : Reuss Voigt Hill
#
# Bulk Modulus (GPa) = 60.12599 63.06342 61.59471
# Shear Modulus (GPa) = 24.88917 29.77203 27.33060
#
# Velocity S-wave (km/s) = 3.44241 3.76497 3.60729
# Velocity P-wave (km/s) = 6.66538 6.99468 6.83201
#
# Compressibility (1/GPa) = 0.01663174
#
# Stress axis : x y z
#
# Youngs Moduli (GPa) = 76.87615 78.55185 113.91239
#
# Poissons Ratio (x) = 0.28447 0.17543
# Poissons Ratio (y) = 0.27840 0.43072
# Poissons Ratio (z) = 0.11839 0.29702
#
# Static dielectric constant tensor:
#      x y z
#    x 4.052830 0.000000 0.000000 
#    y 0.000000 3.823480 0.000000 
#    z 0.000000 0.000000 3.597230 
# 
# 
# High freq. dielectric constant tensor:
#      x y z
#    x 1.840850 0.000000 0.000000 
#    y 0.000000 1.836030 0.000000 
#    z 0.000000 0.000000 1.806310 
# 
# From -- ./inp_files/15296.got.cif
#   From: 2010.03.12/outbox.cif.g09.slc.cpg/sg20_8_cif.got.tgz:15296.got - 2010.04.14 01:38:04.
