data_PCOD8159492
_publ_section_title
;
Structure prediction by ZEFSAII (Michael W. Deem and Ramdas Pophale) SiO2 
 PCOD8159492
Probable space group: C 2 2 21
;
_chemical_formula_sum "Si O2"
_cell_formula_units_Z 48
_cell_length_a 17.543281
_cell_length_b 12.305583
_cell_length_c 9.757288
_cell_angle_alpha 90.000000
_cell_angle_beta 90.000000
_cell_angle_gamma 90.000000
_cell_volume 2106.406265
_symmetry_space_group_name_H-M "C 2 2 21"
_symmetry_group_IT_number 20
_symmetry_cell_setting 'orthorhombic'
loop_
_space_group_symop_operation_xyz
x,y,z
-x,-y,1/2+z
x,-y,-z
-x,y,1/2-z
1/2+x,1/2+y,z
1/2-x,1/2-y,1/2+z
1/2+x,1/2-y,-z
1/2-x,1/2+y,1/2-z
loop_
_atom_site_type_symbol
_atom_site_label
_atom_site_fract_x
_atom_site_fract_y
_atom_site_fract_z
Si Si1 0.000000 0.755492 0.750000
Si Si2 0.153593 0.831889 0.200677
Si Si3 0.351586 0.312957 0.604988
Si Si4 0.500000 0.260591 0.250000
Si Si5 0.211231 0.424167 0.130901
Si Si6 0.807504 0.387230 0.808304
Si Si7 0.553589 0.124126 0.493623
O O1 0.066046 0.829981 0.821626
O O2 0.043886 0.681056 0.639902
O O3 0.207466 0.895113 0.304189
O O4 0.171232 0.703362 0.197590
O O5 0.069246 0.844486 0.259591
O O6 0.152489 0.869434 0.043677
O O7 0.337118 0.182964 0.599004
O O8 0.283946 0.378175 0.678754
O O9 0.498763 0.183887 0.384440
O O10 0.168350 0.495784 0.246974
O O11 0.225548 0.500000 0.000000
O O12 0.856626 0.368931 0.947731
O O13 0.525765 0.000000 0.500000
#
# Coordination Sequence:
#
# PCOD8159492 Si02
#       7
#     4   8   8   4   8   8   8
#     4  12  25  40  65  98 140 184 232 278 358 430
#     4  10  22  42  67  93 135 180 222 290 347 406
#     4  11  24  42  66  99 141 179 229 286 349 411
#     4  10  21  44  61  90 138 180 222 284 358 406
#     4  11  23  43  71 100 132 183 238 287 343 421
#     4  10  24  40  66  96 134 174 233 288 339 412
#     4  11  23  38  62  97 132 179 227 289 353 422
#
# _framework density 22.787627000000001
#
# number of rings (size 3 to 8) (size 9 to 14) (size 15 to 20)
#    0.000    1.333    3.333    1.500    7.000    3.333 
#    0.000    0.833    0.000    0.000    0.000    0.000 
#    0.000    0.000    0.000    0.000    0.000    0.000 
#
# Total GULP energy -297436.852683 kJ/mol
# GULP energy per Si atom -12393.202195 kJ/mol
# Density = 2.273576 g / cm^3
# Si number density = 22.787627 Si / 1000 Ang^3
#
#
#
# Elastic Constant Matrix: (Units=GPa)
#
#
# Indices 1 2 3 4 5 6 
#
# 1 129.8555 -4.4766 35.4925 0.0000 0.0000 0.0000
# 2 -4.4766 41.1626 7.9645 0.0000 0.0000 0.0000
# 3 35.4925 7.9645 113.3104 0.0000 0.0000 0.0000
# 4 0.0000 0.0000 0.0000 22.7127 0.0000 0.0000
# 5 0.0000 0.0000 0.0000 0.0000 23.9087 0.0000
# 6 0.0000 0.0000 0.0000 0.0000 0.0000 18.0306
#
#
#
# Elastic Compliance Matrix: (Units=1/GPa)
#
#
# Indices 1 2 3 4 5 6 
#
# 1 0.008508 0.001461 -0.002768 0.000000 0.000000 0.000000
# 2 0.001461 0.024880 -0.002206 0.000000 0.000000 0.000000
# 3 -0.002768 -0.002206 0.009847 0.000000 0.000000 0.000000
# 4 0.000000 0.000000 0.000000 0.044028 0.000000 0.000000
# 5 0.000000 0.000000 0.000000 0.000000 0.041826 0.000000
# 6 0.000000 0.000000 0.000000 0.000000 0.000000 0.055461
#
#
# Mechanical properties :
#
#
# Convention : Reuss Voigt Hill
#
# Bulk Modulus (GPa) = 27.61797 40.25438 33.93617
# Shear Modulus (GPa) = 24.55247 29.28695 26.91971
#
# Velocity S-wave (km/s) = 3.28601 3.58888 3.44078
# Velocity P-wave (km/s) = 5.15201 5.90565 5.54166
#
# Compressibility (1/GPa) = 0.03620831
#
# Stress axis : x y z
#
# Youngs Moduli (GPa) = 117.54118 40.19348 101.55087
#
# Poissons Ratio (x) = -0.05871 0.28105
# Poissons Ratio (y) = -0.17170 0.22405
# Poissons Ratio (z) = 0.32530 0.08868
#
# Static dielectric constant tensor:
#      x y z
#    x 4.240380 0.000000 0.000000 
#    y 0.000000 3.938400 0.000000 
#    z 0.000000 0.000000 4.155900 
# 
# 
# High freq. dielectric constant tensor:
#      x y z
#    x 1.904060 0.000000 0.000000 
#    y 0.000000 1.877840 0.000000 
#    z 0.000000 0.000000 1.907420 
# 
# From -- ./inp_files/9388.got.cif
#   From: 2010.03.12/outbox.cif.g09.slc.cpg/sg20_5_cif.got.tgz:9388.got - 2010.04.14 01:38:04.
