data_PCOD8159881
_publ_section_title
;
Structure prediction by ZEFSAII (Michael W. Deem and Ramdas Pophale) SiO2 
 PCOD8159881
Probable space group: C 2 2 21
;
_chemical_formula_sum "Si O2"
_cell_formula_units_Z 56
_cell_length_a 12.314816
_cell_length_b 15.247334
_cell_length_c 13.399069
_cell_angle_alpha 90.000000
_cell_angle_beta 90.000000
_cell_angle_gamma 90.000000
_cell_volume 2515.917898
_symmetry_space_group_name_H-M "C 2 2 21"
_symmetry_group_IT_number 20
_symmetry_cell_setting 'orthorhombic'
loop_
_space_group_symop_operation_xyz
x,y,z
-x,-y,1/2+z
x,-y,-z
-x,y,1/2-z
1/2+x,1/2+y,z
1/2-x,1/2-y,1/2+z
1/2+x,1/2-y,-z
1/2-x,1/2+y,1/2-z
loop_
_atom_site_type_symbol
_atom_site_label
_atom_site_fract_x
_atom_site_fract_y
_atom_site_fract_z
Si Si1 0.000000 0.055054 0.250000
Si Si2 0.000000 0.243730 0.750000
Si Si3 0.324511 0.020072 0.609499
Si Si4 0.294692 0.832931 0.689369
Si Si5 0.847262 0.898512 0.224247
Si Si6 0.639633 0.682908 0.123940
Si Si7 0.002080 0.349077 0.132964
Si Si8 0.258746 0.173474 0.921867
O O1 0.953463 0.114733 0.340031
O O2 0.902771 0.993617 0.211615
O O3 0.920870 0.305159 0.687787
O O4 0.927243 0.177313 0.817904
O O5 0.257800 0.101816 0.654443
O O6 0.448055 0.054517 0.609663
O O7 0.282889 0.000000 0.500000
O O8 0.299500 0.936653 0.678204
O O9 0.228130 0.804390 0.787864
O O10 0.242004 0.778986 0.597630
O O11 0.812345 0.876688 0.337824
O O12 0.577602 0.771385 0.089489
O O13 0.706472 0.648003 0.028136
O O14 0.884394 0.354742 0.081957
O O15 0.000000 0.330884 0.250000
#
# Coordination Sequence:
#
# PCOD8159881 Si02
#       8
#     4   4   8   8   8   8   8   8
#     4  11  22  46  69 102 138 188 243 302 360 427
#     4   9  22  40  69  92 138 184 221 296 364 407
#     4  12  26  45  69 104 144 190 243 298 372 440
#     4  11  23  44  67 105 144 185 245 301 357 443
#     4  10  22  46  67 101 147 182 238 303 363 429
#     4  12  24  45  78 106 141 200 256 297 371 457
#     4  12  23  48  77 101 151 194 234 312 382 430
#     4  11  25  45  75 107 143 195 247 302 370 452
#
# _framework density 22.258278000000001
#
# number of rings (size 3 to 8) (size 9 to 14) (size 15 to 20)
#    0.000    0.857    5.000    1.714    1.000    4.000 
#   10.286    0.000    0.000    0.000    0.000    0.000 
#    0.000    0.000    0.000    0.000    0.000    0.000 
#
# Total GULP energy -347045.355148 kJ/mol
# GULP energy per Si atom -12394.476970 kJ/mol
# Density = 2.220762 g / cm^3
# Si number density = 22.258278 Si / 1000 Ang^3
#
#
#
# Elastic Constant Matrix: (Units=GPa)
#
#
# Indices 1 2 3 4 5 6 
#
# 1 148.6282 55.2844 50.9766 0.0000 0.0000 0.0000
# 2 55.2844 86.1755 15.5857 0.0000 0.0000 0.0000
# 3 50.9766 15.5857 112.6474 0.0000 0.0000 0.0000
# 4 0.0000 0.0000 0.0000 24.1126 0.0000 0.0000
# 5 0.0000 0.0000 0.0000 0.0000 39.2690 0.0000
# 6 0.0000 0.0000 0.0000 0.0000 0.0000 42.6745
#
#
#
# Elastic Compliance Matrix: (Units=1/GPa)
#
#
# Indices 1 2 3 4 5 6 
#
# 1 0.010217 -0.005865 -0.003812 0.000000 0.000000 0.000000
# 2 -0.005865 0.015269 0.000542 0.000000 0.000000 0.000000
# 3 -0.003812 0.000542 0.010527 0.000000 0.000000 0.000000
# 4 0.000000 0.000000 0.000000 0.041472 0.000000 0.000000
# 5 0.000000 0.000000 0.000000 0.000000 0.025465 0.000000
# 6 0.000000 0.000000 0.000000 0.000000 0.000000 0.023433
#
#
# Mechanical properties :
#
#
# Convention : Reuss Voigt Hill
#
# Bulk Modulus (GPa) = 56.36285 65.68272 61.02278
# Shear Modulus (GPa) = 33.20709 36.25153 34.72931
#
# Velocity S-wave (km/s) = 3.86670 4.04006 3.95433
# Velocity P-wave (km/s) = 6.73144 7.16493 6.95157
#
# Compressibility (1/GPa) = 0.01774218
#
# Stress axis : x y z
#
# Youngs Moduli (GPa) = 97.87232 65.49197 94.98977
#
# Poissons Ratio (x) = 0.38413 0.36212
# Poissons Ratio (y) = 0.57405 -0.05145
# Poissons Ratio (z) = 0.37311 -0.03547
#
# Static dielectric constant tensor:
#      x y z
#    x 4.365880 0.000000 0.000000 
#    y 0.000000 4.188860 0.000000 
#    z 0.000000 0.000000 3.599470 
# 
# 
# High freq. dielectric constant tensor:
#      x y z
#    x 1.902200 0.000000 0.000000 
#    y 0.000000 1.885330 0.000000 
#    z 0.000000 0.000000 1.841930 
# 
# From -- ./inp_files/20092.got.cif
#   From: 2010.03.12/outbox.cif.g09.slc.cpg/sg20_11_cif.got.tgz:20092.got - 2010.04.14 01:38:04.
