data_PCOD8159339
_publ_section_title
;
Structure prediction by ZEFSAII (Michael W. Deem and Ramdas Pophale) SiO2 
 PCOD8159339
Probable space group: C 2 2 21
;
_chemical_formula_sum "Si O2"
_cell_formula_units_Z 32
_cell_length_a 4.978312
_cell_length_b 20.550162
_cell_length_c 13.414867
_cell_angle_alpha 90.000000
_cell_angle_beta 90.000000
_cell_angle_gamma 90.000000
_cell_volume 1372.409553
_symmetry_space_group_name_H-M "C 2 2 21"
_symmetry_group_IT_number 20
_symmetry_cell_setting 'orthorhombic'
loop_
_space_group_symop_operation_xyz
x,y,z
-x,-y,1/2+z
x,-y,-z
-x,y,1/2-z
1/2+x,1/2+y,z
1/2-x,1/2-y,1/2+z
1/2+x,1/2-y,-z
1/2-x,1/2+y,1/2-z
loop_
_atom_site_type_symbol
_atom_site_label
_atom_site_fract_x
_atom_site_fract_y
_atom_site_fract_z
Si Si1 0.943440 0.707558 0.007234
Si Si2 0.978720 0.016239 0.636352
Si Si3 0.242856 0.880701 0.816250
Si Si4 0.483802 0.908993 0.369386
O O1 0.060739 0.660034 0.922207
O O2 0.689509 0.745911 0.962246
O O3 0.848707 0.672363 0.107614
O O4 0.263954 0.038114 0.591629
O O5 0.000000 0.035662 0.750000
O O6 0.757717 0.062046 0.585751
O O7 0.894679 0.941042 0.624776
O O8 0.500000 0.904916 0.750000
O O9 0.000000 0.850264 0.750000
O O10 0.500000 0.899910 0.250000
#
# Coordination Sequence:
#
# PCOD8159339 Si02
#       4
#     8   8   8   8
#     4  12  27  44  63  96 135 180 237 273 316 408
#     4   9  18  37  65  95 124 157 207 267 337 403
#     4  11  23  43  69  98 135 177 221 283 348 400
#     4  10  21  40  65  93 126 164 207 270 335 388
#
# _framework density 23.316655000000001
#
# number of rings (size 3 to 8) (size 9 to 14) (size 15 to 20)
#    0.000    1.500    0.000    6.750    0.000    4.000 
#    0.000    7.500    0.000    0.000    0.000    0.000 
#    0.000    0.000    0.000    0.000    0.000    0.000 
#
# Total GULP energy -198278.095098 kJ/mol
# GULP energy per Si atom -12392.380944 kJ/mol
# Density = 2.326358 g / cm^3
# Si number density = 23.316655 Si / 1000 Ang^3
#
#
#
# Elastic Constant Matrix: (Units=GPa)
#
#
# Indices 1 2 3 4 5 6 
#
# 1 146.4587 56.7607 37.4164 0.0000 0.0000 0.0000
# 2 56.7607 132.8186 46.2873 0.0000 0.0000 0.0000
# 3 37.4164 46.2873 84.3747 0.0000 0.0000 0.0000
# 4 0.0000 0.0000 0.0000 10.7923 0.0000 0.0000
# 5 0.0000 0.0000 0.0000 0.0000 22.0504 0.0000
# 6 0.0000 0.0000 0.0000 0.0000 0.0000 58.7143
#
#
#
# Elastic Compliance Matrix: (Units=1/GPa)
#
#
# Indices 1 2 3 4 5 6 
#
# 1 0.008500 -0.002867 -0.002197 0.000000 0.000000 0.000000
# 2 -0.002867 0.010276 -0.004366 0.000000 0.000000 0.000000
# 3 -0.002197 -0.004366 0.015221 0.000000 0.000000 0.000000
# 4 0.000000 0.000000 0.000000 0.092659 0.000000 0.000000
# 5 0.000000 0.000000 0.000000 0.000000 0.045351 0.000000
# 6 0.000000 0.000000 0.000000 0.000000 0.000000 0.017032
#
#
# Mechanical properties :
#
#
# Convention : Reuss Voigt Hill
#
# Bulk Modulus (GPa) = 66.05866 71.62009 68.83938
# Shear Modulus (GPa) = 23.48042 33.19057 28.33549
#
# Velocity S-wave (km/s) = 3.17681 3.77698 3.48982
# Velocity P-wave (km/s) = 6.46906 7.05718 6.76951
#
# Compressibility (1/GPa) = 0.01513806
#
# Stress axis : x y z
#
# Youngs Moduli (GPa) = 117.64445 97.31598 65.69861
#
# Poissons Ratio (x) = 0.27901 0.14431
# Poissons Ratio (y) = 0.33730 0.28683
# Poissons Ratio (z) = 0.25842 0.42486
#
# Static dielectric constant tensor:
#      x y z
#    x 4.947750 0.000000 0.000000 
#    y 0.000000 3.997360 0.000000 
#    z 0.000000 0.000000 3.981000 
# 
# 
# High freq. dielectric constant tensor:
#      x y z
#    x 1.951050 0.000000 0.000000 
#    y 0.000000 1.910950 0.000000 
#    z 0.000000 0.000000 1.911940 
# 
# From -- ./inp_files/17439.got.cif
#   From: 2010.03.12/outbox.cif.g09.slc.cpg/sg20_9_cif.got.tgz:17439.got - 2010.04.14 01:38:04.
