data_PCOD8159039
_publ_section_title
;
Structure prediction by ZEFSAII (Michael W. Deem and Ramdas Pophale) SiO2 
 PCOD8159039
Probable space group: C 2 2 21
;
_chemical_formula_sum "Si O2"
_cell_formula_units_Z 36
_cell_length_a 21.836210
_cell_length_b 10.670748
_cell_length_c 6.428736
_cell_angle_alpha 90.000000
_cell_angle_beta 90.000000
_cell_angle_gamma 90.000000
_cell_volume 1497.951381
_symmetry_space_group_name_H-M "C 2 2 21"
_symmetry_group_IT_number 20
_symmetry_cell_setting 'orthorhombic'
loop_
_space_group_symop_operation_xyz
x,y,z
-x,-y,1/2+z
x,-y,-z
-x,y,1/2-z
1/2+x,1/2+y,z
1/2-x,1/2-y,1/2+z
1/2+x,1/2-y,-z
1/2-x,1/2+y,1/2-z
loop_
_atom_site_type_symbol
_atom_site_label
_atom_site_fract_x
_atom_site_fract_y
_atom_site_fract_z
Si Si1 0.097540 0.376042 0.115297
Si Si2 0.322724 0.364573 0.966388
Si Si3 0.301933 0.187698 0.308603
Si Si4 0.564327 0.608898 0.159826
Si Si5 0.646601 0.000000 0.500000
O O1 0.055817 0.251944 0.071946
O O2 0.104245 0.404858 0.362770
O O3 0.069810 0.500000 0.000000
O O4 0.164139 0.340786 0.024231
O O5 0.269981 0.284581 0.848180
O O6 0.385262 0.376770 0.839727
O O7 0.293327 0.500000 0.000000
O O8 0.334440 0.305058 0.193828
O O9 0.308987 0.070079 0.156901
O O10 0.500000 0.561695 0.250000
O O11 0.585642 0.500000 0.000000
#
# Coordination Sequence:
#
# PCOD8159039 Si02
#       5
#     8   8   8   8   4
#     4  10  22  46  73 107 142 184 238 313 378 451
#     4  12  25  41  70 103 143 195 241 296 375 449
#     4  11  24  40  69 107 146 178 232 309 380 451
#     4  12  27  50  70 101 148 201 256 308 361 443
#     4  10  20  42  70 104 142 176 226 306 380 442
#
# _framework density 24.032823
#
# number of rings (size 3 to 8) (size 9 to 14) (size 15 to 20)
#    0.000    0.889    2.222    5.333    4.667    0.000 
#    2.000    0.000    0.000    0.000    0.000    0.000 
#    0.000    0.000    0.000    0.000    0.000    0.000 
#
# Total GULP energy -223098.589378 kJ/mol
# GULP energy per Si atom -12394.366077 kJ/mol
# Density = 2.397812 g / cm^3
# Si number density = 24.032823 Si / 1000 Ang^3
#
#
#
# Elastic Constant Matrix: (Units=GPa)
#
#
# Indices 1 2 3 4 5 6 
#
# 1 95.2644 18.5019 38.2988 0.0000 0.0000 0.0000
# 2 18.5019 156.7031 51.9059 0.0000 0.0000 0.0000
# 3 38.2988 51.9059 120.0127 0.0000 0.0000 0.0000
# 4 0.0000 0.0000 0.0000 55.3029 0.0000 0.0000
# 5 0.0000 0.0000 0.0000 0.0000 31.4311 0.0000
# 6 0.0000 0.0000 0.0000 0.0000 0.0000 23.1656
#
#
#
# Elastic Compliance Matrix: (Units=1/GPa)
#
#
# Indices 1 2 3 4 5 6 
#
# 1 0.012046 -0.000174 -0.003769 0.000000 0.000000 0.000000
# 2 -0.000174 0.007451 -0.003167 0.000000 0.000000 0.000000
# 3 -0.003769 -0.003167 0.010905 0.000000 0.000000 0.000000
# 4 0.000000 0.000000 0.000000 0.018082 0.000000 0.000000
# 5 0.000000 0.000000 0.000000 0.000000 0.031816 0.000000
# 6 0.000000 0.000000 0.000000 0.000000 0.000000 0.043167
#
#
# Mechanical properties :
#
#
# Convention : Reuss Voigt Hill
#
# Bulk Modulus (GPa) = 61.79614 65.48816 63.64215
# Shear Modulus (GPa) = 34.94508 39.53148 37.23828
#
# Velocity S-wave (km/s) = 3.81735 4.06013 3.94061
# Velocity P-wave (km/s) = 6.72299 7.02055 6.87338
#
# Compressibility (1/GPa) = 0.01618224
#
# Stress axis : x y z
#
# Youngs Moduli (GPa) = 83.01434 134.20839 91.70077
#
# Poissons Ratio (x) = 0.02333 0.34562
# Poissons Ratio (y) = 0.01443 0.29043
# Poissons Ratio (z) = 0.31288 0.42506
#
# Static dielectric constant tensor:
#      x y z
#    x 3.737060 0.000000 0.000000 
#    y 0.000000 5.171960 0.000000 
#    z 0.000000 0.000000 4.524060 
# 
# 
# High freq. dielectric constant tensor:
#      x y z
#    x 1.914580 0.000000 0.000000 
#    y 0.000000 1.981410 0.000000 
#    z 0.000000 0.000000 1.956490 
# 
# From -- ./inp_files/3559.got.cif
#   From: 2010.03.12/outbox.cif.g09.slc.cpg/sg20_2_cif.got.tgz:3559.got - 2010.04.14 01:38:04.
