data_PCOD8159288
_publ_section_title
;
Structure prediction by ZEFSAII (Michael W. Deem and Ramdas Pophale) SiO2 
 PCOD8159288
Probable space group: C 2 2 21
;
_chemical_formula_sum "Si O2"
_cell_formula_units_Z 60
_cell_length_a 18.149655
_cell_length_b 8.486913
_cell_length_c 17.773318
_cell_angle_alpha 90.000000
_cell_angle_beta 90.000000
_cell_angle_gamma 90.000000
_cell_volume 2737.704915
_symmetry_space_group_name_H-M "C 2 2 21"
_symmetry_group_IT_number 20
_symmetry_cell_setting 'orthorhombic'
loop_
_space_group_symop_operation_xyz
x,y,z
-x,-y,1/2+z
x,-y,-z
-x,y,1/2-z
1/2+x,1/2+y,z
1/2-x,1/2-y,1/2+z
1/2+x,1/2-y,-z
1/2-x,1/2+y,1/2-z
loop_
_atom_site_type_symbol
_atom_site_label
_atom_site_fract_x
_atom_site_fract_y
_atom_site_fract_z
Si Si1 0.042263 0.000000 0.500000
Si Si2 0.418105 0.785497 0.267312
Si Si3 0.838369 0.856836 0.359926
Si Si4 0.629820 0.135159 0.255343
Si Si5 0.207098 0.061466 0.275280
Si Si6 0.718928 0.186782 0.007349
Si Si7 0.842910 0.825677 0.103373
Si Si8 0.089648 0.848747 0.927815
O O1 0.091727 0.086903 0.561236
O O2 0.993150 0.134560 0.459378
O O3 0.500000 0.726110 0.250000
O O4 0.359257 0.687341 0.218912
O O5 0.405405 0.757225 0.354318
O O6 0.410143 0.969396 0.249102
O O7 0.899274 0.755756 0.310082
O O8 0.778155 0.749546 0.406288
O O9 0.793855 0.965233 0.302235
O O10 0.882427 0.971604 0.416775
O O11 0.714720 0.144806 0.228613
O O12 0.621231 0.196506 0.340755
O O13 0.203814 0.949613 0.347663
O O14 0.786138 0.744610 0.043718
O O15 0.639394 0.249596 0.984089
O O16 0.724289 0.000000 0.000000
#
# Coordination Sequence:
#
# PCOD8159288 Si02
#       8
#     4   8   8   8   8   8   8   8
#     4  12  24  44  66  98 148 178 222 268 358 420
#     4  11  23  41  66  96 134 172 224 277 336 388
#     4  10  21  39  66  93 124 177 232 262 312 413
#     4  11  23  41  69 101 132 169 230 287 335 387
#     4  10  21  42  68  95 133 178 228 275 332 406
#     4  12  22  40  67 100 128 170 228 278 334 398
#     4  11  24  41  67 103 139 175 218 289 352 403
#     4  11  23  43  67  91 131 187 224 262 324 421
#
# _framework density 21.916167000000002
#
# number of rings (size 3 to 8) (size 9 to 14) (size 15 to 20)
#    0.000    1.067    2.000    6.400    0.000    1.067 
#    4.800    1.333    0.000    0.000    0.000    0.000 
#    0.000    0.000    0.000    0.000    0.000    0.000 
#
# Total GULP energy -371919.112873 kJ/mol
# GULP energy per Si atom -12397.303762 kJ/mol
# Density = 2.186628 g / cm^3
# Si number density = 21.916167 Si / 1000 Ang^3
#
#
#
# Elastic Constant Matrix: (Units=GPa)
#
#
# Indices 1 2 3 4 5 6 
#
# 1 93.2551 1.7289 13.8400 0.0000 0.0000 0.0000
# 2 1.7289 84.5128 23.9063 0.0000 0.0000 0.0000
# 3 13.8400 23.9063 96.2870 0.0000 0.0000 0.0000
# 4 0.0000 0.0000 0.0000 43.3258 0.0000 0.0000
# 5 0.0000 0.0000 0.0000 0.0000 21.1831 0.0000
# 6 0.0000 0.0000 0.0000 0.0000 0.0000 35.9521
#
#
#
# Elastic Compliance Matrix: (Units=1/GPa)
#
#
# Indices 1 2 3 4 5 6 
#
# 1 0.010961 0.000238 -0.001635 0.000000 0.000000 0.000000
# 2 0.000238 0.012731 -0.003195 0.000000 0.000000 0.000000
# 3 -0.001635 -0.003195 0.011414 0.000000 0.000000 0.000000
# 4 0.000000 0.000000 0.000000 0.023081 0.000000 0.000000
# 5 0.000000 0.000000 0.000000 0.000000 0.047207 0.000000
# 6 0.000000 0.000000 0.000000 0.000000 0.000000 0.027815
#
#
# Mechanical properties :
#
#
# Convention : Reuss Voigt Hill
#
# Bulk Modulus (GPa) = 38.57528 39.22281 38.89905
# Shear Modulus (GPa) = 33.10498 35.73086 34.41792
#
# Velocity S-wave (km/s) = 3.89077 4.04213 3.96717
# Velocity P-wave (km/s) = 6.15009 6.30244 6.22673
#
# Compressibility (1/GPa) = 0.02592334
#
# Stress axis : x y z
#
# Youngs Moduli (GPa) = 91.22872 78.54538 87.61243
#
# Poissons Ratio (x) = -0.01871 0.14322
# Poissons Ratio (y) = -0.02173 0.27994
# Poissons Ratio (z) = 0.14913 0.25097
#
# Static dielectric constant tensor:
#      x y z
#    x 3.816520 0.000000 0.000000 
#    y 0.000000 4.004730 0.000000 
#    z 0.000000 0.000000 4.426320 
# 
# 
# High freq. dielectric constant tensor:
#      x y z
#    x 1.840130 0.000000 0.000000 
#    y 0.000000 1.864870 0.000000 
#    z 0.000000 0.000000 1.889030 
# 
# From -- ./inp_files/25263.got.cif
#   From: 2010.03.12/outbox.cif.g09.slc.cpg/sg20_13_cif.got.tgz:25263.got - 2010.04.14 01:38:04.
