data_PCOD8159735
_publ_section_title
;
Structure prediction by ZEFSAII (Michael W. Deem and Ramdas Pophale) SiO2 
 PCOD8159735
Probable space group: C 2 2 21
;
_chemical_formula_sum "Si O2"
_cell_formula_units_Z 36
_cell_length_a 5.023434
_cell_length_b 27.437123
_cell_length_c 12.002375
_cell_angle_alpha 90.000000
_cell_angle_beta 90.000000
_cell_angle_gamma 90.000000
_cell_volume 1654.270261
_symmetry_space_group_name_H-M "C 2 2 21"
_symmetry_group_IT_number 20
_symmetry_cell_setting 'orthorhombic'
loop_
_space_group_symop_operation_xyz
x,y,z
-x,-y,1/2+z
x,-y,-z
-x,y,1/2-z
1/2+x,1/2+y,z
1/2-x,1/2-y,1/2+z
1/2+x,1/2-y,-z
1/2-x,1/2+y,1/2-z
loop_
_atom_site_type_symbol
_atom_site_label
_atom_site_fract_x
_atom_site_fract_y
_atom_site_fract_z
Si Si1 0.748097 0.515608 0.824705
Si Si2 0.285789 0.921916 0.964374
Si Si3 0.716824 0.641870 0.437620
Si Si4 0.000000 0.209343 0.250000
Si Si5 0.754135 0.267284 0.440338
O O1 0.500000 0.532059 0.750000
O O2 0.681035 0.465107 0.885893
O O3 0.000000 0.505968 0.750000
O O4 0.820558 0.558287 0.910788
O O5 0.564992 0.900286 0.919571
O O6 0.070055 0.879833 0.963159
O O7 0.687475 0.675611 0.327536
O O8 0.805696 0.674607 0.544491
O O9 0.808632 0.245820 0.318567
O O10 0.446063 0.259350 0.470865
#
# Coordination Sequence:
#
# PCOD8159735 Si02
#       5
#     8   8   8   4   8
#     4  11  24  45  69  94 140 174 208 263 347 388
#     4  11  25  43  66 104 132 167 220 281 308 392
#     4  11  23  41  68  99 133 166 229 269 314 398
#     4  10  24  42  70  94 132 176 218 268 342 370
#     4  10  22  42  61  93 134 168 207 271 328 377
#
# _framework density 21.761863000000002
#
# number of rings (size 3 to 8) (size 9 to 14) (size 15 to 20)
#    0.000    1.333    0.000    5.333    4.667   10.667 
#    6.000    0.000    4.889    0.000    0.000    0.000 
#    0.000    0.000    0.000    0.000    0.000    0.000 
#
# Total GULP energy -223220.604681 kJ/mol
# GULP energy per Si atom -12401.144704 kJ/mol
# Density = 2.171233 g / cm^3
# Si number density = 21.761863 Si / 1000 Ang^3
#
#
#
# Elastic Constant Matrix: (Units=GPa)
#
#
# Indices 1 2 3 4 5 6 
#
# 1 94.6220 25.8929 27.0004 0.0000 0.0000 0.0000
# 2 25.8929 94.0416 63.4496 0.0000 0.0000 0.0000
# 3 27.0004 63.4496 121.0191 0.0000 0.0000 0.0000
# 4 0.0000 0.0000 0.0000 37.9216 0.0000 0.0000
# 5 0.0000 0.0000 0.0000 0.0000 28.7125 0.0000
# 6 0.0000 0.0000 0.0000 0.0000 0.0000 38.4268
#
#
#
# Elastic Compliance Matrix: (Units=1/GPa)
#
#
# Indices 1 2 3 4 5 6 
#
# 1 0.011583 -0.002237 -0.001412 0.000000 0.000000 0.000000
# 2 -0.002237 0.016886 -0.008354 0.000000 0.000000 0.000000
# 3 -0.001412 -0.008354 0.012958 0.000000 0.000000 0.000000
# 4 0.000000 0.000000 0.000000 0.026370 0.000000 0.000000
# 5 0.000000 0.000000 0.000000 0.000000 0.034828 0.000000
# 6 0.000000 0.000000 0.000000 0.000000 0.000000 0.026023
#
#
# Mechanical properties :
#
#
# Convention : Reuss Voigt Hill
#
# Bulk Modulus (GPa) = 57.39806 60.26317 58.83062
# Shear Modulus (GPa) = 31.55334 33.90150 32.72742
#
# Velocity S-wave (km/s) = 3.81194 3.95123 3.88221
# Velocity P-wave (km/s) = 6.76811 6.96911 6.86934
#
# Compressibility (1/GPa) = 0.01742219
#
# Stress axis : x y z
#
# Youngs Moduli (GPa) = 86.33146 59.22047 77.17156
#
# Poissons Ratio (x) = 0.13247 0.10893
# Poissons Ratio (y) = 0.19312 0.64471
# Poissons Ratio (z) = 0.12186 0.49474
#
# Static dielectric constant tensor:
#      x y z
#    x 3.788570 0.000000 0.000000 
#    y 0.000000 4.101690 0.000000 
#    z 0.000000 0.000000 4.013050 
# 
# 
# High freq. dielectric constant tensor:
#      x y z
#    x 1.865040 0.000000 0.000000 
#    y 0.000000 1.863420 0.000000 
#    z 0.000000 0.000000 1.847640 
# 
# From -- ./inp_files/12052.got.cif
#   From: 2010.03.12/outbox.cif.g09.slc.cpg/sg20_7_cif.got.tgz:12052.got - 2010.04.14 01:38:04.
