data_PCOD8159304
_publ_section_title
;
Structure prediction by ZEFSAII (Michael W. Deem and Ramdas Pophale) SiO2 
 PCOD8159304
Probable space group: C 2 2 21
;
_chemical_formula_sum "Si O2"
_cell_formula_units_Z 52
_cell_length_a 8.025460
_cell_length_b 18.756860
_cell_length_c 16.950374
_cell_angle_alpha 90.000000
_cell_angle_beta 90.000000
_cell_angle_gamma 90.000000
_cell_volume 2551.580982
_symmetry_space_group_name_H-M "C 2 2 21"
_symmetry_group_IT_number 20
_symmetry_cell_setting 'orthorhombic'
loop_
_space_group_symop_operation_xyz
x,y,z
-x,-y,1/2+z
x,-y,-z
-x,y,1/2-z
1/2+x,1/2+y,z
1/2-x,1/2-y,1/2+z
1/2+x,1/2-y,-z
1/2-x,1/2+y,1/2-z
loop_
_atom_site_type_symbol
_atom_site_label
_atom_site_fract_x
_atom_site_fract_y
_atom_site_fract_z
Si Si1 0.000000 0.314080 0.750000
Si Si2 0.535530 0.606251 0.414832
Si Si3 0.241803 0.146648 0.979347
Si Si4 0.732072 0.000000 0.000000
Si Si5 0.273998 0.259332 0.851927
Si Si6 0.500000 0.839725 0.250000
Si Si7 0.812825 0.591070 0.138969
Si Si8 0.477740 0.943990 0.114985
O O1 0.086161 0.269471 0.820017
O O2 0.149066 0.360980 0.714363
O O3 0.452627 0.636322 0.496426
O O4 0.660667 0.543299 0.436413
O O5 0.627506 0.667225 0.364838
O O6 0.385510 0.573291 0.361055
O O7 0.267048 0.222864 0.938101
O O8 0.302902 0.086519 0.917965
O O9 0.353109 0.136774 0.059023
O O10 0.616599 0.945122 0.047314
O O11 0.356943 0.210768 0.784316
O O12 0.560387 0.892902 0.180798
O O13 0.931646 0.522366 0.145920
#
# Coordination Sequence:
#
# PCOD8159304 Si02
#       8
#     4   8   8   4   8   4   8   8
#     4  12  25  38  64  88 129 168 214 256 330 393
#     4  10  23  37  63  92 126 161 215 269 313 377
#     4   9  22  39  63  88 124 164 213 265 317 379
#     4  12  20  36  66 100 120 166 220 264 320 378
#     4  11  24  41  61  89 128 172 207 264 320 391
#     4  10  25  42  60  90 127 168 202 264 320 391
#     4  10  21  40  61  92 123 164 208 271 314 380
#     4  11  20  40  66  92 128 165 218 262 323 385
#
# _framework density 20.379522000000001
#
# number of rings (size 3 to 8) (size 9 to 14) (size 15 to 20)
#    0.923    0.615    1.538    3.231    2.154    2.462 
#    0.000    0.000    0.000    1.846    0.000    0.000 
#    0.000    0.000    0.000    0.000    0.000    0.000 
#
# Total GULP energy -322190.173695 kJ/mol
# GULP energy per Si atom -12391.929758 kJ/mol
# Density = 2.033314 g / cm^3
# Si number density = 20.379522 Si / 1000 Ang^3
#
#
#
# Elastic Constant Matrix: (Units=GPa)
#
#
# Indices 1 2 3 4 5 6 
#
# 1 101.0566 43.8035 31.7358 0.0000 0.0000 0.0000
# 2 43.8035 96.5348 43.7481 0.0000 0.0000 0.0000
# 3 31.7358 43.7481 85.8326 0.0000 0.0000 0.0000
# 4 0.0000 0.0000 0.0000 40.3575 0.0000 0.0000
# 5 0.0000 0.0000 0.0000 0.0000 38.4869 0.0000
# 6 0.0000 0.0000 0.0000 0.0000 0.0000 14.8684
#
#
#
# Elastic Compliance Matrix: (Units=1/GPa)
#
#
# Indices 1 2 3 4 5 6 
#
# 1 0.012652 -0.004708 -0.002278 0.000000 0.000000 0.000000
# 2 -0.004708 0.015223 -0.006018 0.000000 0.000000 0.000000
# 3 -0.002278 -0.006018 0.015560 0.000000 0.000000 0.000000
# 4 0.000000 0.000000 0.000000 0.024779 0.000000 0.000000
# 5 0.000000 0.000000 0.000000 0.000000 0.025983 0.000000
# 6 0.000000 0.000000 0.000000 0.000000 0.000000 0.067257
#
#
# Mechanical properties :
#
#
# Convention : Reuss Voigt Hill
#
# Bulk Modulus (GPa) = 57.38637 57.99985 57.69311
# Shear Modulus (GPa) = 25.87049 29.68500 27.77775
#
# Velocity S-wave (km/s) = 3.56678 3.82070 3.69592
# Velocity P-wave (km/s) = 6.72179 6.92714 6.82524
#
# Compressibility (1/GPa) = 0.01742574
#
# Stress axis : x y z
#
# Youngs Moduli (GPa) = 79.04052 65.69127 64.26673
#
# Poissons Ratio (x) = 0.30931 0.14640
# Poissons Ratio (y) = 0.37216 0.38675
# Poissons Ratio (z) = 0.18005 0.39533
#
# Static dielectric constant tensor:
#      x y z
#    x 3.538570 0.000000 0.000000 
#    y 0.000000 3.604920 0.000000 
#    z 0.000000 0.000000 3.700730 
# 
# 
# High freq. dielectric constant tensor:
#      x y z
#    x 1.785340 0.000000 0.000000 
#    y 0.000000 1.790350 0.000000 
#    z 0.000000 0.000000 1.797040 
# 
# From -- ./inp_files/23725.got.cif
#   From: 2010.03.12/outbox.cif.g09.slc.cpg/sg20_12_cif.got.tgz:23725.got - 2010.04.14 01:38:04.
