data_PCOD8159933
_publ_section_title
;
Structure prediction by ZEFSAII (Michael W. Deem and Ramdas Pophale) SiO2 
 PCOD8159933
Probable space group: C 2 2 21
;
_chemical_formula_sum "Si O2"
_cell_formula_units_Z 60
_cell_length_a 26.597338
_cell_length_b 8.827739
_cell_length_c 12.006420
_cell_angle_alpha 90.000000
_cell_angle_beta 90.000000
_cell_angle_gamma 90.000000
_cell_volume 2819.039675
_symmetry_space_group_name_H-M "C 2 2 21"
_symmetry_group_IT_number 20
_symmetry_cell_setting 'orthorhombic'
loop_
_space_group_symop_operation_xyz
x,y,z
-x,-y,1/2+z
x,-y,-z
-x,y,1/2-z
1/2+x,1/2+y,z
1/2-x,1/2-y,1/2+z
1/2+x,1/2-y,-z
1/2-x,1/2+y,1/2-z
loop_
_atom_site_type_symbol
_atom_site_label
_atom_site_fract_x
_atom_site_fract_y
_atom_site_fract_z
Si Si1 0.708367 0.306384 0.702017
Si Si2 0.907819 0.181230 0.260593
Si Si3 0.045730 0.827383 0.990668
Si Si4 0.365359 0.752158 0.902313
Si Si5 0.444487 0.160962 0.940664
Si Si6 0.942067 0.845786 0.267763
Si Si7 0.224137 0.526093 0.376527
Si Si8 0.695682 0.500000 0.500000
O O1 0.650430 0.330665 0.731991
O O2 0.740532 0.363944 0.805859
O O3 0.725134 0.386003 0.583900
O O4 0.719347 0.129596 0.689904
O O5 0.915316 0.211297 0.392255
O O6 0.937195 0.316148 0.192912
O O7 0.934721 0.021203 0.234056
O O8 0.997093 0.724486 0.980587
O O9 0.074177 0.799807 0.107099
O O10 0.026389 0.000000 0.000000
O O11 0.405640 0.759543 0.803662
O O12 0.330689 0.899398 0.890143
O O13 0.396071 0.746206 0.017443
O O14 0.334186 0.597486 0.907757
O O15 0.438809 0.000000 0.000000
O O16 0.000000 0.800724 0.250000
O O17 0.247259 0.500000 0.500000
#
# Coordination Sequence:
#
# PCOD8159933 Si02
#       8
#     8   8   8   8   8   8   8   4
#     4  12  26  46  73 107 136 191 235 306 360 431
#     4  11  22  41  69  97 142 179 234 287 359 419
#     4  10  23  41  64  98 136 182 232 286 347 420
#     4  12  22  42  69 101 136 184 237 294 341 422
#     4  12  23  40  66  97 134 184 231 288 343 415
#     4  11  21  39  68 103 137 183 239 286 345 421
#     4  12  27  49  74 103 145 180 246 296 368 429
#     4  12  22  42  76 102 136 182 244 292 352 418
#
# _framework density 21.283843999999998
#
# number of rings (size 3 to 8) (size 9 to 14) (size 15 to 20)
#    0.000    0.533    5.333    4.000    0.933    1.600 
#    7.200    0.000    0.000    0.000    0.000    0.000 
#    0.000    0.000    0.000    0.000    0.000    0.000 
#
# Total GULP energy -371829.460643 kJ/mol
# GULP energy per Si atom -12394.315355 kJ/mol
# Density = 2.123540 g / cm^3
# Si number density = 21.283844 Si / 1000 Ang^3
#
#
#
# Elastic Constant Matrix: (Units=GPa)
#
#
# Indices 1 2 3 4 5 6 
#
# 1 73.7570 19.4575 49.2700 0.0000 0.0000 0.0000
# 2 19.4575 73.5594 52.2215 0.0000 0.0000 0.0000
# 3 49.2700 52.2215 162.1229 0.0000 0.0000 0.0000
# 4 0.0000 0.0000 0.0000 36.3640 0.0000 0.0000
# 5 0.0000 0.0000 0.0000 0.0000 10.0656 0.0000
# 6 0.0000 0.0000 0.0000 0.0000 0.0000 8.9749
#
#
#
# Elastic Compliance Matrix: (Units=1/GPa)
#
#
# Indices 1 2 3 4 5 6 
#
# 1 0.017077 -0.001080 -0.004842 0.000000 0.000000 0.000000
# 2 -0.001080 0.017693 -0.005371 0.000000 0.000000 0.000000
# 3 -0.004842 -0.005371 0.009370 0.000000 0.000000 0.000000
# 4 0.000000 0.000000 0.000000 0.027500 0.000000 0.000000
# 5 0.000000 0.000000 0.000000 0.000000 0.099349 0.000000
# 6 0.000000 0.000000 0.000000 0.000000 0.000000 0.111422
#
#
# Mechanical properties :
#
#
# Convention : Reuss Voigt Hill
#
# Bulk Modulus (GPa) = 46.39377 61.25969 53.82673
# Shear Modulus (GPa) = 16.01634 23.64691 19.83162
#
# Velocity S-wave (km/s) = 2.74617 3.33682 3.05580
# Velocity P-wave (km/s) = 5.64803 6.60988 6.14780
#
# Compressibility (1/GPa) = 0.02155462
#
# Stress axis : x y z
#
# Youngs Moduli (GPa) = 58.55682 56.51940 106.72618
#
# Poissons Ratio (x) = 0.06102 0.51678
# Poissons Ratio (y) = 0.06322 0.57323
# Poissons Ratio (z) = 0.28354 0.30357
#
# Static dielectric constant tensor:
#      x y z
#    x 3.681040 0.000000 0.000000 
#    y 0.000000 3.798580 0.000000 
#    z 0.000000 0.000000 4.252270 
# 
# 
# High freq. dielectric constant tensor:
#      x y z
#    x 1.816950 0.000000 0.000000 
#    y 0.000000 1.832360 0.000000 
#    z 0.000000 0.000000 1.853280 
# 
# From -- ./inp_files/17065.got.cif
#   From: 2010.03.12/outbox.cif.g09.slc.cpg/sg20_9_cif.got.tgz:17065.got - 2010.04.14 01:38:04.
