data_PCOD8159109
_publ_section_title
;
Structure prediction by ZEFSAII (Michael W. Deem and Ramdas Pophale) SiO2 
 PCOD8159109
Probable space group: C 2 2 21
;
_chemical_formula_sum "Si O2"
_cell_formula_units_Z 60
_cell_length_a 18.632680
_cell_length_b 11.254658
_cell_length_c 14.487513
_cell_angle_alpha 90.000000
_cell_angle_beta 90.000000
_cell_angle_gamma 90.000000
_cell_volume 3038.095815
_symmetry_space_group_name_H-M "C 2 2 21"
_symmetry_group_IT_number 20
_symmetry_cell_setting 'orthorhombic'
loop_
_space_group_symop_operation_xyz
x,y,z
-x,-y,1/2+z
x,-y,-z
-x,y,1/2-z
1/2+x,1/2+y,z
1/2-x,1/2-y,1/2+z
1/2+x,1/2-y,-z
1/2-x,1/2+y,1/2-z
loop_
_atom_site_type_symbol
_atom_site_label
_atom_site_fract_x
_atom_site_fract_y
_atom_site_fract_z
Si Si1 0.880989 0.912386 0.805942
Si Si2 0.748982 0.686461 0.570621
Si Si3 0.735132 0.910826 0.884704
Si Si4 0.480705 0.368472 0.976425
Si Si5 0.083335 0.487693 0.888957
Si Si6 0.602563 0.254608 0.865443
Si Si7 0.500000 0.849797 0.750000
Si Si8 0.101242 0.817791 0.343273
O O1 0.794700 0.889104 0.805412
O O2 0.914726 0.839601 0.721275
O O3 0.917430 0.867934 0.900476
O O4 0.896030 0.052495 0.795993
O O5 0.744917 0.691580 0.459529
O O6 0.757983 0.546332 0.583313
O O7 0.814803 0.768182 0.603920
O O8 0.678859 0.730145 0.624718
O O9 0.650913 0.903361 0.859128
O O10 0.549452 0.292215 0.947259
O O11 0.507637 0.500000 0.000000
O O12 0.450198 0.310811 0.068588
O O13 0.089806 0.616970 0.841844
O O14 0.014038 0.428754 0.841582
O O15 0.076218 0.500000 0.000000
O O16 0.429768 0.770166 0.766917
#
# Coordination Sequence:
#
# PCOD8159109 Si02
#       8
#     8   8   8   8   8   8   4   8
#     4  10  21  35  64  94 120 153 205 260 301 362
#     4   9  17  36  61  83 112 164 207 244 298 365
#     4   9  16  37  62  84 113 160 210 243 293 369
#     4  10  21  37  62  87 121 160 197 245 315 368
#     4  11  23  44  64  86 122 170 212 246 304 383
#     4  11  22  36  64  93 119 154 207 262 297 359
#     4  12  28  38  62  92 128 164 206 260 312 366
#     4  10  22  40  58  90 125 163 205 252 310 365
#
# _framework density 19.749212
#
# number of rings (size 3 to 8) (size 9 to 14) (size 15 to 20)
#    0.000    1.867    4.000    1.200    7.467    0.000 
#    0.000    0.000    0.000    2.400    0.000    0.000 
#    0.000    0.000    0.000    0.000    0.000    0.000 
#
# Total GULP energy -371776.179594 kJ/mol
# GULP energy per Si atom -12392.539320 kJ/mol
# Density = 1.970426 g / cm^3
# Si number density = 19.749212 Si / 1000 Ang^3
#
#
#
# Elastic Constant Matrix: (Units=GPa)
#
#
# Indices 1 2 3 4 5 6 
#
# 1 110.0345 48.8360 34.8365 0.0000 0.0000 0.0000
# 2 48.8360 67.3092 42.8362 0.0000 0.0000 0.0000
# 3 34.8365 42.8362 79.8537 0.0000 0.0000 0.0000
# 4 0.0000 0.0000 0.0000 24.7012 0.0000 0.0000
# 5 0.0000 0.0000 0.0000 0.0000 23.6994 0.0000
# 6 0.0000 0.0000 0.0000 0.0000 0.0000 23.7463
#
#
#
# Elastic Compliance Matrix: (Units=1/GPa)
#
#
# Indices 1 2 3 4 5 6 
#
# 1 0.013453 -0.009149 -0.000961 0.000000 0.000000 0.000000
# 2 -0.009149 0.028780 -0.011447 0.000000 0.000000 0.000000
# 3 -0.000961 -0.011447 0.019083 0.000000 0.000000 0.000000
# 4 0.000000 0.000000 0.000000 0.040484 0.000000 0.000000
# 5 0.000000 0.000000 0.000000 0.000000 0.042195 0.000000
# 6 0.000000 0.000000 0.000000 0.000000 0.000000 0.042112
#
#
# Mechanical properties :
#
#
# Convention : Reuss Voigt Hill
#
# Bulk Modulus (GPa) = 54.94183 56.69053 55.81618
# Shear Modulus (GPa) = 21.25052 23.14196 22.19624
#
# Velocity S-wave (km/s) = 3.28383 3.42686 3.35611
# Velocity P-wave (km/s) = 6.50063 6.66523 6.58345
#
# Compressibility (1/GPa) = 0.01820107
#
# Stress axis : x y z
#
# Youngs Moduli (GPa) = 74.33333 34.74625 52.40315
#
# Poissons Ratio (x) = 0.31790 0.05036
# Poissons Ratio (y) = 0.68009 0.59987
# Poissons Ratio (z) = 0.07143 0.39775
#
# Static dielectric constant tensor:
#      x y z
#    x 3.900510 0.000000 0.000000 
#    y 0.000000 3.317250 0.000000 
#    z 0.000000 0.000000 3.463670 
# 
# 
# High freq. dielectric constant tensor:
#      x y z
#    x 1.780680 0.000000 0.000000 
#    y 0.000000 1.743890 0.000000 
#    z 0.000000 0.000000 1.756970 
# 
# From -- ./inp_files/21452.got.cif
#   From: 2010.03.12/outbox.cif.g09.slc.cpg/sg20_11_cif.got.tgz:21452.got - 2010.04.14 01:38:04.
