data_PCOD8159981
_publ_section_title
;
Structure prediction by ZEFSAII (Michael W. Deem and Ramdas Pophale) SiO2 
 PCOD8159981
Probable space group: C 2 2 21
;
_chemical_formula_sum "Si O2"
_cell_formula_units_Z 52
_cell_length_a 8.183670
_cell_length_b 20.966999
_cell_length_c 14.799278
_cell_angle_alpha 90.000000
_cell_angle_beta 90.000000
_cell_angle_gamma 90.000000
_cell_volume 2539.363725
_symmetry_space_group_name_H-M "C 2 2 21"
_symmetry_group_IT_number 20
_symmetry_cell_setting 'orthorhombic'
loop_
_space_group_symop_operation_xyz
x,y,z
-x,-y,1/2+z
x,-y,-z
-x,y,1/2-z
1/2+x,1/2+y,z
1/2-x,1/2-y,1/2+z
1/2+x,1/2-y,-z
1/2-x,1/2+y,1/2-z
loop_
_atom_site_type_symbol
_atom_site_label
_atom_site_fract_x
_atom_site_fract_y
_atom_site_fract_z
Si Si1 0.877439 0.191733 0.916482
Si Si2 0.452430 0.075650 0.148755
Si Si3 0.325026 0.248704 0.736245
Si Si4 0.107296 0.500000 0.000000
Si Si5 0.141086 0.297586 0.913175
Si Si6 0.906741 0.883571 0.663502
Si Si7 0.580661 0.429641 0.494980
O O1 0.797403 0.202977 0.818212
O O2 0.009948 0.244479 0.939538
O O3 0.745673 0.190322 0.997349
O O4 0.963660 0.120619 0.914632
O O5 0.500000 0.058320 0.250000
O O6 0.543831 0.139858 0.118676
O O7 0.257715 0.079303 0.140378
O O8 0.497139 0.015138 0.086800
O O9 0.500000 0.213301 0.750000
O O10 0.249107 0.271330 0.830529
O O11 0.362431 0.309832 0.674339
O O12 0.224152 0.438960 0.016177
O O13 0.000000 0.912333 0.750000
O O14 0.040169 0.891226 0.585575
O O15 0.492924 0.500000 0.500000
#
# Coordination Sequence:
#
# PCOD8159981 Si02
#       7
#     8   8   8   4   8   8   8
#     4  12  22  39  67  93 133 171 215 278 344 393
#     4  12  22  42  70 100 131 176 231 280 335 404
#     4  11  23  40  66 101 131 169 215 281 344 413
#     4  10  24  42  68  92 134 176 230 286 320 402
#     4  12  22  41  65 104 133 171 222 279 345 414
#     4  11  21  39  67  96 123 168 223 276 329 400
#     4  10  23  43  61  88 132 175 219 265 329 398
#
# _framework density 20.477571000000001
#
# number of rings (size 3 to 8) (size 9 to 14) (size 15 to 20)
#    0.462    0.308    4.615    5.077    1.077    0.000 
#    0.000    2.308    0.000    0.000    0.000    0.000 
#    0.000    0.000    0.000    0.000    0.000    0.000 
#
# Total GULP energy -322165.152782 kJ/mol
# GULP energy per Si atom -12390.967415 kJ/mol
# Density = 2.043096 g / cm^3
# Si number density = 20.477571 Si / 1000 Ang^3
#
#
#
# Elastic Constant Matrix: (Units=GPa)
#
#
# Indices 1 2 3 4 5 6 
#
# 1 94.7382 27.3533 23.8435 0.0000 0.0000 0.0000
# 2 27.3533 82.5606 48.5892 0.0000 0.0000 0.0000
# 3 23.8435 48.5892 73.5921 0.0000 0.0000 0.0000
# 4 0.0000 0.0000 0.0000 36.8658 0.0000 0.0000
# 5 0.0000 0.0000 0.0000 0.0000 44.7719 0.0000
# 6 0.0000 0.0000 0.0000 0.0000 0.0000 31.5342
#
#
#
# Elastic Compliance Matrix: (Units=1/GPa)
#
#
# Indices 1 2 3 4 5 6 
#
# 1 0.011856 -0.002727 -0.002041 0.000000 0.000000 0.000000
# 2 -0.002727 0.020437 -0.012610 0.000000 0.000000 0.000000
# 3 -0.002041 -0.012610 0.022576 0.000000 0.000000 0.000000
# 4 0.000000 0.000000 0.000000 0.027125 0.000000 0.000000
# 5 0.000000 0.000000 0.000000 0.000000 0.022335 0.000000
# 6 0.000000 0.000000 0.000000 0.000000 0.000000 0.031712
#
#
# Mechanical properties :
#
#
# Convention : Reuss Voigt Hill
#
# Bulk Modulus (GPa) = 49.71908 50.05143 49.88525
# Shear Modulus (GPa) = 28.16869 32.70806 30.43837
#
# Velocity S-wave (km/s) = 3.71292 4.00091 3.85960
# Velocity P-wave (km/s) = 6.53555 6.77039 6.65401
#
# Compressibility (1/GPa) = 0.02011300
#
# Stress axis : x y z
#
# Youngs Moduli (GPa) = 84.34248 48.93032 44.29580
#
# Poissons Ratio (x) = 0.13344 0.09040
# Poissons Ratio (y) = 0.23001 0.55858
# Poissons Ratio (z) = 0.17213 0.61702
#
# Static dielectric constant tensor:
#      x y z
#    x 4.659570 0.000000 0.000000 
#    y 0.000000 3.752520 0.000000 
#    z 0.000000 0.000000 3.722280 
# 
# 
# High freq. dielectric constant tensor:
#      x y z
#    x 1.812200 0.000000 0.000000 
#    y 0.000000 1.786170 0.000000 
#    z 0.000000 0.000000 1.796200 
# 
# From -- ./inp_files/19124.got.cif
#   From: 2010.03.12/outbox.cif.g09.slc.cpg/sg20_10_cif.got.tgz:19124.got - 2010.04.14 01:38:04.
