data_PCOD8159592
_publ_section_title
;
Structure prediction by ZEFSAII (Michael W. Deem and Ramdas Pophale) SiO2 
 PCOD8159592
Probable space group: C 2 2 21
;
_chemical_formula_sum "Si O2"
_cell_formula_units_Z 32
_cell_length_a 13.426963
_cell_length_b 7.539803
_cell_length_c 18.411849
_cell_angle_alpha 90.000000
_cell_angle_beta 90.000000
_cell_angle_gamma 90.000000
_cell_volume 1863.954022
_symmetry_space_group_name_H-M "C 2 2 21"
_symmetry_group_IT_number 20
_symmetry_cell_setting 'orthorhombic'
loop_
_space_group_symop_operation_xyz
x,y,z
-x,-y,1/2+z
x,-y,-z
-x,y,1/2-z
1/2+x,1/2+y,z
1/2-x,1/2-y,1/2+z
1/2+x,1/2-y,-z
1/2-x,1/2+y,1/2-z
loop_
_atom_site_type_symbol
_atom_site_label
_atom_site_fract_x
_atom_site_fract_y
_atom_site_fract_z
Si Si1 0.321361 0.466105 0.915330
Si Si2 0.693219 0.779380 0.681298
Si Si3 0.718615 0.656511 0.840294
Si Si4 0.994628 0.917020 0.170521
O O1 0.264625 0.627719 0.873698
O O2 0.264600 0.282956 0.901199
O O3 0.435609 0.453142 0.884979
O O4 0.323454 0.500000 0.000000
O O5 0.736385 0.743075 0.761505
O O6 0.572182 0.762883 0.681410
O O7 0.725542 0.970048 0.653664
O O8 0.602792 0.629548 0.859884
O O9 0.000000 0.011297 0.250000
#
# Coordination Sequence:
#
# PCOD8159592 Si02
#       4
#     8   8   8   8
#     4  10  22  39  53  88 121 137 190 248 273 327
#     4   9  19  35  58  84 105 147 192 227 273 337
#     4  11  17  39  61  77 115 150 188 230 279 338
#     4   8  18  37  56  82 108 144 196 223 269 351
#
# _framework density 17.167805999999999
#
# number of rings (size 3 to 8) (size 9 to 14) (size 15 to 20)
#    1.500    1.000    2.500    0.000    0.000    1.000 
#    9.000    1.250    0.000    0.000    0.000    0.000 
#    0.000    0.000    0.000    0.000    0.000    0.000 
#
# Total GULP energy -198236.251670 kJ/mol
# GULP energy per Si atom -12389.765729 kJ/mol
# Density = 1.712873 g / cm^3
# Si number density = 17.167806 Si / 1000 Ang^3
#
#
#
# Elastic Constant Matrix: (Units=GPa)
#
#
# Indices 1 2 3 4 5 6 
#
# 1 89.2733 22.0011 23.0976 0.0000 0.0000 0.0000
# 2 22.0011 72.2100 16.0196 0.0000 0.0000 0.0000
# 3 23.0976 16.0196 83.1019 0.0000 0.0000 0.0000
# 4 0.0000 0.0000 0.0000 18.1942 0.0000 0.0000
# 5 0.0000 0.0000 0.0000 0.0000 18.7161 0.0000
# 6 0.0000 0.0000 0.0000 0.0000 0.0000 19.7759
#
#
#
# Elastic Compliance Matrix: (Units=1/GPa)
#
#
# Indices 1 2 3 4 5 6 
#
# 1 0.012755 -0.003238 -0.002921 0.000000 0.000000 0.000000
# 2 -0.003238 0.015289 -0.002047 0.000000 0.000000 0.000000
# 3 -0.002921 -0.002047 0.013240 0.000000 0.000000 0.000000
# 4 0.000000 0.000000 0.000000 0.054963 0.000000 0.000000
# 5 0.000000 0.000000 0.000000 0.000000 0.053430 0.000000
# 6 0.000000 0.000000 0.000000 0.000000 0.000000 0.050567
#
#
# Mechanical properties :
#
#
# Convention : Reuss Voigt Hill
#
# Bulk Modulus (GPa) = 40.20675 40.75800 40.48237
# Shear Modulus (GPa) = 22.22740 23.56836 22.89788
#
# Velocity S-wave (km/s) = 3.60212 3.70918 3.65604
# Velocity P-wave (km/s) = 6.38522 6.49127 6.43846
#
# Compressibility (1/GPa) = 0.02487145
#
# Stress axis : x y z
#
# Youngs Moduli (GPa) = 78.39833 65.40509 75.52899
#
# Poissons Ratio (x) = 0.21180 0.22062
# Poissons Ratio (y) = 0.25388 0.15463
# Poissons Ratio (z) = 0.22900 0.13390
#
# Static dielectric constant tensor:
#      x y z
#    x 3.142660 0.000000 0.000000 
#    y 0.000000 2.957000 0.000000 
#    z 0.000000 0.000000 3.021560 
# 
# 
# High freq. dielectric constant tensor:
#      x y z
#    x 1.654390 0.000000 0.000000 
#    y 0.000000 1.641340 0.000000 
#    z 0.000000 0.000000 1.653530 
# 
# From -- ./inp_files/19521.got.cif
#   From: 2010.03.12/outbox.cif.g09.slc.cpg/sg20_10_cif.got.tgz:19521.got - 2010.04.14 01:38:04.
