data_PCOD8159243
_publ_section_title
;
Structure prediction by ZEFSAII (Michael W. Deem and Ramdas Pophale) SiO2 
 PCOD8159243
Probable space group: C 2 2 21
;
_chemical_formula_sum "Si O2"
_cell_formula_units_Z 60
_cell_length_a 27.555893
_cell_length_b 12.048662
_cell_length_c 8.654929
_cell_angle_alpha 90.000000
_cell_angle_beta 90.000000
_cell_angle_gamma 90.000000
_cell_volume 2873.537179
_symmetry_space_group_name_H-M "C 2 2 21"
_symmetry_group_IT_number 20
_symmetry_cell_setting 'orthorhombic'
loop_
_space_group_symop_operation_xyz
x,y,z
-x,-y,1/2+z
x,-y,-z
-x,y,1/2-z
1/2+x,1/2+y,z
1/2-x,1/2-y,1/2+z
1/2+x,1/2-y,-z
1/2-x,1/2+y,1/2-z
loop_
_atom_site_type_symbol
_atom_site_label
_atom_site_fract_x
_atom_site_fract_y
_atom_site_fract_z
Si Si1 0.433704 0.500000 0.500000
Si Si2 0.805108 0.756928 0.215217
Si Si3 0.618835 0.371983 0.495740
Si Si4 0.470936 0.892808 0.600189
Si Si5 0.364499 0.123126 0.443142
Si Si6 0.491588 0.322739 0.081055
Si Si7 0.763752 0.876346 0.499959
Si Si8 0.637695 0.668803 0.159847
O O1 0.470176 0.577614 0.593641
O O2 0.402628 0.423128 0.613933
O O3 0.852211 0.818375 0.146384
O O4 0.822146 0.657017 0.325252
O O5 0.774615 0.841365 0.322904
O O6 0.773292 0.711243 0.074529
O O7 0.633212 0.500000 0.500000
O O8 0.561374 0.360950 0.467993
O O9 0.634543 0.314794 0.656100
O O10 0.500000 0.926561 0.750000
O O11 0.415034 0.870538 0.647517
O O12 0.491668 0.789314 0.492170
O O13 0.472839 0.000000 0.500000
O O14 0.368625 0.210145 0.585230
O O15 0.351282 0.000000 0.500000
O O16 0.500000 0.269708 0.250000
O O17 0.811419 0.881816 0.606411
O O18 0.741008 0.000000 0.500000
#
# Coordination Sequence:
#
# PCOD8159243 Si02
#       8
#     4   8   8   8   8   8   8   8
#     4  12  22  40  66  96 138 174 208 276 314 398
#     4  11  25  43  67  97 129 169 222 271 334 395
#     4  12  25  41  66 101 136 172 219 272 330 401
#     4  10  21  39  60  86 125 173 216 263 317 377
#     4  10  23  44  66  89 130 174 218 272 326 388
#     4  11  23  38  62  95 133 172 216 256 326 386
#     4  11  24  44  69  94 130 171 215 278 334 392
#     4  11  24  42  68  98 132 173 221 268 337 389
#
# _framework density 20.880189000000001
#
# number of rings (size 3 to 8) (size 9 to 14) (size 15 to 20)
#    0.000    1.067    2.667    4.000    3.733    5.333 
#    0.000    2.667    0.000    0.000    0.000    0.000 
#    0.000    0.000    0.000    0.000    0.000    0.000 
#
# Total GULP energy -371845.320972 kJ/mol
# GULP energy per Si atom -12394.844032 kJ/mol
# Density = 2.083266 g / cm^3
# Si number density = 20.880189 Si / 1000 Ang^3
#
#
#
# Elastic Constant Matrix: (Units=GPa)
#
#
# Indices 1 2 3 4 5 6 
#
# 1 83.2947 46.3397 21.3540 0.0000 0.0000 0.0000
# 2 46.3397 79.4032 4.3773 0.0000 0.0000 0.0000
# 3 21.3540 4.3773 78.1909 0.0000 0.0000 0.0000
# 4 0.0000 0.0000 0.0000 -65.4468 0.0000 0.0000
# 5 0.0000 0.0000 0.0000 0.0000 31.5084 0.0000
# 6 0.0000 0.0000 0.0000 0.0000 0.0000 30.2682
#
#
#
# Elastic Compliance Matrix: (Units=1/GPa)
#
#
# Indices 1 2 3 4 5 6 
#
# 1 0.019336 -0.011027 -0.004663 0.000000 0.000000 0.000000
# 2 -0.011027 0.018922 0.001952 0.000000 0.000000 0.000000
# 3 -0.004663 0.001952 0.013953 0.000000 0.000000 0.000000
# 4 0.000000 0.000000 0.000000 -0.015280 0.000000 0.000000
# 5 0.000000 0.000000 0.000000 0.000000 0.031738 0.000000
# 6 0.000000 0.000000 0.000000 0.000000 0.000000 0.033038
#
#
# Mechanical properties :
#
#
# Convention : Reuss Voigt Hill
#
# Bulk Modulus (GPa) = 40.42932 42.78119 41.60525
# Shear Modulus (GPa) = 36.38236 10.52047 23.45141
#
# Velocity S-wave (km/s) = 4.17878 2.24709 3.35497
# Velocity P-wave (km/s) = 6.53356 5.22168 5.91411
#
# Compressibility (1/GPa) = 0.02473452
#
# Stress axis : x y z
#
# Youngs Moduli (GPa) = 51.71693 52.84872 71.66669
#
# Poissons Ratio (x) = 0.58279 0.33421
# Poissons Ratio (y) = 0.57030 -0.13992
# Poissons Ratio (z) = 0.24117 -0.10318
#
# Static dielectric constant tensor:
#      x y z
#    x 5.718480 0.000000 0.000000 
#    y 0.000000 4.001530 0.000000 
#    z 0.000000 0.000000 3.600990 
# 
# 
# High freq. dielectric constant tensor:
#      x y z
#    x 1.822560 0.000000 0.000000 
#    y 0.000000 1.839490 0.000000 
#    z 0.000000 0.000000 1.806240 
# 
# From -- ./inp_files/11153.got.cif
#   From: 2010.03.12/outbox.cif.g09.slc.cpg/sg20_6_cif.got.tgz:11153.got - 2010.04.14 01:38:04.
