data_PCOD8159268
_publ_section_title
;
Structure prediction by ZEFSAII (Michael W. Deem and Ramdas Pophale) SiO2 
 PCOD8159268
Probable space group: C 2 2 21
;
_chemical_formula_sum "Si O2"
_cell_formula_units_Z 52
_cell_length_a 8.746724
_cell_length_b 12.180659
_cell_length_c 25.002672
_cell_angle_alpha 90.000000
_cell_angle_beta 90.000000
_cell_angle_gamma 90.000000
_cell_volume 2663.806237
_symmetry_space_group_name_H-M "C 2 2 21"
_symmetry_group_IT_number 20
_symmetry_cell_setting 'orthorhombic'
loop_
_space_group_symop_operation_xyz
x,y,z
-x,-y,1/2+z
x,-y,-z
-x,y,1/2-z
1/2+x,1/2+y,z
1/2-x,1/2-y,1/2+z
1/2+x,1/2-y,-z
1/2-x,1/2+y,1/2-z
loop_
_atom_site_type_symbol
_atom_site_label
_atom_site_fract_x
_atom_site_fract_y
_atom_site_fract_z
Si Si1 0.294623 0.686400 0.266129
Si Si2 0.000000 0.420218 0.750000
Si Si3 0.805246 0.500000 0.000000
Si Si4 0.049634 0.857963 0.947852
Si Si5 0.811948 0.000000 0.000000
Si Si6 0.184413 0.417713 0.179287
Si Si7 0.067216 0.388772 0.064927
Si Si8 0.941624 0.911420 0.829011
O O1 0.121126 0.656841 0.280151
O O2 0.314644 0.811390 0.283385
O O3 0.398768 0.594080 0.296150
O O4 0.331815 0.676400 0.202247
O O5 0.914865 0.489610 0.706052
O O6 0.703523 0.423843 0.961461
O O7 0.906432 0.566615 0.957153
O O8 0.087863 0.732000 0.959349
O O9 0.983825 0.875663 0.888602
O O10 0.915620 0.894713 0.987636
O O11 0.704814 0.969271 0.049299
O O12 0.084407 0.382660 0.128297
O O13 0.355860 0.468750 0.169584
#
# Coordination Sequence:
#
# PCOD8159268 Si02
#       8
#     8   4   4   8   4   8   8   8
#     4  10  22  41  60  89 123 156 201 254 299 366
#     4  10  24  38  60  90 122 156 204 250 296 374
#     4  10  26  40  60  94 126 160 208 256 298 364
#     4  11  21  41  63  88 123 162 202 254 308 361
#     4  10  22  40  62  86 124 160 206 250 306 368
#     4  11  22  39  64  90 121 164 199 252 312 356
#     4  11  22  39  64  89 122 162 204 254 305 364
#     4  10  21  39  64  89 122 162 203 247 308 370
#
# _framework density 19.520938000000001
#
# number of rings (size 3 to 8) (size 9 to 14) (size 15 to 20)
#    0.000    1.538    3.077    1.846    2.154    2.462 
#    0.000    3.077    0.000    0.000    0.000    0.000 
#    0.000    0.000    0.000    0.000    0.000    0.000 
#
# Total GULP energy -322170.008300 kJ/mol
# GULP energy per Si atom -12391.154165 kJ/mol
# Density = 1.947651 g / cm^3
# Si number density = 19.520938 Si / 1000 Ang^3
#
#
#
# Elastic Constant Matrix: (Units=GPa)
#
#
# Indices 1 2 3 4 5 6 
#
# 1 137.6052 53.7388 32.3816 0.0000 0.0000 0.0000
# 2 53.7388 107.8373 30.6095 0.0000 0.0000 0.0000
# 3 32.3816 30.6095 68.3418 0.0000 0.0000 0.0000
# 4 0.0000 0.0000 0.0000 -20.8632 0.0000 0.0000
# 5 0.0000 0.0000 0.0000 0.0000 17.3714 0.0000
# 6 0.0000 0.0000 0.0000 0.0000 0.0000 26.9310
#
#
#
# Elastic Compliance Matrix: (Units=1/GPa)
#
#
# Indices 1 2 3 4 5 6 
#
# 1 0.009442 -0.003936 -0.002711 0.000000 0.000000 0.000000
# 2 -0.003936 0.012264 -0.003628 0.000000 0.000000 0.000000
# 3 -0.002711 -0.003628 0.017542 0.000000 0.000000 0.000000
# 4 0.000000 0.000000 0.000000 -0.047931 0.000000 0.000000
# 5 0.000000 0.000000 0.000000 0.000000 0.057566 0.000000
# 6 0.000000 0.000000 0.000000 0.000000 0.000000 0.037132
#
#
# Mechanical properties :
#
#
# Convention : Reuss Voigt Hill
#
# Bulk Modulus (GPa) = 53.48079 60.80490 57.14285
# Shear Modulus (GPa) = 44.32686 17.82478 31.07582
#
# Velocity S-wave (km/s) = 4.77039 3.02505 3.99422
# Velocity P-wave (km/s) = 7.60252 6.58919 7.11392
#
# Compressibility (1/GPa) = 0.01869830
#
# Stress axis : x y z
#
# Youngs Moduli (GPa) = 105.90759 81.53645 57.00627
#
# Poissons Ratio (x) = 0.32091 0.15455
# Poissons Ratio (y) = 0.41683 0.20683
# Poissons Ratio (z) = 0.28712 0.29583
#
# Static dielectric constant tensor:
#      x y z
#    x 4.066430 0.000000 0.000000 
#    y 0.000000 3.619930 0.000000 
#    z 0.000000 0.000000 3.571810 
# 
# 
# High freq. dielectric constant tensor:
#      x y z
#    x 1.772950 0.000000 0.000000 
#    y 0.000000 1.757220 0.000000 
#    z 0.000000 0.000000 1.759560 
# 
# From -- ./inp_files/30137.got.cif
#   From: 2010.03.12/outbox.cif.g09.slc.cpg/sg20_16_cif.got.tgz:30137.got - 2010.04.14 01:38:04.
