data_PCOD8159201
_publ_section_title
;
Structure prediction by ZEFSAII (Michael W. Deem and Ramdas Pophale) SiO2 
 PCOD8159201
Probable space group: C 2 2 21
;
_chemical_formula_sum "Si O2"
_cell_formula_units_Z 32
_cell_length_a 17.238895
_cell_length_b 17.870437
_cell_length_c 4.917228
_cell_angle_alpha 90.000000
_cell_angle_beta 90.000000
_cell_angle_gamma 90.000000
_cell_volume 1514.833648
_symmetry_space_group_name_H-M "C 2 2 21"
_symmetry_group_IT_number 20
_symmetry_cell_setting 'orthorhombic'
loop_
_space_group_symop_operation_xyz
x,y,z
-x,-y,1/2+z
x,-y,-z
-x,y,1/2-z
1/2+x,1/2+y,z
1/2-x,1/2-y,1/2+z
1/2+x,1/2-y,-z
1/2-x,1/2+y,1/2-z
loop_
_atom_site_type_symbol
_atom_site_label
_atom_site_fract_x
_atom_site_fract_y
_atom_site_fract_z
Si Si1 0.449225 0.108419 0.989082
Si Si2 0.948472 0.776697 0.983944
Si Si3 0.276592 0.295857 0.904734
Si Si4 0.295470 0.952465 0.770314
O O1 0.500000 0.118400 0.250000
O O2 0.373689 0.062166 0.059452
O O3 0.500000 0.068085 0.750000
O O4 0.427439 0.192009 0.894311
O O5 0.863865 0.814365 0.006551
O O6 0.000000 0.815522 0.750000
O O7 0.000000 0.785368 0.250000
O O8 0.273757 0.238267 0.651500
O O9 0.242424 0.374718 0.811044
O O10 0.311153 0.000000 0.500000
O O11 0.246335 0.000000 0.000000
#
# Coordination Sequence:
#
# PCOD8159201 Si02
#       4
#     8   8   8   8
#     4  10  21  38  61  88 130 172 209 251 311 390
#     4  10  21  38  65  97 127 160 216 279 321 370
#     4  12  24  42  71  96 127 177 225 271 320 384
#     4  12  26  42  63  96 138 175 218 268 328 387
#
# _framework density 21.124434000000001
#
# number of rings (size 3 to 8) (size 9 to 14) (size 15 to 20)
#    0.000    1.000    2.500    4.500    7.000    2.000 
#    0.000    0.000    0.000    3.000    0.000    0.000 
#    0.000    0.000    0.000    0.000    0.000    0.000 
#
# Total GULP energy -198296.591135 kJ/mol
# GULP energy per Si atom -12393.536946 kJ/mol
# Density = 2.107635 g / cm^3
# Si number density = 21.124434 Si / 1000 Ang^3
#
#
#
# Elastic Constant Matrix: (Units=GPa)
#
#
# Indices 1 2 3 4 5 6 
#
# 1 140.7623 54.3669 61.4520 0.0000 0.0000 0.0000
# 2 54.3669 92.1811 45.2747 0.0000 0.0000 0.0000
# 3 61.4520 45.2747 166.3411 0.0000 0.0000 0.0000
# 4 0.0000 0.0000 0.0000 34.0565 0.0000 0.0000
# 5 0.0000 0.0000 0.0000 0.0000 36.6677 0.0000
# 6 0.0000 0.0000 0.0000 0.0000 0.0000 5.5774
#
#
#
# Elastic Compliance Matrix: (Units=1/GPa)
#
#
# Indices 1 2 3 4 5 6 
#
# 1 0.009968 -0.004699 -0.002404 0.000000 0.000000 0.000000
# 2 -0.004699 0.014737 -0.002275 0.000000 0.000000 0.000000
# 3 -0.002404 -0.002275 0.007519 0.000000 0.000000 0.000000
# 4 0.000000 0.000000 0.000000 0.029363 0.000000 0.000000
# 5 0.000000 0.000000 0.000000 0.000000 0.027272 0.000000
# 6 0.000000 0.000000 0.000000 0.000000 0.000000 0.179296
#
#
# Mechanical properties :
#
#
# Convention : Reuss Voigt Hill
#
# Bulk Modulus (GPa) = 74.24441 80.16353 77.20397
# Shear Modulus (GPa) = 17.15855 31.13971 24.14913
#
# Velocity S-wave (km/s) = 2.85311 3.84358 3.38477
# Velocity P-wave (km/s) = 6.78794 7.59790 7.20431
#
# Compressibility (1/GPa) = 0.01346903
#
# Stress axis : x y z
#
# Youngs Moduli (GPa) = 100.31796 67.85728 132.99527
#
# Poissons Ratio (x) = 0.31883 0.31969
# Poissons Ratio (y) = 0.47135 0.30260
# Poissons Ratio (z) = 0.24114 0.15439
#
# Static dielectric constant tensor:
#      x y z
#    x 3.821830 0.000000 0.000000 
#    y 0.000000 3.855410 0.000000 
#    z 0.000000 0.000000 4.200310 
# 
# 
# High freq. dielectric constant tensor:
#      x y z
#    x 1.813780 0.000000 0.000000 
#    y 0.000000 1.809080 0.000000 
#    z 0.000000 0.000000 1.856610 
# 
# From -- ./inp_files/1573.got.cif
#   From: 2010.03.12/outbox.cif.g09.slc.cpg/sg20_1_cif.got.tgz:1573.got - 2010.04.14 01:38:04.
