data_PCOD8159784
_publ_section_title
;
Structure prediction by ZEFSAII (Michael W. Deem and Ramdas Pophale) SiO2 
 PCOD8159784
Probable space group: C 2 2 21
;
_chemical_formula_sum "Si O2"
_cell_formula_units_Z 56
_cell_length_a 12.763780
_cell_length_b 13.824599
_cell_length_c 14.606276
_cell_angle_alpha 90.000000
_cell_angle_beta 90.000000
_cell_angle_gamma 90.000000
_cell_volume 2577.337873
_symmetry_space_group_name_H-M "C 2 2 21"
_symmetry_group_IT_number 20
_symmetry_cell_setting 'orthorhombic'
loop_
_space_group_symop_operation_xyz
x,y,z
-x,-y,1/2+z
x,-y,-z
-x,y,1/2-z
1/2+x,1/2+y,z
1/2-x,1/2-y,1/2+z
1/2+x,1/2-y,-z
1/2-x,1/2+y,1/2-z
loop_
_atom_site_type_symbol
_atom_site_label
_atom_site_fract_x
_atom_site_fract_y
_atom_site_fract_z
Si Si1 0.000000 0.213812 0.250000
Si Si2 0.961826 0.458901 0.598008
Si Si3 0.375017 0.799291 0.947350
Si Si4 0.384018 0.423572 0.071052
Si Si5 0.687043 0.617089 0.146675
Si Si6 0.579456 0.500000 0.000000
Si Si7 0.221676 0.530126 0.780353
Si Si8 0.897427 0.632873 0.857905
O O1 0.900298 0.151802 0.281380
O O2 0.975254 0.277750 0.160158
O O3 0.926822 0.500000 0.500000
O O4 0.857577 0.462113 0.660728
O O5 0.017763 0.352755 0.589591
O O6 0.045267 0.530071 0.642919
O O7 0.389762 0.685982 0.965545
O O8 0.278657 0.806187 0.876072
O O9 0.342583 0.848938 0.044298
O O10 0.505738 0.455440 0.081133
O O11 0.321405 0.432093 0.164472
O O12 0.330100 0.500000 0.000000
O O13 0.645166 0.584239 0.047593
O O14 0.741989 0.526670 0.191931
O O15 0.174254 0.627313 0.733588
#
# Coordination Sequence:
#
# PCOD8159784 Si02
#       8
#     4   8   8   8   8   4   8   8
#     4  12  24  42  64 102 130 186 228 276 338 406
#     4  10  22  42  68  98 136 172 216 286 343 401
#     4  11  24  44  71 101 132 182 232 270 341 411
#     4  10  25  48  66  96 138 181 228 276 335 407
#     4  12  25  41  72  98 134 183 231 278 334 413
#     4  10  24  50  62  90 142 184 220 278 342 406
#     4  12  22  43  70 103 137 172 226 289 338 391
#     4  11  22  41  70  96 137 175 220 279 336 401
#
# _framework density 21.727846
#
# number of rings (size 3 to 8) (size 9 to 14) (size 15 to 20)
#    0.429    0.571    2.857    3.857    3.000    0.000 
#    2.571    4.286    0.000    0.000    0.000    0.000 
#    0.000    0.000    0.000    0.000    0.000    0.000 
#
# Total GULP energy -346946.773975 kJ/mol
# GULP energy per Si atom -12390.956213 kJ/mol
# Density = 2.167839 g / cm^3
# Si number density = 21.727846 Si / 1000 Ang^3
#
#
#
# Elastic Constant Matrix: (Units=GPa)
#
#
# Indices 1 2 3 4 5 6 
#
# 1 91.8221 27.6229 35.4458 0.0000 0.0000 0.0000
# 2 27.6229 105.8552 11.9087 0.0000 0.0000 0.0000
# 3 35.4458 11.9087 81.9104 0.0000 0.0000 0.0000
# 4 0.0000 0.0000 0.0000 28.3539 0.0000 0.0000
# 5 0.0000 0.0000 0.0000 0.0000 45.2147 0.0000
# 6 0.0000 0.0000 0.0000 0.0000 0.0000 22.5351
#
#
#
# Elastic Compliance Matrix: (Units=1/GPa)
#
#
# Indices 1 2 3 4 5 6 
#
# 1 0.013960 -0.003012 -0.005603 0.000000 0.000000 0.000000
# 2 -0.003012 0.010254 -0.000187 0.000000 0.000000 0.000000
# 3 -0.005603 -0.000187 0.014660 0.000000 0.000000 0.000000
# 4 0.000000 0.000000 0.000000 0.035269 0.000000 0.000000
# 5 0.000000 0.000000 0.000000 0.000000 0.022117 0.000000
# 6 0.000000 0.000000 0.000000 0.000000 0.000000 0.044375
#
#
# Mechanical properties :
#
#
# Convention : Reuss Voigt Hill
#
# Bulk Modulus (GPa) = 47.01708 47.72693 47.37200
# Shear Modulus (GPa) = 30.24269 32.86145 31.55207
#
# Velocity S-wave (km/s) = 3.73485 3.89319 3.81484
# Velocity P-wave (km/s) = 6.34703 6.49790 6.42291
#
# Compressibility (1/GPa) = 0.02126887
#
# Stress axis : x y z
#
# Youngs Moduli (GPa) = 71.63449 97.52266 68.21146
#
# Poissons Ratio (x) = 0.29378 0.38219
# Poissons Ratio (y) = 0.21580 0.01277
# Poissons Ratio (z) = 0.40136 0.01825
#
# Static dielectric constant tensor:
#      x y z
#    x 3.910920 0.000000 0.000000 
#    y 0.000000 3.797920 0.000000 
#    z 0.000000 0.000000 3.892160 
# 
# 
# High freq. dielectric constant tensor:
#      x y z
#    x 1.852490 0.000000 0.000000 
#    y 0.000000 1.845540 0.000000 
#    z 0.000000 0.000000 1.857280 
# 
# From -- ./inp_files/20779.got.cif
#   From: 2010.03.12/outbox.cif.g09.slc.cpg/sg20_11_cif.got.tgz:20779.got - 2010.04.14 01:38:04.
