data_PCOD8159376
_publ_section_title
;
Structure prediction by ZEFSAII (Michael W. Deem and Ramdas Pophale) SiO2 
 PCOD8159376
Probable space group: C 2 2 21
;
_chemical_formula_sum "Si O2"
_cell_formula_units_Z 60
_cell_length_a 27.181575
_cell_length_b 11.750471
_cell_length_c 8.881749
_cell_angle_alpha 90.000000
_cell_angle_beta 90.000000
_cell_angle_gamma 90.000000
_cell_volume 2836.797846
_symmetry_space_group_name_H-M "C 2 2 21"
_symmetry_group_IT_number 20
_symmetry_cell_setting 'orthorhombic'
loop_
_space_group_symop_operation_xyz
x,y,z
-x,-y,1/2+z
x,-y,-z
-x,y,1/2-z
1/2+x,1/2+y,z
1/2-x,1/2-y,1/2+z
1/2+x,1/2-y,-z
1/2-x,1/2+y,1/2-z
loop_
_atom_site_type_symbol
_atom_site_label
_atom_site_fract_x
_atom_site_fract_y
_atom_site_fract_z
Si Si1 0.508427 0.130634 0.016705
Si Si2 0.187047 0.742527 0.827845
Si Si3 0.655393 0.006677 0.173136
Si Si4 0.106675 0.113003 0.314625
Si Si5 0.576039 0.847707 0.712887
Si Si6 0.214343 0.268597 0.825766
Si Si7 0.500000 0.292135 0.750000
Si Si8 0.638224 0.363006 0.344206
O O1 0.450143 0.143544 0.050811
O O2 0.537353 0.176968 0.157589
O O3 0.521743 0.208378 0.875761
O O4 0.523141 0.000000 0.000000
O O5 0.177776 0.612744 0.778638
O O6 0.136181 0.811759 0.806473
O O7 0.228068 0.783229 0.709530
O O8 0.204886 0.761083 0.999194
O O9 0.605797 0.034604 0.265299
O O10 0.693703 0.106376 0.208946
O O11 0.639895 0.000000 0.000000
O O12 0.130239 0.141642 0.476899
O O13 0.047084 0.132615 0.305539
O O14 0.117945 0.981337 0.278023
O O15 0.609441 0.738714 0.732707
O O16 0.193568 0.167495 0.714400
#
# Coordination Sequence:
#
# PCOD8159376 Si02
#       8
#     8   8   8   8   8   8   4   8
#     4  11  24  37  64  93 134 169 216 272 327 387
#     4  11  24  43  69 102 132 176 220 278 333 404
#     4   9  21  38  66  94 129 168 211 266 330 397
#     4  11  26  44  68  94 135 182 223 282 335 388
#     4  10  21  41  63  93 124 178 211 267 332 382
#     4  10  23  44  70 100 134 173 223 268 342 404
#     4  12  26  44  62 104 130 176 236 266 330 406
#     4  10  23  48  65  92 133 175 224 274 334 402
#
# _framework density 21.150607999999998
#
# number of rings (size 3 to 8) (size 9 to 14) (size 15 to 20)
#    0.000    1.600    1.333    2.000   11.200    1.600 
#    0.000    4.667    0.000    0.000    0.000    0.000 
#    0.000    0.000    0.000    0.000    0.000    0.000 
#
# Total GULP energy -371840.040539 kJ/mol
# GULP energy per Si atom -12394.668018 kJ/mol
# Density = 2.110247 g / cm^3
# Si number density = 21.150608 Si / 1000 Ang^3
#
#
#
# Elastic Constant Matrix: (Units=GPa)
#
#
# Indices 1 2 3 4 5 6 
#
# 1 103.0281 30.1148 30.4922 0.0000 0.0000 0.0000
# 2 30.1148 111.4954 25.7962 0.0000 0.0000 0.0000
# 3 30.4922 25.7962 76.5200 0.0000 0.0000 0.0000
# 4 0.0000 0.0000 0.0000 30.3762 0.0000 0.0000
# 5 0.0000 0.0000 0.0000 0.0000 36.3787 0.0000
# 6 0.0000 0.0000 0.0000 0.0000 0.0000 26.4996
#
#
#
# Elastic Compliance Matrix: (Units=1/GPa)
#
#
# Indices 1 2 3 4 5 6 
#
# 1 0.011488 -0.002217 -0.003830 0.000000 0.000000 0.000000
# 2 -0.002217 0.010155 -0.002540 0.000000 0.000000 0.000000
# 3 -0.003830 -0.002540 0.015451 0.000000 0.000000 0.000000
# 4 0.000000 0.000000 0.000000 0.032921 0.000000 0.000000
# 5 0.000000 0.000000 0.000000 0.000000 0.027489 0.000000
# 6 0.000000 0.000000 0.000000 0.000000 0.000000 0.037736
#
#
# Mechanical properties :
#
#
# Convention : Reuss Voigt Hill
#
# Bulk Modulus (GPa) = 50.20154 51.53887 50.87020
# Shear Modulus (GPa) = 31.43580 32.29357 31.86468
#
# Velocity S-wave (km/s) = 3.85942 3.91172 3.88566
# Velocity P-wave (km/s) = 6.60658 6.69496 6.65092
#
# Compressibility (1/GPa) = 0.01991971
#
# Stress axis : x y z
#
# Youngs Moduli (GPa) = 87.05007 98.46963 64.71973
#
# Poissons Ratio (x) = 0.21827 0.24790
# Poissons Ratio (y) = 0.19295 0.16441
# Poissons Ratio (z) = 0.33344 0.25014
#
# Static dielectric constant tensor:
#      x y z
#    x 4.167720 0.000000 0.000000 
#    y 0.000000 3.929880 0.000000 
#    z 0.000000 0.000000 3.750160 
# 
# 
# High freq. dielectric constant tensor:
#      x y z
#    x 1.839420 0.000000 0.000000 
#    y 0.000000 1.828860 0.000000 
#    z 0.000000 0.000000 1.824940 
# 
# From -- ./inp_files/11137.got.cif
#   From: 2010.03.12/outbox.cif.g09.slc.cpg/sg20_6_cif.got.tgz:11137.got - 2010.04.14 01:38:04.
