data_PCOD8159498
_publ_section_title
;
Structure prediction by ZEFSAII (Michael W. Deem and Ramdas Pophale) SiO2 
 PCOD8159498
Probable space group: C 2 2 21
;
_chemical_formula_sum "Si O2"
_cell_formula_units_Z 64
_cell_length_a 10.772280
_cell_length_b 9.785047
_cell_length_c 27.429289
_cell_angle_alpha 90.000000
_cell_angle_beta 90.000000
_cell_angle_gamma 90.000000
_cell_volume 2891.246364
_symmetry_space_group_name_H-M "C 2 2 21"
_symmetry_group_IT_number 20
_symmetry_cell_setting 'orthorhombic'
loop_
_space_group_symop_operation_xyz
x,y,z
-x,-y,1/2+z
x,-y,-z
-x,y,1/2-z
1/2+x,1/2+y,z
1/2-x,1/2-y,1/2+z
1/2+x,1/2-y,-z
1/2-x,1/2+y,1/2-z
loop_
_atom_site_type_symbol
_atom_site_label
_atom_site_fract_x
_atom_site_fract_y
_atom_site_fract_z
Si Si1 0.824472 0.385084 0.052286
Si Si2 0.274648 0.198278 0.845628
Si Si3 0.605052 0.823940 0.550358
Si Si4 0.798226 0.988298 0.806385
Si Si5 0.544680 0.432165 0.048927
Si Si6 0.444849 0.513677 0.349156
Si Si7 0.760767 0.726754 0.148705
Si Si8 0.375226 0.981001 0.781334
O O1 0.835250 0.294306 0.100546
O O2 0.921783 0.513337 0.055442
O O3 0.691180 0.459108 0.050431
O O4 0.840243 0.294925 0.003871
O O5 0.244743 0.351678 0.830755
O O6 0.375973 0.123774 0.810974
O O7 0.146290 0.115254 0.843514
O O8 0.481712 0.730977 0.552386
O O9 0.699588 0.774643 0.592236
O O10 0.948206 0.990661 0.808109
O O11 0.742772 0.118759 0.834079
O O12 0.750002 0.986500 0.751149
O O13 0.489106 0.504364 0.097478
O O14 0.487346 0.500000 0.000000
O O15 0.371978 0.655382 0.344541
O O16 0.863838 0.647071 0.181530
O O17 0.500000 0.965660 0.750000
#
# Coordination Sequence:
#
# PCOD8159498 Si02
#       8
#     8   8   8   8   8   8   8   8
#     4  10  21  44  67  94 140 175 219 279 337 412
#     4  10  24  47  67 101 135 182 227 283 348 405
#     4  11  20  38  72  97 128 183 222 267 350 404
#     4  12  26  42  71 104 129 181 233 279 343 404
#     4  11  20  37  68  96 131 178 222 271 339 398
#     4  10  23  44  70  91 139 180 214 285 339 403
#     4  11  23  46  68 101 137 177 229 285 343 408
#     4  11  26  46  69  98 141 184 226 289 349 413
#
# _framework density 22.135781999999999
#
# number of rings (size 3 to 8) (size 9 to 14) (size 15 to 20)
#    0.000    1.250    6.250    0.750    5.250    2.000 
#    0.000    0.000    8.250    0.000    0.000    0.000 
#    0.000    0.000    0.000    0.000    0.000    0.000 
#
# Total GULP energy -396664.473501 kJ/mol
# GULP energy per Si atom -12395.764797 kJ/mol
# Density = 2.208540 g / cm^3
# Si number density = 22.135782 Si / 1000 Ang^3
#
#
#
# Elastic Constant Matrix: (Units=GPa)
#
#
# Indices 1 2 3 4 5 6 
#
# 1 84.1910 30.0902 29.3699 0.0000 0.0000 0.0000
# 2 30.0902 157.1809 44.9503 0.0000 0.0000 0.0000
# 3 29.3699 44.9503 148.4788 0.0000 0.0000 0.0000
# 4 0.0000 0.0000 0.0000 18.5690 0.0000 0.0000
# 5 0.0000 0.0000 0.0000 0.0000 19.3428 0.0000
# 6 0.0000 0.0000 0.0000 0.0000 0.0000 27.2831
#
#
#
# Elastic Compliance Matrix: (Units=1/GPa)
#
#
# Indices 1 2 3 4 5 6 
#
# 1 0.013289 -0.001962 -0.002035 0.000000 0.000000 0.000000
# 2 -0.001962 0.007255 -0.001808 0.000000 0.000000 0.000000
# 3 -0.002035 -0.001808 0.007685 0.000000 0.000000 0.000000
# 4 0.000000 0.000000 0.000000 0.053853 0.000000 0.000000
# 5 0.000000 0.000000 0.000000 0.000000 0.051699 0.000000
# 6 0.000000 0.000000 0.000000 0.000000 0.000000 0.036653
#
#
# Mechanical properties :
#
#
# Convention : Reuss Voigt Hill
#
# Bulk Modulus (GPa) = 60.17340 66.51907 63.34623
# Shear Modulus (GPa) = 26.65490 32.06832 29.36161
#
# Velocity S-wave (km/s) = 3.47386 3.81032 3.64597
# Velocity P-wave (km/s) = 6.58278 7.03376 6.81200
#
# Compressibility (1/GPa) = 0.01661864
#
# Stress axis : x y z
#
# Youngs Moduli (GPa) = 75.25143 137.83937 130.12644
#
# Poissons Ratio (x) = 0.27046 0.26475
# Poissons Ratio (y) = 0.14765 0.23529
# Poissons Ratio (z) = 0.15311 0.24924
#
# Static dielectric constant tensor:
#      x y z
#    x 3.621670 0.000000 0.000000 
#    y 0.000000 3.910810 0.000000 
#    z 0.000000 0.000000 4.518580 
# 
# 
# High freq. dielectric constant tensor:
#      x y z
#    x 1.836770 0.000000 0.000000 
#    y 0.000000 1.867710 0.000000 
#    z 0.000000 0.000000 1.896500 
# 
# From -- ./inp_files/31209.got.cif
#   From: 2010.03.12/outbox.cif.g09.slc.cpg/sg20_16_cif.got.tgz:31209.got - 2010.04.14 01:38:04.
