data_PCOD8159511
_publ_section_title
;
Structure prediction by ZEFSAII (Michael W. Deem and Ramdas Pophale) SiO2 
 PCOD8159511
Probable space group: C 2 2 21
;
_chemical_formula_sum "Si O2"
_cell_formula_units_Z 56
_cell_length_a 32.561496
_cell_length_b 5.362945
_cell_length_c 13.697066
_cell_angle_alpha 90.000000
_cell_angle_beta 90.000000
_cell_angle_gamma 90.000000
_cell_volume 2391.857165
_symmetry_space_group_name_H-M "C 2 2 21"
_symmetry_group_IT_number 20
_symmetry_cell_setting 'orthorhombic'
loop_
_space_group_symop_operation_xyz
x,y,z
-x,-y,1/2+z
x,-y,-z
-x,y,1/2-z
1/2+x,1/2+y,z
1/2-x,1/2-y,1/2+z
1/2+x,1/2-y,-z
1/2-x,1/2+y,1/2-z
loop_
_atom_site_type_symbol
_atom_site_label
_atom_site_fract_x
_atom_site_fract_y
_atom_site_fract_z
Si Si1 0.899763 0.432536 0.666830
Si Si2 0.660001 0.000000 0.000000
Si Si3 0.200537 0.156099 0.344317
Si Si4 0.532356 0.515406 0.386727
Si Si5 0.726755 0.206415 0.867893
Si Si6 0.507284 0.987937 0.887733
Si Si7 0.718302 0.000000 0.500000
Si Si8 0.386304 0.440664 0.785335
O O1 0.868571 0.366833 0.579300
O O2 0.944190 0.482415 0.623559
O O3 0.885420 0.674593 0.728837
O O4 0.900849 0.173905 0.722862
O O5 0.688643 0.192069 0.941691
O O6 0.210992 0.292917 0.242715
O O7 0.188690 0.309289 0.443081
O O8 0.159422 0.995592 0.324989
O O9 0.241406 0.017990 0.378418
O O10 0.521722 0.500000 0.500000
O O11 0.509320 0.755512 0.338683
O O12 0.580794 0.564164 0.372512
O O13 0.515330 0.254743 0.339559
O O14 0.752977 0.439066 0.905892
O O15 0.494843 0.000000 0.000000
#
# Coordination Sequence:
#
# PCOD8159511 Si02
#       8
#     8   4   8   8   8   8   4   8
#     4  12  27  46  74 109 147 185 240 310 369 440
#     4  12  26  48  70 113 140 194 241 312 384 436
#     4  12  27  47  73 107 150 191 256 307 369 454
#     4  10  23  45  71 100 146 192 237 295 359 441
#     4  12  26  46  74 105 146 192 244 311 374 447
#     4  10  21  44  72 104 142 190 239 290 368 439
#     4  12  26  46  78 103 138 206 239 306 378 436
#     4  12  29  45  71 111 145 191 243 308 357 435
#
# _framework density 23.412770999999999
#
# number of rings (size 3 to 8) (size 9 to 14) (size 15 to 20)
#    0.000    0.571    5.000    1.714    6.000    5.143 
#    3.857    0.000    0.000    0.000    0.000    0.000 
#    0.000    0.000    0.000    0.000    0.000    0.000 
#
# Total GULP energy -346884.831321 kJ/mol
# GULP energy per Si atom -12388.743976 kJ/mol
# Density = 2.335948 g / cm^3
# Si number density = 23.412771 Si / 1000 Ang^3
#
#
#
# Elastic Constant Matrix: (Units=GPa)
#
#
# Indices 1 2 3 4 5 6 
#
# 1 136.7358 30.4499 28.7320 0.0000 0.0000 0.0000
# 2 30.4499 138.9035 24.7624 0.0000 0.0000 0.0000
# 3 28.7320 24.7624 83.2501 0.0000 0.0000 0.0000
# 4 0.0000 0.0000 0.0000 14.1224 0.0000 0.0000
# 5 0.0000 0.0000 0.0000 0.0000 44.0474 0.0000
# 6 0.0000 0.0000 0.0000 0.0000 0.0000 10.9657
#
#
#
# Elastic Compliance Matrix: (Units=1/GPa)
#
#
# Indices 1 2 3 4 5 6 
#
# 1 0.008119 -0.001352 -0.002400 0.000000 0.000000 0.000000
# 2 -0.001352 0.007827 -0.001862 0.000000 0.000000 0.000000
# 3 -0.002400 -0.001862 0.013394 0.000000 0.000000 0.000000
# 4 0.000000 0.000000 0.000000 0.070810 0.000000 0.000000
# 5 0.000000 0.000000 0.000000 0.000000 0.022703 0.000000
# 6 0.000000 0.000000 0.000000 0.000000 0.000000 0.091193
#
#
# Mechanical properties :
#
#
# Convention : Reuss Voigt Hill
#
# Bulk Modulus (GPa) = 55.20815 58.53091 56.86953
# Shear Modulus (GPa) = 21.61593 32.15677 26.88635
#
# Velocity S-wave (km/s) = 3.04181 3.71006 3.39243
# Velocity P-wave (km/s) = 5.99736 6.58836 6.29980
#
# Compressibility (1/GPa) = 0.01811327
#
# Stress axis : x y z
#
# Youngs Moduli (GPa) = 123.17220 127.75487 74.66029
#
# Poissons Ratio (x) = 0.17272 0.17918
# Poissons Ratio (y) = 0.16652 0.13899
# Poissons Ratio (z) = 0.29560 0.23784
#
# Static dielectric constant tensor:
#      x y z
#    x 4.267770 0.000000 0.000000 
#    y 0.000000 4.015080 0.000000 
#    z 0.000000 0.000000 5.365730 
# 
# 
# High freq. dielectric constant tensor:
#      x y z
#    x 1.937050 0.000000 0.000000 
#    y 0.000000 1.920840 0.000000 
#    z 0.000000 0.000000 1.939520 
# 
# From -- ./inp_files/18016.got.cif
#   From: 2010.03.12/outbox.cif.g09.slc.cpg/sg20_10_cif.got.tgz:18016.got - 2010.04.14 01:38:04.
