data_PCOD8159629
_publ_section_title
;
Structure prediction by ZEFSAII (Michael W. Deem and Ramdas Pophale) SiO2 
 PCOD8159629
Probable space group: C 2 2 21
;
_chemical_formula_sum "Si O2"
_cell_formula_units_Z 36
_cell_length_a 5.132791
_cell_length_b 12.561796
_cell_length_c 25.744851
_cell_angle_alpha 90.000000
_cell_angle_beta 90.000000
_cell_angle_gamma 90.000000
_cell_volume 1659.952649
_symmetry_space_group_name_H-M "C 2 2 21"
_symmetry_group_IT_number 20
_symmetry_cell_setting 'orthorhombic'
loop_
_space_group_symop_operation_xyz
x,y,z
-x,-y,1/2+z
x,-y,-z
-x,y,1/2-z
1/2+x,1/2+y,z
1/2-x,1/2-y,1/2+z
1/2+x,1/2-y,-z
1/2-x,1/2+y,1/2-z
loop_
_atom_site_type_symbol
_atom_site_label
_atom_site_fract_x
_atom_site_fract_y
_atom_site_fract_z
Si Si1 0.500000 0.902642 0.750000
Si Si2 0.897577 0.288598 0.971041
Si Si3 0.491888 0.919456 0.165935
Si Si4 0.320830 0.500000 0.500000
Si Si5 0.480518 0.387380 0.099113
Si Si6 0.000000 0.242184 0.250000
O O1 0.749537 0.829935 0.759936
O O2 0.549563 0.975610 0.700013
O O3 0.858047 0.415518 0.968872
O O4 0.945996 0.239097 0.913444
O O5 0.637545 0.232200 0.991358
O O6 0.736062 0.937517 0.128420
O O7 0.551097 0.815812 0.200260
O O8 0.234828 0.902026 0.133014
O O9 0.499544 0.556991 0.542821
#
# Coordination Sequence:
#
# PCOD8159629 Si02
#       6
#     4   8   8   4   8   4
#     4  11  24  45  72  98 124 165 210 259 330 394
#     4  10  22  40  60  87 124 168 213 256 305 359
#     4  11  25  43  65  98 130 159 213 268 316 389
#     4  10  24  42  64  90 132 178 220 264 306 368
#     4  11  23  41  65  94 130 171 212 264 319 372
#     4  11  24  45  68  92 128 165 202 265 328 384
#
# _framework density 21.687363999999999
#
# number of rings (size 3 to 8) (size 9 to 14) (size 15 to 20)
#    0.000    1.333    0.000    5.333    0.000   16.889 
#    0.000    6.667    0.000    0.000    0.000    0.000 
#    0.000    0.000    0.000    0.000    0.000    0.000 
#
# Total GULP energy -223240.194044 kJ/mol
# GULP energy per Si atom -12402.233002 kJ/mol
# Density = 2.163800 g / cm^3
# Si number density = 21.687364 Si / 1000 Ang^3
#
#
#
# Elastic Constant Matrix: (Units=GPa)
#
#
# Indices 1 2 3 4 5 6 
#
# 1 153.6190 20.0591 41.0029 0.0000 0.0000 0.0000
# 2 20.0591 137.9279 27.9524 0.0000 0.0000 0.0000
# 3 41.0029 27.9524 115.1343 0.0000 0.0000 0.0000
# 4 0.0000 0.0000 0.0000 2428.4566 0.0000 0.0000
# 5 0.0000 0.0000 0.0000 0.0000 38.7923 0.0000
# 6 0.0000 0.0000 0.0000 0.0000 0.0000 34.5944
#
#
#
# Elastic Compliance Matrix: (Units=1/GPa)
#
#
# Indices 1 2 3 4 5 6 
#
# 1 0.007234 -0.000557 -0.002441 0.000000 0.000000 0.000000
# 2 -0.000557 0.007668 -0.001663 0.000000 0.000000 0.000000
# 3 -0.002441 -0.001663 0.009959 0.000000 0.000000 0.000000
# 4 0.000000 0.000000 0.000000 0.000412 0.000000 0.000000
# 5 0.000000 0.000000 0.000000 0.000000 0.025778 0.000000
# 6 0.000000 0.000000 0.000000 0.000000 0.000000 0.028906
#
#
# Mechanical properties :
#
#
# Convention : Reuss Voigt Hill
#
# Bulk Modulus (GPa) = 64.35913 64.96776 64.66344
# Shear Modulus (GPa) = 52.93270 521.54645 287.23958
#
# Velocity S-wave (km/s) = 4.94572 15.52437 11.52099
# Velocity P-wave (km/s) = 7.89644 18.74468 14.38257
#
# Compressibility (1/GPa) = 0.01553781
#
# Stress axis : x y z
#
# Youngs Moduli (GPa) = 138.23809 130.40717 100.41586
#
# Poissons Ratio (x) = 0.07268 0.24510
# Poissons Ratio (y) = 0.07705 0.16701
# Poissons Ratio (z) = 0.33742 0.21690
#
# Static dielectric constant tensor:
#      x y z
#    x -23.444460 0.000000 0.000000 
#    y 0.000000 4.248320 0.000000 
#    z 0.000000 0.000000 3.964830 
# 
# 
# High freq. dielectric constant tensor:
#      x y z
#    x 1.867330 0.000000 0.000000 
#    y 0.000000 1.864480 0.000000 
#    z 0.000000 0.000000 1.852880 
# 
# From -- ./inp_files/28219.got.cif
#   From: 2010.03.12/outbox.cif.g09.slc.cpg/sg20_15_cif.got.tgz:28219.got - 2010.04.14 01:38:04.
