data_PCOD8159921
_publ_section_title
;
Structure prediction by ZEFSAII (Michael W. Deem and Ramdas Pophale) SiO2 
 PCOD8159921
Probable space group: C 2 2 21
;
_chemical_formula_sum "Si O2"
_cell_formula_units_Z 40
_cell_length_a 28.682453
_cell_length_b 5.201386
_cell_length_c 11.869540
_cell_angle_alpha 90.000000
_cell_angle_beta 90.000000
_cell_angle_gamma 90.000000
_cell_volume 1770.798981
_symmetry_space_group_name_H-M "C 2 2 21"
_symmetry_group_IT_number 20
_symmetry_cell_setting 'orthorhombic'
loop_
_space_group_symop_operation_xyz
x,y,z
-x,-y,1/2+z
x,-y,-z
-x,y,1/2-z
1/2+x,1/2+y,z
1/2-x,1/2-y,1/2+z
1/2+x,1/2-y,-z
1/2-x,1/2+y,1/2-z
loop_
_atom_site_type_symbol
_atom_site_label
_atom_site_fract_x
_atom_site_fract_y
_atom_site_fract_z
Si Si1 0.890107 0.883228 0.800558
Si Si2 0.413965 0.000000 0.500000
Si Si3 0.166310 0.814929 0.905573
Si Si4 0.170498 0.000000 0.500000
Si Si5 0.746757 0.378221 0.325152
Si Si6 0.945720 0.376313 0.732821
O O1 0.847642 0.947755 0.713570
O O2 0.917827 0.621625 0.778800
O O3 0.864730 0.837512 0.921307
O O4 0.925711 0.123880 0.795624
O O5 0.383187 0.780759 0.445967
O O6 0.443238 0.859617 0.597104
O O7 0.204105 0.586194 0.891035
O O8 0.188152 0.000000 0.000000
O O9 0.204217 0.842718 0.413847
O O10 0.743690 0.608442 0.237628
O O11 0.000000 0.407628 0.750000
#
# Coordination Sequence:
#
# PCOD8159921 Si02
#       6
#     8   4   8   4   8   8
#     4  11  26  45  71 105 143 186 235 292 371 426
#     4  10  23  40  74 100 132 186 230 290 349 418
#     4  11  23  44  72 102 139 189 244 291 337 418
#     4  12  29  48  72 108 158 192 238 310 367 432
#     4  12  30  46  70 106 148 198 251 296 348 432
#     4  11  25  47  73 107 140 180 240 299 366 444
#
# _framework density 22.588673
#
# number of rings (size 3 to 8) (size 9 to 14) (size 15 to 20)
#    0.000    0.800    4.000    1.200   11.200    4.000 
#    0.000    0.000    0.000    0.000    0.000    0.000 
#    0.000    0.000    0.000    0.000    0.000    0.000 
#
# Total GULP energy -247792.812394 kJ/mol
# GULP energy per Si atom -12389.640620 kJ/mol
# Density = 2.253726 g / cm^3
# Si number density = 22.588673 Si / 1000 Ang^3
#
#
#
# Elastic Constant Matrix: (Units=GPa)
#
#
# Indices 1 2 3 4 5 6 
#
# 1 133.1932 27.8767 64.1366 0.0000 0.0000 0.0000
# 2 27.8767 92.8257 24.1276 0.0000 0.0000 0.0000
# 3 64.1366 24.1276 142.1074 0.0000 0.0000 0.0000
# 4 0.0000 0.0000 0.0000 23.6390 0.0000 0.0000
# 5 0.0000 0.0000 0.0000 0.0000 32.9954 0.0000
# 6 0.0000 0.0000 0.0000 0.0000 0.0000 30.5623
#
#
#
# Elastic Compliance Matrix: (Units=1/GPa)
#
#
# Indices 1 2 3 4 5 6 
#
# 1 0.009902 -0.001896 -0.004147 0.000000 0.000000 0.000000
# 2 -0.001896 0.011633 -0.001120 0.000000 0.000000 0.000000
# 3 -0.004147 -0.001120 0.009099 0.000000 0.000000 0.000000
# 4 0.000000 0.000000 0.000000 0.042303 0.000000 0.000000
# 5 0.000000 0.000000 0.000000 0.000000 0.030307 0.000000
# 6 0.000000 0.000000 0.000000 0.000000 0.000000 0.032720
#
#
# Mechanical properties :
#
#
# Convention : Reuss Voigt Hill
#
# Bulk Modulus (GPa) = 61.31594 66.71201 64.01397
# Shear Modulus (GPa) = 32.10800 34.23835 33.17318
#
# Velocity S-wave (km/s) = 3.77426 3.89746 3.83636
# Velocity P-wave (km/s) = 6.79683 7.06053 6.92994
#
# Compressibility (1/GPa) = 0.01630897
#
# Stress axis : x y z
#
# Youngs Moduli (GPa) = 100.99445 85.96111 109.90652
#
# Poissons Ratio (x) = 0.16295 0.45578
# Poissons Ratio (y) = 0.19145 0.12305
# Poissons Ratio (z) = 0.41882 0.09624
#
# Static dielectric constant tensor:
#      x y z
#    x 4.163820 0.000000 0.000000 
#    y 0.000000 3.752210 0.000000 
#    z 0.000000 0.000000 4.536620 
# 
# 
# High freq. dielectric constant tensor:
#      x y z
#    x 1.902030 0.000000 0.000000 
#    y 0.000000 1.868440 0.000000 
#    z 0.000000 0.000000 1.913450 
# 
# From -- ./inp_files/16915.got.cif
#   From: 2010.03.12/outbox.cif.g09.slc.cpg/sg20_9_cif.got.tgz:16915.got - 2010.04.14 01:38:04.
