data_PCOD8159446
_publ_section_title
;
Structure prediction by ZEFSAII (Michael W. Deem and Ramdas Pophale) SiO2 
 PCOD8159446
Probable space group: C 2 2 21
;
_chemical_formula_sum "Si O2"
_cell_formula_units_Z 48
_cell_length_a 30.496615
_cell_length_b 8.586585
_cell_length_c 8.760551
_cell_angle_alpha 90.000000
_cell_angle_beta 90.000000
_cell_angle_gamma 90.000000
_cell_volume 2294.053452
_symmetry_space_group_name_H-M "C 2 2 21"
_symmetry_group_IT_number 20
_symmetry_cell_setting 'orthorhombic'
loop_
_space_group_symop_operation_xyz
x,y,z
-x,-y,1/2+z
x,-y,-z
-x,y,1/2-z
1/2+x,1/2+y,z
1/2-x,1/2-y,1/2+z
1/2+x,1/2-y,-z
1/2-x,1/2+y,1/2-z
loop_
_atom_site_type_symbol
_atom_site_label
_atom_site_fract_x
_atom_site_fract_y
_atom_site_fract_z
Si Si1 0.279861 0.346669 0.823135
Si Si2 0.896028 0.834789 0.222734
Si Si3 0.500000 0.335057 0.750000
Si Si4 0.298978 0.289172 0.153948
Si Si5 0.357609 0.621354 0.369692
Si Si6 0.932632 0.682937 0.513146
Si Si7 0.554506 0.500000 0.500000
O O1 0.286628 0.530574 0.834752
O O2 0.231081 0.312277 0.765565
O O3 0.315689 0.292039 0.700378
O O4 0.289998 0.248994 0.976928
O O5 0.848795 0.749593 0.206496
O O6 0.930845 0.758087 0.341858
O O7 0.887534 0.018053 0.257991
O O8 0.917882 0.847382 0.055188
O O9 0.471443 0.235162 0.627914
O O10 0.527772 0.450426 0.647499
O O11 0.342090 0.500000 0.500000
O O12 0.385592 0.767665 0.423700
O O13 0.936611 0.500000 0.500000
#
# Coordination Sequence:
#
# PCOD8159446 Si02
#       7
#     8   8   4   8   8   8   4
#     4  10  22  38  59  90 130 167 219 266 312 375
#     4  10  21  42  68  94 125 170 224 266 318 384
#     4  12  26  40  70 102 122 168 214 274 334 392
#     4  10  23  38  61  94 126 173 214 269 317 368
#     4   9  19  39  66  87 123 173 221 263 313 373
#     4  11  25  43  65  96 135 168 207 266 341 394
#     4  12  22  42  74  96 126 158 234 272 316 394
#
# _framework density 20.923662
#
# number of rings (size 3 to 8) (size 9 to 14) (size 15 to 20)
#    0.000    1.667    1.667    3.000    8.167    2.667 
#    0.000    0.000    0.000    0.000    0.000    0.000 
#    0.000    0.000    0.000    0.000    0.000    0.000 
#
# Total GULP energy -297325.163594 kJ/mol
# GULP energy per Si atom -12388.548483 kJ/mol
# Density = 2.087604 g / cm^3
# Si number density = 20.923662 Si / 1000 Ang^3
#
#
#
# Elastic Constant Matrix: (Units=GPa)
#
#
# Indices 1 2 3 4 5 6 
#
# 1 107.8498 39.3968 83.1549 0.0000 0.0000 0.0000
# 2 39.3968 56.2555 24.1907 0.0000 0.0000 0.0000
# 3 83.1549 24.1907 136.8656 0.0000 0.0000 0.0000
# 4 0.0000 0.0000 0.0000 18.3898 0.0000 0.0000
# 5 0.0000 0.0000 0.0000 0.0000 50.2037 0.0000
# 6 0.0000 0.0000 0.0000 0.0000 0.0000 16.0441
#
#
#
# Elastic Compliance Matrix: (Units=1/GPa)
#
#
# Indices 1 2 3 4 5 6 
#
# 1 0.021934 -0.010422 -0.011484 0.000000 0.000000 0.000000
# 2 -0.010422 0.024191 0.002057 0.000000 0.000000 0.000000
# 3 -0.011484 0.002057 0.013920 0.000000 0.000000 0.000000
# 4 0.000000 0.000000 0.000000 0.054378 0.000000 0.000000
# 5 0.000000 0.000000 0.000000 0.000000 0.019919 0.000000
# 6 0.000000 0.000000 0.000000 0.000000 0.000000 0.062328
#
#
# Mechanical properties :
#
#
# Convention : Reuss Voigt Hill
#
# Bulk Modulus (GPa) = 49.15198 66.05063 57.60131
# Shear Modulus (GPa) = 20.56331 27.20942 23.88636
#
# Velocity S-wave (km/s) = 3.13833 3.61004 3.38242
# Velocity P-wave (km/s) = 6.05593 7.00089 6.54548
#
# Compressibility (1/GPa) = 0.02034506
#
# Stress axis : x y z
#
# Youngs Moduli (GPa) = 45.59127 41.33829 71.83720
#
# Poissons Ratio (x) = 0.43084 0.82500
# Poissons Ratio (y) = 0.47517 -0.14774
# Poissons Ratio (z) = 0.52358 -0.08502
#
# Static dielectric constant tensor:
#      x y z
#    x 3.964870 0.000000 0.000000 
#    y 0.000000 3.436470 0.000000 
#    z 0.000000 0.000000 4.612440 
# 
# 
# High freq. dielectric constant tensor:
#      x y z
#    x 1.828340 0.000000 0.000000 
#    y 0.000000 1.775970 0.000000 
#    z 0.000000 0.000000 1.842880 
# 
# From -- ./inp_files/11506.got.cif
#   From: 2010.03.12/outbox.cif.g09.slc.cpg/sg20_6_cif.got.tgz:11506.got - 2010.04.14 01:38:04.
