data_PCOD8159392
_publ_section_title
;
Structure prediction by ZEFSAII (Michael W. Deem and Ramdas Pophale) SiO2 
 PCOD8159392
Probable space group: C 2 2 21
;
_chemical_formula_sum "Si O2"
_cell_formula_units_Z 40
_cell_length_a 12.926173
_cell_length_b 7.849671
_cell_length_c 18.439607
_cell_angle_alpha 90.000000
_cell_angle_beta 90.000000
_cell_angle_gamma 90.000000
_cell_volume 1870.996950
_symmetry_space_group_name_H-M "C 2 2 21"
_symmetry_group_IT_number 20
_symmetry_cell_setting 'orthorhombic'
loop_
_space_group_symop_operation_xyz
x,y,z
-x,-y,1/2+z
x,-y,-z
-x,y,1/2-z
1/2+x,1/2+y,z
1/2-x,1/2-y,1/2+z
1/2+x,1/2-y,-z
1/2-x,1/2+y,1/2-z
loop_
_atom_site_type_symbol
_atom_site_label
_atom_site_fract_x
_atom_site_fract_y
_atom_site_fract_z
Si Si1 0.500000 0.983698 0.750000
Si Si2 0.818758 0.950897 0.346012
Si Si3 0.785973 0.745049 0.084451
Si Si4 0.850667 0.500000 0.500000
Si Si5 0.305442 0.782302 0.269407
Si Si6 0.988351 0.293525 0.606125
O O1 0.528569 0.865485 0.682484
O O2 0.597795 0.094924 0.769313
O O3 0.755894 0.797079 0.307030
O O4 0.922038 0.877627 0.382213
O O5 0.752576 0.046855 0.409008
O O6 0.843937 0.087759 0.281769
O O7 0.720323 0.841292 0.023189
O O8 0.767202 0.836236 0.162502
O O9 0.906968 0.753341 0.062316
O O10 0.923261 0.437405 0.565006
#
# Coordination Sequence:
#
# PCOD8159392 Si02
#       6
#     4   8   8   4   8   8
#     4  12  20  44  74 104 140 176 238 300 360 410
#     4  10  22  42  69 102 140 171 235 282 358 409
#     4  10  25  45  66 100 136 187 228 293 348 425
#     4  12  28  46  66 100 146 186 248 282 356 432
#     4  10  21  41  68 108 134 176 229 300 349 419
#     4  12  24  46  74  99 142 190 231 298 354 422
#
# _framework density 21.378976999999999
#
# number of rings (size 3 to 8) (size 9 to 14) (size 15 to 20)
#    1.200    0.000    4.000    2.400    0.000    6.400 
#    0.000    0.000    0.000    0.000    0.000    0.000 
#    0.000    0.000    0.000    0.000    0.000    0.000 
#
# Total GULP energy -247935.348602 kJ/mol
# GULP energy per Si atom -12396.767430 kJ/mol
# Density = 2.133032 g / cm^3
# Si number density = 21.378977 Si / 1000 Ang^3
#
#
#
# Elastic Constant Matrix: (Units=GPa)
#
#
# Indices 1 2 3 4 5 6 
#
# 1 146.5750 47.3247 20.8176 0.0000 0.0000 0.0000
# 2 47.3247 101.4008 25.3640 0.0000 0.0000 0.0000
# 3 20.8176 25.3640 55.2427 0.0000 0.0000 0.0000
# 4 0.0000 0.0000 0.0000 28.5251 0.0000 0.0000
# 5 0.0000 0.0000 0.0000 0.0000 28.3441 0.0000
# 6 0.0000 0.0000 0.0000 0.0000 0.0000 29.5900
#
#
#
# Elastic Compliance Matrix: (Units=1/GPa)
#
#
# Indices 1 2 3 4 5 6 
#
# 1 0.008141 -0.003425 -0.001495 0.000000 0.000000 0.000000
# 2 -0.003425 0.012583 -0.004486 0.000000 0.000000 0.000000
# 3 -0.001495 -0.004486 0.020725 0.000000 0.000000 0.000000
# 4 0.000000 0.000000 0.000000 0.035057 0.000000 0.000000
# 5 0.000000 0.000000 0.000000 0.000000 0.035281 0.000000
# 6 0.000000 0.000000 0.000000 0.000000 0.000000 0.033795
#
#
# Mechanical properties :
#
#
# Convention : Reuss Voigt Hill
#
# Bulk Modulus (GPa) = 44.17926 54.47012 49.32469
# Shear Modulus (GPa) = 29.07992 31.27266 30.17629
#
# Velocity S-wave (km/s) = 3.69210 3.82878 3.76106
# Velocity P-wave (km/s) = 6.23580 6.71414 6.47939
#
# Compressibility (1/GPa) = 0.02263505
#
# Stress axis : x y z
#
# Youngs Moduli (GPa) = 122.83902 79.47405 48.25049
#
# Poissons Ratio (x) = 0.27223 0.07214
# Poissons Ratio (y) = 0.42077 0.21647
# Poissons Ratio (z) = 0.18365 0.35655
#
# Static dielectric constant tensor:
#      x y z
#    x 3.889440 0.000000 0.000000 
#    y 0.000000 3.722370 0.000000 
#    z 0.000000 0.000000 3.675370 
# 
# 
# High freq. dielectric constant tensor:
#      x y z
#    x 1.842230 0.000000 0.000000 
#    y 0.000000 1.833320 0.000000 
#    z 0.000000 0.000000 1.822500 
# 
# From -- ./inp_files/24117.got.cif
#   From: 2010.03.12/outbox.cif.g09.slc.cpg/sg20_13_cif.got.tgz:24117.got - 2010.04.14 01:38:04.
