data_PCOD8159069
_publ_section_title
;
Structure prediction by ZEFSAII (Michael W. Deem and Ramdas Pophale) SiO2 
 PCOD8159069
Probable space group: C 2 2 21
;
_chemical_formula_sum "Si O2"
_cell_formula_units_Z 60
_cell_length_a 6.824299
_cell_length_b 25.422489
_cell_length_c 16.653989
_cell_angle_alpha 90.000000
_cell_angle_beta 90.000000
_cell_angle_gamma 90.000000
_cell_volume 2889.311648
_symmetry_space_group_name_H-M "C 2 2 21"
_symmetry_group_IT_number 20
_symmetry_cell_setting 'orthorhombic'
loop_
_space_group_symop_operation_xyz
x,y,z
-x,-y,1/2+z
x,-y,-z
-x,y,1/2-z
1/2+x,1/2+y,z
1/2-x,1/2-y,1/2+z
1/2+x,1/2-y,-z
1/2-x,1/2+y,1/2-z
loop_
_atom_site_type_symbol
_atom_site_label
_atom_site_fract_x
_atom_site_fract_y
_atom_site_fract_z
Si Si1 0.664643 0.117947 0.091211
Si Si2 0.500000 0.466038 0.250000
Si Si3 0.655791 0.981537 0.816960
Si Si4 0.984409 0.450861 0.454236
Si Si5 0.782800 0.781697 0.390039
Si Si6 0.870958 0.711995 0.069017
Si Si7 0.325269 0.110275 0.817574
Si Si8 0.974151 0.189498 0.159037
O O1 0.613369 0.079400 0.165110
O O2 0.497425 0.161299 0.089950
O O3 0.879819 0.143324 0.103708
O O4 0.659062 0.083311 0.010683
O O5 0.618453 0.509644 0.298602
O O6 0.345492 0.428928 0.293182
O O7 0.500000 0.001076 0.750000
O O8 0.650302 0.020032 0.891737
O O9 0.097333 0.500000 0.500000
O O10 0.117867 0.410020 0.406153
O O11 0.671366 0.787260 0.474576
O O12 0.770953 0.833027 0.334111
O O13 0.676963 0.737473 0.337344
O O14 0.008941 0.764858 0.406693
O O15 0.675182 0.709383 0.120768
O O16 0.500000 0.113301 0.750000
O O17 0.000000 0.168924 0.250000
#
# Coordination Sequence:
#
# PCOD8159069 Si02
#       8
#     8   4   8   8   8   8   8   8
#     4  10  25  41  72  98 133 181 222 284 338 406
#     4  12  24  40  66 104 134 180 222 276 352 400
#     4  11  23  43  67  97 139 175 225 285 332 404
#     4  10  20  44  67  97 138 178 224 281 339 395
#     4  11  24  43  72  99 133 181 222 289 345 405
#     4  11  23  45  69 101 135 173 229 281 344 414
#     4  12  24  45  69 103 139 181 234 294 338 415
#     4  11  26  45  67 104 137 174 229 282 342 420
#
# _framework density 20.766192
#
# number of rings (size 3 to 8) (size 9 to 14) (size 15 to 20)
#    0.000    1.067    5.333    0.400    2.800    4.800 
#    0.000    0.667    0.000    0.000    0.000    0.000 
#    0.000    0.000    0.000    0.000    0.000    0.000 
#
# Total GULP energy -371686.042967 kJ/mol
# GULP energy per Si atom -12389.534766 kJ/mol
# Density = 2.071893 g / cm^3
# Si number density = 20.766192 Si / 1000 Ang^3
#
#
#
# Elastic Constant Matrix: (Units=GPa)
#
#
# Indices 1 2 3 4 5 6 
#
# 1 112.5545 34.0573 41.1186 0.0000 0.0000 0.0000
# 2 34.0573 108.5967 40.1908 0.0000 0.0000 0.0000
# 3 41.1186 40.1908 103.9813 0.0000 0.0000 0.0000
# 4 0.0000 0.0000 0.0000 47.9608 0.0000 0.0000
# 5 0.0000 0.0000 0.0000 0.0000 26.8814 0.0000
# 6 0.0000 0.0000 0.0000 0.0000 0.0000 27.2212
#
#
#
# Elastic Compliance Matrix: (Units=1/GPa)
#
#
# Indices 1 2 3 4 5 6 
#
# 1 0.010782 -0.002104 -0.003450 0.000000 0.000000 0.000000
# 2 -0.002104 0.011156 -0.003480 0.000000 0.000000 0.000000
# 3 -0.003450 -0.003480 0.012327 0.000000 0.000000 0.000000
# 4 0.000000 0.000000 0.000000 0.020850 0.000000 0.000000
# 5 0.000000 0.000000 0.000000 0.000000 0.037200 0.000000
# 6 0.000000 0.000000 0.000000 0.000000 0.000000 0.036736
#
#
# Mechanical properties :
#
#
# Convention : Reuss Voigt Hill
#
# Bulk Modulus (GPa) = 61.74555 61.76288 61.75421
# Shear Modulus (GPa) = 32.78282 34.39707 33.58994
#
# Velocity S-wave (km/s) = 3.97755 4.07430 4.02622
# Velocity P-wave (km/s) = 7.13392 7.20693 7.17052
#
# Compressibility (1/GPa) = 0.01619550
#
# Stress axis : x y z
#
# Youngs Moduli (GPa) = 92.74910 89.63585 81.12589
#
# Poissons Ratio (x) = 0.18863 0.27990
# Poissons Ratio (y) = 0.19518 0.28231
# Poissons Ratio (z) = 0.32000 0.31193
#
# Static dielectric constant tensor:
#      x y z
#    x 3.763550 0.000000 0.000000 
#    y 0.000000 4.108420 0.000000 
#    z 0.000000 0.000000 4.222620 
# 
# 
# High freq. dielectric constant tensor:
#      x y z
#    x 1.801010 0.000000 0.000000 
#    y 0.000000 1.833660 0.000000 
#    z 0.000000 0.000000 1.819070 
# 
# From -- ./inp_files/22939.got.cif
#   From: 2010.03.12/outbox.cif.g09.slc.cpg/sg20_12_cif.got.tgz:22939.got - 2010.04.14 01:38:04.
