data_PCOD8159052
_publ_section_title
;
Structure prediction by ZEFSAII (Michael W. Deem and Ramdas Pophale) SiO2 
 PCOD8159052
Probable space group: C 2 2 21
;
_chemical_formula_sum "Si O2"
_cell_formula_units_Z 64
_cell_length_a 13.117112
_cell_length_b 14.007736
_cell_length_c 17.219987
_cell_angle_alpha 90.000000
_cell_angle_beta 90.000000
_cell_angle_gamma 90.000000
_cell_volume 3164.018354
_symmetry_space_group_name_H-M "C 2 2 21"
_symmetry_group_IT_number 20
_symmetry_cell_setting 'orthorhombic'
loop_
_space_group_symop_operation_xyz
x,y,z
-x,-y,1/2+z
x,-y,-z
-x,y,1/2-z
1/2+x,1/2+y,z
1/2-x,1/2-y,1/2+z
1/2+x,1/2-y,-z
1/2-x,1/2+y,1/2-z
loop_
_atom_site_type_symbol
_atom_site_label
_atom_site_fract_x
_atom_site_fract_y
_atom_site_fract_z
Si Si1 0.609673 0.657444 0.608111
Si Si2 0.611706 0.311313 0.569478
Si Si3 0.387334 0.403582 0.399172
Si Si4 0.888870 0.124736 0.426223
Si Si5 0.730845 0.191557 0.308162
Si Si6 0.260623 0.984694 0.587944
Si Si7 0.383130 0.015402 0.260955
Si Si8 0.804493 0.327848 0.183478
O O1 0.608319 0.702356 0.522591
O O2 0.499567 0.618512 0.632610
O O3 0.638302 0.738991 0.669181
O O4 0.688276 0.570685 0.613921
O O5 0.502580 0.347471 0.599846
O O6 0.697988 0.386943 0.593471
O O7 0.635168 0.208224 0.607237
O O8 0.371157 0.515388 0.406136
O O9 0.371545 0.354402 0.482887
O O10 0.308057 0.362922 0.337771
O O11 0.806431 0.186974 0.381176
O O12 0.795502 0.235914 0.238282
O O13 0.688335 0.088507 0.285385
O O14 0.355610 0.981832 0.647309
O O15 0.301726 0.000000 0.500000
O O16 0.500000 0.045760 0.250000
O O17 0.367766 0.910717 0.225228
#
# Coordination Sequence:
#
# PCOD8159052 Si02
#       8
#     8   8   8   8   8   8   8   8
#     4  10  21  39  68  99 125 165 215 263 319 380
#     4  10  21  39  68  99 125 165 215 263 319 380
#     4  10  21  41  67  96 126 162 215 273 317 368
#     4  10  21  41  67  96 126 162 215 273 317 368
#     4  12  25  41  63  91 132 171 209 262 320 379
#     4  10  20  43  69  95 127 165 214 264 314 380
#     4  12  28  47  59  95 137 167 211 263 319 379
#     4  12  25  41  63  91 132 171 209 262 320 379
#
# _framework density 20.227442
#
# number of rings (size 3 to 8) (size 9 to 14) (size 15 to 20)
#    0.000    1.250    5.000    0.750    3.500    0.000 
#    0.000    5.000    0.000    0.000    0.000    0.000 
#    0.000    0.000    0.000    0.000    0.000    0.000 
#
# Total GULP energy -396945.313166 kJ/mol
# GULP energy per Si atom -12404.541036 kJ/mol
# Density = 2.018140 g / cm^3
# Si number density = 20.227442 Si / 1000 Ang^3
#
#
#
# Elastic Constant Matrix: (Units=GPa)
#
#
# Indices 1 2 3 4 5 6 
#
# 1 74.5554 1.2530 27.3531 0.0000 0.0000 0.0000
# 2 1.2530 64.8195 15.0099 0.0000 0.0000 0.0000
# 3 27.3531 15.0099 62.2571 0.0000 0.0000 0.0000
# 4 0.0000 0.0000 0.0000 37.8157 0.0000 0.0000
# 5 0.0000 0.0000 0.0000 0.0000 33.3972 0.0000
# 6 0.0000 0.0000 0.0000 0.0000 0.0000 29.2785
#
#
#
# Elastic Compliance Matrix: (Units=1/GPa)
#
#
# Indices 1 2 3 4 5 6 
#
# 1 0.016110 0.001406 -0.007417 0.000000 0.000000 0.000000
# 2 0.001406 0.016462 -0.004587 0.000000 0.000000 0.000000
# 3 -0.007417 -0.004587 0.020427 0.000000 0.000000 0.000000
# 4 0.000000 0.000000 0.000000 0.026444 0.000000 0.000000
# 5 0.000000 0.000000 0.000000 0.000000 0.029943 0.000000
# 6 0.000000 0.000000 0.000000 0.000000 0.000000 0.034155
#
#
# Mechanical properties :
#
#
# Convention : Reuss Voigt Hill
#
# Bulk Modulus (GPa) = 31.44244 32.09599 31.76922
# Shear Modulus (GPa) = 28.51626 30.63269 29.57448
#
# Velocity S-wave (km/s) = 3.75878 3.89577 3.82789
# Velocity P-wave (km/s) = 5.86652 6.01149 5.93945
#
# Compressibility (1/GPa) = 0.03180415
#
# Stress axis : x y z
#
# Youngs Moduli (GPa) = 62.07143 60.74446 48.95461
#
# Poissons Ratio (x) = -0.08541 0.36311
# Poissons Ratio (y) = -0.08728 0.22454
# Poissons Ratio (z) = 0.46040 0.27862
#
# Static dielectric constant tensor:
#      x y z
#    x 3.573560 0.000000 0.000000 
#    y 0.000000 3.599580 0.000000 
#    z 0.000000 0.000000 3.715670 
# 
# 
# High freq. dielectric constant tensor:
#      x y z
#    x 1.784790 0.000000 0.000000 
#    y 0.000000 1.792170 0.000000 
#    z 0.000000 0.000000 1.795800 
# 
# From -- ./inp_files/24476.got.cif
#   From: 2010.03.12/outbox.cif.g09.slc.cpg/sg20_13_cif.got.tgz:24476.got - 2010.04.14 01:38:04.
