data_PCOD8159256
_publ_section_title
;
Structure prediction by ZEFSAII (Michael W. Deem and Ramdas Pophale) SiO2 
 PCOD8159256
Probable space group: C 2 2 21
;
_chemical_formula_sum "Si O2"
_cell_formula_units_Z 40
_cell_length_a 27.558470
_cell_length_b 8.132296
_cell_length_c 7.928097
_cell_angle_alpha 90.000000
_cell_angle_beta 90.000000
_cell_angle_gamma 90.000000
_cell_volume 1776.794640
_symmetry_space_group_name_H-M "C 2 2 21"
_symmetry_group_IT_number 20
_symmetry_cell_setting 'orthorhombic'
loop_
_space_group_symop_operation_xyz
x,y,z
-x,-y,1/2+z
x,-y,-z
-x,y,1/2-z
1/2+x,1/2+y,z
1/2-x,1/2-y,1/2+z
1/2+x,1/2-y,-z
1/2-x,1/2+y,1/2-z
loop_
_atom_site_type_symbol
_atom_site_label
_atom_site_fract_x
_atom_site_fract_y
_atom_site_fract_z
Si Si1 0.809956 0.682866 0.534848
Si Si2 0.209845 0.317970 0.426491
Si Si3 0.609803 0.306594 0.481795
Si Si4 0.055057 0.827970 0.796283
Si Si5 0.903844 0.182223 0.619769
O O1 0.828098 0.500000 0.500000
O O2 0.805804 0.699154 0.734230
O O3 0.758376 0.713793 0.447859
O O4 0.849002 0.805613 0.452342
O O5 0.218087 0.500000 0.500000
O O6 0.166490 0.233480 0.528606
O O7 0.600213 0.500000 0.500000
O O8 0.581170 0.228343 0.642768
O O9 0.589300 0.233417 0.304274
O O10 0.000000 0.866841 0.750000
O O11 0.085021 0.991635 0.841424
O O12 0.059961 0.734637 0.978563
#
# Coordination Sequence:
#
# PCOD8159256 Si02
#       5
#     8   8   8   8   8
#     4  12  25  44  64  97 137 181 224 271 341 404
#     4  12  25  41  67  96 135 179 227 277 330 407
#     4  10  21  39  61  97 132 173 220 273 334 394
#     4  10  22  38  65  99 132 171 224 280 335 393
#     4  10  22  37  64  94 133 170 217 275 329 394
#
# _framework density 22.512450000000001
#
# number of rings (size 3 to 8) (size 9 to 14) (size 15 to 20)
#    0.000    1.200    2.000    4.200   11.200    1.600 
#    0.000    0.000    0.000    2.400    0.000    0.000 
#    0.000    0.000    0.000    0.000    0.000    0.000 
#
# Total GULP energy -247770.271037 kJ/mol
# GULP energy per Si atom -12388.513552 kJ/mol
# Density = 2.246121 g / cm^3
# Si number density = 22.512450 Si / 1000 Ang^3
#
#
#
# Elastic Constant Matrix: (Units=GPa)
#
#
# Indices 1 2 3 4 5 6 
#
# 1 156.1009 30.6879 74.4504 0.0000 0.0000 0.0000
# 2 30.6879 34.7792 17.7735 0.0000 0.0000 0.0000
# 3 74.4504 17.7735 236.4140 0.0000 0.0000 0.0000
# 4 0.0000 0.0000 0.0000 20.5732 0.0000 0.0000
# 5 0.0000 0.0000 0.0000 0.0000 39.7926 0.0000
# 6 0.0000 0.0000 0.0000 0.0000 0.0000 109.8939
#
#
#
# Elastic Compliance Matrix: (Units=1/GPa)
#
#
# Indices 1 2 3 4 5 6 
#
# 1 0.008785 -0.006591 -0.002271 0.000000 0.000000 0.000000
# 2 -0.006591 0.034847 -0.000544 0.000000 0.000000 0.000000
# 3 -0.002271 -0.000544 0.004986 0.000000 0.000000 0.000000
# 4 0.000000 0.000000 0.000000 0.048607 0.000000 0.000000
# 5 0.000000 0.000000 0.000000 0.000000 0.025130 0.000000
# 6 0.000000 0.000000 0.000000 0.000000 0.000000 0.009100
#
#
# Mechanical properties :
#
#
# Convention : Reuss Voigt Hill
#
# Bulk Modulus (GPa) = 33.55119 74.79087 54.17103
# Shear Modulus (GPa) = 31.21066 54.34408 42.77737
#
# Velocity S-wave (km/s) = 3.72744 4.91853 4.36382
# Velocity P-wave (km/s) = 5.78454 8.09630 7.03601
#
# Compressibility (1/GPa) = 0.02980520
#
# Stress axis : x y z
#
# Youngs Moduli (GPa) = 113.83084 28.69723 200.56342
#
# Poissons Ratio (x) = 0.18914 0.45548
# Poissons Ratio (y) = 0.75026 0.10914
# Poissons Ratio (z) = 0.25851 0.01562
#
# Static dielectric constant tensor:
#      x y z
#    x 3.991980 0.000000 0.000000 
#    y 0.000000 3.553060 0.000000 
#    z 0.000000 0.000000 5.327340 
# 
# 
# High freq. dielectric constant tensor:
#      x y z
#    x 1.880500 0.000000 0.000000 
#    y 0.000000 1.832060 0.000000 
#    z 0.000000 0.000000 1.937460 
# 
# From -- ./inp_files/10494.got.cif
#   From: 2010.03.12/outbox.cif.g09.slc.cpg/sg20_6_cif.got.tgz:10494.got - 2010.04.14 01:38:04.
