data_PCOD8159990
_publ_section_title
;
Structure prediction by ZEFSAII (Michael W. Deem and Ramdas Pophale) SiO2 
 PCOD8159990
Probable space group: C 2 2 21
;
_chemical_formula_sum "Si O2"
_cell_formula_units_Z 36
_cell_length_a 13.151502
_cell_length_b 22.164454
_cell_length_c 5.169449
_cell_angle_alpha 90.000000
_cell_angle_beta 90.000000
_cell_angle_gamma 90.000000
_cell_volume 1506.872988
_symmetry_space_group_name_H-M "C 2 2 21"
_symmetry_group_IT_number 20
_symmetry_cell_setting 'orthorhombic'
loop_
_space_group_symop_operation_xyz
x,y,z
-x,-y,1/2+z
x,-y,-z
-x,y,1/2-z
1/2+x,1/2+y,z
1/2-x,1/2-y,1/2+z
1/2+x,1/2-y,-z
1/2-x,1/2+y,1/2-z
loop_
_atom_site_type_symbol
_atom_site_label
_atom_site_fract_x
_atom_site_fract_y
_atom_site_fract_z
Si Si1 0.376732 0.000000 0.000000
Si Si2 0.000000 0.600768 0.750000
Si Si3 0.739512 0.500000 0.500000
Si Si4 0.127981 0.781056 0.404312
Si Si5 0.559998 0.587962 0.509637
Si Si6 0.633537 0.793334 0.098588
O O1 0.446379 0.059169 0.965894
O O2 0.308346 0.992167 0.749369
O O3 0.082443 0.640736 0.908148
O O4 0.671827 0.560064 0.509219
O O5 0.063739 0.840823 0.447068
O O6 0.245654 0.799816 0.414139
O O7 0.098879 0.734996 0.630167
O O8 0.096125 0.749591 0.134822
O O9 0.500000 0.558258 0.750000
O O10 0.500000 0.572179 0.250000
#
# Coordination Sequence:
#
# PCOD8159990 Si02
#       6
#     4   4   4   8   8   8
#     4  12  29  49  76 108 146 196 254 307 383 446
#     4  12  28  48  76 110 140 192 250 308 358 452
#     4  12  27  51  74 106 154 200 242 317 385 438
#     4  10  23  43  65 103 140 191 231 296 369 431
#     4  12  25  43  75 107 148 191 257 308 368 447
#     4  10  24  43  70  98 144 186 239 292 369 436
#
# _framework density 23.890535
#
# number of rings (size 3 to 8) (size 9 to 14) (size 15 to 20)
#    0.000    0.889    0.000    5.333    4.667   10.667 
#    0.000    0.000    0.000    0.000    0.000    0.000 
#    0.000    0.000    0.000    0.000    0.000    0.000 
#
# Total GULP energy -223322.930018 kJ/mol
# GULP energy per Si atom -12406.829445 kJ/mol
# Density = 2.383616 g / cm^3
# Si number density = 23.890535 Si / 1000 Ang^3
#
#
#
# Elastic Constant Matrix: (Units=GPa)
#
#
# Indices 1 2 3 4 5 6 
#
# 1 109.3886 66.2682 80.9540 0.0000 0.0000 0.0000
# 2 66.2682 157.7541 59.7203 0.0000 0.0000 0.0000
# 3 80.9540 59.7203 209.0850 0.0000 0.0000 0.0000
# 4 0.0000 0.0000 0.0000 233.0144 0.0000 0.0000
# 5 0.0000 0.0000 0.0000 0.0000 57.9498 0.0000
# 6 0.0000 0.0000 0.0000 0.0000 0.0000 56.3446
#
#
#
# Elastic Compliance Matrix: (Units=1/GPa)
#
#
# Indices 1 2 3 4 5 6 
#
# 1 0.015429 -0.004731 -0.004622 0.000000 0.000000 0.000000
# 2 -0.004731 0.008558 -0.000613 0.000000 0.000000 0.000000
# 3 -0.004622 -0.000613 0.006747 0.000000 0.000000 0.000000
# 4 0.000000 0.000000 0.000000 0.004292 0.000000 0.000000
# 5 0.000000 0.000000 0.000000 0.000000 0.017256 0.000000
# 6 0.000000 0.000000 0.000000 0.000000 0.000000 0.017748
#
#
# Mechanical properties :
#
#
# Convention : Reuss Voigt Hill
#
# Bulk Modulus (GPa) = 92.57562 98.90141 95.73851
# Shear Modulus (GPa) = 53.43949 87.41412 70.42680
#
# Velocity S-wave (km/s) = 4.73466 6.05548 5.43534
# Velocity P-wave (km/s) = 8.28996 9.50681 8.91916
#
# Compressibility (1/GPa) = 0.01080198
#
# Stress axis : x y z
#
# Youngs Moduli (GPa) = 64.81380 116.84411 148.20484
#
# Poissons Ratio (x) = 0.55283 0.68506
# Poissons Ratio (y) = 0.30666 0.09079
# Poissons Ratio (z) = 0.29959 0.07158
#
# Static dielectric constant tensor:
#      x y z
#    x 3.736610 0.000000 0.000000 
#    y 0.000000 4.235390 0.000000 
#    z 0.000000 0.000000 4.366390 
# 
# 
# High freq. dielectric constant tensor:
#      x y z
#    x 1.976460 0.000000 0.000000 
#    y 0.000000 1.954990 0.000000 
#    z 0.000000 0.000000 1.956720 
# 
# From -- ./inp_files/1796.got.cif
#   From: 2010.03.12/outbox.cif.g09.slc.cpg/sg20_1_cif.got.tgz:1796.got - 2010.04.14 01:38:04.
