data_PCOD8159834
_publ_section_title
;
Structure prediction by ZEFSAII (Michael W. Deem and Ramdas Pophale) SiO2 
 PCOD8159834
Probable space group: C 2 2 21
;
_chemical_formula_sum "Si O2"
_cell_formula_units_Z 40
_cell_length_a 12.470144
_cell_length_b 6.137706
_cell_length_c 20.530211
_cell_angle_alpha 90.000000
_cell_angle_beta 90.000000
_cell_angle_gamma 90.000000
_cell_volume 1571.342884
_symmetry_space_group_name_H-M "C 2 2 21"
_symmetry_group_IT_number 20
_symmetry_cell_setting 'orthorhombic'
loop_
_space_group_symop_operation_xyz
x,y,z
-x,-y,1/2+z
x,-y,-z
-x,y,1/2-z
1/2+x,1/2+y,z
1/2-x,1/2-y,1/2+z
1/2+x,1/2-y,-z
1/2-x,1/2+y,1/2-z
loop_
_atom_site_type_symbol
_atom_site_label
_atom_site_fract_x
_atom_site_fract_y
_atom_site_fract_z
Si Si1 0.601926 0.414852 0.427572
Si Si2 0.759124 0.405807 0.193228
Si Si3 0.289302 0.933086 0.339482
Si Si4 0.985517 0.417286 0.848991
Si Si5 0.536598 0.452428 0.818455
O O1 0.607767 0.500000 0.500000
O O2 0.718881 0.346142 0.399897
O O3 0.536172 0.184791 0.421582
O O4 0.542890 0.596382 0.380360
O O5 0.730514 0.192356 0.152839
O O6 0.741120 0.356857 0.269909
O O7 0.879077 0.484120 0.181957
O O8 0.667694 0.588809 0.170127
O O9 0.420917 0.894172 0.348292
O O10 0.028525 0.214910 0.805769
O O11 0.500000 0.339380 0.750000
#
# Coordination Sequence:
#
# PCOD8159834 Si02
#       5
#     8   8   8   8   8
#     4  10  22  44  60  82 126 167 201 250 306 365
#     4  11  19  37  64  91 122 153 195 260 306 355
#     4  11  21  38  60  92 122 153 202 252 309 363
#     4   9  21  39  58  87 124 152 193 254 303 352
#     4   9  17  37  61  81 119 153 198 244 299 350
#
# _framework density 25.455935
#
# number of rings (size 3 to 8) (size 9 to 14) (size 15 to 20)
#    1.200    0.800    2.000    4.200    0.000    0.000 
#   14.400    1.000    0.000    0.000    0.000    0.000 
#    0.000    0.000    0.000    0.000    0.000    0.000 
#
# Total GULP energy -247803.134813 kJ/mol
# GULP energy per Si atom -12390.156741 kJ/mol
# Density = 2.539800 g / cm^3
# Si number density = 25.455935 Si / 1000 Ang^3
#
#
#
# Elastic Constant Matrix: (Units=GPa)
#
#
# Indices 1 2 3 4 5 6 
#
# 1 231.3022 35.6029 62.5394 0.0000 0.0000 0.0000
# 2 35.6029 63.2054 10.2323 0.0000 0.0000 0.0000
# 3 62.5394 10.2323 138.6404 0.0000 0.0000 0.0000
# 4 0.0000 0.0000 0.0000 21.6008 0.0000 0.0000
# 5 0.0000 0.0000 0.0000 0.0000 27.6233 0.0000
# 6 0.0000 0.0000 0.0000 0.0000 0.0000 47.1403
#
#
#
# Elastic Compliance Matrix: (Units=1/GPa)
#
#
# Indices 1 2 3 4 5 6 
#
# 1 0.005327 -0.002643 -0.002208 0.000000 0.000000 0.000000
# 2 -0.002643 0.017324 -0.000086 0.000000 0.000000 0.000000
# 3 -0.002208 -0.000086 0.008215 0.000000 0.000000 0.000000
# 4 0.000000 0.000000 0.000000 0.046295 0.000000 0.000000
# 5 0.000000 0.000000 0.000000 0.000000 0.036201 0.000000
# 6 0.000000 0.000000 0.000000 0.000000 0.000000 0.021213
#
#
# Mechanical properties :
#
#
# Convention : Reuss Voigt Hill
#
# Bulk Modulus (GPa) = 47.63771 72.21081 59.92426
# Shear Modulus (GPa) = 33.01458 40.92444 36.96951
#
# Velocity S-wave (km/s) = 3.60520 4.01391 3.81503
# Velocity P-wave (km/s) = 6.00703 7.06474 6.55724
#
# Compressibility (1/GPa) = 0.02099177
#
# Stress axis : x y z
#
# Youngs Moduli (GPa) = 187.71567 57.72223 121.72465
#
# Poissons Ratio (x) = 0.15258 0.26876
# Poissons Ratio (y) = 0.49619 0.01050
# Poissons Ratio (z) = 0.41447 0.00498
#
# Static dielectric constant tensor:
#      x y z
#    x 5.229140 0.000000 0.000000 
#    y 0.000000 5.449070 0.000000 
#    z 0.000000 0.000000 3.641540 
# 
# 
# High freq. dielectric constant tensor:
#      x y z
#    x 2.055870 0.000000 0.000000 
#    y 0.000000 2.076810 0.000000 
#    z 0.000000 0.000000 1.930870 
# 
# From -- ./inp_files/27096.got.cif
#   From: 2010.03.12/outbox.cif.g09.slc.cpg/sg20_14_cif.got.tgz:27096.got - 2010.04.14 01:38:04.
