data_PCOD8160372
_publ_section_title
;
Structure prediction by ZEFSAII (Michael W. Deem and Ramdas Pophale) SiO2 
 PCOD8160372
Probable space group: C 2 2 21
;
_chemical_formula_sum "Si O2"
_cell_formula_units_Z 64
_cell_length_a 29.542763
_cell_length_b 10.578329
_cell_length_c 9.745589
_cell_angle_alpha 90.000000
_cell_angle_beta 90.000000
_cell_angle_gamma 90.000000
_cell_volume 3045.623904
_symmetry_space_group_name_H-M "C 2 2 21"
_symmetry_group_IT_number 20
_symmetry_cell_setting 'orthorhombic'
loop_
_space_group_symop_operation_xyz
x,y,z
-x,-y,1/2+z
x,-y,-z
-x,y,1/2-z
1/2+x,1/2+y,z
1/2-x,1/2-y,1/2+z
1/2+x,1/2-y,-z
1/2-x,1/2+y,1/2-z
loop_
_atom_site_type_symbol
_atom_site_label
_atom_site_fract_x
_atom_site_fract_y
_atom_site_fract_z
Si Si1 0.114624 0.358735 0.478897
Si Si2 0.118255 0.783441 0.788414
Si Si3 0.174767 0.997298 0.654958
Si Si4 0.721262 0.858547 0.522139
Si Si5 0.606084 0.304354 0.268799
Si Si6 0.641828 0.131887 0.045233
Si Si7 0.042691 0.020979 0.157079
Si Si8 0.761711 0.644715 0.331071
O O1 0.095155 0.500000 0.500000
O O2 0.102073 0.318069 0.324522
O O3 0.167978 0.357735 0.501763
O O4 0.092568 0.259390 0.586258
O O5 0.155383 0.873350 0.724082
O O6 0.075164 0.858304 0.843900
O O7 0.144957 0.721086 0.913634
O O8 0.229118 0.979868 0.659883
O O9 0.156710 0.000000 0.500000
O O10 0.155164 0.123536 0.727154
O O11 0.742998 0.763991 0.413732
O O12 0.732875 0.811399 0.674287
O O13 0.740814 0.000000 0.500000
O O14 0.609554 0.193444 0.158477
O O15 0.566960 0.400207 0.224700
O O16 0.690719 0.100867 0.108001
O O17 0.619155 0.000000 0.000000
O O18 0.000000 0.054173 0.250000
O O19 0.027662 0.000000 0.000000
#
# Coordination Sequence:
#
# PCOD8160372 Si02
#       8
#     8   8   8   8   8   8   8   8
#     4  11  22  42  65  91 128 179 234 269 332 412
#     4  11  23  44  68 100 134 176 227 279 354 419
#     4  11  22  38  64  90 128 175 235 293 344 402
#     4  11  26  41  59  86 129 174 237 296 336 404
#     4  11  23  45  68  99 135 179 225 286 348 411
#     4  12  26  42  66  92 139 191 229 283 336 408
#     4  11  26  46  78 113 140 166 218 286 357 434
#     4  12  25  41  59  92 131 183 243 289 347 391
#
# _framework density 21.013756000000001
#
# number of rings (size 3 to 8) (size 9 to 14) (size 15 to 20)
#    0.000    0.750    5.000    1.875    5.250    0.000 
#    0.000    0.000    0.000    4.500    0.000    0.000 
#    0.000    0.000    0.000    0.000    0.000    0.000 
#
# Total GULP energy -396897.696333 kJ/mol
# GULP energy per Si atom -12403.053010 kJ/mol
# Density = 2.096593 g / cm^3
# Si number density = 21.013756 Si / 1000 Ang^3
#
#
#
# Elastic Constant Matrix: (Units=GPa)
#
#
# Indices 1 2 3 4 5 6 
#
# 1 51.1930 15.1812 24.2232 0.0000 0.0000 0.0000
# 2 15.1812 88.0065 24.7987 0.0000 0.0000 0.0000
# 3 24.2232 24.7987 144.1340 0.0000 0.0000 0.0000
# 4 0.0000 0.0000 0.0000 44.1348 0.0000 0.0000
# 5 0.0000 0.0000 0.0000 0.0000 29.0006 0.0000
# 6 0.0000 0.0000 0.0000 0.0000 0.0000 13.7167
#
#
#
# Elastic Compliance Matrix: (Units=1/GPa)
#
#
# Indices 1 2 3 4 5 6 
#
# 1 0.021895 -0.002880 -0.003184 0.000000 0.000000 0.000000
# 2 -0.002880 0.012320 -0.001636 0.000000 0.000000 0.000000
# 3 -0.003184 -0.001636 0.007755 0.000000 0.000000 0.000000
# 4 0.000000 0.000000 0.000000 0.022658 0.000000 0.000000
# 5 0.000000 0.000000 0.000000 0.000000 0.034482 0.000000
# 6 0.000000 0.000000 0.000000 0.000000 0.000000 0.072904
#
#
# Mechanical properties :
#
#
# Convention : Reuss Voigt Hill
#
# Bulk Modulus (GPa) = 37.63583 45.74884 41.69234
# Shear Modulus (GPa) = 25.47522 31.97913 28.72717
#
# Velocity S-wave (km/s) = 3.48560 3.90528 3.70140
# Velocity P-wave (km/s) = 5.84365 6.49254 6.17662
#
# Compressibility (1/GPa) = 0.02657043
#
# Stress axis : x y z
#
# Youngs Moduli (GPa) = 45.67353 81.16576 128.95624
#
# Poissons Ratio (x) = 0.23372 0.41062
# Poissons Ratio (y) = 0.13152 0.21095
# Poissons Ratio (z) = 0.14543 0.13277
#
# Static dielectric constant tensor:
#      x y z
#    x 3.424900 0.000000 0.000000 
#    y 0.000000 4.230870 0.000000 
#    z 0.000000 0.000000 3.594710 
# 
# 
# High freq. dielectric constant tensor:
#      x y z
#    x 1.777010 0.000000 0.000000 
#    y 0.000000 1.835920 0.000000 
#    z 0.000000 0.000000 1.847100 
# 
# From -- ./inp_files/11623.got.cif
#   From: 2010.03.12/outbox.cif.g09.slc.cpg/sg20_6_cif.got.tgz:11623.got - 2010.04.14 01:38:04.
