data_PCOD8160360
_publ_section_title
;
Structure prediction by ZEFSAII (Michael W. Deem and Ramdas Pophale) SiO2 
 PCOD8160360
Probable space group: C 2 2 21
;
_chemical_formula_sum "Si O2"
_cell_formula_units_Z 56
_cell_length_a 12.076503
_cell_length_b 14.677433
_cell_length_c 12.896722
_cell_angle_alpha 90.000000
_cell_angle_beta 90.000000
_cell_angle_gamma 90.000000
_cell_volume 2285.970589
_symmetry_space_group_name_H-M "C 2 2 21"
_symmetry_group_IT_number 20
_symmetry_cell_setting 'orthorhombic'
loop_
_space_group_symop_operation_xyz
x,y,z
-x,-y,1/2+z
x,-y,-z
-x,y,1/2-z
1/2+x,1/2+y,z
1/2-x,1/2-y,1/2+z
1/2+x,1/2-y,-z
1/2-x,1/2+y,1/2-z
loop_
_atom_site_type_symbol
_atom_site_label
_atom_site_fract_x
_atom_site_fract_y
_atom_site_fract_z
Si Si1 0.968568 0.460868 0.610473
Si Si2 0.613190 0.567709 0.311833
Si Si3 0.467417 0.760664 0.631320
Si Si4 0.652682 0.707325 0.483043
Si Si5 0.269196 0.063287 0.597458
Si Si6 0.779155 0.132298 0.572369
Si Si7 0.216116 0.553976 0.350080
O O1 0.012246 0.500000 0.500000
O O2 0.083752 0.443042 0.674326
O O3 0.910552 0.359947 0.608348
O O4 0.882051 0.536553 0.662645
O O5 0.500000 0.556729 0.250000
O O6 0.593494 0.631441 0.411900
O O7 0.653355 0.468338 0.351616
O O8 0.714284 0.605315 0.240179
O O9 0.500000 0.747221 0.750000
O O10 0.575943 0.761379 0.561274
O O11 0.400700 0.672175 0.592114
O O12 0.751236 0.665475 0.556690
O O13 0.699489 0.782232 0.403748
O O14 0.300445 0.000000 0.500000
O O15 0.757312 0.099582 0.455712
O O16 0.755300 0.051729 0.652784
#
# Coordination Sequence:
#
# PCOD8160360 Si02
#       7
#     8   8   8   8   8   8   8
#     4  11  21  46  71 103 139 188 235 300 366 439
#     4  11  25  44  69 101 146 188 243 298 368 436
#     4  12  27  42  74 108 144 192 250 302 361 447
#     4  11  24  46  69 105 142 192 238 310 368 427
#     4   9  22  39  69  98 136 184 234 288 363 434
#     4  11  24  44  69 105 144 185 240 302 369 435
#     4  11  24  43  73 102 144 191 237 299 371 440
#
# _framework density 24.497252
#
# number of rings (size 3 to 8) (size 9 to 14) (size 15 to 20)
#    0.000    1.143    2.857    3.429    8.000    0.000 
#    0.000    0.000    3.143    0.000    0.000    0.000 
#    0.000    0.000    0.000    0.000    0.000    0.000 
#
# Total GULP energy -346889.653956 kJ/mol
# GULP energy per Si atom -12388.916213 kJ/mol
# Density = 2.444150 g / cm^3
# Si number density = 24.497252 Si / 1000 Ang^3
#
#
#
# Elastic Constant Matrix: (Units=GPa)
#
#
# Indices 1 2 3 4 5 6 
#
# 1 139.2356 35.5968 33.4034 0.0000 0.0000 0.0000
# 2 35.5968 113.5568 23.1697 0.0000 0.0000 0.0000
# 3 33.4034 23.1697 78.3678 0.0000 0.0000 0.0000
# 4 0.0000 0.0000 0.0000 26.6093 0.0000 0.0000
# 5 0.0000 0.0000 0.0000 0.0000 36.4606 0.0000
# 6 0.0000 0.0000 0.0000 0.0000 0.0000 28.6688
#
#
#
# Elastic Compliance Matrix: (Units=1/GPa)
#
#
# Indices 1 2 3 4 5 6 
#
# 1 0.008418 -0.002029 -0.002988 0.000000 0.000000 0.000000
# 2 -0.002029 0.009861 -0.002050 0.000000 0.000000 0.000000
# 3 -0.002988 -0.002050 0.014640 0.000000 0.000000 0.000000
# 4 0.000000 0.000000 0.000000 0.037581 0.000000 0.000000
# 5 0.000000 0.000000 0.000000 0.000000 0.027427 0.000000
# 6 0.000000 0.000000 0.000000 0.000000 0.000000 0.034881
#
#
# Mechanical properties :
#
#
# Convention : Reuss Voigt Hill
#
# Bulk Modulus (GPa) = 53.23861 57.27777 55.25819
# Shear Modulus (GPa) = 32.63637 34.28045 33.45841
#
# Velocity S-wave (km/s) = 3.65395 3.74486 3.69969
# Velocity P-wave (km/s) = 6.29138 6.49082 6.39188
#
# Compressibility (1/GPa) = 0.01878336
#
# Stress axis : x y z
#
# Youngs Moduli (GPa) = 118.79797 101.41400 68.30513
#
# Poissons Ratio (x) = 0.20577 0.20410
# Poissons Ratio (y) = 0.24104 0.14006
# Poissons Ratio (z) = 0.35497 0.20795
#
# Static dielectric constant tensor:
#      x y z
#    x 4.398360 0.000000 0.000000 
#    y 0.000000 4.508490 0.000000 
#    z 0.000000 0.000000 4.488760 
# 
# 
# High freq. dielectric constant tensor:
#      x y z
#    x 1.975450 0.000000 0.000000 
#    y 0.000000 1.967200 0.000000 
#    z 0.000000 0.000000 1.981780 
# 
# From -- ./inp_files/20050.got.cif
#   From: 2010.03.12/outbox.cif.g09.slc.cpg/sg20_11_cif.got.tgz:20050.got - 2010.04.14 01:38:04.
