data_PCOD8160762
_publ_section_title
;
Structure prediction by ZEFSAII (Michael W. Deem and Ramdas Pophale) SiO2 
 PCOD8160762
Probable space group: C 2 2 2
;
_chemical_formula_sum "Si O2"
_cell_formula_units_Z 64
_cell_length_a 26.684110
_cell_length_b 5.153346
_cell_length_c 26.414502
_cell_angle_alpha 90.000000
_cell_angle_beta 90.000000
_cell_angle_gamma 90.000000
_cell_volume 3632.322926
_symmetry_space_group_name_H-M "C 2 2 2"
_symmetry_group_IT_number 21
_symmetry_cell_setting 'orthorhombic'
loop_
_space_group_symop_operation_xyz
x,y,z
-x,-y,z
x,-y,-z
-x,y,-z
1/2+x,1/2+y,z
1/2-x,1/2-y,z
1/2+x,1/2-y,-z
1/2-x,1/2+y,-z
loop_
_atom_site_type_symbol
_atom_site_label
_atom_site_fract_x
_atom_site_fract_y
_atom_site_fract_z
Si Si1 0.392231 0.961032 0.719351
Si Si2 0.558403 0.449790 0.237525
Si Si3 0.443296 0.246592 0.977714
Si Si4 0.555925 0.545702 0.559455
Si Si5 0.221394 0.500397 0.279884
Si Si6 0.221420 0.499441 0.599612
Si Si7 0.532723 0.254003 0.133816
Si Si8 0.108133 0.446483 0.400011
O O1 0.413349 0.718335 0.751175
O O2 0.335764 0.003160 0.738948
O O3 0.394739 0.914843 0.659956
O O4 0.423556 0.224059 0.725579
O O5 0.500000 0.500000 0.245982
O O6 0.568115 0.340747 0.180581
O O7 0.437013 0.206953 0.917522
O O8 0.415758 0.500000 0.000000
O O9 0.500000 0.246276 0.000000
O O10 0.414131 0.000000 0.000000
O O11 0.500000 0.500000 0.580935
O O12 0.556265 0.500000 0.500000
O O13 0.593878 0.338693 0.582004
O O14 0.572101 0.835019 0.576132
O O15 0.250000 0.250000 0.258215
O O16 0.223102 0.501399 0.340133
O O17 0.250000 0.750000 0.257806
O O18 0.250000 0.750000 0.577876
O O19 0.164187 0.493254 0.580950
O O20 0.250000 0.250000 0.577434
O O21 0.500000 0.500000 0.119150
O O22 0.500000 0.000000 0.149105
#
# Coordination Sequence:
#
# PCOD8160762 Si02
#       8
#     8   8   8   8   8   8   8   8
#     4  11  22  36  52  77 103 130 176 208 245 299
#     4  11  23  34  45  66 104 150 176 205 234 300
#     4  10  15  24  40  63  80 107 166 243 257 272
#     4  11  24  41  59  80 102 129 168 213 260 299
#     4   9  17  31  52  75  96 121 157 213 262 294
#     4   9  17  31  53  81 107 127 155 192 243 303
#     4  11  18  29  43  59  89 130 176 217 256 287
#     4  11  22  37  61  81 100 133 163 208 254 300
#
# _framework density 17.619577
#
# number of rings (size 3 to 8) (size 9 to 14) (size 15 to 20)
#    0.000    1.625    2.500    4.875    0.000    8.000 
#    0.000    0.000    0.000    7.500    0.000    0.000 
#    0.000    0.000    0.000    0.000    0.000   35.000 
#
# Total GULP energy -396631.262057 kJ/mol
# GULP energy per Si atom -12394.726939 kJ/mol
# Density = 1.757947 g / cm^3
# Si number density = 17.619577 Si / 1000 Ang^3
#
#
#
# Elastic Constant Matrix: (Units=GPa)
#
#
# Indices 1 2 3 4 5 6 
#
# 1 93.2642 41.5553 30.1905 0.0000 0.0000 0.0000
# 2 41.5553 141.1489 16.1324 0.0000 0.0000 0.0000
# 3 30.1905 16.1324 53.1181 0.0000 0.0000 0.0000
# 4 0.0000 0.0000 0.0000 29.0344 0.0000 0.0000
# 5 0.0000 0.0000 0.0000 0.0000 16.6954 0.0000
# 6 0.0000 0.0000 0.0000 0.0000 0.0000 31.7927
#
#
#
# Elastic Compliance Matrix: (Units=1/GPa)
#
#
# Indices 1 2 3 4 5 6 
#
# 1 0.014618 -0.003475 -0.007253 0.000000 0.000000 0.000000
# 2 -0.003475 0.008165 -0.000505 0.000000 0.000000 0.000000
# 3 -0.007253 -0.000505 0.023102 0.000000 0.000000 0.000000
# 4 0.000000 0.000000 0.000000 0.034442 0.000000 0.000000
# 5 0.000000 0.000000 0.000000 0.000000 0.059897 0.000000
# 6 0.000000 0.000000 0.000000 0.000000 0.000000 0.031454
#
#
# Mechanical properties :
#
#
# Convention : Reuss Voigt Hill
#
# Bulk Modulus (GPa) = 42.69917 51.47639 47.08778
# Shear Modulus (GPa) = 24.75850 28.81469 26.78659
#
# Velocity S-wave (km/s) = 3.75263 4.04837 3.90330
# Velocity P-wave (km/s) = 6.56223 7.15061 6.86273
#
# Compressibility (1/GPa) = 0.02341966
#
# Stress axis : x y z
#
# Youngs Moduli (GPa) = 68.40685 122.46751 43.28654
#
# Poissons Ratio (x) = 0.42555 0.31397
# Poissons Ratio (y) = 0.23770 0.02186
# Poissons Ratio (z) = 0.49618 0.06184
#
# Static dielectric constant tensor:
#      x y z
#    x 3.185880 0.000000 0.000000 
#    y 0.000000 4.446050 0.000000 
#    z 0.000000 0.000000 3.168770 
# 
# 
# High freq. dielectric constant tensor:
#      x y z
#    x 1.646390 0.000000 0.000000 
#    y 0.000000 1.714210 0.000000 
#    z 0.000000 0.000000 1.658140 
# 
# From -- ./inp_files/38918.got.cif
#   From: 2010.03.12/outbox.cif.g09.slc.cpg/sg21_20_cif.got.tgz:38918.got - 2010.04.14 01:59:26.
