data_PCOD8160504
_publ_section_title
;
Structure prediction by ZEFSAII (Michael W. Deem and Ramdas Pophale) SiO2 
 PCOD8160504
Probable space group: C 2 2 21
;
_chemical_formula_sum "Si O2"
_cell_formula_units_Z 28
_cell_length_a 11.717243
_cell_length_b 8.775982
_cell_length_c 12.151291
_cell_angle_alpha 90.000000
_cell_angle_beta 90.000000
_cell_angle_gamma 90.000000
_cell_volume 1249.521065
_symmetry_space_group_name_H-M "C 2 2 21"
_symmetry_group_IT_number 20
_symmetry_cell_setting 'orthorhombic'
loop_
_space_group_symop_operation_xyz
x,y,z
-x,-y,1/2+z
x,-y,-z
-x,y,1/2-z
1/2+x,1/2+y,z
1/2-x,1/2-y,1/2+z
1/2+x,1/2-y,-z
1/2-x,1/2+y,1/2-z
loop_
_atom_site_type_symbol
_atom_site_label
_atom_site_fract_x
_atom_site_fract_y
_atom_site_fract_z
Si Si1 0.974053 0.136593 0.627573
Si Si2 0.930265 0.828781 0.906776
Si Si3 0.500000 0.068667 0.750000
Si Si4 0.322238 0.099065 0.392943
O O1 0.072139 0.190874 0.539851
O O2 0.000000 0.194188 0.750000
O O3 0.858929 0.223521 0.588602
O O4 0.968873 0.951584 0.623285
O O5 0.811531 0.901038 0.864455
O O6 0.954941 0.669464 0.850591
O O7 0.606112 0.967867 0.790878
O O8 0.349668 0.000000 0.500000
#
# Coordination Sequence:
#
# PCOD8160504 Si02
#       4
#     8   8   4   8
#     4  11  23  45  67  97 139 175 226 283 329 412
#     4  11  26  44  68  99 138 182 226 280 344 404
#     4  12  26  42  70 102 136 178 230 284 338 406
#     4  12  25  43  68 102 135 178 229 280 338 409
#
# _framework density 22.408584000000001
#
# number of rings (size 3 to 8) (size 9 to 14) (size 15 to 20)
#    0.000    0.571    8.571    0.000    4.000    0.000 
#    0.000    5.714    0.000    0.000    0.000    0.000 
#    0.000    0.000    0.000    0.000    0.000    0.000 
#
# Total GULP energy -173505.155676 kJ/mol
# GULP energy per Si atom -12393.225405 kJ/mol
# Density = 2.235758 g / cm^3
# Si number density = 22.408584 Si / 1000 Ang^3
#
#
#
# Elastic Constant Matrix: (Units=GPa)
#
#
# Indices 1 2 3 4 5 6 
#
# 1 78.7207 51.2437 37.8072 0.0000 0.0000 0.0000
# 2 51.2437 118.4123 28.9583 0.0000 0.0000 0.0000
# 3 37.8072 28.9583 126.5628 0.0000 0.0000 0.0000
# 4 0.0000 0.0000 0.0000 27.7737 0.0000 0.0000
# 5 0.0000 0.0000 0.0000 0.0000 31.4114 0.0000
# 6 0.0000 0.0000 0.0000 0.0000 0.0000 33.0777
#
#
#
# Elastic Compliance Matrix: (Units=1/GPa)
#
#
# Indices 1 2 3 4 5 6 
#
# 1 0.019532 -0.007442 -0.004132 0.000000 0.000000 0.000000
# 2 -0.007442 0.011781 -0.000472 0.000000 0.000000 0.000000
# 3 -0.004132 -0.000472 0.009244 0.000000 0.000000 0.000000
# 4 0.000000 0.000000 0.000000 0.036005 0.000000 0.000000
# 5 0.000000 0.000000 0.000000 0.000000 0.031836 0.000000
# 6 0.000000 0.000000 0.000000 0.000000 0.000000 0.030232
#
#
# Mechanical properties :
#
#
# Convention : Reuss Voigt Hill
#
# Bulk Modulus (GPa) = 60.73887 62.19047 61.46467
# Shear Modulus (GPa) = 29.72464 32.16500 30.94482
#
# Velocity S-wave (km/s) = 3.64604 3.79276 3.72013
# Velocity P-wave (km/s) = 6.69992 6.85516 6.77798
#
# Compressibility (1/GPa) = 0.01646392
#
# Stress axis : x y z
#
# Youngs Moduli (GPa) = 51.19786 84.88062 108.18294
#
# Poissons Ratio (x) = 0.63169 0.44700
# Poissons Ratio (y) = 0.38102 0.05111
# Poissons Ratio (z) = 0.21154 0.04010
#
# Static dielectric constant tensor:
#      x y z
#    x 3.802950 0.000000 0.000000 
#    y 0.000000 4.140900 0.000000 
#    z 0.000000 0.000000 4.230930 
# 
# 
# High freq. dielectric constant tensor:
#      x y z
#    x 1.848410 0.000000 0.000000 
#    y 0.000000 1.893140 0.000000 
#    z 0.000000 0.000000 1.895880 
# 
# From -- ./inp_files/18098.got.cif
#   From: 2010.03.12/outbox.cif.g09.slc.cpg/sg20_10_cif.got.tgz:18098.got - 2010.04.14 01:38:04.
