data_PCOD8160965
_publ_section_title
;
Structure prediction by ZEFSAII (Michael W. Deem and Ramdas Pophale) SiO2 
 PCOD8160965
Probable space group: C 2 2 2
;
_chemical_formula_sum "Si O2"
_cell_formula_units_Z 58
_cell_length_a 9.913093
_cell_length_b 24.334305
_cell_length_c 12.533060
_cell_angle_alpha 90.000000
_cell_angle_beta 90.000000
_cell_angle_gamma 90.000000
_cell_volume 3023.327862
_symmetry_space_group_name_H-M "C 2 2 2"
_symmetry_group_IT_number 21
_symmetry_cell_setting 'orthorhombic'
loop_
_space_group_symop_operation_xyz
x,y,z
-x,-y,z
x,-y,-z
-x,y,-z
1/2+x,1/2+y,z
1/2-x,1/2-y,z
1/2+x,1/2-y,-z
1/2-x,1/2+y,-z
loop_
_atom_site_type_symbol
_atom_site_label
_atom_site_fract_x
_atom_site_fract_y
_atom_site_fract_z
Si Si1 0.116179 0.462153 0.261833
Si Si2 0.965296 0.804928 0.116154
Si Si3 0.463562 0.810094 0.187160
Si Si4 0.452135 0.876052 0.388550
Si Si5 0.794708 0.374398 0.901726
Si Si6 0.000000 0.000000 0.500000
Si Si7 0.211557 0.945981 0.346044
Si Si8 0.710626 0.377791 0.135331
O O1 0.200737 0.426847 0.176353
O O2 0.217800 0.495472 0.336012
O O3 0.000000 0.500000 0.204565
O O4 0.040041 0.426680 0.349294
O O5 0.813752 0.827382 0.131409
O O6 0.001110 0.754150 0.192046
O O7 0.058954 0.856841 0.136628
O O8 0.000000 0.780767 0.000000
O O9 0.479683 0.826266 0.309522
O O10 0.561303 0.843736 0.106577
O O11 0.310118 0.826390 0.158734
O O12 0.500000 0.852627 0.500000
O O13 0.298119 0.897423 0.400631
O O14 0.757957 0.398995 0.018363
O O15 0.082335 0.958594 0.420823
O O16 0.200641 0.926569 0.221497
#
# Coordination Sequence:
#
# PCOD8160965 Si02
#       8
#     8   8   8   8   8   2   8   8
#     4   9  19  35  58  85 111 146 185 238 287 337
#     4  10  20  34  55  81 116 153 182 222 280 340
#     4  10  19  33  58  85 110 148 192 232 271 337
#     4   9  18  36  58  81 108 137 185 243 292 322
#     4  10  20  34  57  85 116 148 183 228 281 341
#     4  12  24  36  58  74 104 152 200 234 280 338
#     4  10  22  36  55  79 104 144 190 232 278 338
#     4  10  21  36  54  83 117 149 184 227 283 343
#
# _framework density 19.184159000000001
#
# number of rings (size 3 to 8) (size 9 to 14) (size 15 to 20)
#    0.000    2.207    0.000    3.724    1.931    4.690 
#    0.000    3.448    1.517    4.966    0.000    0.000 
#    0.000    0.000    0.000    0.000    0.000    0.000 
#
# Total GULP energy -359263.036614 kJ/mol
# GULP energy per Si atom -12388.380573 kJ/mol
# Density = 1.914049 g / cm^3
# Si number density = 19.184159 Si / 1000 Ang^3
#
#
#
# Elastic Constant Matrix: (Units=GPa)
#
#
# Indices 1 2 3 4 5 6 
#
# 1 80.2791 23.0781 47.1619 0.0000 0.0000 0.0000
# 2 23.0781 62.2059 34.7921 0.0000 0.0000 0.0000
# 3 47.1619 34.7921 107.6841 0.0000 0.0000 0.0000
# 4 0.0000 0.0000 0.0000 17.8618 0.0000 0.0000
# 5 0.0000 0.0000 0.0000 0.0000 28.4371 0.0000
# 6 0.0000 0.0000 0.0000 0.0000 0.0000 15.3695
#
#
#
# Elastic Compliance Matrix: (Units=1/GPa)
#
#
# Indices 1 2 3 4 5 6 
#
# 1 0.017118 -0.002633 -0.006646 0.000000 0.000000 0.000000
# 2 -0.002633 0.020027 -0.005317 0.000000 0.000000 0.000000
# 3 -0.006646 -0.005317 0.013915 0.000000 0.000000 0.000000
# 4 0.000000 0.000000 0.000000 0.055985 0.000000 0.000000
# 5 0.000000 0.000000 0.000000 0.000000 0.035165 0.000000
# 6 0.000000 0.000000 0.000000 0.000000 0.000000 0.065064
#
#
# Mechanical properties :
#
#
# Convention : Reuss Voigt Hill
#
# Bulk Modulus (GPa) = 45.73273 51.13704 48.43489
# Shear Modulus (GPa) = 20.51226 22.00949 21.26087
#
# Velocity S-wave (km/s) = 3.27345 3.39082 3.33265
# Velocity P-wave (km/s) = 6.17883 6.48413 6.33332
#
# Compressibility (1/GPa) = 0.02186618
#
# Stress axis : x y z
#
# Youngs Moduli (GPa) = 58.41769 49.93379 71.86387
#
# Poissons Ratio (x) = 0.13150 0.47763
# Poissons Ratio (y) = 0.15384 0.38211
# Poissons Ratio (z) = 0.38826 0.26550
#
# Static dielectric constant tensor:
#      x y z
#    x 3.641840 0.000000 0.000000 
#    y 0.000000 3.301830 0.000000 
#    z 0.000000 0.000000 3.563010 
# 
# 
# High freq. dielectric constant tensor:
#      x y z
#    x 1.751620 0.000000 0.000000 
#    y 0.000000 1.731940 0.000000 
#    z 0.000000 0.000000 1.737750 
# 
# From -- ./inp_files/22997.got.cif
#   From: 2010.03.12/outbox.cif.g09.slc.cpg/sg21_12_cif.got.tgz:22997.got - 2010.04.14 01:59:26.
