data_PCOD8160963
_publ_section_title
;
Structure prediction by ZEFSAII (Michael W. Deem and Ramdas Pophale) SiO2 
 PCOD8160963
Probable space group: C 2 2 2
;
_chemical_formula_sum "Si O2"
_cell_formula_units_Z 40
_cell_length_a 8.742406
_cell_length_b 16.518536
_cell_length_c 14.252094
_cell_angle_alpha 90.000000
_cell_angle_beta 90.000000
_cell_angle_gamma 90.000000
_cell_volume 2058.169811
_symmetry_space_group_name_H-M "C 2 2 2"
_symmetry_group_IT_number 21
_symmetry_cell_setting 'orthorhombic'
loop_
_space_group_symop_operation_xyz
x,y,z
-x,-y,z
x,-y,-z
-x,y,-z
1/2+x,1/2+y,z
1/2-x,1/2-y,z
1/2+x,1/2-y,-z
1/2-x,1/2+y,-z
loop_
_atom_site_type_symbol
_atom_site_label
_atom_site_fract_x
_atom_site_fract_y
_atom_site_fract_z
Si Si1 0.181020 0.908234 0.397043
Si Si2 0.325311 0.489111 0.109562
Si Si3 0.098214 0.579335 0.239964
Si Si4 0.838040 0.900895 0.392342
Si Si5 0.802560 0.338599 0.791278
O O1 0.313169 0.877881 0.326846
O O2 0.224362 0.882695 0.503008
O O3 0.013060 0.871712 0.376877
O O4 0.172699 0.003672 0.378222
O O5 0.500000 0.500000 0.139965
O O6 0.220610 0.555113 0.161119
O O7 0.283876 0.398540 0.138952
O O8 0.298908 0.500000 0.000000
O O9 0.000000 0.500000 0.271479
O O10 0.985070 0.647686 0.198005
O O11 0.734844 0.854263 0.317995
O O12 0.750000 0.250000 0.822101
#
# Coordination Sequence:
#
# PCOD8160963 Si02
#       5
#     8   8   8   8   8
#     4   9  16  31  55  82 107 158 209 241 272 335
#     4  10  21  41  66  87 108 148 203 244 287 363
#     4  10  19  33  57  86 113 155 198 237 285 345
#     4   9  17  31  54  80 117 152 199 245 284 340
#     4  11  23  38  55  88 128 152 182 249 305 339
#
# _framework density 19.434743000000001
#
# number of rings (size 3 to 8) (size 9 to 14) (size 15 to 20)
#    0.000    2.200    4.000    2.400    0.000    4.400 
#    0.000   12.000    0.000    0.000    0.000    0.000 
#    0.000    0.000    0.000    0.000    0.000    0.000 
#
# Total GULP energy -247932.163287 kJ/mol
# GULP energy per Si atom -12396.608164 kJ/mol
# Density = 1.939051 g / cm^3
# Si number density = 19.434743 Si / 1000 Ang^3
#
#
#
# Elastic Constant Matrix: (Units=GPa)
#
#
# Indices 1 2 3 4 5 6 
#
# 1 152.8492 48.9867 70.7538 0.0000 0.0000 0.0000
# 2 48.9867 85.5523 41.5285 0.0000 0.0000 0.0000
# 3 70.7538 41.5285 107.9374 0.0000 0.0000 0.0000
# 4 0.0000 0.0000 0.0000 10.6967 0.0000 0.0000
# 5 0.0000 0.0000 0.0000 0.0000 15.8362 0.0000
# 6 0.0000 0.0000 0.0000 0.0000 0.0000 22.5276
#
#
#
# Elastic Compliance Matrix: (Units=1/GPa)
#
#
# Indices 1 2 3 4 5 6 
#
# 1 0.010034 -0.003139 -0.005370 0.000000 0.000000 0.000000
# 2 -0.003139 0.015355 -0.003850 0.000000 0.000000 0.000000
# 3 -0.005370 -0.003850 0.014266 0.000000 0.000000 0.000000
# 4 0.000000 0.000000 0.000000 0.093487 0.000000 0.000000
# 5 0.000000 0.000000 0.000000 0.000000 0.063146 0.000000
# 6 0.000000 0.000000 0.000000 0.000000 0.000000 0.044390
#
#
# Mechanical properties :
#
#
# Convention : Reuss Voigt Hill
#
# Bulk Modulus (GPa) = 66.94652 74.31965 70.63309
# Shear Modulus (GPa) = 18.49286 22.15011 20.32148
#
# Velocity S-wave (km/s) = 3.08804 3.37963 3.23712
# Velocity P-wave (km/s) = 6.87287 7.31798 7.09891
#
# Compressibility (1/GPa) = 0.01493730
#
# Stress axis : x y z
#
# Youngs Moduli (GPa) = 99.66109 65.12534 70.09737
#
# Poissons Ratio (x) = 0.20442 0.37640
# Poissons Ratio (y) = 0.31282 0.26989
# Poissons Ratio (z) = 0.53515 0.25075
#
# Static dielectric constant tensor:
#      x y z
#    x 3.992230 0.000000 0.000000 
#    y 0.000000 3.095530 0.000000 
#    z 0.000000 0.000000 3.572000 
# 
# 
# High freq. dielectric constant tensor:
#      x y z
#    x 1.771920 0.000000 0.000000 
#    y 0.000000 1.705180 0.000000 
#    z 0.000000 0.000000 1.754990 
# 
# From -- ./inp_files/30350.got.cif
#   From: 2010.03.12/outbox.cif.g09.slc.cpg/sg21_16_cif.got.tgz:30350.got - 2010.04.14 01:59:26.
