data_PCOD8160099
_publ_section_title
;
Structure prediction by ZEFSAII (Michael W. Deem and Ramdas Pophale) SiO2 
 PCOD8160099
Probable space group: C 2 2 21
;
_chemical_formula_sum "Si O2"
_cell_formula_units_Z 48
_cell_length_a 8.862094
_cell_length_b 27.304693
_cell_length_c 8.973414
_cell_angle_alpha 90.000000
_cell_angle_beta 90.000000
_cell_angle_gamma 90.000000
_cell_volume 2171.357610
_symmetry_space_group_name_H-M "C 2 2 21"
_symmetry_group_IT_number 20
_symmetry_cell_setting 'orthorhombic'
loop_
_space_group_symop_operation_xyz
x,y,z
-x,-y,1/2+z
x,-y,-z
-x,y,1/2-z
1/2+x,1/2+y,z
1/2-x,1/2-y,1/2+z
1/2+x,1/2-y,-z
1/2-x,1/2+y,1/2-z
loop_
_atom_site_type_symbol
_atom_site_label
_atom_site_fract_x
_atom_site_fract_y
_atom_site_fract_z
Si Si1 0.669550 0.586385 0.192328
Si Si2 0.500000 0.854323 0.250000
Si Si3 0.000000 0.154406 0.750000
Si Si4 0.322436 0.696873 0.255657
Si Si5 0.758047 0.082407 0.633071
Si Si6 0.748603 0.208591 0.920048
Si Si7 0.659465 0.996528 0.826091
O O1 0.500000 0.580288 0.250000
O O2 0.719348 0.642803 0.188881
O O3 0.771905 0.557203 0.307799
O O4 0.707775 0.561962 0.032101
O O5 0.402249 0.889613 0.142975
O O6 0.392611 0.820837 0.351754
O O7 0.889767 0.121140 0.655445
O O8 0.908148 0.186928 0.867284
O O9 0.500000 0.705037 0.250000
O O10 0.254695 0.734685 0.374365
O O11 0.243067 0.706314 0.097596
O O12 0.767180 0.038597 0.754664
O O13 0.500000 0.002124 0.750000
O O14 0.636925 0.000000 0.000000
#
# Coordination Sequence:
#
# PCOD8160099 Si02
#       7
#     8   4   4   8   8   8   8
#     4  11  27  46  72 103 144 187 242 300 354 422
#     4  10  24  44  76 104 138 186 242 294 364 418
#     4  10  24  40  74 102 142 190 240 288 362 420
#     4  11  26  45  69 103 148 185 244 289 362 418
#     4  11  24  47  75 102 146 184 241 292 366 431
#     4  11  25  44  71 104 146 190 240 299 353 431
#     4  12  28  47  73 104 143 186 240 297 364 432
#
# _framework density 22.105985
#
# number of rings (size 3 to 8) (size 9 to 14) (size 15 to 20)
#    0.000    1.000    1.667    3.500   15.167    0.000 
#    1.500    0.000    0.000    0.000    0.000    0.000 
#    0.000    0.000    0.000    0.000    0.000    0.000 
#
# Total GULP energy -297693.303233 kJ/mol
# GULP energy per Si atom -12403.887635 kJ/mol
# Density = 2.205567 g / cm^3
# Si number density = 22.105985 Si / 1000 Ang^3
#
#
#
# Elastic Constant Matrix: (Units=GPa)
#
#
# Indices 1 2 3 4 5 6 
#
# 1 101.8131 50.7501 43.4592 0.0000 0.0000 0.0000
# 2 50.7501 127.5624 42.1100 0.0000 0.0000 0.0000
# 3 43.4592 42.1100 164.4555 0.0000 0.0000 0.0000
# 4 0.0000 0.0000 0.0000 38.1224 0.0000 0.0000
# 5 0.0000 0.0000 0.0000 0.0000 34.1103 0.0000
# 6 0.0000 0.0000 0.0000 0.0000 0.0000 16.2269
#
#
#
# Elastic Compliance Matrix: (Units=1/GPa)
#
#
# Indices 1 2 3 4 5 6 
#
# 1 0.013006 -0.004413 -0.002307 0.000000 0.000000 0.000000
# 2 -0.004413 0.010060 -0.001410 0.000000 0.000000 0.000000
# 3 -0.002307 -0.001410 0.007051 0.000000 0.000000 0.000000
# 4 0.000000 0.000000 0.000000 0.026231 0.000000 0.000000
# 5 0.000000 0.000000 0.000000 0.000000 0.029317 0.000000
# 6 0.000000 0.000000 0.000000 0.000000 0.000000 0.061626
#
#
# Mechanical properties :
#
#
# Convention : Reuss Voigt Hill
#
# Bulk Modulus (GPa) = 72.15890 74.05219 73.10554
# Shear Modulus (GPa) = 29.73159 34.85938 32.29549
#
# Velocity S-wave (km/s) = 3.67134 3.97535 3.82637
# Velocity P-wave (km/s) = 7.11933 7.39207 7.25698
#
# Compressibility (1/GPa) = 0.01385830
#
# Stress axis : x y z
#
# Youngs Moduli (GPa) = 76.88520 99.39984 141.81656
#
# Poissons Ratio (x) = 0.43864 0.32719
# Poissons Ratio (y) = 0.33929 0.19994
# Poissons Ratio (z) = 0.17738 0.14014
#
# Static dielectric constant tensor:
#      x y z
#    x 4.167450 0.000000 0.000000 
#    y 0.000000 4.249660 0.000000 
#    z 0.000000 0.000000 4.007830 
# 
# 
# High freq. dielectric constant tensor:
#      x y z
#    x 1.874160 0.000000 0.000000 
#    y 0.000000 1.885930 0.000000 
#    z 0.000000 0.000000 1.874620 
# 
# From -- ./inp_files/6567.got.cif
#   From: 2010.03.12/outbox.cif.g09.slc.cpg/sg20_4_cif.got.tgz:6567.got - 2010.04.14 01:38:04.
