data_PCOD8160812
_publ_section_title
;
Structure prediction by ZEFSAII (Michael W. Deem and Ramdas Pophale) SiO2 
 PCOD8160812
Probable space group: C 2 2 2
;
_chemical_formula_sum "Si O2"
_cell_formula_units_Z 64
_cell_length_a 31.332311
_cell_length_b 8.580657
_cell_length_c 12.400092
_cell_angle_alpha 90.000000
_cell_angle_beta 90.000000
_cell_angle_gamma 90.000000
_cell_volume 3333.787224
_symmetry_space_group_name_H-M "C 2 2 2"
_symmetry_group_IT_number 21
_symmetry_cell_setting 'orthorhombic'
loop_
_space_group_symop_operation_xyz
x,y,z
-x,-y,z
x,-y,-z
-x,y,-z
1/2+x,1/2+y,z
1/2-x,1/2-y,z
1/2+x,1/2-y,-z
1/2-x,1/2+y,-z
loop_
_atom_site_type_symbol
_atom_site_label
_atom_site_fract_x
_atom_site_fract_y
_atom_site_fract_z
Si Si1 0.088297 0.329305 0.196130
Si Si2 0.412431 0.816998 0.230855
Si Si3 0.000678 0.314277 0.878222
Si Si4 0.860767 0.333107 0.018565
Si Si5 0.332671 0.651658 0.714671
Si Si6 0.287878 0.638490 0.930888
Si Si7 0.204129 0.318259 0.475009
Si Si8 0.367797 0.619321 0.412496
O O1 0.087077 0.497783 0.255822
O O2 0.040584 0.257820 0.190882
O O3 0.101625 0.337487 0.070402
O O4 0.120158 0.219490 0.261899
O O5 0.457980 0.756385 0.187291
O O6 0.401094 0.713253 0.336450
O O7 0.378026 0.794585 0.136692
O O8 0.000000 0.500000 0.886303
O O9 0.000000 0.244363 0.000000
O O10 0.825095 0.205455 0.004717
O O11 0.837959 0.500000 0.000000
O O12 0.308599 0.591904 0.819082
O O13 0.304234 0.780615 0.651521
O O14 0.336164 0.491445 0.651984
O O15 0.250000 0.750000 0.901796
O O16 0.267744 0.500000 0.000000
O O17 0.204544 0.500000 0.500000
O O18 0.250000 0.250000 0.511718
O O19 0.163439 0.245347 0.534949
O O20 0.390535 0.500000 0.500000
#
# Coordination Sequence:
#
# PCOD8160812 Si02
#       8
#     8   8   8   8   8   8   8   8
#     4   9  17  30  53  85 112 145 182 228 280 341
#     4  10  17  31  55  80 113 148 185 229 285 335
#     4   9  15  27  52  87 118 146 185 237 281 338
#     4   9  17  30  50  76 107 140 177 219 273 331
#     4  10  21  38  57  77 111 147 185 232 288 336
#     4  11  22  35  50  72 106 146 184 219 264 331
#     4  11  22  40  64  88 109 135 184 246 294 338
#     4  10  22  38  56  81 109 148 191 237 288 337
#
# _framework density 19.197385000000001
#
# number of rings (size 3 to 8) (size 9 to 14) (size 15 to 20)
#    0.000    2.125    1.250    3.375    0.000    0.000 
#    0.000    6.875    0.000    6.000    0.000   11.375 
#    0.000    0.000    0.000    0.000    0.000    0.000 
#
# Total GULP energy -396515.583356 kJ/mol
# GULP energy per Si atom -12391.111980 kJ/mol
# Density = 1.915369 g / cm^3
# Si number density = 19.197385 Si / 1000 Ang^3
#
#
#
# Elastic Constant Matrix: (Units=GPa)
#
#
# Indices 1 2 3 4 5 6 
#
# 1 77.1578 20.1294 39.7904 0.0000 0.0000 0.0000
# 2 20.1294 79.5790 35.8149 0.0000 0.0000 0.0000
# 3 39.7904 35.8149 91.2226 0.0000 0.0000 0.0000
# 4 0.0000 0.0000 0.0000 26.3659 0.0000 0.0000
# 5 0.0000 0.0000 0.0000 0.0000 45.7422 0.0000
# 6 0.0000 0.0000 0.0000 0.0000 0.0000 65.9403
#
#
#
# Elastic Compliance Matrix: (Units=1/GPa)
#
#
# Indices 1 2 3 4 5 6 
#
# 1 0.016809 -0.001156 -0.006878 0.000000 0.000000 0.000000
# 2 -0.001156 0.015343 -0.005519 0.000000 0.000000 0.000000
# 3 -0.006878 -0.005519 0.016129 0.000000 0.000000 0.000000
# 4 0.000000 0.000000 0.000000 0.037928 0.000000 0.000000
# 5 0.000000 0.000000 0.000000 0.000000 0.021862 0.000000
# 6 0.000000 0.000000 0.000000 0.000000 0.000000 0.015165
#
#
# Mechanical properties :
#
#
# Convention : Reuss Voigt Hill
#
# Bulk Modulus (GPa) = 47.22835 48.82543 48.02689
# Shear Modulus (GPa) = 31.76606 37.75799 34.76202
#
# Velocity S-wave (km/s) = 4.07222 4.43971 4.25993
# Velocity P-wave (km/s) = 6.83853 7.19513 7.01910
#
# Compressibility (1/GPa) = 0.02117372
#
# Stress axis : x y z
#
# Youngs Moduli (GPa) = 59.49161 65.17800 61.99935
#
# Poissons Ratio (x) = 0.07537 0.42643
# Poissons Ratio (y) = 0.06879 0.34219
# Poissons Ratio (z) = 0.40918 0.35973
#
# Static dielectric constant tensor:
#      x y z
#    x 3.532890 0.000000 0.000000 
#    y 0.000000 3.401560 0.000000 
#    z 0.000000 0.000000 3.482790 
# 
# 
# High freq. dielectric constant tensor:
#      x y z
#    x 1.745450 0.000000 0.000000 
#    y 0.000000 1.735760 0.000000 
#    z 0.000000 0.000000 1.739880 
# 
# From -- ./inp_files/28080.got.cif
#   From: 2010.03.12/outbox.cif.g09.slc.cpg/sg21_15_cif.got.tgz:28080.got - 2010.04.14 01:59:26.
