data_PCOD8160227
_publ_section_title
;
Structure prediction by ZEFSAII (Michael W. Deem and Ramdas Pophale) SiO2 
 PCOD8160227
Probable space group: C 2 2 21
;
_chemical_formula_sum "Si O2"
_cell_formula_units_Z 24
_cell_length_a 7.129424
_cell_length_b 11.177563
_cell_length_c 13.598317
_cell_angle_alpha 90.000000
_cell_angle_beta 90.000000
_cell_angle_gamma 90.000000
_cell_volume 1083.644251
_symmetry_space_group_name_H-M "C 2 2 21"
_symmetry_group_IT_number 20
_symmetry_cell_setting 'orthorhombic'
loop_
_space_group_symop_operation_xyz
x,y,z
-x,-y,1/2+z
x,-y,-z
-x,y,1/2-z
1/2+x,1/2+y,z
1/2-x,1/2-y,1/2+z
1/2+x,1/2-y,-z
1/2-x,1/2+y,1/2-z
loop_
_atom_site_type_symbol
_atom_site_label
_atom_site_fract_x
_atom_site_fract_y
_atom_site_fract_z
Si Si1 0.133221 0.822916 0.159328
Si Si2 0.003317 0.000000 0.000000
Si Si3 0.500000 0.893619 0.250000
Si Si4 0.354076 0.933587 0.592100
O O1 0.350301 0.811020 0.192922
O O2 0.060238 0.696224 0.116247
O O3 0.000000 0.859549 0.250000
O O4 0.129895 0.920987 0.072625
O O5 0.866637 0.915655 0.934094
O O6 0.627587 0.978654 0.183515
O O7 0.458005 0.000000 0.500000
#
# Coordination Sequence:
#
# PCOD8160227 Si02
#       4
#     8   4   4   8
#     4  12  25  48  73 102 148 187 234 298 350 421
#     4  10  26  44  68 108 142 186 238 290 356 414
#     4  12  26  44  74 104 138 190 240 286 358 426
#     4  10  25  46  68 109 138 182 241 283 361 415
#
# _framework density 22.147489
#
# number of rings (size 3 to 8) (size 9 to 14) (size 15 to 20)
#    1.000    0.000    5.000    0.000    7.000    2.667 
#    0.000    0.000    0.000    0.000    0.000    0.000 
#    0.000    0.000    0.000    0.000    0.000    0.000 
#
# Total GULP energy -148717.845899 kJ/mol
# GULP energy per Si atom -12393.153825 kJ/mol
# Density = 2.209708 g / cm^3
# Si number density = 22.147489 Si / 1000 Ang^3
#
#
#
# Elastic Constant Matrix: (Units=GPa)
#
#
# Indices 1 2 3 4 5 6 
#
# 1 95.4925 10.5500 39.6078 0.0000 0.0000 0.0000
# 2 10.5500 112.1876 61.5604 0.0000 0.0000 0.0000
# 3 39.6078 61.5604 129.0685 0.0000 0.0000 0.0000
# 4 0.0000 0.0000 0.0000 45.2152 0.0000 0.0000
# 5 0.0000 0.0000 0.0000 0.0000 39.7001 0.0000
# 6 0.0000 0.0000 0.0000 0.0000 0.0000 4.6560
#
#
#
# Elastic Compliance Matrix: (Units=1/GPa)
#
#
# Indices 1 2 3 4 5 6 
#
# 1 0.012122 0.001221 -0.004302 0.000000 0.000000 0.000000
# 2 0.001221 0.012196 -0.006192 0.000000 0.000000 0.000000
# 3 -0.004302 -0.006192 0.012021 0.000000 0.000000 0.000000
# 4 0.000000 0.000000 0.000000 0.022116 0.000000 0.000000
# 5 0.000000 0.000000 0.000000 0.000000 0.025189 0.000000
# 6 0.000000 0.000000 0.000000 0.000000 0.000000 0.214776
#
#
# Mechanical properties :
#
#
# Convention : Reuss Voigt Hill
#
# Bulk Modulus (GPa) = 56.20179 62.24278 59.22228
# Shear Modulus (GPa) = 15.48479 32.91629 24.20054
#
# Velocity S-wave (km/s) = 2.64704 3.85935 3.30919
# Velocity P-wave (km/s) = 5.89692 6.92995 6.43420
#
# Compressibility (1/GPa) = 0.01779303
#
# Stress axis : x y z
#
# Youngs Moduli (GPa) = 82.49781 81.99084 83.18592
#
# Poissons Ratio (x) = -0.10009 0.35787
# Poissons Ratio (y) = -0.10071 0.51507
# Poissons Ratio (z) = 0.35491 0.50767
#
# Static dielectric constant tensor:
#      x y z
#    x 3.621420 0.000000 0.000000 
#    y 0.000000 3.642880 0.000000 
#    z 0.000000 0.000000 4.369800 
# 
# 
# High freq. dielectric constant tensor:
#      x y z
#    x 1.855400 0.000000 0.000000 
#    y 0.000000 1.856400 0.000000 
#    z 0.000000 0.000000 1.887310 
# 
# From -- ./inp_files/12317.got.cif
#   From: 2010.03.12/outbox.cif.g09.slc.cpg/sg20_7_cif.got.tgz:12317.got - 2010.04.14 01:38:04.
