data_PCOD8160289
_publ_section_title
;
Structure prediction by ZEFSAII (Michael W. Deem and Ramdas Pophale) SiO2 
 PCOD8160289
Probable space group: C 2 2 21
;
_chemical_formula_sum "Si O2"
_cell_formula_units_Z 48
_cell_length_a 20.434766
_cell_length_b 9.170340
_cell_length_c 12.892814
_cell_angle_alpha 90.000000
_cell_angle_beta 90.000000
_cell_angle_gamma 90.000000
_cell_volume 2416.032790
_symmetry_space_group_name_H-M "C 2 2 21"
_symmetry_group_IT_number 20
_symmetry_cell_setting 'orthorhombic'
loop_
_space_group_symop_operation_xyz
x,y,z
-x,-y,1/2+z
x,-y,-z
-x,y,1/2-z
1/2+x,1/2+y,z
1/2-x,1/2-y,1/2+z
1/2+x,1/2-y,-z
1/2-x,1/2+y,1/2-z
loop_
_atom_site_type_symbol
_atom_site_label
_atom_site_fract_x
_atom_site_fract_y
_atom_site_fract_z
Si Si1 0.423643 0.823856 0.743837
Si Si2 0.256418 0.718986 0.094439
Si Si3 0.795305 0.179423 0.315670
Si Si4 0.334635 0.857707 0.930744
Si Si5 0.136126 0.921444 0.103248
Si Si6 0.156407 0.526031 0.891003
O O1 0.500000 0.850486 0.750000
O O2 0.395322 0.801781 0.860301
O O3 0.411082 0.689806 0.664424
O O4 0.390018 0.971543 0.701266
O O5 0.288619 0.755829 0.204684
O O6 0.201507 0.839016 0.065227
O O7 0.225485 0.559291 0.103913
O O8 0.313636 0.727204 0.008521
O O9 0.726039 0.113896 0.353547
O O10 0.825093 0.304747 0.388623
O O11 0.846271 0.046100 0.313224
O O12 0.352080 0.000000 0.000000
O O13 0.105256 0.000000 0.000000
O O14 0.118558 0.500000 0.000000
#
# Coordination Sequence:
#
# PCOD8160289 Si02
#       6
#     8   8   8   8   8   8
#     4  11  27  46  61  85 132 187 227 259 319 401
#     4  11  20  32  57  97 131 156 200 264 340 395
#     4  12  19  34  61 102 130 152 205 275 350 380
#     4  12  21  38  66  96 131 167 214 272 335 397
#     4  11  20  39  65  90 125 166 210 270 336 392
#     4  11  21  34  61  95 125 160 208 269 332 394
#
# _framework density 19.867280000000001
#
# number of rings (size 3 to 8) (size 9 to 14) (size 15 to 20)
#    0.000    0.667    8.333    3.000    0.000    0.667 
#    0.000    2.500    0.000    0.000    0.000    0.000 
#    0.000    0.000    0.000    0.000    0.000    0.000 
#
# Total GULP energy -297512.569254 kJ/mol
# GULP energy per Si atom -12396.357052 kJ/mol
# Density = 1.982206 g / cm^3
# Si number density = 19.867280 Si / 1000 Ang^3
#
#
#
# Elastic Constant Matrix: (Units=GPa)
#
#
# Indices 1 2 3 4 5 6 
#
# 1 98.1505 33.1624 45.3343 0.0000 0.0000 0.0000
# 2 33.1624 93.8167 16.1254 0.0000 0.0000 0.0000
# 3 45.3343 16.1254 124.3913 0.0000 0.0000 0.0000
# 4 0.0000 0.0000 0.0000 41.5390 0.0000 0.0000
# 5 0.0000 0.0000 0.0000 0.0000 22.2981 0.0000
# 6 0.0000 0.0000 0.0000 0.0000 0.0000 12.2297
#
#
#
# Elastic Compliance Matrix: (Units=1/GPa)
#
#
# Indices 1 2 3 4 5 6 
#
# 1 0.013603 -0.004047 -0.004433 0.000000 0.000000 0.000000
# 2 -0.004047 0.012106 -0.000095 0.000000 0.000000 0.000000
# 3 -0.004433 -0.000095 0.009667 0.000000 0.000000 0.000000
# 4 0.000000 0.000000 0.000000 0.024074 0.000000 0.000000
# 5 0.000000 0.000000 0.000000 0.000000 0.044847 0.000000
# 6 0.000000 0.000000 0.000000 0.000000 0.000000 0.081768
#
#
# Mechanical properties :
#
#
# Convention : Reuss Voigt Hill
#
# Bulk Modulus (GPa) = 54.86186 56.17806 55.51996
# Shear Modulus (GPa) = 23.89039 29.99577 26.94308
#
# Velocity S-wave (km/s) = 3.47147 3.88984 3.68659
# Velocity P-wave (km/s) = 6.61379 6.96509 6.79171
#
# Compressibility (1/GPa) = 0.01822760
#
# Stress axis : x y z
#
# Youngs Moduli (GPa) = 73.51187 82.60570 103.44410
#
# Poissons Ratio (x) = 0.33426 0.45858
# Poissons Ratio (y) = 0.29747 0.00978
# Poissons Ratio (z) = 0.32589 0.00781
#
# Static dielectric constant tensor:
#      x y z
#    x 3.088680 0.000000 0.000000 
#    y 0.000000 3.598270 0.000000 
#    z 0.000000 0.000000 4.039950 
# 
# 
# High freq. dielectric constant tensor:
#      x y z
#    x 1.705330 0.000000 0.000000 
#    y 0.000000 1.780430 0.000000 
#    z 0.000000 0.000000 1.803300 
# 
# From -- ./inp_files/21294.got.cif
#   From: 2010.03.12/outbox.cif.g09.slc.cpg/sg20_11_cif.got.tgz:21294.got - 2010.04.14 01:38:04.
