data_PCOD8160244
_publ_section_title
;
Structure prediction by ZEFSAII (Michael W. Deem and Ramdas Pophale) SiO2 
 PCOD8160244
Probable space group: C 2 2 21
;
_chemical_formula_sum "Si O2"
_cell_formula_units_Z 24
_cell_length_a 7.257352
_cell_length_b 7.352960
_cell_length_c 20.200375
_cell_angle_alpha 90.000000
_cell_angle_beta 90.000000
_cell_angle_gamma 90.000000
_cell_volume 1077.952994
_symmetry_space_group_name_H-M "C 2 2 21"
_symmetry_group_IT_number 20
_symmetry_cell_setting 'orthorhombic'
loop_
_space_group_symop_operation_xyz
x,y,z
-x,-y,1/2+z
x,-y,-z
-x,y,1/2-z
1/2+x,1/2+y,z
1/2-x,1/2-y,1/2+z
1/2+x,1/2-y,-z
1/2-x,1/2+y,1/2-z
loop_
_atom_site_type_symbol
_atom_site_label
_atom_site_fract_x
_atom_site_fract_y
_atom_site_fract_z
Si Si1 0.155339 0.000000 0.500000
Si Si2 0.000000 0.033321 0.750000
Si Si3 0.363138 0.813593 0.195739
Si Si4 0.007523 0.636591 0.553369
O O1 0.028044 0.845884 0.531748
O O2 0.288857 0.909850 0.443849
O O3 0.849684 0.158167 0.714321
O O4 0.902714 0.903605 0.805039
O O5 0.500000 0.906610 0.250000
O O6 0.400453 0.900259 0.124229
O O7 0.103377 0.500000 0.500000
#
# Coordination Sequence:
#
# PCOD8160244 Si02
#       4
#     4   4   8   8
#     4  10  26  40  70  96 134 174 224 280 336 410
#     4  10  26  38  72  90 140 170 232 272 344 402
#     4  10  26  44  67 102 134 184 222 287 335 410
#     4  10  26  43  70  99 137 178 230 279 343 402
#
# _framework density 22.264420999999999
#
# number of rings (size 3 to 8) (size 9 to 14) (size 15 to 20)
#    2.000    0.000    0.000    0.000   14.000    0.000 
#    0.000    0.000    0.000    0.000    0.000    0.000 
#    0.000    0.000    0.000    0.000    0.000    0.000 
#
# Total GULP energy -148679.135140 kJ/mol
# GULP energy per Si atom -12389.927928 kJ/mol
# Density = 2.221375 g / cm^3
# Si number density = 22.264421 Si / 1000 Ang^3
#
#
#
# Elastic Constant Matrix: (Units=GPa)
#
#
# Indices 1 2 3 4 5 6 
#
# 1 94.3071 57.9109 23.5323 0.0000 0.0000 0.0000
# 2 57.9109 118.1532 42.6054 0.0000 0.0000 0.0000
# 3 23.5323 42.6054 142.5222 0.0000 0.0000 0.0000
# 4 0.0000 0.0000 0.0000 16.9172 0.0000 0.0000
# 5 0.0000 0.0000 0.0000 0.0000 18.6098 0.0000
# 6 0.0000 0.0000 0.0000 0.0000 0.0000 46.3113
#
#
#
# Elastic Compliance Matrix: (Units=1/GPa)
#
#
# Indices 1 2 3 4 5 6 
#
# 1 0.015182 -0.007327 -0.000316 0.000000 0.000000 0.000000
# 2 -0.007327 0.013022 -0.002683 0.000000 0.000000 0.000000
# 3 -0.000316 -0.002683 0.007871 0.000000 0.000000 0.000000
# 4 0.000000 0.000000 0.000000 0.059111 0.000000 0.000000
# 5 0.000000 0.000000 0.000000 0.000000 0.053735 0.000000
# 6 0.000000 0.000000 0.000000 0.000000 0.000000 0.021593
#
#
# Mechanical properties :
#
#
# Convention : Reuss Voigt Hill
#
# Bulk Modulus (GPa) = 64.84277 67.00887 65.92582
# Shear Modulus (GPa) = 25.47014 31.76325 28.61669
#
# Velocity S-wave (km/s) = 3.38595 3.78118 3.58901
# Velocity P-wave (km/s) = 6.66884 7.01607 6.84466
#
# Compressibility (1/GPa) = 0.01542192
#
# Stress axis : x y z
#
# Youngs Moduli (GPa) = 65.86776 76.79106 127.05239
#
# Poissons Ratio (x) = 0.56266 0.04020
# Poissons Ratio (y) = 0.48262 0.34089
# Poissons Ratio (z) = 0.02084 0.20604
#
# Static dielectric constant tensor:
#      x y z
#    x 3.748760 0.000000 0.000000 
#    y 0.000000 3.749710 0.000000 
#    z 0.000000 0.000000 3.773990 
# 
# 
# High freq. dielectric constant tensor:
#      x y z
#    x 1.871460 0.000000 0.000000 
#    y 0.000000 1.869680 0.000000 
#    z 0.000000 0.000000 1.857820 
# 
# From -- ./inp_files/23035.got.cif
#   From: 2010.03.12/outbox.cif.g09.slc.cpg/sg20_12_cif.got.tgz:23035.got - 2010.04.14 01:38:04.
