data_PCOD8160045
_publ_section_title
;
Structure prediction by ZEFSAII (Michael W. Deem and Ramdas Pophale) SiO2 
 PCOD8160045
Probable space group: C 2 2 21
;
_chemical_formula_sum "Si O2"
_cell_formula_units_Z 32
_cell_length_a 12.751917
_cell_length_b 11.849007
_cell_length_c 9.360270
_cell_angle_alpha 90.000000
_cell_angle_beta 90.000000
_cell_angle_gamma 90.000000
_cell_volume 1414.313900
_symmetry_space_group_name_H-M "C 2 2 21"
_symmetry_group_IT_number 20
_symmetry_cell_setting 'orthorhombic'
loop_
_space_group_symop_operation_xyz
x,y,z
-x,-y,1/2+z
x,-y,-z
-x,y,1/2-z
1/2+x,1/2+y,z
1/2-x,1/2-y,1/2+z
1/2+x,1/2-y,-z
1/2-x,1/2+y,1/2-z
loop_
_atom_site_type_symbol
_atom_site_label
_atom_site_fract_x
_atom_site_fract_y
_atom_site_fract_z
Si Si1 0.617752 0.548752 0.717149
Si Si2 0.588671 0.052448 0.146217
Si Si3 0.195708 0.841947 0.568562
Si Si4 0.191195 0.413904 0.379484
O O1 0.500000 0.585310 0.750000
O O2 0.624728 0.416279 0.676091
O O3 0.671127 0.621771 0.592206
O O4 0.683326 0.573767 0.860289
O O5 0.500000 0.109285 0.250000
O O6 0.635363 0.945649 0.231311
O O7 0.681139 0.141061 0.108668
O O8 0.540372 0.000000 0.000000
O O9 0.161178 0.712981 0.580396
O O10 0.152399 0.500000 0.500000
#
# Coordination Sequence:
#
# PCOD8160045 Si02
#       4
#     8   8   8   8
#     4  10  23  45  70 101 137 190 240 291 358 424
#     4  11  23  46  68  99 140 183 237 290 356 423
#     4  10  23  47  68  99 149 178 232 304 341 431
#     4  11  25  43  70 106 141 186 235 296 362 427
#
# _framework density 22.625810999999999
#
# number of rings (size 3 to 8) (size 9 to 14) (size 15 to 20)
#    0.000    1.500    5.000    0.750   10.500    2.000 
#    4.500    0.000    0.000    0.000    0.000    0.000 
#    0.000    0.000    0.000    0.000    0.000    0.000 
#
# Total GULP energy -198344.345302 kJ/mol
# GULP energy per Si atom -12396.521581 kJ/mol
# Density = 2.257431 g / cm^3
# Si number density = 22.625811 Si / 1000 Ang^3
#
#
#
# Elastic Constant Matrix: (Units=GPa)
#
#
# Indices 1 2 3 4 5 6 
#
# 1 129.1098 12.2643 42.8288 0.0000 0.0000 0.0000
# 2 12.2643 170.9715 46.6773 0.0000 0.0000 0.0000
# 3 42.8288 46.6773 121.8478 0.0000 0.0000 0.0000
# 4 0.0000 0.0000 0.0000 16.8360 0.0000 0.0000
# 5 0.0000 0.0000 0.0000 0.0000 43.5720 0.0000
# 6 0.0000 0.0000 0.0000 0.0000 0.0000 5.7175
#
#
#
# Elastic Compliance Matrix: (Units=1/GPa)
#
#
# Indices 1 2 3 4 5 6 
#
# 1 0.008776 0.000237 -0.003176 0.000000 0.000000 0.000000
# 2 0.000237 0.006539 -0.002588 0.000000 0.000000 0.000000
# 3 -0.003176 -0.002588 0.010315 0.000000 0.000000 0.000000
# 4 0.000000 0.000000 0.000000 0.059397 0.000000 0.000000
# 5 0.000000 0.000000 0.000000 0.000000 0.022951 0.000000
# 6 0.000000 0.000000 0.000000 0.000000 0.000000 0.174900
#
#
# Mechanical properties :
#
#
# Convention : Reuss Voigt Hill
#
# Bulk Modulus (GPa) = 68.60391 69.49666 69.05028
# Shear Modulus (GPa) = 16.73423 34.56902 25.65162
#
# Velocity S-wave (km/s) = 2.72252 3.91302 3.37075
# Velocity P-wave (km/s) = 6.34585 7.15528 6.76268
#
# Compressibility (1/GPa) = 0.01457643
#
# Stress axis : x y z
#
# Youngs Moduli (GPa) = 113.94362 152.93995 96.94870
#
# Poissons Ratio (x) = -0.03632 0.30789
# Poissons Ratio (y) = -0.02706 0.25093
# Poissons Ratio (z) = 0.36186 0.39585
#
# Static dielectric constant tensor:
#      x y z
#    x 4.219150 0.000000 0.000000 
#    y 0.000000 3.736650 0.000000 
#    z 0.000000 0.000000 4.268640 
# 
# 
# High freq. dielectric constant tensor:
#      x y z
#    x 1.896710 0.000000 0.000000 
#    y 0.000000 1.867730 0.000000 
#    z 0.000000 0.000000 1.901600 
# 
# From -- ./inp_files/6896.got.cif
#   From: 2010.03.12/outbox.cif.g09.slc.cpg/sg20_4_cif.got.tgz:6896.got - 2010.04.14 01:38:04.
