data_PCOD8160708
_publ_section_title
;
Structure prediction by ZEFSAII (Michael W. Deem and Ramdas Pophale) SiO2 
 PCOD8160708
Probable space group: C 2 2 21
;
_chemical_formula_sum "Si O2"
_cell_formula_units_Z 64
_cell_length_a 8.600131
_cell_length_b 11.312777
_cell_length_c 29.738888
_cell_angle_alpha 90.000000
_cell_angle_beta 90.000000
_cell_angle_gamma 90.000000
_cell_volume 2893.336983
_symmetry_space_group_name_H-M "C 2 2 21"
_symmetry_group_IT_number 20
_symmetry_cell_setting 'orthorhombic'
loop_
_space_group_symop_operation_xyz
x,y,z
-x,-y,1/2+z
x,-y,-z
-x,y,1/2-z
1/2+x,1/2+y,z
1/2-x,1/2-y,1/2+z
1/2+x,1/2-y,-z
1/2-x,1/2+y,1/2-z
loop_
_atom_site_type_symbol
_atom_site_label
_atom_site_fract_x
_atom_site_fract_y
_atom_site_fract_z
Si Si1 0.579549 0.674874 0.702229
Si Si2 0.676508 0.486872 0.916021
Si Si3 0.073271 0.933647 0.657630
Si Si4 0.115394 0.320368 0.869902
Si Si5 0.813560 0.270250 0.450731
Si Si6 0.034051 0.813075 0.039366
Si Si7 0.010988 0.579810 0.620024
Si Si8 0.075796 0.267677 0.204373
O O1 0.500000 0.654023 0.750000
O O2 0.638146 0.551560 0.680706
O O3 0.462710 0.745772 0.670102
O O4 0.739037 0.744963 0.708411
O O5 0.531455 0.475137 0.883331
O O6 0.733240 0.356471 0.929441
O O7 0.613570 0.557390 0.959742
O O8 0.808761 0.569580 0.893816
O O9 0.203045 0.841324 0.640354
O O10 0.972366 0.866672 0.694817
O O11 0.092794 0.255393 0.916805
O O12 0.041691 0.447609 0.873443
O O13 0.915950 0.258199 0.495318
O O14 0.651065 0.332554 0.461721
O O15 0.910574 0.352069 0.417303
O O16 0.990462 0.646815 0.666396
O O17 0.000000 0.315334 0.250000
#
# Coordination Sequence:
#
# PCOD8160708 Si02
#       8
#     8   8   8   8   8   8   8   8
#     4  12  27  48  72 105 145 186 237 298 358 425
#     4  12  25  46  76 101 142 187 239 292 360 423
#     4  12  25  46  76 102 139 187 240 289 359 426
#     4  12  25  48  74 103 143 191 233 295 359 425
#     4  12  27  48  70 107 144 186 241 298 354 435
#     4  12  26  47  73 105 146 186 239 295 361 423
#     4  12  25  48  76 100 145 193 232 295 364 420
#     4  12  26  47  71 106 143 183 242 293 355 430
#
# _framework density 22.119788
#
# number of rings (size 3 to 8) (size 9 to 14) (size 15 to 20)
#    0.000    0.000    5.000    5.250    3.500    1.000 
#    4.500    0.000    0.000    0.000    0.000    0.000 
#    0.000    0.000    0.000    0.000    0.000    0.000 
#
# Total GULP energy -396895.866260 kJ/mol
# GULP energy per Si atom -12402.995821 kJ/mol
# Density = 2.206944 g / cm^3
# Si number density = 22.119788 Si / 1000 Ang^3
#
#
#
# Elastic Constant Matrix: (Units=GPa)
#
#
# Indices 1 2 3 4 5 6 
#
# 1 141.8886 20.6828 37.5345 0.0000 0.0000 0.0000
# 2 20.6828 79.9134 19.7026 0.0000 0.0000 0.0000
# 3 37.5345 19.7026 131.0543 0.0000 0.0000 0.0000
# 4 0.0000 0.0000 0.0000 6.6742 0.0000 0.0000
# 5 0.0000 0.0000 0.0000 0.0000 34.3556 0.0000
# 6 0.0000 0.0000 0.0000 0.0000 0.0000 37.5585
#
#
#
# Elastic Compliance Matrix: (Units=1/GPa)
#
#
# Indices 1 2 3 4 5 6 
#
# 1 0.007800 -0.001525 -0.002005 0.000000 0.000000 0.000000
# 2 -0.001525 0.013293 -0.001562 0.000000 0.000000 0.000000
# 3 -0.002005 -0.001562 0.008439 0.000000 0.000000 0.000000
# 4 0.000000 0.000000 0.000000 0.149831 0.000000 0.000000
# 5 0.000000 0.000000 0.000000 0.000000 0.029107 0.000000
# 6 0.000000 0.000000 0.000000 0.000000 0.000000 0.026625
#
#
# Mechanical properties :
#
#
# Convention : Reuss Voigt Hill
#
# Bulk Modulus (GPa) = 51.67833 56.52178 54.10006
# Shear Modulus (GPa) = 19.86259 34.04676 26.95467
#
# Velocity S-wave (km/s) = 2.99984 3.92752 3.49460
# Velocity P-wave (km/s) = 5.95083 6.79524 6.38700
#
# Compressibility (1/GPa) = 0.01935047
#
# Stress axis : x y z
#
# Youngs Moduli (GPa) = 128.19909 75.22648 118.49138
#
# Poissons Ratio (x) = 0.11469 0.23756
# Poissons Ratio (y) = 0.19545 0.18507
# Poissons Ratio (z) = 0.25702 0.11749
#
# Static dielectric constant tensor:
#      x y z
#    x 4.399970 0.000000 0.000000 
#    y 0.000000 4.618860 0.000000 
#    z 0.000000 0.000000 4.020190 
# 
# 
# High freq. dielectric constant tensor:
#      x y z
#    x 1.888120 0.000000 0.000000 
#    y 0.000000 1.887300 0.000000 
#    z 0.000000 0.000000 1.877000 
# 
# From -- ./inp_files/31075.got.cif
#   From: 2010.03.12/outbox.cif.g09.slc.cpg/sg20_16_cif.got.tgz:31075.got - 2010.04.14 01:38:04.
