data_PCOD8160143
_publ_section_title
;
Structure prediction by ZEFSAII (Michael W. Deem and Ramdas Pophale) SiO2 
 PCOD8160143
Probable space group: C 2 2 21
;
_chemical_formula_sum "Si O2"
_cell_formula_units_Z 32
_cell_length_a 12.476216
_cell_length_b 14.453489
_cell_length_c 7.284854
_cell_angle_alpha 90.000000
_cell_angle_beta 90.000000
_cell_angle_gamma 90.000000
_cell_volume 1313.640210
_symmetry_space_group_name_H-M "C 2 2 21"
_symmetry_group_IT_number 20
_symmetry_cell_setting 'orthorhombic'
loop_
_space_group_symop_operation_xyz
x,y,z
-x,-y,1/2+z
x,-y,-z
-x,y,1/2-z
1/2+x,1/2+y,z
1/2-x,1/2-y,1/2+z
1/2+x,1/2-y,-z
1/2-x,1/2+y,1/2-z
loop_
_atom_site_type_symbol
_atom_site_label
_atom_site_fract_x
_atom_site_fract_y
_atom_site_fract_z
Si Si1 0.663253 0.000000 0.500000
Si Si2 0.500000 0.907920 0.250000
Si Si3 0.252790 0.339069 0.723646
Si Si4 0.057520 0.104418 0.439837
Si Si5 0.413980 0.237147 0.478741
O O1 0.596712 0.972490 0.318053
O O2 0.739262 0.917869 0.569698
O O3 0.523865 0.848093 0.069400
O O4 0.316324 0.375888 0.905752
O O5 0.320768 0.260523 0.623584
O O6 0.139161 0.296391 0.787570
O O7 0.000000 0.122909 0.250000
O O8 0.996896 0.178948 0.570553
O O9 0.037670 0.000000 0.500000
#
# Coordination Sequence:
#
# PCOD8160143 Si02
#       5
#     4   4   8   8   8
#     4  12  28  44  74 102 140 190 240 302 356 434
#     4  12  24  50  64 104 140 184 246 290 370 416
#     4  11  25  45  72 105 141 191 238 294 359 435
#     4  10  24  44  67 106 140 180 234 293 358 421
#     4  11  24  47  69 103 145 187 240 297 357 433
#
# _framework density 24.359791000000001
#
# number of rings (size 3 to 8) (size 9 to 14) (size 15 to 20)
#    0.000    1.000    3.750    3.000   10.500    2.000 
#    0.000    0.000    0.000    0.000    0.000    0.000 
#    0.000    0.000    0.000    0.000    0.000    0.000 
#
# Total GULP energy -198407.336526 kJ/mol
# GULP energy per Si atom -12400.458533 kJ/mol
# Density = 2.430435 g / cm^3
# Si number density = 24.359791 Si / 1000 Ang^3
#
#
#
# Elastic Constant Matrix: (Units=GPa)
#
#
# Indices 1 2 3 4 5 6 
#
# 1 80.7441 27.5083 23.2089 0.0000 0.0000 0.0000
# 2 27.5083 96.4275 21.5875 0.0000 0.0000 0.0000
# 3 23.2089 21.5875 62.2935 0.0000 0.0000 0.0000
# 4 0.0000 0.0000 0.0000 51.3940 0.0000 0.0000
# 5 0.0000 0.0000 0.0000 0.0000 38.8399 0.0000
# 6 0.0000 0.0000 0.0000 0.0000 0.0000 24.8308
#
#
#
# Elastic Compliance Matrix: (Units=1/GPa)
#
#
# Indices 1 2 3 4 5 6 
#
# 1 0.014741 -0.003226 -0.004374 0.000000 0.000000 0.000000
# 2 -0.003226 0.011949 -0.002939 0.000000 0.000000 0.000000
# 3 -0.004374 -0.002939 0.018701 0.000000 0.000000 0.000000
# 4 0.000000 0.000000 0.000000 0.019458 0.000000 0.000000
# 5 0.000000 0.000000 0.000000 0.000000 0.025747 0.000000
# 6 0.000000 0.000000 0.000000 0.000000 0.000000 0.040273
#
#
# Mechanical properties :
#
#
# Convention : Reuss Voigt Hill
#
# Bulk Modulus (GPa) = 41.13036 42.67497 41.90266
# Shear Modulus (GPa) = 31.24018 34.15697 32.69858
#
# Velocity S-wave (km/s) = 3.58501 3.74864 3.66774
# Velocity P-wave (km/s) = 5.83589 6.02437 5.93088
#
# Compressibility (1/GPa) = 0.02431294
#
# Stress axis : x y z
#
# Youngs Moduli (GPa) = 67.83720 83.69106 53.47255
#
# Poissons Ratio (x) = 0.26999 0.23390
# Poissons Ratio (y) = 0.21884 0.15715
# Poissons Ratio (z) = 0.29673 0.24595
#
# Static dielectric constant tensor:
#      x y z
#    x 4.765010 0.000000 0.000000 
#    y 0.000000 4.663210 0.000000 
#    z 0.000000 0.000000 4.565470 
# 
# 
# High freq. dielectric constant tensor:
#      x y z
#    x 1.976610 0.000000 0.000000 
#    y 0.000000 1.976350 0.000000 
#    z 0.000000 0.000000 1.957240 
# 
# From -- ./inp_files/6817.got.cif
#   From: 2010.03.12/outbox.cif.g09.slc.cpg/sg20_4_cif.got.tgz:6817.got - 2010.04.14 01:38:04.
