data_PCOD8160894
_publ_section_title
;
Structure prediction by ZEFSAII (Michael W. Deem and Ramdas Pophale) SiO2 
 PCOD8160894
Probable space group: C 2 2 2
;
_chemical_formula_sum "Si O2"
_cell_formula_units_Z 64
_cell_length_a 22.686816
_cell_length_b 11.429178
_cell_length_c 12.269804
_cell_angle_alpha 90.000000
_cell_angle_beta 90.000000
_cell_angle_gamma 90.000000
_cell_volume 3181.457826
_symmetry_space_group_name_H-M "C 2 2 2"
_symmetry_group_IT_number 21
_symmetry_cell_setting 'orthorhombic'
loop_
_space_group_symop_operation_xyz
x,y,z
-x,-y,z
x,-y,-z
-x,y,-z
1/2+x,1/2+y,z
1/2-x,1/2-y,z
1/2+x,1/2-y,-z
1/2-x,1/2+y,-z
loop_
_atom_site_type_symbol
_atom_site_label
_atom_site_fract_x
_atom_site_fract_y
_atom_site_fract_z
Si Si1 0.621660 0.267973 0.410750
Si Si2 0.207908 0.356253 0.725929
Si Si3 0.013856 0.781060 0.117589
Si Si4 0.195388 0.992994 0.373986
Si Si5 0.623582 0.868229 0.902906
Si Si6 0.997976 0.130827 0.341914
Si Si7 0.902777 0.377981 0.854025
Si Si8 0.626174 0.722272 0.346785
O O1 0.646285 0.159355 0.340060
O O2 0.648343 0.388926 0.363704
O O3 0.551417 0.287064 0.398197
O O4 0.643780 0.233157 0.532653
O O5 0.250000 0.250000 0.694830
O O6 0.244109 0.472586 0.693901
O O7 0.189224 0.355080 0.852733
O O8 0.080661 0.737718 0.127544
O O9 0.007934 0.877819 0.210793
O O10 0.968378 0.673383 0.134851
O O11 0.000000 0.838834 0.000000
O O12 0.213419 0.000000 0.500000
O O13 0.166464 0.109154 0.321276
O O14 0.593727 0.982152 0.845252
O O15 0.633180 0.863703 0.032767
O O16 0.059150 0.189805 0.368426
O O17 0.000000 0.000000 0.390417
O O18 0.868353 0.317350 0.751484
#
# Coordination Sequence:
#
# PCOD8160894 Si02
#       8
#     8   8   8   8   8   8   8   8
#     4  10  19  34  54  82 116 153 192 239 292 367
#     4  10  21  36  57  78 105 149 201 233 281 345
#     4   9  18  33  55  81 111 149 189 238 290 354
#     4   9  19  35  55  80 113 154 198 243 290 353
#     4  10  18  37  58  76 109 146 193 237 287 346
#     4  11  19  30  55  87 119 152 190 240 312 370
#     4   9  20  34  56  85 106 144 188 236 292 356
#     4  10  20  34  54  86 123 145 192 246 302 359
#
# _framework density 20.116564
#
# number of rings (size 3 to 8) (size 9 to 14) (size 15 to 20)
#    0.000    2.250    2.500    0.750    0.000    3.250 
#    0.000    4.375    0.000    2.250    0.000    0.000 
#    0.000    0.000    0.000    0.000    0.000    0.000 
#
# Total GULP energy -396447.947885 kJ/mol
# GULP energy per Si atom -12388.998371 kJ/mol
# Density = 2.007078 g / cm^3
# Si number density = 20.116564 Si / 1000 Ang^3
#
#
#
# Elastic Constant Matrix: (Units=GPa)
#
#
# Indices 1 2 3 4 5 6 
#
# 1 96.0024 20.1810 31.2668 0.0000 0.0000 0.0000
# 2 20.1810 45.1940 27.1478 0.0000 0.0000 0.0000
# 3 31.2668 27.1478 115.7133 0.0000 0.0000 0.0000
# 4 0.0000 0.0000 0.0000 25.0753 0.0000 0.0000
# 5 0.0000 0.0000 0.0000 0.0000 32.5774 0.0000
# 6 0.0000 0.0000 0.0000 0.0000 0.0000 25.4569
#
#
#
# Elastic Compliance Matrix: (Units=1/GPa)
#
#
# Indices 1 2 3 4 5 6 
#
# 1 0.012004 -0.003972 -0.002312 0.000000 0.000000 0.000000
# 2 -0.003972 0.027071 -0.005278 0.000000 0.000000 0.000000
# 3 -0.002312 -0.005278 0.010505 0.000000 0.000000 0.000000
# 4 0.000000 0.000000 0.000000 0.039880 0.000000 0.000000
# 5 0.000000 0.000000 0.000000 0.000000 0.030696 0.000000
# 6 0.000000 0.000000 0.000000 0.000000 0.000000 0.039282
#
#
# Mechanical properties :
#
#
# Convention : Reuss Voigt Hill
#
# Bulk Modulus (GPa) = 37.79711 46.01122 41.90417
# Shear Modulus (GPa) = 26.12603 28.50955 27.31779
#
# Velocity S-wave (km/s) = 3.60770 3.76868 3.68907
# Velocity P-wave (km/s) = 6.01530 6.46987 6.24672
#
# Compressibility (1/GPa) = 0.02645705
#
# Stress axis : x y z
#
# Youngs Moduli (GPa) = 83.30388 36.94019 95.19272
#
# Poissons Ratio (x) = 0.14671 0.22007
# Poissons Ratio (y) = 0.33086 0.50242
# Poissons Ratio (z) = 0.19259 0.19497
#
# Static dielectric constant tensor:
#      x y z
#    x 3.624190 0.000000 0.000000 
#    y 0.000000 3.444330 0.000000 
#    z 0.000000 0.000000 3.853940 
# 
# 
# High freq. dielectric constant tensor:
#      x y z
#    x 1.776500 0.000000 0.000000 
#    y 0.000000 1.756930 0.000000 
#    z 0.000000 0.000000 1.793450 
# 
# From -- ./inp_files/27498.got.cif
#   From: 2010.03.12/outbox.cif.g09.slc.cpg/sg21_14_cif.got.tgz:27498.got - 2010.04.14 01:59:26.
