data_PCOD8160464
_publ_section_title
;
Structure prediction by ZEFSAII (Michael W. Deem and Ramdas Pophale) SiO2 
 PCOD8160464
Probable space group: C 2 2 21
;
_chemical_formula_sum "Si O2"
_cell_formula_units_Z 40
_cell_length_a 17.106326
_cell_length_b 5.039256
_cell_length_c 21.674675
_cell_angle_alpha 90.000000
_cell_angle_beta 90.000000
_cell_angle_gamma 90.000000
_cell_volume 1868.425389
_symmetry_space_group_name_H-M "C 2 2 21"
_symmetry_group_IT_number 20
_symmetry_cell_setting 'orthorhombic'
loop_
_space_group_symop_operation_xyz
x,y,z
-x,-y,1/2+z
x,-y,-z
-x,y,1/2-z
1/2+x,1/2+y,z
1/2-x,1/2-y,1/2+z
1/2+x,1/2-y,-z
1/2-x,1/2+y,1/2-z
loop_
_atom_site_type_symbol
_atom_site_label
_atom_site_fract_x
_atom_site_fract_y
_atom_site_fract_z
Si Si1 0.592314 0.659583 0.256792
Si Si2 0.049307 0.260403 0.539070
Si Si3 0.867208 0.655501 0.440858
Si Si4 0.860034 0.668883 0.164854
Si Si5 0.819722 0.162277 0.369233
O O1 0.500000 0.670840 0.250000
O O2 0.622699 0.410916 0.292500
O O3 0.629359 0.605155 0.190477
O O4 0.620594 0.910722 0.295530
O O5 0.084619 0.500000 0.500000
O O6 0.087139 0.280586 0.605542
O O7 0.957313 0.287778 0.547347
O O8 0.070998 0.000000 0.500000
O O9 0.829880 0.500000 0.500000
O O10 0.851077 0.453938 0.385731
O O11 0.831187 0.943035 0.423619
O O12 0.770781 0.666212 0.145486
#
# Coordination Sequence:
#
# PCOD8160464 Si02
#       5
#     8   8   8   8   8
#     4  12  24  43  67  93 127 171 217 263 319 388
#     4  11  23  42  64  90 124 166 212 260 311 378
#     4  11  23  42  65  92 125 168 214 258 313 384
#     4  12  25  42  64  96 130 165 212 268 325 380
#     4  12  24  41  65  95 130 166 209 267 325 382
#
# _framework density 21.408401000000001
#
# number of rings (size 3 to 8) (size 9 to 14) (size 15 to 20)
#    0.000    0.400    0.000   10.800    0.000    2.400 
#    0.000    0.000    0.000    0.000    0.000    0.000 
#    0.000    0.000    0.000    0.000    0.000    0.000 
#
# Total GULP energy -247924.908149 kJ/mol
# GULP energy per Si atom -12396.245407 kJ/mol
# Density = 2.135967 g / cm^3
# Si number density = 21.408401 Si / 1000 Ang^3
#
#
#
# Elastic Constant Matrix: (Units=GPa)
#
#
# Indices 1 2 3 4 5 6 
#
# 1 58.7472 14.3234 16.7024 0.0000 0.0000 0.0000
# 2 14.3234 150.3620 23.7592 0.0000 0.0000 0.0000
# 3 16.7024 23.7592 86.4825 0.0000 0.0000 0.0000
# 4 0.0000 0.0000 0.0000 64.3461 0.0000 0.0000
# 5 0.0000 0.0000 0.0000 0.0000 39.9091 0.0000
# 6 0.0000 0.0000 0.0000 0.0000 0.0000 32.0994
#
#
#
# Elastic Compliance Matrix: (Units=1/GPa)
#
#
# Indices 1 2 3 4 5 6 
#
# 1 0.018227 -0.001234 -0.003181 0.000000 0.000000 0.000000
# 2 -0.001234 0.007036 -0.001695 0.000000 0.000000 0.000000
# 3 -0.003181 -0.001695 0.012643 0.000000 0.000000 0.000000
# 4 0.000000 0.000000 0.000000 0.015541 0.000000 0.000000
# 5 0.000000 0.000000 0.000000 0.000000 0.025057 0.000000
# 6 0.000000 0.000000 0.000000 0.000000 0.000000 0.031153
#
#
# Mechanical properties :
#
#
# Convention : Reuss Voigt Hill
#
# Bulk Modulus (GPa) = 38.93030 45.01797 41.97413
# Shear Modulus (GPa) = 38.33205 43.32469 40.82837
#
# Velocity S-wave (km/s) = 4.23604 4.50346 4.37180
# Velocity P-wave (km/s) = 6.49226 6.93653 6.71807
#
# Compressibility (1/GPa) = 0.02568693
#
# Stress axis : x y z
#
# Youngs Moduli (GPa) = 54.86257 142.12786 79.09496
#
# Poissons Ratio (x) = 0.17533 0.25163
# Poissons Ratio (y) = 0.06768 0.13404
# Poissons Ratio (z) = 0.17454 0.24087
#
# Static dielectric constant tensor:
#      x y z
#    x 3.918390 0.000000 0.000000 
#    y 0.000000 4.253360 0.000000 
#    z 0.000000 0.000000 4.243150 
# 
# 
# High freq. dielectric constant tensor:
#      x y z
#    x 1.842570 0.000000 0.000000 
#    y 0.000000 1.867450 0.000000 
#    z 0.000000 0.000000 1.866680 
# 
# From -- ./inp_files/25090.got.cif
#   From: 2010.03.12/outbox.cif.g09.slc.cpg/sg20_13_cif.got.tgz:25090.got - 2010.04.14 01:38:04.
