data_PCOD8160186
_publ_section_title
;
Structure prediction by ZEFSAII (Michael W. Deem and Ramdas Pophale) SiO2 
 PCOD8160186
Probable space group: C 2 2 21
;
_chemical_formula_sum "Si O2"
_cell_formula_units_Z 32
_cell_length_a 15.138286
_cell_length_b 10.594452
_cell_length_c 7.156719
_cell_angle_alpha 90.000000
_cell_angle_beta 90.000000
_cell_angle_gamma 90.000000
_cell_volume 1147.807793
_symmetry_space_group_name_H-M "C 2 2 21"
_symmetry_group_IT_number 20
_symmetry_cell_setting 'orthorhombic'
loop_
_space_group_symop_operation_xyz
x,y,z
-x,-y,1/2+z
x,-y,-z
-x,y,1/2-z
1/2+x,1/2+y,z
1/2-x,1/2-y,1/2+z
1/2+x,1/2-y,-z
1/2-x,1/2+y,1/2-z
loop_
_atom_site_type_symbol
_atom_site_label
_atom_site_fract_x
_atom_site_fract_y
_atom_site_fract_z
Si Si1 0.000000 0.421779 0.250000
Si Si2 0.853493 0.000000 0.500000
Si Si3 0.898997 0.756342 0.008690
Si Si4 0.640808 0.000000 0.000000
Si Si5 0.277895 0.760033 0.635245
Si Si6 0.000000 0.951292 0.250000
O O1 0.918571 0.508200 0.313027
O O2 0.030073 0.344452 0.434477
O O3 0.794966 0.878782 0.451467
O O4 0.918347 0.033969 0.325009
O O5 0.833316 0.714750 0.177600
O O6 0.961534 0.869912 0.075883
O O7 0.828357 0.780167 0.839341
O O8 0.698060 0.872193 0.011237
#
# Coordination Sequence:
#
# PCOD8160186 Si02
#       6
#     4   4   8   4   8   4
#     4  12  24  46  76 106 148 194 240 306 364 434
#     4  10  24  46  70 102 146 192 244 298 358 432
#     4  11  25  48  75 107 147 192 243 299 363 432
#     4  12  26  44  72 110 146 190 244 298 364 430
#     4  11  26  46  71 106 145 191 244 297 360 431
#     4  10  24  46  74 112 148 194 246 296 364 434
#
# _framework density 27.879232999999999
#
# number of rings (size 3 to 8) (size 9 to 14) (size 15 to 20)
#    0.000    1.000    0.000    6.000    0.000   15.000 
#    0.000    0.000    0.000    0.000    0.000    0.000 
#    0.000    0.000    0.000    0.000    0.000    0.000 
#
# Total GULP energy -198240.336393 kJ/mol
# GULP energy per Si atom -12390.021025 kJ/mol
# Density = 2.781578 g / cm^3
# Si number density = 27.879233 Si / 1000 Ang^3
#
#
#
# Elastic Constant Matrix: (Units=GPa)
#
#
# Indices 1 2 3 4 5 6 
#
# 1 128.7064 52.2259 18.3639 0.0000 0.0000 0.0000
# 2 52.2259 137.4486 24.0842 0.0000 0.0000 0.0000
# 3 18.3639 24.0842 76.6176 0.0000 0.0000 0.0000
# 4 0.0000 0.0000 0.0000 33.2948 0.0000 0.0000
# 5 0.0000 0.0000 0.0000 0.0000 64.8440 0.0000
# 6 0.0000 0.0000 0.0000 0.0000 0.0000 -116.1812
#
#
#
# Elastic Compliance Matrix: (Units=1/GPa)
#
#
# Indices 1 2 3 4 5 6 
#
# 1 0.009286 -0.003321 -0.001182 0.000000 0.000000 0.000000
# 2 -0.003321 0.008887 -0.001998 0.000000 0.000000 0.000000
# 3 -0.001182 -0.001998 0.013963 0.000000 0.000000 0.000000
# 4 0.000000 0.000000 0.000000 0.030035 0.000000 0.000000
# 5 0.000000 0.000000 0.000000 0.000000 0.015422 0.000000
# 6 0.000000 0.000000 0.000000 0.000000 0.000000 -0.008607
#
#
# Mechanical properties :
#
#
# Convention : Reuss Voigt Hill
#
# Bulk Modulus (GPa) = 52.25970 59.12450 55.69210
# Shear Modulus (GPa) = 56.58342 12.93141 34.75741
#
# Velocity S-wave (km/s) = 4.50998 2.15602 3.53471
# Velocity P-wave (km/s) = 6.77537 5.23940 6.05628
#
# Compressibility (1/GPa) = 0.01913520
#
# Stress axis : x y z
#
# Youngs Moduli (GPa) = 107.68993 112.51807 71.61781
#
# Poissons Ratio (x) = 0.37371 0.08463
# Poissons Ratio (y) = 0.35767 0.14307
# Poissons Ratio (z) = 0.12725 0.22477
#
# Static dielectric constant tensor:
#      x y z
#    x 5.433160 0.000000 0.000000 
#    y 0.000000 4.617220 0.000000 
#    z 0.000000 0.000000 14.425440 
# 
# 
# High freq. dielectric constant tensor:
#      x y z
#    x 2.151280 0.000000 0.000000 
#    y 0.000000 2.107050 0.000000 
#    z 0.000000 0.000000 2.139000 
# 
# From -- ./inp_files/6861.got.cif
#   From: 2010.03.12/outbox.cif.g09.slc.cpg/sg20_4_cif.got.tgz:6861.got - 2010.04.14 01:38:04.
