data_PCOD8160956
_publ_section_title
;
Structure prediction by ZEFSAII (Michael W. Deem and Ramdas Pophale) SiO2 
 PCOD8160956
Probable space group: C 2 2 2
;
_chemical_formula_sum "Si O2"
_cell_formula_units_Z 52
_cell_length_a 17.974828
_cell_length_b 14.361212
_cell_length_c 11.137127
_cell_angle_alpha 90.000000
_cell_angle_beta 90.000000
_cell_angle_gamma 90.000000
_cell_volume 2874.941478
_symmetry_space_group_name_H-M "C 2 2 2"
_symmetry_group_IT_number 21
_symmetry_cell_setting 'orthorhombic'
loop_
_space_group_symop_operation_xyz
x,y,z
-x,-y,z
x,-y,-z
-x,y,-z
1/2+x,1/2+y,z
1/2-x,1/2-y,z
1/2+x,1/2-y,-z
1/2-x,1/2+y,-z
loop_
_atom_site_type_symbol
_atom_site_label
_atom_site_fract_x
_atom_site_fract_y
_atom_site_fract_z
Si Si1 0.687339 0.807788 0.874770
Si Si2 0.407696 0.934027 0.270691
Si Si3 0.220715 0.095919 0.074195
Si Si4 0.579866 0.708440 0.026980
Si Si5 0.328103 0.000000 0.500000
Si Si6 0.713470 0.850389 0.325007
Si Si7 0.939277 0.364908 0.779603
O O1 0.750000 0.750000 0.801647
O O2 0.664509 0.893050 0.793612
O O3 0.724840 0.836473 0.001344
O O4 0.616296 0.742840 0.902444
O O5 0.477405 0.862396 0.276276
O O6 0.384750 0.955461 0.405520
O O7 0.424868 0.026053 0.191968
O O8 0.136417 0.135486 0.088181
O O9 0.254045 0.094332 0.208802
O O10 0.217361 0.000000 0.000000
O O11 0.564077 0.801485 0.103298
O O12 0.500000 0.659897 0.000000
O O13 0.276010 0.079625 0.438361
O O14 0.750000 0.750000 0.348178
O O15 0.624916 0.830940 0.311866
#
# Coordination Sequence:
#
# PCOD8160956 Si02
#       7
#     8   8   8   8   4   8   8
#     4  10  20  33  53  80 112 142 178 233 281 339
#     4  10  21  35  53  81 115 146 185 236 284 341
#     4  11  21  35  57  84 113 149 183 229 281 342
#     4  11  20  34  54  84 115 143 188 218 283 354
#     4  10  24  37  54  86 112 151 204 244 282 341
#     4  11  20  38  60  83 118 157 193 238 291 346
#     4  10  19  33  55  81 110 147 178 227 286 348
#
# _framework density 18.087323999999999
#
# number of rings (size 3 to 8) (size 9 to 14) (size 15 to 20)
#    0.000    1.538    4.615    2.308    0.000    5.846 
#    0.000    0.000    0.000    0.000    0.000    0.000 
#    0.000    1.538    0.000    0.000    0.000    0.000 
#
# Total GULP energy -322123.802290 kJ/mol
# GULP energy per Si atom -12389.377011 kJ/mol
# Density = 1.804616 g / cm^3
# Si number density = 18.087324 Si / 1000 Ang^3
#
#
#
# Elastic Constant Matrix: (Units=GPa)
#
#
# Indices 1 2 3 4 5 6 
#
# 1 126.5667 49.3060 39.5861 0.0000 0.0000 0.0000
# 2 49.3060 95.0250 42.1281 0.0000 0.0000 0.0000
# 3 39.5861 42.1281 80.2246 0.0000 0.0000 0.0000
# 4 0.0000 0.0000 0.0000 25.2811 0.0000 0.0000
# 5 0.0000 0.0000 0.0000 0.0000 18.0124 0.0000
# 6 0.0000 0.0000 0.0000 0.0000 0.0000 38.6199
#
#
#
# Elastic Compliance Matrix: (Units=1/GPa)
#
#
# Indices 1 2 3 4 5 6 
#
# 1 0.010430 -0.004080 -0.003004 0.000000 0.000000 0.000000
# 2 -0.004080 0.015313 -0.006028 0.000000 0.000000 0.000000
# 3 -0.003004 -0.006028 0.017113 0.000000 0.000000 0.000000
# 4 0.000000 0.000000 0.000000 0.039555 0.000000 0.000000
# 5 0.000000 0.000000 0.000000 0.000000 0.055517 0.000000
# 6 0.000000 0.000000 0.000000 0.000000 0.000000 0.025893
#
#
# Mechanical properties :
#
#
# Convention : Reuss Voigt Hill
#
# Bulk Modulus (GPa) = 60.12652 62.65073 61.38862
# Shear Modulus (GPa) = 25.56369 27.76907 26.66638
#
# Velocity S-wave (km/s) = 3.76353 3.92251 3.84384
# Velocity P-wave (km/s) = 7.22496 7.43155 7.32898
#
# Compressibility (1/GPa) = 0.01663160
#
# Stress axis : x y z
#
# Youngs Moduli (GPa) = 95.87741 65.30394 58.43586
#
# Poissons Ratio (x) = 0.26644 0.17554
# Poissons Ratio (y) = 0.39118 0.35225
# Poissons Ratio (z) = 0.28802 0.39365
#
# Static dielectric constant tensor:
#      x y z
#    x 3.756160 0.000000 0.000000 
#    y 0.000000 3.395950 0.000000 
#    z 0.000000 0.000000 3.069840 
# 
# 
# High freq. dielectric constant tensor:
#      x y z
#    x 1.714980 0.000000 0.000000 
#    y 0.000000 1.690630 0.000000 
#    z 0.000000 0.000000 1.668750 
# 
# From -- ./inp_files/26162.got.cif
#   From: 2010.03.12/outbox.cif.g09.slc.cpg/sg21_14_cif.got.tgz:26162.got - 2010.04.14 01:59:26.
