data_PCOD8160119
_publ_section_title
;
Structure prediction by ZEFSAII (Michael W. Deem and Ramdas Pophale) SiO2 
 PCOD8160119
Probable space group: C 2 2 21
;
_chemical_formula_sum "Si O2"
_cell_formula_units_Z 64
_cell_length_a 14.872605
_cell_length_b 9.172956
_cell_length_c 21.225629
_cell_angle_alpha 90.000000
_cell_angle_beta 90.000000
_cell_angle_gamma 90.000000
_cell_volume 2895.722383
_symmetry_space_group_name_H-M "C 2 2 21"
_symmetry_group_IT_number 20
_symmetry_cell_setting 'orthorhombic'
loop_
_space_group_symop_operation_xyz
x,y,z
-x,-y,1/2+z
x,-y,-z
-x,y,1/2-z
1/2+x,1/2+y,z
1/2-x,1/2-y,1/2+z
1/2+x,1/2-y,-z
1/2-x,1/2+y,1/2-z
loop_
_atom_site_type_symbol
_atom_site_label
_atom_site_fract_x
_atom_site_fract_y
_atom_site_fract_z
Si Si1 0.390155 0.294944 0.961349
Si Si2 0.602442 0.909718 0.268164
Si Si3 0.311079 0.951043 0.358140
Si Si4 0.594088 0.749506 0.720579
Si Si5 0.800100 0.850004 0.463673
Si Si6 0.935319 0.635835 0.536499
Si Si7 0.630159 0.403053 0.404443
Si Si8 0.230837 0.219018 0.828371
O O1 0.304256 0.192254 0.968604
O O2 0.480926 0.223710 0.936019
O O3 0.370849 0.422308 0.911632
O O4 0.413987 0.342260 0.032493
O O5 0.500000 0.859143 0.250000
O O6 0.661332 0.877484 0.206733
O O7 0.604822 0.077606 0.290381
O O8 0.661658 0.820856 0.320493
O O9 0.276363 0.112489 0.345152
O O10 0.394908 0.945096 0.403525
O O11 0.234072 0.857219 0.393317
O O12 0.500000 0.714983 0.750000
O O13 0.581005 0.660951 0.656016
O O14 0.673720 0.685162 0.764834
O O15 0.864485 0.727706 0.494549
O O16 0.814778 0.867438 0.387829
O O17 0.819714 0.000000 0.500000
O O18 0.976924 0.500000 0.500000
#
# Coordination Sequence:
#
# PCOD8160119 Si02
#       8
#     8   8   8   8   8   8   8   8
#     4  11  26  42  73 101 138 187 236 299 350 425
#     4  10  24  42  69 105 137 181 238 292 347 423
#     4  11  22  44  72  96 141 187 230 283 358 423
#     4  10  24  43  71 100 139 193 232 293 361 428
#     4  12  27  44  67 107 143 184 241 295 354 430
#     4  12  25  46  72 104 138 187 233 292 366 418
#     4  11  22  46  68 100 142 187 235 291 362 415
#     4  11  23  43  70 101 140 187 238 291 351 431
#
# _framework density 22.101565999999998
#
# number of rings (size 3 to 8) (size 9 to 14) (size 15 to 20)
#    0.000    1.000    5.000    0.375    7.000    1.000 
#    0.000    1.875    0.000    0.000    0.000    0.000 
#    0.000    0.000    0.000    0.000    0.000    0.000 
#
# Total GULP energy -396434.681395 kJ/mol
# GULP energy per Si atom -12388.583794 kJ/mol
# Density = 2.205126 g / cm^3
# Si number density = 22.101566 Si / 1000 Ang^3
#
#
#
# Elastic Constant Matrix: (Units=GPa)
#
#
# Indices 1 2 3 4 5 6 
#
# 1 135.2096 38.9220 29.4003 0.0000 0.0000 0.0000
# 2 38.9220 64.2008 38.9790 0.0000 0.0000 0.0000
# 3 29.4003 38.9790 84.0969 0.0000 0.0000 0.0000
# 4 0.0000 0.0000 0.0000 17.7045 0.0000 0.0000
# 5 0.0000 0.0000 0.0000 0.0000 30.4134 0.0000
# 6 0.0000 0.0000 0.0000 0.0000 0.0000 -8.5859
#
#
#
# Elastic Compliance Matrix: (Units=1/GPa)
#
#
# Indices 1 2 3 4 5 6 
#
# 1 0.009004 -0.004937 -0.000860 0.000000 0.000000 0.000000
# 2 -0.004937 0.024383 -0.009576 0.000000 0.000000 0.000000
# 3 -0.000860 -0.009576 0.016630 0.000000 0.000000 0.000000
# 4 0.000000 0.000000 0.000000 0.056483 0.000000 0.000000
# 5 0.000000 0.000000 0.000000 0.000000 0.032880 0.000000
# 6 0.000000 0.000000 0.000000 0.000000 0.000000 -0.116470
#
#
# Mechanical properties :
#
#
# Convention : Reuss Voigt Hill
#
# Bulk Modulus (GPa) = 51.88676 55.34556 53.61616
# Shear Modulus (GPa) = 83.22504 19.65346 51.43925
#
# Velocity S-wave (km/s) = 6.14308 2.98524 4.82955
# Velocity P-wave (km/s) = 8.59326 6.08096 7.44386
#
# Compressibility (1/GPa) = 0.01927274
#
# Stress axis : x y z
#
# Youngs Moduli (GPa) = 111.06222 41.01248 60.13287
#
# Poissons Ratio (x) = 0.20247 0.05169
# Poissons Ratio (y) = 0.54829 0.57581
# Poissons Ratio (z) = 0.09547 0.39272
#
# Static dielectric constant tensor:
#      x y z
#    x 4.120040 0.000000 0.000000 
#    y 0.000000 3.773220 0.000000 
#    z 0.000000 0.000000 4.409220 
# 
# 
# High freq. dielectric constant tensor:
#      x y z
#    x 1.879790 0.000000 0.000000 
#    y 0.000000 1.848720 0.000000 
#    z 0.000000 0.000000 1.887610 
# 
# From -- ./inp_files/29349.got.cif
#   From: 2010.03.12/outbox.cif.g09.slc.cpg/sg20_15_cif.got.tgz:29349.got - 2010.04.14 01:38:04.
