data_PCOD8160975
_publ_section_title
;
Structure prediction by ZEFSAII (Michael W. Deem and Ramdas Pophale) SiO2 
 PCOD8160975
Probable space group: C 2 2 2
;
_chemical_formula_sum "Si O2"
_cell_formula_units_Z 32
_cell_length_a 17.559489
_cell_length_b 18.872483
_cell_length_c 4.971790
_cell_angle_alpha 90.000000
_cell_angle_beta 90.000000
_cell_angle_gamma 90.000000
_cell_volume 1647.607244
_symmetry_space_group_name_H-M "C 2 2 2"
_symmetry_group_IT_number 21
_symmetry_cell_setting 'orthorhombic'
loop_
_space_group_symop_operation_xyz
x,y,z
-x,-y,z
x,-y,-z
-x,y,-z
1/2+x,1/2+y,z
1/2-x,1/2-y,z
1/2+x,1/2-y,-z
1/2-x,1/2+y,-z
loop_
_atom_site_type_symbol
_atom_site_label
_atom_site_fract_x
_atom_site_fract_y
_atom_site_fract_z
Si Si1 0.663722 0.078646 0.535382
Si Si2 0.265992 0.421330 0.963675
Si Si3 0.913468 0.280201 0.441102
Si Si4 0.166328 0.779374 0.941671
O O1 0.694373 0.090244 0.836788
O O2 0.598152 0.135506 0.475273
O O3 0.628386 0.000000 0.500000
O O4 0.735502 0.088968 0.337861
O O5 0.300950 0.500000 0.000000
O O6 0.332378 0.364429 0.019368
O O7 0.894512 0.256637 0.138992
O O8 0.000000 0.260339 0.500000
O O9 0.857362 0.237572 0.637990
O O10 0.250000 0.750000 0.005839
#
# Coordination Sequence:
#
# PCOD8160975 Si02
#       4
#     8   8   8   8
#     4  10  19  34  54  83 116 148 181 221 279 342
#     4  10  20  34  58  86 109 139 190 240 277 321
#     4  12  24  37  56  87 120 151 185 232 285 335
#     4  12  21  38  63  82 111 153 194 235 275 328
#
# _framework density 19.422105999999999
#
# number of rings (size 3 to 8) (size 9 to 14) (size 15 to 20)
#    0.000    1.000    5.000    3.000    0.000    0.500 
#    0.000    0.000    0.000   12.000    0.000    0.000 
#    0.000    0.000    0.000    0.000    0.000    0.000 
#
# Total GULP energy -198490.746393 kJ/mol
# GULP energy per Si atom -12405.671650 kJ/mol
# Density = 1.937790 g / cm^3
# Si number density = 19.422106 Si / 1000 Ang^3
#
#
#
# Elastic Constant Matrix: (Units=GPa)
#
#
# Indices 1 2 3 4 5 6 
#
# 1 64.5270 26.5344 2.3635 0.0000 0.0000 0.0000
# 2 26.5344 127.1609 7.7708 0.0000 0.0000 0.0000
# 3 2.3635 7.7708 69.3235 0.0000 0.0000 0.0000
# 4 0.0000 0.0000 0.0000 28.9289 0.0000 0.0000
# 5 0.0000 0.0000 0.0000 0.0000 23.7699 0.0000
# 6 0.0000 0.0000 0.0000 0.0000 0.0000 18.9678
#
#
#
# Elastic Compliance Matrix: (Units=1/GPa)
#
#
# Indices 1 2 3 4 5 6 
#
# 1 0.016954 -0.003527 -0.000183 0.000000 0.000000 0.000000
# 2 -0.003527 0.008652 -0.000850 0.000000 0.000000 0.000000
# 3 -0.000183 -0.000850 0.014527 0.000000 0.000000 0.000000
# 4 0.000000 0.000000 0.000000 0.034568 0.000000 0.000000
# 5 0.000000 0.000000 0.000000 0.000000 0.042070 0.000000
# 6 0.000000 0.000000 0.000000 0.000000 0.000000 0.052721
#
#
# Mechanical properties :
#
#
# Convention : Reuss Voigt Hill
#
# Bulk Modulus (GPa) = 32.24266 37.14988 34.69627
# Shear Modulus (GPa) = 26.46238 29.28949 27.87593
#
# Velocity S-wave (km/s) = 3.69519 3.88757 3.79260
# Velocity P-wave (km/s) = 5.90280 6.27058 6.08946
#
# Compressibility (1/GPa) = 0.03101481
#
# Stress axis : x y z
#
# Youngs Moduli (GPa) = 58.98208 115.58189 68.83931
#
# Poissons Ratio (x) = 0.40762 0.01258
# Poissons Ratio (y) = 0.20801 0.05849
# Poissons Ratio (z) = 0.01078 0.09820
#
# Static dielectric constant tensor:
#      x y z
#    x 2.976290 0.000000 0.000000 
#    y 0.000000 3.961580 0.000000 
#    z 0.000000 0.000000 3.664460 
# 
# 
# High freq. dielectric constant tensor:
#      x y z
#    x 1.698280 0.000000 0.000000 
#    y 0.000000 1.773490 0.000000 
#    z 0.000000 0.000000 1.778580 
# 
# From -- ./inp_files/3403.got.cif
#   From: 2010.03.12/outbox.cif.g09.slc.cpg/sg21_2_cif.got.tgz:3403.got - 2010.04.14 01:59:26.
