data_PCOD8160044
_publ_section_title
;
Structure prediction by ZEFSAII (Michael W. Deem and Ramdas Pophale) SiO2 
 PCOD8160044
Probable space group: C 2 2 21
;
_chemical_formula_sum "Si O2"
_cell_formula_units_Z 28
_cell_length_a 17.357307
_cell_length_b 9.789559
_cell_length_c 7.033416
_cell_angle_alpha 90.000000
_cell_angle_beta 90.000000
_cell_angle_gamma 90.000000
_cell_volume 1195.120726
_symmetry_space_group_name_H-M "C 2 2 21"
_symmetry_group_IT_number 20
_symmetry_cell_setting 'orthorhombic'
loop_
_space_group_symop_operation_xyz
x,y,z
-x,-y,1/2+z
x,-y,-z
-x,y,1/2-z
1/2+x,1/2+y,z
1/2-x,1/2-y,1/2+z
1/2+x,1/2-y,-z
1/2-x,1/2+y,1/2-z
loop_
_atom_site_type_symbol
_atom_site_label
_atom_site_fract_x
_atom_site_fract_y
_atom_site_fract_z
Si Si1 0.416692 0.349816 0.781151
Si Si2 0.200919 0.000000 0.500000
Si Si3 0.347208 0.851467 0.521936
Si Si4 0.574482 0.861765 0.615220
O O1 0.500000 0.420315 0.750000
O O2 0.389934 0.261604 0.601510
O O3 0.353443 0.467511 0.818785
O O4 0.429994 0.258463 0.965353
O O5 0.256986 0.868946 0.460304
O O6 0.353850 0.821184 0.747286
O O7 0.389826 0.000000 0.500000
O O8 0.500000 0.871038 0.750000
O O9 0.590746 0.000000 0.500000
#
# Coordination Sequence:
#
# PCOD8160044 Si02
#       4
#     8   4   8   8
#     4  12  25  47  70 103 148 188 246 297 363 445
#     4  10  28  46  68 104 144 194 236 292 372 434
#     4  10  23  45  69 105 141 185 243 304 363 419
#     4  12  21  38  72 107 137 186 244 304 356 421
#
# _framework density 23.428595000000001
#
# number of rings (size 3 to 8) (size 9 to 14) (size 15 to 20)
#    0.857    0.000    5.714    1.714    4.000    1.143 
#    0.000    0.000    0.000    0.000    0.000    0.000 
#    0.000    0.000    0.000    0.000    0.000    0.000 
#
# Total GULP energy -173447.242762 kJ/mol
# GULP energy per Si atom -12389.088769 kJ/mol
# Density = 2.337527 g / cm^3
# Si number density = 23.428595 Si / 1000 Ang^3
#
#
#
# Elastic Constant Matrix: (Units=GPa)
#
#
# Indices 1 2 3 4 5 6 
#
# 1 177.0160 35.9128 55.5922 0.0000 0.0000 0.0000
# 2 35.9128 32.5336 31.5907 0.0000 0.0000 0.0000
# 3 55.5922 31.5907 150.8874 0.0000 0.0000 0.0000
# 4 0.0000 0.0000 0.0000 40.3660 0.0000 0.0000
# 5 0.0000 0.0000 0.0000 0.0000 78.1285 0.0000
# 6 0.0000 0.0000 0.0000 0.0000 0.0000 24.8060
#
#
#
# Elastic Compliance Matrix: (Units=1/GPa)
#
#
# Indices 1 2 3 4 5 6 
#
# 1 0.007474 -0.006999 -0.001288 0.000000 0.000000 0.000000
# 2 -0.006999 0.045136 -0.006871 0.000000 0.000000 0.000000
# 3 -0.001288 -0.006871 0.008541 0.000000 0.000000 0.000000
# 4 0.000000 0.000000 0.000000 0.024773 0.000000 0.000000
# 5 0.000000 0.000000 0.000000 0.000000 0.012799 0.000000
# 6 0.000000 0.000000 0.000000 0.000000 0.000000 0.040313
#
#
# Mechanical properties :
#
#
# Convention : Reuss Voigt Hill
#
# Bulk Modulus (GPa) = 32.43272 67.40317 49.91794
# Shear Modulus (GPa) = 27.83494 44.48286 36.15890
#
# Velocity S-wave (km/s) = 3.45059 4.36209 3.93283
# Velocity P-wave (km/s) = 5.45423 7.36223 6.47885
#
# Compressibility (1/GPa) = 0.03083306
#
# Stress axis : x y z
#
# Youngs Moduli (GPa) = 133.80155 22.15542 117.08702
#
# Poissons Ratio (x) = 0.15507 0.15083
# Poissons Ratio (y) = 0.93650 0.80452
# Poissons Ratio (z) = 0.17236 0.15223
#
# Static dielectric constant tensor:
#      x y z
#    x 4.452810 0.000000 0.000000 
#    y 0.000000 3.694940 0.000000 
#    z 0.000000 0.000000 4.516910 
# 
# 
# High freq. dielectric constant tensor:
#      x y z
#    x 1.935730 0.000000 0.000000 
#    y 0.000000 1.901000 0.000000 
#    z 0.000000 0.000000 1.933340 
# 
# From -- ./inp_files/2355.got.cif
#   From: 2010.03.12/outbox.cif.g09.slc.cpg/sg20_2_cif.got.tgz:2355.got - 2010.04.14 01:38:04.
