data_PCOD8160490
_publ_section_title
;
Structure prediction by ZEFSAII (Michael W. Deem and Ramdas Pophale) SiO2 
 PCOD8160490
Probable space group: C 2 2 21
;
_chemical_formula_sum "Si O2"
_cell_formula_units_Z 32
_cell_length_a 15.569178
_cell_length_b 9.291700
_cell_length_c 10.250764
_cell_angle_alpha 90.000000
_cell_angle_beta 90.000000
_cell_angle_gamma 90.000000
_cell_volume 1482.917868
_symmetry_space_group_name_H-M "C 2 2 21"
_symmetry_group_IT_number 20
_symmetry_cell_setting 'orthorhombic'
loop_
_space_group_symop_operation_xyz
x,y,z
-x,-y,1/2+z
x,-y,-z
-x,y,1/2-z
1/2+x,1/2+y,z
1/2-x,1/2-y,1/2+z
1/2+x,1/2-y,-z
1/2-x,1/2+y,1/2-z
loop_
_atom_site_type_symbol
_atom_site_label
_atom_site_fract_x
_atom_site_fract_y
_atom_site_fract_z
Si Si1 0.512281 0.157242 0.545050
Si Si2 0.642048 0.203690 0.764476
Si Si3 0.275796 0.497030 0.353630
Si Si4 0.958505 0.100672 0.620148
O O1 0.587606 0.227366 0.632187
O O2 0.421577 0.158643 0.620001
O O3 0.500036 0.244933 0.410717
O O4 0.539713 0.000000 0.500000
O O5 0.694113 0.347279 0.801809
O O6 0.707495 0.070867 0.745716
O O7 0.236092 0.500000 0.500000
O O8 0.356706 0.389112 0.360563
O O9 0.000000 0.034049 0.750000
O O10 0.982688 0.000000 0.500000
#
# Coordination Sequence:
#
# PCOD8160490 Si02
#       4
#     8   8   8   8
#     4  11  25  45  70 102 142 185 234 286 354 425
#     4  11  25  45  71 100 145 183 235 296 351 418
#     4  11  24  43  69 103 142 177 236 293 354 418
#     4  11  23  44  70 100 140 183 231 286 350 423
#
# _framework density 21.579077000000002
#
# number of rings (size 3 to 8) (size 9 to 14) (size 15 to 20)
#    0.000    1.000    5.000    2.250    7.000    2.000 
#    0.000    3.750    0.000    0.000    0.000    0.000 
#    0.000    0.000    0.000    0.000    0.000    0.000 
#
# Total GULP energy -198408.794915 kJ/mol
# GULP energy per Si atom -12400.549682 kJ/mol
# Density = 2.152996 g / cm^3
# Si number density = 21.579077 Si / 1000 Ang^3
#
#
#
# Elastic Constant Matrix: (Units=GPa)
#
#
# Indices 1 2 3 4 5 6 
#
# 1 79.4481 51.6881 54.6135 0.0000 0.0000 0.0000
# 2 51.6881 114.9060 40.5727 0.0000 0.0000 0.0000
# 3 54.6135 40.5727 121.0144 0.0000 0.0000 0.0000
# 4 0.0000 0.0000 0.0000 30.1372 0.0000 0.0000
# 5 0.0000 0.0000 0.0000 0.0000 23.3989 0.0000
# 6 0.0000 0.0000 0.0000 0.0000 0.0000 23.6811
#
#
#
# Elastic Compliance Matrix: (Units=1/GPa)
#
#
# Indices 1 2 3 4 5 6 
#
# 1 0.022829 -0.007522 -0.007781 0.000000 0.000000 0.000000
# 2 -0.007522 0.012350 -0.000746 0.000000 0.000000 0.000000
# 3 -0.007781 -0.000746 0.012025 0.000000 0.000000 0.000000
# 4 0.000000 0.000000 0.000000 0.033182 0.000000 0.000000
# 5 0.000000 0.000000 0.000000 0.000000 0.042737 0.000000
# 6 0.000000 0.000000 0.000000 0.000000 0.000000 0.042228
#
#
# Mechanical properties :
#
#
# Convention : Reuss Voigt Hill
#
# Bulk Modulus (GPa) = 66.19612 67.67967 66.93789
# Shear Modulus (GPa) = 24.69345 26.67640 25.68493
#
# Velocity S-wave (km/s) = 3.38646 3.51980 3.45377
# Velocity P-wave (km/s) = 6.78479 6.92462 6.85506
#
# Compressibility (1/GPa) = 0.01510663
#
# Stress axis : x y z
#
# Youngs Moduli (GPa) = 43.80377 80.97373 83.15982
#
# Poissons Ratio (x) = 0.60907 0.64705
# Poissons Ratio (y) = 0.32948 0.06203
# Poissons Ratio (z) = 0.34083 0.06040
#
# Static dielectric constant tensor:
#      x y z
#    x 3.949570 0.000000 0.000000 
#    y 0.000000 4.014860 0.000000 
#    z 0.000000 0.000000 4.287850 
# 
# 
# High freq. dielectric constant tensor:
#      x y z
#    x 1.851690 0.000000 0.000000 
#    y 0.000000 1.842940 0.000000 
#    z 0.000000 0.000000 1.852870 
# 
# From -- ./inp_files/12462.got.cif
#   From: 2010.03.12/outbox.cif.g09.slc.cpg/sg20_7_cif.got.tgz:12462.got - 2010.04.14 01:38:04.
