data_PCOD8160123
_publ_section_title
;
Structure prediction by ZEFSAII (Michael W. Deem and Ramdas Pophale) SiO2 
 PCOD8160123
Probable space group: C 2 2 21
;
_chemical_formula_sum "Si O2"
_cell_formula_units_Z 32
_cell_length_a 27.687836
_cell_length_b 8.852879
_cell_length_c 5.415734
_cell_angle_alpha 90.000000
_cell_angle_beta 90.000000
_cell_angle_gamma 90.000000
_cell_volume 1327.488806
_symmetry_space_group_name_H-M "C 2 2 21"
_symmetry_group_IT_number 20
_symmetry_cell_setting 'orthorhombic'
loop_
_space_group_symop_operation_xyz
x,y,z
-x,-y,1/2+z
x,-y,-z
-x,y,1/2-z
1/2+x,1/2+y,z
1/2-x,1/2-y,1/2+z
1/2+x,1/2-y,-z
1/2-x,1/2+y,1/2-z
loop_
_atom_site_type_symbol
_atom_site_label
_atom_site_fract_x
_atom_site_fract_y
_atom_site_fract_z
Si Si1 0.366932 0.745932 0.163603
Si Si2 0.944095 0.246562 0.777342
Si Si3 0.100916 0.500000 0.000000
Si Si4 0.770477 0.677179 0.032746
Si Si5 0.115497 0.000000 0.000000
O O1 0.328022 0.786078 0.952114
O O2 0.352377 0.584606 0.291459
O O3 0.364537 0.882179 0.359967
O O4 0.421183 0.728345 0.051092
O O5 0.934295 0.417493 0.693046
O O6 0.917890 0.132054 0.597872
O O7 0.000000 0.208590 0.750000
O O8 0.751410 0.763608 0.788535
O O9 0.760249 0.500000 0.000000
#
# Coordination Sequence:
#
# PCOD8160123 Si02
#       5
#     8   8   4   8   4
#     4  11  26  49  73 108 150 199 253 315 385 464
#     4  11  25  41  71 102 146 191 249 308 378 455
#     4  10  24  42  72 102 144 194 244 306 382 446
#     4  12  30  51  85 120 161 208 267 332 400 479
#     4  10  26  42  72 102 146 194 244 308 386 446
#
# _framework density 24.105663
#
# number of rings (size 3 to 8) (size 9 to 14) (size 15 to 20)
#    0.000    1.000    0.000    3.750   19.250    4.000 
#    0.000    0.000    0.000    0.000    0.000    0.000 
#    0.000    0.000    0.000    0.000    0.000    0.000 
#
# Total GULP energy -198375.219561 kJ/mol
# GULP energy per Si atom -12398.451223 kJ/mol
# Density = 2.405080 g / cm^3
# Si number density = 24.105663 Si / 1000 Ang^3
#
#
#
# Elastic Constant Matrix: (Units=GPa)
#
#
# Indices 1 2 3 4 5 6 
#
# 1 92.6067 13.7326 20.0663 0.0000 0.0000 0.0000
# 2 13.7326 136.4735 29.9911 0.0000 0.0000 0.0000
# 3 20.0663 29.9911 109.1240 0.0000 0.0000 0.0000
# 4 0.0000 0.0000 0.0000 41.5141 0.0000 0.0000
# 5 0.0000 0.0000 0.0000 0.0000 29.8859 0.0000
# 6 0.0000 0.0000 0.0000 0.0000 0.0000 11.3840
#
#
#
# Elastic Compliance Matrix: (Units=1/GPa)
#
#
# Indices 1 2 3 4 5 6 
#
# 1 0.011313 -0.000725 -0.001881 0.000000 0.000000 0.000000
# 2 -0.000725 0.007845 -0.002023 0.000000 0.000000 0.000000
# 3 -0.001881 -0.002023 0.010066 0.000000 0.000000 0.000000
# 4 0.000000 0.000000 0.000000 0.024088 0.000000 0.000000
# 5 0.000000 0.000000 0.000000 0.000000 0.033461 0.000000
# 6 0.000000 0.000000 0.000000 0.000000 0.000000 0.087842
#
#
# Mechanical properties :
#
#
# Convention : Reuss Voigt Hill
#
# Bulk Modulus (GPa) = 50.08429 51.75379 50.91904
# Shear Modulus (GPa) = 26.24282 34.85109 30.54696
#
# Velocity S-wave (km/s) = 3.30306 3.80644 3.56365
# Velocity P-wave (km/s) = 5.94719 6.39022 6.17268
#
# Compressibility (1/GPa) = 0.01996634
#
# Stress axis : x y z
#
# Youngs Moduli (GPa) = 88.39014 127.47138 99.34719
#
# Poissons Ratio (x) = 0.09242 0.18688
# Poissons Ratio (y) = 0.06409 0.20095
# Poissons Ratio (z) = 0.16627 0.25784
#
# Static dielectric constant tensor:
#      x y z
#    x 4.195120 0.000000 0.000000 
#    y 0.000000 4.758690 0.000000 
#    z 0.000000 0.000000 4.512710 
# 
# 
# High freq. dielectric constant tensor:
#      x y z
#    x 1.939690 0.000000 0.000000 
#    y 0.000000 1.982310 0.000000 
#    z 0.000000 0.000000 1.964570 
# 
# From -- ./inp_files/724.got.cif
#   From: 2010.03.12/outbox.cif.g09.slc.cpg/sg20_1_cif.got.tgz:724.got - 2010.04.14 01:38:04.
