data_PCOD8160333
_publ_section_title
;
Structure prediction by ZEFSAII (Michael W. Deem and Ramdas Pophale) SiO2 
 PCOD8160333
Probable space group: C 2 2 21
;
_chemical_formula_sum "Si O2"
_cell_formula_units_Z 64
_cell_length_a 23.149748
_cell_length_b 5.281277
_cell_length_c 24.856992
_cell_angle_alpha 90.000000
_cell_angle_beta 90.000000
_cell_angle_gamma 90.000000
_cell_volume 3039.021600
_symmetry_space_group_name_H-M "C 2 2 21"
_symmetry_group_IT_number 20
_symmetry_cell_setting 'orthorhombic'
loop_
_space_group_symop_operation_xyz
x,y,z
-x,-y,1/2+z
x,-y,-z
-x,y,1/2-z
1/2+x,1/2+y,z
1/2-x,1/2-y,1/2+z
1/2+x,1/2-y,-z
1/2-x,1/2+y,1/2-z
loop_
_atom_site_type_symbol
_atom_site_label
_atom_site_fract_x
_atom_site_fract_y
_atom_site_fract_z
Si Si1 0.810004 0.505256 0.379230
Si Si2 0.166817 0.935771 0.772560
Si Si3 0.846750 0.002964 0.437490
Si Si4 0.407149 0.157825 0.303742
Si Si5 0.488595 0.979641 0.878165
Si Si6 0.980803 0.991575 0.562316
Si Si7 0.381500 0.965356 0.192388
Si Si8 0.777610 0.219233 0.817493
O O1 0.826419 0.279039 0.419071
O O2 0.855405 0.486404 0.328256
O O3 0.741741 0.498945 0.359856
O O4 0.813816 0.774646 0.408327
O O5 0.143490 0.783125 0.721049
O O6 0.212871 0.836692 0.815154
O O7 0.113421 0.046839 0.808459
O O8 0.204236 0.154894 0.743273
O O9 0.832161 0.000000 0.500000
O O10 0.914156 0.944153 0.427203
O O11 0.466926 0.086976 0.330672
O O12 0.412244 0.124915 0.239502
O O13 0.481088 0.714953 0.910266
O O14 0.508700 0.208312 0.915972
O O15 0.429218 0.082672 0.852862
O O16 0.997071 0.000000 0.500000
O O17 0.328735 0.102845 0.160700
#
# Coordination Sequence:
#
# PCOD8160333 Si02
#       8
#     8   8   8   8   8   8   8   8
#     4  12  22  38  67  99 132 172 225 271 337 408
#     4  11  21  39  63  93 139 178 235 262 317 381
#     4  11  23  41  66 100 131 164 214 291 356 405
#     4  11  23  39  60 100 139 179 211 269 335 398
#     4  12  26  44  68 103 138 177 222 276 351 403
#     4  11  24  46  72  98 132 171 230 286 342 412
#     4  11  26  41  61  97 142 187 224 271 313 409
#     4  11  22  38  64  94 127 186 227 272 308 391
#
# _framework density 21.05941
#
# number of rings (size 3 to 8) (size 9 to 14) (size 15 to 20)
#    0.000    0.750    5.000    2.625    7.000    2.000 
#    0.000    0.000    0.000    3.000    0.000    0.000 
#    0.000    0.000    0.000    0.000    0.000    0.000 
#
# Total GULP energy -396486.517774 kJ/mol
# GULP energy per Si atom -12390.203680 kJ/mol
# Density = 2.101148 g / cm^3
# Si number density = 21.059410 Si / 1000 Ang^3
#
#
#
# Elastic Constant Matrix: (Units=GPa)
#
#
# Indices 1 2 3 4 5 6 
#
# 1 103.3650 27.6908 41.4788 0.0000 0.0000 0.0000
# 2 27.6908 97.7792 27.6320 0.0000 0.0000 0.0000
# 3 41.4788 27.6320 88.1109 0.0000 0.0000 0.0000
# 4 0.0000 0.0000 0.0000 38.9827 0.0000 0.0000
# 5 0.0000 0.0000 0.0000 0.0000 23.4605 0.0000
# 6 0.0000 0.0000 0.0000 0.0000 0.0000 25.9196
#
#
#
# Elastic Compliance Matrix: (Units=1/GPa)
#
#
# Indices 1 2 3 4 5 6 
#
# 1 0.012282 -0.002024 -0.005147 0.000000 0.000000 0.000000
# 2 -0.002024 0.011555 -0.002671 0.000000 0.000000 0.000000
# 3 -0.005147 -0.002671 0.014610 0.000000 0.000000 0.000000
# 4 0.000000 0.000000 0.000000 0.025652 0.000000 0.000000
# 5 0.000000 0.000000 0.000000 0.000000 0.042625 0.000000
# 6 0.000000 0.000000 0.000000 0.000000 0.000000 0.038581
#
#
# Mechanical properties :
#
#
# Convention : Reuss Voigt Hill
#
# Bulk Modulus (GPa) = 53.29558 53.65093 53.47325
# Shear Modulus (GPa) = 29.19817 30.50280 29.85048
#
# Velocity S-wave (km/s) = 3.72757 3.80994 3.76898
# Velocity P-wave (km/s) = 6.62484 6.69966 6.66236
#
# Compressibility (1/GPa) = 0.01876328
#
# Stress axis : x y z
#
# Youngs Moduli (GPa) = 81.41929 86.54224 68.44581
#
# Poissons Ratio (x) = 0.17513 0.35231
# Poissons Ratio (y) = 0.16477 0.18282
# Poissons Ratio (z) = 0.41909 0.23116
#
# Static dielectric constant tensor:
#      x y z
#    x 3.683600 0.000000 0.000000 
#    y 0.000000 4.038870 0.000000 
#    z 0.000000 0.000000 3.801400 
# 
# 
# High freq. dielectric constant tensor:
#      x y z
#    x 1.805420 0.000000 0.000000 
#    y 0.000000 1.842740 0.000000 
#    z 0.000000 0.000000 1.816550 
# 
# From -- ./inp_files/29610.got.cif
#   From: 2010.03.12/outbox.cif.g09.slc.cpg/sg20_15_cif.got.tgz:29610.got - 2010.04.14 01:38:04.
