data_PCOD8160712
_publ_section_title
;
Structure prediction by ZEFSAII (Michael W. Deem and Ramdas Pophale) SiO2 
 PCOD8160712
Probable space group: C 2 2 21
;
_chemical_formula_sum "Si O2"
_cell_formula_units_Z 20
_cell_length_a 4.645441
_cell_length_b 13.817449
_cell_length_c 13.402648
_cell_angle_alpha 90.000000
_cell_angle_beta 90.000000
_cell_angle_gamma 90.000000
_cell_volume 860.291101
_symmetry_space_group_name_H-M "C 2 2 21"
_symmetry_group_IT_number 20
_symmetry_cell_setting 'orthorhombic'
loop_
_space_group_symop_operation_xyz
x,y,z
-x,-y,1/2+z
x,-y,-z
-x,y,1/2-z
1/2+x,1/2+y,z
1/2-x,1/2-y,1/2+z
1/2+x,1/2-y,-z
1/2-x,1/2+y,1/2-z
loop_
_atom_site_type_symbol
_atom_site_label
_atom_site_fract_x
_atom_site_fract_y
_atom_site_fract_z
Si Si1 0.740152 0.578061 0.818067
Si Si2 0.928712 0.500000 0.500000
Si Si3 0.089459 0.810091 0.471057
O O1 0.500000 0.522560 0.750000
O O2 0.571137 0.669264 0.866404
O O3 0.000000 0.617213 0.750000
O O4 0.865429 0.508536 0.903757
O O5 0.724632 0.407716 0.516513
O O6 0.347643 0.733219 0.453972
#
# Coordination Sequence:
#
# PCOD8160712 Si02
#       3
#     8   4   8
#     4  12  25  46  80 112 152 201 249 310 377 439
#     4  12  26  48  84 106 156 204 244 322 362 448
#     4  12  25  46  80 107 145 201 249 309 376 437
#
# _framework density 23.247942999999999
#
# number of rings (size 3 to 8) (size 9 to 14) (size 15 to 20)
#    0.000    0.000    8.000    1.200    0.000    0.000 
#    0.000    2.000   35.200    0.000    0.000    0.000 
#    0.000    0.000    0.000    0.000    0.000    0.000 
#
# Total GULP energy -123913.257588 kJ/mol
# GULP energy per Si atom -12391.325759 kJ/mol
# Density = 2.319503 g / cm^3
# Si number density = 23.247943 Si / 1000 Ang^3
#
#
#
# Elastic Constant Matrix: (Units=GPa)
#
#
# Indices 1 2 3 4 5 6 
#
# 1 241.7115 94.3694 109.1051 0.0000 0.0000 0.0000
# 2 94.3694 117.5665 77.8576 0.0000 0.0000 0.0000
# 3 109.1051 77.8576 146.4098 0.0000 0.0000 0.0000
# 4 0.0000 0.0000 0.0000 11.7511 0.0000 0.0000
# 5 0.0000 0.0000 0.0000 0.0000 82.5027 0.0000
# 6 0.0000 0.0000 0.0000 0.0000 0.0000 58.5698
#
#
#
# Elastic Compliance Matrix: (Units=1/GPa)
#
#
# Indices 1 2 3 4 5 6 
#
# 1 0.006990 -0.003336 -0.003435 0.000000 0.000000 0.000000
# 2 -0.003336 0.014722 -0.005343 0.000000 0.000000 0.000000
# 3 -0.003435 -0.005343 0.012231 0.000000 0.000000 0.000000
# 4 0.000000 0.000000 0.000000 0.085098 0.000000 0.000000
# 5 0.000000 0.000000 0.000000 0.000000 0.012121 0.000000
# 6 0.000000 0.000000 0.000000 0.000000 0.000000 0.017074
#
#
# Mechanical properties :
#
#
# Convention : Reuss Voigt Hill
#
# Bulk Modulus (GPa) = 102.92896 118.70578 110.81737
# Shear Modulus (GPa) = 28.45729 45.52177 36.98953
#
# Velocity S-wave (km/s) = 3.50248 4.42984 3.99317
# Velocity P-wave (km/s) = 7.79275 8.79410 8.30853
#
# Compressibility (1/GPa) = 0.00971544
#
# Stress axis : x y z
#
# Youngs Moduli (GPa) = 143.05779 67.92631 81.75906
#
# Poissons Ratio (x) = 0.22661 0.28085
# Poissons Ratio (y) = 0.47726 0.43681
# Poissons Ratio (z) = 0.49141 0.36291
#
# Static dielectric constant tensor:
#      x y z
#    x 5.122000 0.000000 0.000000 
#    y 0.000000 4.004360 0.000000 
#    z 0.000000 0.000000 4.448780 
# 
# 
# High freq. dielectric constant tensor:
#      x y z
#    x 1.977510 0.000000 0.000000 
#    y 0.000000 1.878220 0.000000 
#    z 0.000000 0.000000 1.903100 
# 
# From -- ./inp_files/11708.got.cif
#   From: 2010.03.12/outbox.cif.g09.slc.cpg/sg20_6_cif.got.tgz:11708.got - 2010.04.14 01:38:04.
