data_PCOD8160291
_publ_section_title
;
Structure prediction by ZEFSAII (Michael W. Deem and Ramdas Pophale) SiO2 
 PCOD8160291
Probable space group: C 2 2 21
;
_chemical_formula_sum "Si O2"
_cell_formula_units_Z 60
_cell_length_a 24.912572
_cell_length_b 14.011892
_cell_length_c 8.023149
_cell_angle_alpha 90.000000
_cell_angle_beta 90.000000
_cell_angle_gamma 90.000000
_cell_volume 2800.658820
_symmetry_space_group_name_H-M "C 2 2 21"
_symmetry_group_IT_number 20
_symmetry_cell_setting 'orthorhombic'
loop_
_space_group_symop_operation_xyz
x,y,z
-x,-y,1/2+z
x,-y,-z
-x,y,1/2-z
1/2+x,1/2+y,z
1/2-x,1/2-y,1/2+z
1/2+x,1/2-y,-z
1/2-x,1/2+y,1/2-z
loop_
_atom_site_type_symbol
_atom_site_label
_atom_site_fract_x
_atom_site_fract_y
_atom_site_fract_z
Si Si1 0.525865 0.105943 0.565853
Si Si2 0.311518 0.727264 0.381960
Si Si3 0.722229 0.550533 0.284687
Si Si4 0.206401 0.851562 0.391221
Si Si5 0.615942 0.248733 0.193039
Si Si6 0.160541 0.437295 0.723679
Si Si7 0.500000 0.220591 0.250000
Si Si8 0.641771 0.135929 0.623794
O O1 0.500000 0.107998 0.750000
O O2 0.493406 0.159559 0.420504
O O3 0.581493 0.164095 0.574878
O O4 0.537822 0.000000 0.500000
O O5 0.298547 0.614564 0.368297
O O6 0.257913 0.785175 0.431334
O O7 0.360645 0.727540 0.511664
O O8 0.330017 0.772688 0.205734
O O9 0.716159 0.436131 0.252770
O O10 0.690244 0.589656 0.445022
O O11 0.784467 0.572233 0.325264
O O12 0.156413 0.787449 0.334741
O O13 0.615311 0.133267 0.203094
O O14 0.555023 0.284202 0.235277
O O15 0.138444 0.544675 0.748591
O O16 0.174407 0.404207 0.534418
#
# Coordination Sequence:
#
# PCOD8160291 Si02
#       8
#     8   8   8   8   8   8   4   8
#     4  12  23  40  61  93 130 178 229 273 331 396
#     4  12  23  38  66 101 128 169 220 272 332 416
#     4  11  24  39  63  96 133 171 212 266 351 405
#     4  11  23  42  63  94 140 170 209 275 337 407
#     4  12  25  42  67  93 133 178 224 278 330 397
#     4  11  20  36  59  90 130 175 205 255 331 395
#     4  12  26  48  66  92 136 186 238 284 334 398
#     4  11  23  37  58  89 134 171 208 271 320 393
#
# _framework density 21.423531000000001
#
# number of rings (size 3 to 8) (size 9 to 14) (size 15 to 20)
#    0.000    0.533    7.333    1.600    1.867    1.067 
#    0.000    0.000    0.000    3.200    0.000    0.000 
#    0.000    0.000    0.000    0.000    0.000    0.000 
#
# Total GULP energy -371688.401177 kJ/mol
# GULP energy per Si atom -12389.613373 kJ/mol
# Density = 2.137477 g / cm^3
# Si number density = 21.423531 Si / 1000 Ang^3
#
#
#
# Elastic Constant Matrix: (Units=GPa)
#
#
# Indices 1 2 3 4 5 6 
#
# 1 127.2130 26.0180 19.4902 0.0000 0.0000 0.0000
# 2 26.0180 75.6545 -2.1797 0.0000 0.0000 0.0000
# 3 19.4902 -2.1797 71.7290 0.0000 0.0000 0.0000
# 4 0.0000 0.0000 0.0000 28.3667 0.0000 0.0000
# 5 0.0000 0.0000 0.0000 0.0000 31.5261 0.0000
# 6 0.0000 0.0000 0.0000 0.0000 0.0000 23.6123
#
#
#
# Elastic Compliance Matrix: (Units=1/GPa)
#
#
# Indices 1 2 3 4 5 6 
#
# 1 0.008885 -0.003128 -0.002509 0.000000 0.000000 0.000000
# 2 -0.003128 0.014331 0.001285 0.000000 0.000000 0.000000
# 3 -0.002509 0.001285 0.014662 0.000000 0.000000 0.000000
# 4 0.000000 0.000000 0.000000 0.035253 0.000000 0.000000
# 5 0.000000 0.000000 0.000000 0.000000 0.031720 0.000000
# 6 0.000000 0.000000 0.000000 0.000000 0.000000 0.042351
#
#
# Mechanical properties :
#
#
# Convention : Reuss Voigt Hill
#
# Bulk Modulus (GPa) = 34.27662 40.13926 37.20794
# Shear Modulus (GPa) = 30.18787 32.11890 31.15338
#
# Velocity S-wave (km/s) = 3.75787 3.87620 3.81749
# Velocity P-wave (km/s) = 5.90449 6.22976 6.06931
#
# Compressibility (1/GPa) = 0.02917440
#
# Stress axis : x y z
#
# Youngs Moduli (GPa) = 112.54920 69.78014 68.20241
#
# Poissons Ratio (x) = 0.21827 0.17114
# Poissons Ratio (y) = 0.35204 -0.08767
# Poissons Ratio (z) = 0.28242 -0.08969
#
# Static dielectric constant tensor:
#      x y z
#    x 3.711310 0.000000 0.000000 
#    y 0.000000 4.017030 0.000000 
#    z 0.000000 0.000000 3.978190 
# 
# 
# High freq. dielectric constant tensor:
#      x y z
#    x 1.821750 0.000000 0.000000 
#    y 0.000000 1.823560 0.000000 
#    z 0.000000 0.000000 1.849390 
# 
# From -- ./inp_files/10770.got.cif
#   From: 2010.03.12/outbox.cif.g09.slc.cpg/sg20_6_cif.got.tgz:10770.got - 2010.04.14 01:38:04.
