data_PCOD8160664
_publ_section_title
;
Structure prediction by ZEFSAII (Michael W. Deem and Ramdas Pophale) SiO2 
 PCOD8160664
Probable space group: C 2 2 21
;
_chemical_formula_sum "Si O2"
_cell_formula_units_Z 40
_cell_length_a 26.401946
_cell_length_b 6.993874
_cell_length_c 9.673078
_cell_angle_alpha 90.000000
_cell_angle_beta 90.000000
_cell_angle_gamma 90.000000
_cell_volume 1786.152074
_symmetry_space_group_name_H-M "C 2 2 21"
_symmetry_group_IT_number 20
_symmetry_cell_setting 'orthorhombic'
loop_
_space_group_symop_operation_xyz
x,y,z
-x,-y,1/2+z
x,-y,-z
-x,y,1/2-z
1/2+x,1/2+y,z
1/2-x,1/2-y,1/2+z
1/2+x,1/2-y,-z
1/2-x,1/2+y,1/2-z
loop_
_atom_site_type_symbol
_atom_site_label
_atom_site_fract_x
_atom_site_fract_y
_atom_site_fract_z
Si Si1 0.784722 0.354043 0.386568
Si Si2 0.544758 0.000000 0.000000
Si Si3 0.099190 0.921270 0.348107
Si Si4 0.000000 0.280670 0.750000
Si Si5 0.884350 0.831943 0.597009
Si Si6 0.312834 0.887313 0.857513
O O1 0.763091 0.500000 0.500000
O O2 0.827581 0.219679 0.454767
O O3 0.737602 0.235113 0.331244
O O4 0.814780 0.458098 0.263444
O O5 0.579104 0.847991 0.080684
O O6 0.508642 0.091549 0.114730
O O7 0.138432 0.746811 0.349217
O O8 0.047532 0.853290 0.279123
O O9 0.089401 0.000000 0.500000
O O10 0.119020 0.097579 0.255643
O O11 0.905405 0.000000 0.500000
O O12 0.310864 0.000000 0.000000
#
# Coordination Sequence:
#
# PCOD8160664 Si02
#       6
#     8   4   8   4   8   8
#     4  12  23  42  73 105 145 191 236 294 361 437
#     4  12  28  50  76 110 142 192 248 310 372 440
#     4  12  28  47  73 106 149 195 246 309 372 438
#     4  12  30  48  76 106 140 198 246 310 374 430
#     4  12  24  49  74 109 146 187 245 300 365 439
#     4  12  25  45  69 109 150 194 242 298 370 438
#
# _framework density 22.394511000000001
#
# number of rings (size 3 to 8) (size 9 to 14) (size 15 to 20)
#    0.000    0.000    3.000    7.200    7.000    0.000 
#    0.000    0.000    0.000    0.000    0.000    0.000 
#    0.000    0.000    0.000    0.000    0.000    0.000 
#
# Total GULP energy -248168.316147 kJ/mol
# GULP energy per Si atom -12408.415807 kJ/mol
# Density = 2.234354 g / cm^3
# Si number density = 22.394511 Si / 1000 Ang^3
#
#
#
# Elastic Constant Matrix: (Units=GPa)
#
#
# Indices 1 2 3 4 5 6 
#
# 1 118.0069 32.6565 8.5151 0.0000 0.0000 0.0000
# 2 32.6565 105.1976 37.4394 0.0000 0.0000 0.0000
# 3 8.5151 37.4394 127.1183 0.0000 0.0000 0.0000
# 4 0.0000 0.0000 0.0000 49.4576 0.0000 0.0000
# 5 0.0000 0.0000 0.0000 0.0000 35.0991 0.0000
# 6 0.0000 0.0000 0.0000 0.0000 0.0000 29.8740
#
#
#
# Elastic Compliance Matrix: (Units=1/GPa)
#
#
# Indices 1 2 3 4 5 6 
#
# 1 0.009278 -0.002970 0.000253 0.000000 0.000000 0.000000
# 2 -0.002970 0.011570 -0.003209 0.000000 0.000000 0.000000
# 3 0.000253 -0.003209 0.008795 0.000000 0.000000 0.000000
# 4 0.000000 0.000000 0.000000 0.020219 0.000000 0.000000
# 5 0.000000 0.000000 0.000000 0.000000 0.028491 0.000000
# 6 0.000000 0.000000 0.000000 0.000000 0.000000 0.033474
#
#
# Mechanical properties :
#
#
# Convention : Reuss Voigt Hill
#
# Bulk Modulus (GPa) = 56.20733 56.39388 56.30061
# Shear Modulus (GPa) = 38.57783 41.00025 39.78904
#
# Velocity S-wave (km/s) = 4.15498 4.28345 4.21970
# Velocity P-wave (km/s) = 6.94058 7.04986 6.99544
#
# Compressibility (1/GPa) = 0.01779127
#
# Stress axis : x y z
#
# Youngs Moduli (GPa) = 107.78451 86.43102 113.70430
#
# Poissons Ratio (x) = 0.25672 -0.02881
# Poissons Ratio (y) = 0.32015 0.36484
# Poissons Ratio (z) = -0.02731 0.27733
#
# Static dielectric constant tensor:
#      x y z
#    x 3.982130 0.000000 0.000000 
#    y 0.000000 4.418810 0.000000 
#    z 0.000000 0.000000 3.997310 
# 
# 
# High freq. dielectric constant tensor:
#      x y z
#    x 1.889070 0.000000 0.000000 
#    y 0.000000 1.900000 0.000000 
#    z 0.000000 0.000000 1.897850 
# 
# From -- ./inp_files/16885.got.cif
#   From: 2010.03.12/outbox.cif.g09.slc.cpg/sg20_9_cif.got.tgz:16885.got - 2010.04.14 01:38:04.
