data_PCOD8160179
_publ_section_title
;
Structure prediction by ZEFSAII (Michael W. Deem and Ramdas Pophale) SiO2 
 PCOD8160179
Probable space group: C 2 2 21
;
_chemical_formula_sum "Si O2"
_cell_formula_units_Z 36
_cell_length_a 5.426111
_cell_length_b 13.841534
_cell_length_c 19.005272
_cell_angle_alpha 90.000000
_cell_angle_beta 90.000000
_cell_angle_gamma 90.000000
_cell_volume 1427.404255
_symmetry_space_group_name_H-M "C 2 2 21"
_symmetry_group_IT_number 20
_symmetry_cell_setting 'orthorhombic'
loop_
_space_group_symop_operation_xyz
x,y,z
-x,-y,1/2+z
x,-y,-z
-x,y,1/2-z
1/2+x,1/2+y,z
1/2-x,1/2-y,1/2+z
1/2+x,1/2-y,-z
1/2-x,1/2+y,1/2-z
loop_
_atom_site_type_symbol
_atom_site_label
_atom_site_fract_x
_atom_site_fract_y
_atom_site_fract_z
Si Si1 0.138516 0.590285 0.179286
Si Si2 0.332411 0.615756 0.813634
Si Si3 0.500000 0.720397 0.250000
Si Si4 0.994193 0.638288 0.028760
Si Si5 0.495417 0.641374 0.965739
O O1 0.159088 0.475213 0.169856
O O2 0.390356 0.651791 0.188014
O O3 0.985775 0.627017 0.112613
O O4 0.000000 0.618322 0.250000
O O5 0.500000 0.580203 0.750000
O O6 0.189126 0.711856 0.791945
O O7 0.500777 0.637578 0.881217
O O8 0.995556 0.749648 0.006047
O O9 0.245606 0.590675 0.996456
O O10 0.745836 0.590537 0.995211
#
# Coordination Sequence:
#
# PCOD8160179 Si02
#       5
#     8   8   4   8   8
#     4  12  27  48  78 116 154 208 266 324 399 475
#     4  12  27  48  78 116 154 208 266 324 399 475
#     4  12  26  48  84 112 160 204 256 344 386 474
#     4  10  24  45  77 108 151 205 255 319 393 463
#     4  10  24  45  77 108 151 205 255 319 393 463
#
# _framework density 25.220607999999999
#
# number of rings (size 3 to 8) (size 9 to 14) (size 15 to 20)
#    0.000    0.889    2.222    3.333   15.556    0.889 
#    0.000    2.222    0.000    0.000    0.000    0.000 
#    0.000    0.000    0.000    0.000    0.000    0.000 
#
# Total GULP energy -223188.842653 kJ/mol
# GULP energy per Si atom -12399.380147 kJ/mol
# Density = 2.516320 g / cm^3
# Si number density = 25.220608 Si / 1000 Ang^3
#
#
#
# Elastic Constant Matrix: (Units=GPa)
#
#
# Indices 1 2 3 4 5 6 
#
# 1 182.5305 6.8169 85.4209 0.0000 0.0000 0.0000
# 2 6.8169 99.3977 1.1134 0.0000 0.0000 0.0000
# 3 85.4209 1.1134 185.4188 0.0000 0.0000 0.0000
# 4 0.0000 0.0000 0.0000 -4.2005 0.0000 0.0000
# 5 0.0000 0.0000 0.0000 0.0000 56.2421 0.0000
# 6 0.0000 0.0000 0.0000 0.0000 0.0000 3.9755
#
#
#
# Elastic Compliance Matrix: (Units=1/GPa)
#
#
# Indices 1 2 3 4 5 6 
#
# 1 0.007004 -0.000444 -0.003224 0.000000 0.000000 0.000000
# 2 -0.000444 0.010089 0.000144 0.000000 0.000000 0.000000
# 3 -0.003224 0.000144 0.006878 0.000000 0.000000 0.000000
# 4 0.000000 0.000000 0.000000 -0.238068 0.000000 0.000000
# 5 0.000000 0.000000 0.000000 0.000000 0.017780 0.000000
# 6 0.000000 0.000000 0.000000 0.000000 0.000000 0.251541
#
#
# Mechanical properties :
#
#
# Convention : Reuss Voigt Hill
#
# Bulk Modulus (GPa) = 59.09234 72.67216 65.88225
# Shear Modulus (GPa) = 73.62351 36.13648 54.88000
#
# Velocity S-wave (km/s) = 5.40881 3.78936 4.66982
# Velocity P-wave (km/s) = 7.90493 6.92985 7.43340
#
# Compressibility (1/GPa) = 0.01692267
#
# Stress axis : x y z
#
# Youngs Moduli (GPa) = 142.77797 99.11342 145.39990
#
# Poissons Ratio (x) = 0.04403 0.46876
# Poissons Ratio (y) = 0.06343 -0.02095
# Poissons Ratio (z) = 0.46031 -0.01428
#
# Static dielectric constant tensor:
#      x y z
#    x 4.994280 0.000000 0.000000 
#    y 0.000000 4.341110 0.000000 
#    z 0.000000 0.000000 4.352240 
# 
# 
# High freq. dielectric constant tensor:
#      x y z
#    x 2.005900 0.000000 0.000000 
#    y 0.000000 2.013640 0.000000 
#    z 0.000000 0.000000 2.006660 
# 
# From -- ./inp_files/25931.got.cif
#   From: 2010.03.12/outbox.cif.g09.slc.cpg/sg20_13_cif.got.tgz:25931.got - 2010.04.14 01:38:04.
