data_PCOD8160320
_publ_section_title
;
Structure prediction by ZEFSAII (Michael W. Deem and Ramdas Pophale) SiO2 
 PCOD8160320
Probable space group: C 2 2 21
;
_chemical_formula_sum "Si O2"
_cell_formula_units_Z 60
_cell_length_a 31.685906
_cell_length_b 11.128898
_cell_length_c 8.274794
_cell_angle_alpha 90.000000
_cell_angle_beta 90.000000
_cell_angle_gamma 90.000000
_cell_volume 2917.934120
_symmetry_space_group_name_H-M "C 2 2 21"
_symmetry_group_IT_number 20
_symmetry_cell_setting 'orthorhombic'
loop_
_space_group_symop_operation_xyz
x,y,z
-x,-y,1/2+z
x,-y,-z
-x,y,1/2-z
1/2+x,1/2+y,z
1/2-x,1/2-y,1/2+z
1/2+x,1/2-y,-z
1/2-x,1/2+y,1/2-z
loop_
_atom_site_type_symbol
_atom_site_label
_atom_site_fract_x
_atom_site_fract_y
_atom_site_fract_z
Si Si1 0.951015 0.223713 0.206684
Si Si2 0.373543 0.838161 0.355462
Si Si3 0.905496 0.794509 0.114067
Si Si4 0.302673 0.312097 0.800785
Si Si5 0.455017 0.466442 0.314621
Si Si6 0.657115 0.500000 0.500000
Si Si7 0.646584 0.894557 0.782333
Si Si8 0.772582 0.631017 0.076736
O O1 0.922808 0.305395 0.326557
O O2 0.000000 0.248289 0.250000
O O3 0.938658 0.084207 0.223754
O O4 0.940656 0.244133 0.018022
O O5 0.346763 0.739295 0.262571
O O6 0.360627 0.837658 0.542082
O O7 0.364643 0.966223 0.276300
O O8 0.925365 0.853746 0.275068
O O9 0.884261 0.669219 0.156894
O O10 0.870266 0.886817 0.054335
O O11 0.311890 0.447773 0.861762
O O12 0.270650 0.320933 0.652433
O O13 0.285458 0.226783 0.941955
O O14 0.456719 0.500000 0.500000
O O15 0.500000 0.426683 0.250000
O O16 0.694353 0.875376 0.724515
O O17 0.766617 0.500000 0.000000
#
# Coordination Sequence:
#
# PCOD8160320 Si02
#       8
#     8   8   8   8   8   4   8   8
#     4  11  22  40  66  98 138 179 231 289 344 402
#     4  11  23  47  67  99 132 185 227 283 343 405
#     4  12  22  42  66  99 134 180 229 275 346 409
#     4  12  26  43  71  96 138 172 225 287 334 417
#     4  11  21  36  61  95 135 177 224 286 347 400
#     4  12  24  40  66  98 130 170 224 268 342 408
#     4  11  25  43  72  95 135 181 232 272 344 418
#     4  12  26  45  69 103 132 180 228 276 353 400
#
# _framework density 20.562493
#
# number of rings (size 3 to 8) (size 9 to 14) (size 15 to 20)
#    0.000    0.533    5.333    3.200    1.867    2.133 
#    0.000    4.000    0.000    0.000    0.000    0.000 
#    0.000    0.000    0.000    0.000    0.000    0.000 
#
# Total GULP energy -372028.715798 kJ/mol
# GULP energy per Si atom -12400.957193 kJ/mol
# Density = 2.051569 g / cm^3
# Si number density = 20.562493 Si / 1000 Ang^3
#
#
#
# Elastic Constant Matrix: (Units=GPa)
#
#
# Indices 1 2 3 4 5 6 
#
# 1 113.0957 42.7809 54.4403 0.0000 0.0000 0.0000
# 2 42.7809 82.0816 39.9823 0.0000 0.0000 0.0000
# 3 54.4403 39.9823 107.2857 0.0000 0.0000 0.0000
# 4 0.0000 0.0000 0.0000 47.0367 0.0000 0.0000
# 5 0.0000 0.0000 0.0000 0.0000 28.7324 0.0000
# 6 0.0000 0.0000 0.0000 0.0000 0.0000 30.1852
#
#
#
# Elastic Compliance Matrix: (Units=1/GPa)
#
#
# Indices 1 2 3 4 5 6 
#
# 1 0.012830 -0.004296 -0.004910 0.000000 0.000000 0.000000
# 2 -0.004296 0.016323 -0.003903 0.000000 0.000000 0.000000
# 3 -0.004910 -0.003903 0.013267 0.000000 0.000000 0.000000
# 4 0.000000 0.000000 0.000000 0.021260 0.000000 0.000000
# 5 0.000000 0.000000 0.000000 0.000000 0.034804 0.000000
# 6 0.000000 0.000000 0.000000 0.000000 0.000000 0.033129
#
#
# Mechanical properties :
#
#
# Convention : Reuss Voigt Hill
#
# Bulk Modulus (GPa) = 61.71697 64.09667 62.90682
# Shear Modulus (GPa) = 30.63127 32.20816 31.41972
#
# Velocity S-wave (km/s) = 3.86381 3.96201 3.91322
# Velocity P-wave (km/s) = 7.07000 7.22284 7.14683
#
# Compressibility (1/GPa) = 0.01620300
#
# Stress axis : x y z
#
# Youngs Moduli (GPa) = 77.94023 61.26218 75.37535
#
# Poissons Ratio (x) = 0.26316 0.37007
# Poissons Ratio (y) = 0.33480 0.29422
# Poissons Ratio (z) = 0.38266 0.23913
#
# Static dielectric constant tensor:
#      x y z
#    x 3.818180 0.000000 0.000000 
#    y 0.000000 3.954380 0.000000 
#    z 0.000000 0.000000 3.970640 
# 
# 
# High freq. dielectric constant tensor:
#      x y z
#    x 1.810060 0.000000 0.000000 
#    y 0.000000 1.804880 0.000000 
#    z 0.000000 0.000000 1.816430 
# 
# From -- ./inp_files/11572.got.cif
#   From: 2010.03.12/outbox.cif.g09.slc.cpg/sg20_6_cif.got.tgz:11572.got - 2010.04.14 01:38:04.
