data_PCOD8160900
_publ_section_title
;
Structure prediction by ZEFSAII (Michael W. Deem and Ramdas Pophale) SiO2 
 PCOD8160900
Probable space group: C 2 2 2
;
_chemical_formula_sum "Si O2"
_cell_formula_units_Z 64
_cell_length_a 15.881545
_cell_length_b 19.162275
_cell_length_c 11.270608
_cell_angle_alpha 90.000000
_cell_angle_beta 90.000000
_cell_angle_gamma 90.000000
_cell_volume 3429.945054
_symmetry_space_group_name_H-M "C 2 2 2"
_symmetry_group_IT_number 21
_symmetry_cell_setting 'orthorhombic'
loop_
_space_group_symop_operation_xyz
x,y,z
-x,-y,z
x,-y,-z
-x,y,-z
1/2+x,1/2+y,z
1/2-x,1/2-y,z
1/2+x,1/2-y,-z
1/2-x,1/2+y,-z
loop_
_atom_site_type_symbol
_atom_site_label
_atom_site_fract_x
_atom_site_fract_y
_atom_site_fract_z
Si Si1 0.249434 0.897955 0.930547
Si Si2 0.242210 0.672223 0.582910
Si Si3 0.618652 0.181010 0.792280
Si Si4 0.022997 0.080260 0.630652
Si Si5 0.386591 0.658325 0.767796
Si Si6 0.209161 0.937821 0.407691
Si Si7 0.206189 0.545627 0.162902
Si Si8 0.519873 0.076392 0.137997
O O1 0.313421 0.835457 0.896156
O O2 0.157065 0.884961 0.875059
O O3 0.298892 0.966266 0.882590
O O4 0.236075 0.908349 0.072300
O O5 0.250000 0.750000 0.532371
O O6 0.160199 0.665082 0.664978
O O7 0.325539 0.652322 0.655464
O O8 0.235195 0.621104 0.471535
O O9 0.596670 0.262351 0.806921
O O10 0.533303 0.136331 0.796493
O O11 0.122366 0.092166 0.644581
O O12 0.000000 0.107795 0.500000
O O13 0.975271 0.124007 0.732283
O O14 0.000000 0.000000 0.648048
O O15 0.261315 0.962740 0.295541
O O16 0.190205 0.000000 0.500000
O O17 0.118263 0.587093 0.161696
O O18 0.500000 0.000000 0.190212
O O19 0.500000 0.080802 0.000000
#
# Coordination Sequence:
#
# PCOD8160900 Si02
#       8
#     8   8   8   8   8   8   8   8
#     4  10  18  38  60  89 118 155 202 253 300 368
#     4   9  19  36  56  81 111 154 195 238 292 361
#     4  10  19  36  62  85 115 160 206 246 301 367
#     4  11  19  36  60  91 110 154 207 252 296 361
#     4  10  20  36  63  88 114 156 211 251 297 371
#     4  12  22  37  60  87 120 154 197 250 303 364
#     4  11  22  35  62  93 120 155 202 254 309 356
#     4  11  19  37  61  88 117 154 204 248 292 361
#
# _framework density 18.659192000000001
#
# number of rings (size 3 to 8) (size 9 to 14) (size 15 to 20)
#    0.000    1.500    5.000    4.125    0.000    0.000 
#    2.250    3.750    0.000    2.250    0.000    0.000 
#    0.000    0.000    0.000    0.000    0.000    0.000 
#
# Total GULP energy -396747.302709 kJ/mol
# GULP energy per Si atom -12398.353210 kJ/mol
# Density = 1.861672 g / cm^3
# Si number density = 18.659192 Si / 1000 Ang^3
#
#
#
# Elastic Constant Matrix: (Units=GPa)
#
#
# Indices 1 2 3 4 5 6 
#
# 1 106.5632 39.6904 41.1491 0.0000 0.0000 0.0000
# 2 39.6904 101.9116 43.8243 0.0000 0.0000 0.0000
# 3 41.1491 43.8243 87.1206 0.0000 0.0000 0.0000
# 4 0.0000 0.0000 0.0000 19.3271 0.0000 0.0000
# 5 0.0000 0.0000 0.0000 0.0000 24.3614 0.0000
# 6 0.0000 0.0000 0.0000 0.0000 0.0000 30.6504
#
#
#
# Elastic Compliance Matrix: (Units=1/GPa)
#
#
# Indices 1 2 3 4 5 6 
#
# 1 0.012105 -0.002878 -0.004270 0.000000 0.000000 0.000000
# 2 -0.002878 0.013205 -0.005283 0.000000 0.000000 0.000000
# 3 -0.004270 -0.005283 0.016153 0.000000 0.000000 0.000000
# 4 0.000000 0.000000 0.000000 0.051741 0.000000 0.000000
# 5 0.000000 0.000000 0.000000 0.000000 0.041049 0.000000
# 6 0.000000 0.000000 0.000000 0.000000 0.000000 0.032626
#
#
# Mechanical properties :
#
#
# Convention : Reuss Voigt Hill
#
# Bulk Modulus (GPa) = 60.23866 60.54700 60.39283
# Shear Modulus (GPa) = 25.34550 26.26321 25.80435
#
# Velocity S-wave (km/s) = 3.68956 3.75576 3.72281
# Velocity P-wave (km/s) = 7.10663 7.16429 7.13552
#
# Compressibility (1/GPa) = 0.01660063
#
# Stress axis : x y z
#
# Youngs Moduli (GPa) = 82.61164 75.72721 61.90990
#
# Poissons Ratio (x) = 0.21797 0.26432
# Poissons Ratio (y) = 0.23779 0.32708
# Poissons Ratio (z) = 0.35271 0.40008
#
# Static dielectric constant tensor:
#      x y z
#    x 3.460250 0.000000 0.000000 
#    y 0.000000 3.475260 0.000000 
#    z 0.000000 0.000000 3.321880 
# 
# 
# High freq. dielectric constant tensor:
#      x y z
#    x 1.714860 0.000000 0.000000 
#    y 0.000000 1.722010 0.000000 
#    z 0.000000 0.000000 1.705110 
# 
# From -- ./inp_files/25507.got.cif
#   From: 2010.03.12/outbox.cif.g09.slc.cpg/sg21_13_cif.got.tgz:25507.got - 2010.04.14 01:59:26.
