data_PCOD8160038
_publ_section_title
;
Structure prediction by ZEFSAII (Michael W. Deem and Ramdas Pophale) SiO2 
 PCOD8160038
Probable space group: C 2 2 21
;
_chemical_formula_sum "Si O2"
_cell_formula_units_Z 32
_cell_length_a 16.956458
_cell_length_b 6.468757
_cell_length_c 12.393586
_cell_angle_alpha 90.000000
_cell_angle_beta 90.000000
_cell_angle_gamma 90.000000
_cell_volume 1359.417825
_symmetry_space_group_name_H-M "C 2 2 21"
_symmetry_group_IT_number 20
_symmetry_cell_setting 'orthorhombic'
loop_
_space_group_symop_operation_xyz
x,y,z
-x,-y,1/2+z
x,-y,-z
-x,y,1/2-z
1/2+x,1/2+y,z
1/2-x,1/2-y,1/2+z
1/2+x,1/2-y,-z
1/2-x,1/2+y,1/2-z
loop_
_atom_site_type_symbol
_atom_site_label
_atom_site_fract_x
_atom_site_fract_y
_atom_site_fract_z
Si Si1 0.900174 0.731977 0.315383
Si Si2 0.444520 0.465288 0.123204
Si Si3 0.628500 0.191249 0.760412
Si Si4 0.235159 0.021068 0.878731
O O1 0.920738 0.486999 0.325627
O O2 0.817286 0.770424 0.373710
O O3 0.891892 0.797048 0.187560
O O4 0.965614 0.883059 0.369783
O O5 0.432009 0.683905 0.184511
O O6 0.417807 0.500000 0.000000
O O7 0.688169 0.047799 0.693132
O O8 0.678587 0.334431 0.840442
O O9 0.264795 0.000000 0.000000
#
# Coordination Sequence:
#
# PCOD8160038 Si02
#       4
#     8   8   8   8
#     4  10  23  45  64 100 140 176 231 282 340 414
#     4  10  24  43  70  99 136 180 230 283 347 409
#     4  11  24  44  69 103 140 175 231 294 331 420
#     4  11  24  42  71 102 136 184 228 283 352 404
#
# _framework density 23.539487000000001
#
# number of rings (size 3 to 8) (size 9 to 14) (size 15 to 20)
#    0.000    1.500    2.500    0.750    3.500    9.000 
#    0.000    7.500    0.000    0.000    0.000    0.000 
#    0.000    0.000    0.000    0.000    0.000    0.000 
#
# Total GULP energy -198233.374755 kJ/mol
# GULP energy per Si atom -12389.585922 kJ/mol
# Density = 2.348591 g / cm^3
# Si number density = 23.539487 Si / 1000 Ang^3
#
#
#
# Elastic Constant Matrix: (Units=GPa)
#
#
# Indices 1 2 3 4 5 6 
#
# 1 61.9502 24.9245 -7.5581 0.0000 0.0000 0.0000
# 2 24.9245 161.3402 15.6778 0.0000 0.0000 0.0000
# 3 -7.5581 15.6778 99.0578 0.0000 0.0000 0.0000
# 4 0.0000 0.0000 0.0000 17.7782 0.0000 0.0000
# 5 0.0000 0.0000 0.0000 0.0000 17.9315 0.0000
# 6 0.0000 0.0000 0.0000 0.0000 0.0000 34.4658
#
#
#
# Elastic Compliance Matrix: (Units=1/GPa)
#
#
# Indices 1 2 3 4 5 6 
#
# 1 0.017520 -0.002881 0.001793 0.000000 0.000000 0.000000
# 2 -0.002881 0.006769 -0.001291 0.000000 0.000000 0.000000
# 3 0.001793 -0.001291 0.010436 0.000000 0.000000 0.000000
# 4 0.000000 0.000000 0.000000 0.056249 0.000000 0.000000
# 5 0.000000 0.000000 0.000000 0.000000 0.055768 0.000000
# 6 0.000000 0.000000 0.000000 0.000000 0.000000 0.029014
#
#
# Mechanical properties :
#
#
# Convention : Reuss Voigt Hill
#
# Bulk Modulus (GPa) = 33.37078 43.15962 38.26520
# Shear Modulus (GPa) = 26.24639 33.32203 29.78421
#
# Velocity S-wave (km/s) = 3.34278 3.76650 3.56095
# Velocity P-wave (km/s) = 5.39501 6.10657 5.76178
#
# Compressibility (1/GPa) = 0.02996634
#
# Stress axis : x y z
#
# Youngs Moduli (GPa) = 57.07855 147.74187 95.82004
#
# Poissons Ratio (x) = 0.42560 -0.17178
# Poissons Ratio (y) = 0.16443 0.12371
# Poissons Ratio (z) = -0.10232 0.19074
#
# Static dielectric constant tensor:
#      x y z
#    x 4.095530 0.000000 0.000000 
#    y 0.000000 4.418260 0.000000 
#    z 0.000000 0.000000 4.041270 
# 
# 
# High freq. dielectric constant tensor:
#      x y z
#    x 1.930170 0.000000 0.000000 
#    y 0.000000 1.947810 0.000000 
#    z 0.000000 0.000000 1.905190 
# 
# From -- ./inp_files/11912.got.cif
#   From: 2010.03.12/outbox.cif.g09.slc.cpg/sg20_6_cif.got.tgz:11912.got - 2010.04.14 01:38:04.
