data_PCOD8160486
_publ_section_title
;
Structure prediction by ZEFSAII (Michael W. Deem and Ramdas Pophale) SiO2 
 PCOD8160486
Probable space group: C 2 2 21
;
_chemical_formula_sum "Si O2"
_cell_formula_units_Z 44
_cell_length_a 6.656261
_cell_length_b 13.187710
_cell_length_c 25.021217
_cell_angle_alpha 90.000000
_cell_angle_beta 90.000000
_cell_angle_gamma 90.000000
_cell_volume 2196.383440
_symmetry_space_group_name_H-M "C 2 2 21"
_symmetry_group_IT_number 20
_symmetry_cell_setting 'orthorhombic'
loop_
_space_group_symop_operation_xyz
x,y,z
-x,-y,1/2+z
x,-y,-z
-x,y,1/2-z
1/2+x,1/2+y,z
1/2-x,1/2-y,1/2+z
1/2+x,1/2-y,-z
1/2-x,1/2+y,1/2-z
loop_
_atom_site_type_symbol
_atom_site_label
_atom_site_fract_x
_atom_site_fract_y
_atom_site_fract_z
Si Si1 0.277528 0.889236 0.984998
Si Si2 0.655503 0.497633 0.702020
Si Si3 0.510363 0.356473 0.611783
Si Si4 0.500000 0.137123 0.250000
Si Si5 0.597598 0.246759 0.069506
Si Si6 0.803317 0.219174 0.835752
O O1 0.467985 0.821685 0.970353
O O2 0.123631 0.898361 0.936228
O O3 0.171769 0.843548 0.037011
O O4 0.357863 0.000000 0.000000
O O5 0.500000 0.507551 0.750000
O O6 0.537463 0.448558 0.652700
O O7 0.849404 0.431555 0.716083
O O8 0.738698 0.608164 0.687132
O O9 0.723731 0.322339 0.590308
O O10 0.404684 0.260668 0.640177
O O11 0.629394 0.206282 0.289013
O O12 0.472620 0.288241 0.119193
#
# Coordination Sequence:
#
# PCOD8160486 Si02
#       6
#     8   8   8   4   8   8
#     4  11  24  43  68  96 132 174 218 266 326 390
#     4  12  25  42  68  94 127 174 215 264 336 382
#     4  11  24  44  67  97 134 168 218 275 320 389
#     4  12  24  42  64  96 126 166 220 264 318 400
#     4  11  23  44  67  96 133 172 219 267 324 389
#     4  11  25  43  67  95 131 169 215 272 321 386
#
# _framework density 20.032931000000001
#
# number of rings (size 3 to 8) (size 9 to 14) (size 15 to 20)
#    0.000    0.727    6.364    1.091    0.000    5.091 
#    0.000    0.000    0.000    0.000    0.000    0.000 
#    0.000    0.000    0.000    0.000    0.000    0.000 
#
# Total GULP energy -272965.032934 kJ/mol
# GULP energy per Si atom -12407.501497 kJ/mol
# Density = 1.998734 g / cm^3
# Si number density = 20.032931 Si / 1000 Ang^3
#
#
#
# Elastic Constant Matrix: (Units=GPa)
#
#
# Indices 1 2 3 4 5 6 
#
# 1 71.5391 17.7011 10.1340 0.0000 0.0000 0.0000
# 2 17.7011 124.0749 33.5512 0.0000 0.0000 0.0000
# 3 10.1340 33.5512 81.1939 0.0000 0.0000 0.0000
# 4 0.0000 0.0000 0.0000 -0.7075 0.0000 0.0000
# 5 0.0000 0.0000 0.0000 0.0000 29.8491 0.0000
# 6 0.0000 0.0000 0.0000 0.0000 0.0000 49.7014
#
#
#
# Elastic Compliance Matrix: (Units=1/GPa)
#
#
# Indices 1 2 3 4 5 6 
#
# 1 0.014574 -0.001787 -0.001081 0.000000 0.000000 0.000000
# 2 -0.001787 0.009293 -0.003617 0.000000 0.000000 0.000000
# 3 -0.001081 -0.003617 0.013946 0.000000 0.000000 0.000000
# 4 0.000000 0.000000 0.000000 -1.413436 0.000000 0.000000
# 5 0.000000 0.000000 0.000000 0.000000 0.033502 0.000000
# 6 0.000000 0.000000 0.000000 0.000000 0.000000 0.020120
#
#
# Mechanical properties :
#
#
# Convention : Reuss Voigt Hill
#
# Bulk Modulus (GPa) = 40.25266 44.39782 42.32524
# Shear Modulus (GPa) = -3.84393 30.13005 13.14306
#
# Velocity S-wave (km/s) = -1.38671 3.88238 2.56417
# Velocity P-wave (km/s) = 4.19200 6.50444 5.47178
#
# Compressibility (1/GPa) = 0.02484308
#
# Stress axis : x y z
#
# Youngs Moduli (GPa) = 68.61734 107.61220 71.70696
#
# Poissons Ratio (x) = 0.19230 0.07748
# Poissons Ratio (y) = 0.12261 0.25936
# Poissons Ratio (z) = 0.07414 0.38922
#
# Static dielectric constant tensor:
#      x y z
#    x 3.728690 0.000000 0.000000 
#    y 0.000000 3.584270 0.000000 
#    z 0.000000 0.000000 3.687780 
# 
# 
# High freq. dielectric constant tensor:
#      x y z
#    x 1.788380 0.000000 0.000000 
#    y 0.000000 1.787170 0.000000 
#    z 0.000000 0.000000 1.803580 
# 
# From -- ./inp_files/29776.got.cif
#   From: 2010.03.12/outbox.cif.g09.slc.cpg/sg20_15_cif.got.tgz:29776.got - 2010.04.14 01:38:04.
