data_PCOD8160528
_publ_section_title
;
Structure prediction by ZEFSAII (Michael W. Deem and Ramdas Pophale) SiO2 
 PCOD8160528
Probable space group: C 2 2 21
;
_chemical_formula_sum "Si O2"
_cell_formula_units_Z 48
_cell_length_a 8.206042
_cell_length_b 29.190085
_cell_length_c 8.753235
_cell_angle_alpha 90.000000
_cell_angle_beta 90.000000
_cell_angle_gamma 90.000000
_cell_volume 2096.706701
_symmetry_space_group_name_H-M "C 2 2 21"
_symmetry_group_IT_number 20
_symmetry_cell_setting 'orthorhombic'
loop_
_space_group_symop_operation_xyz
x,y,z
-x,-y,1/2+z
x,-y,-z
-x,y,1/2-z
1/2+x,1/2+y,z
1/2-x,1/2-y,1/2+z
1/2+x,1/2-y,-z
1/2-x,1/2+y,1/2-z
loop_
_atom_site_type_symbol
_atom_site_label
_atom_site_fract_x
_atom_site_fract_y
_atom_site_fract_z
Si Si1 0.529033 0.873339 0.082149
Si Si2 0.252276 0.196035 0.459195
Si Si3 0.000000 0.146471 0.250000
Si Si4 0.000000 0.946894 0.250000
Si Si5 0.172961 0.117794 0.976806
Si Si6 0.328260 0.711804 0.700586
Si Si7 0.343301 0.968121 0.356284
O O1 0.500000 0.849925 0.250000
O O2 0.360214 0.898016 0.032972
O O3 0.660412 0.914225 0.098612
O O4 0.588210 0.837462 0.949145
O O5 0.093404 0.174883 0.381093
O O6 0.250665 0.246457 0.391020
O O7 0.256213 0.197681 0.642700
O O8 0.870916 0.116336 0.343581
O O9 0.954046 0.915029 0.393021
O O10 0.837902 0.977486 0.215360
O O11 0.161585 0.169192 0.912195
O O12 0.500000 0.731721 0.750000
O O13 0.500000 0.978493 0.250000
O O14 0.365734 0.000000 0.500000
#
# Coordination Sequence:
#
# PCOD8160528 Si02
#       7
#     8   8   4   4   8   8   8
#     4  11  23  48  77  99 138 195 241 298 372 441
#     4  12  27  43  65 100 139 192 249 304 370 430
#     4  12  26  42  63 100 140 184 258 302 357 430
#     4  12  22  50  81 108 148 196 246 288 381 434
#     4  12  23  45  73 102 142 195 242 300 359 430
#     4  12  25  40  64  94 141 187 245 306 360 427
#     4  11  25  50  79 113 147 189 239 301 374 453
#
# _framework density 22.893046999999999
#
# number of rings (size 3 to 8) (size 9 to 14) (size 15 to 20)
#    0.000    0.333    7.500    2.000    4.667    0.667 
#    7.500    0.833    0.000    0.000    0.000    0.000 
#    0.000    0.000    0.000    0.000    0.000    0.000 
#
# Total GULP energy -297355.190751 kJ/mol
# GULP energy per Si atom -12389.799615 kJ/mol
# Density = 2.284094 g / cm^3
# Si number density = 22.893047 Si / 1000 Ang^3
#
#
#
# Elastic Constant Matrix: (Units=GPa)
#
#
# Indices 1 2 3 4 5 6 
#
# 1 151.1378 18.7091 44.8648 0.0000 0.0000 0.0000
# 2 18.7091 57.5560 41.1442 0.0000 0.0000 0.0000
# 3 44.8648 41.1442 124.5638 0.0000 0.0000 0.0000
# 4 0.0000 0.0000 0.0000 32.6962 0.0000 0.0000
# 5 0.0000 0.0000 0.0000 0.0000 30.0042 0.0000
# 6 0.0000 0.0000 0.0000 0.0000 0.0000 17.8557
#
#
#
# Elastic Compliance Matrix: (Units=1/GPa)
#
#
# Indices 1 2 3 4 5 6 
#
# 1 0.007428 -0.000657 -0.002458 0.000000 0.000000 0.000000
# 2 -0.000657 0.022803 -0.007295 0.000000 0.000000 0.000000
# 3 -0.002458 -0.007295 0.011323 0.000000 0.000000 0.000000
# 4 0.000000 0.000000 0.000000 0.030585 0.000000 0.000000
# 5 0.000000 0.000000 0.000000 0.000000 0.033329 0.000000
# 6 0.000000 0.000000 0.000000 0.000000 0.000000 0.056005
#
#
# Mechanical properties :
#
#
# Convention : Reuss Voigt Hill
#
# Bulk Modulus (GPa) = 48.23360 60.29931 54.26645
# Shear Modulus (GPa) = 26.42657 31.34718 28.88688
#
# Velocity S-wave (km/s) = 3.40126 3.70440 3.55606
# Velocity P-wave (km/s) = 6.04480 6.68532 6.37311
#
# Compressibility (1/GPa) = 0.02073244
#
# Stress axis : x y z
#
# Youngs Moduli (GPa) = 134.63436 43.85373 88.31533
#
# Poissons Ratio (x) = 0.02882 0.21709
# Poissons Ratio (y) = 0.08848 0.64429
# Poissons Ratio (z) = 0.33095 0.31993
#
# Static dielectric constant tensor:
#      x y z
#    x 4.424030 0.000000 0.000000 
#    y 0.000000 3.729730 0.000000 
#    z 0.000000 0.000000 4.058230 
# 
# 
# High freq. dielectric constant tensor:
#      x y z
#    x 1.926310 0.000000 0.000000 
#    y 0.000000 1.876240 0.000000 
#    z 0.000000 0.000000 1.901080 
# 
# From -- ./inp_files/6579.got.cif
#   From: 2010.03.12/outbox.cif.g09.slc.cpg/sg20_4_cif.got.tgz:6579.got - 2010.04.14 01:38:04.
