data_PCOD8160584
_publ_section_title
;
Structure prediction by ZEFSAII (Michael W. Deem and Ramdas Pophale) SiO2 
 PCOD8160584
Probable space group: C 2 2 21
;
_chemical_formula_sum "Si O2"
_cell_formula_units_Z 40
_cell_length_a 5.258161
_cell_length_b 17.227282
_cell_length_c 18.669752
_cell_angle_alpha 90.000000
_cell_angle_beta 90.000000
_cell_angle_gamma 90.000000
_cell_volume 1691.177498
_symmetry_space_group_name_H-M "C 2 2 21"
_symmetry_group_IT_number 20
_symmetry_cell_setting 'orthorhombic'
loop_
_space_group_symop_operation_xyz
x,y,z
-x,-y,1/2+z
x,-y,-z
-x,y,1/2-z
1/2+x,1/2+y,z
1/2-x,1/2-y,1/2+z
1/2+x,1/2-y,-z
1/2-x,1/2+y,1/2-z
loop_
_atom_site_type_symbol
_atom_site_label
_atom_site_fract_x
_atom_site_fract_y
_atom_site_fract_z
Si Si1 0.407519 0.906022 0.828029
Si Si2 0.578652 0.267869 0.832201
Si Si3 0.890864 0.386279 0.413429
Si Si4 0.304477 0.621888 0.061699
Si Si5 0.597835 0.515713 0.908437
O O1 0.500000 0.926317 0.750000
O O2 0.610227 0.927898 0.889496
O O3 0.344448 0.814132 0.837609
O O4 0.162501 0.961268 0.839360
O O5 0.500000 0.278136 0.750000
O O6 0.587770 0.177826 0.851604
O O7 0.391492 0.306166 0.890414
O O8 0.826914 0.345879 0.489858
O O9 0.647577 0.434909 0.387724
O O10 0.150956 0.433940 0.425626
O O11 0.518260 0.556442 0.035553
#
# Coordination Sequence:
#
# PCOD8160584 Si02
#       5
#     8   8   8   8   8
#     4  11  24  48  77 103 147 204 255 292 365 456
#     4  11  27  49  73 110 153 198 249 309 372 447
#     4  12  29  46  78 112 152 189 247 321 377 425
#     4  11  26  47  78 103 146 200 252 297 363 455
#     4  11  27  48  74 110 148 189 245 311 374 437
#
# _framework density 23.652159999999999
#
# number of rings (size 3 to 8) (size 9 to 14) (size 15 to 20)
#    0.000    0.800    4.000    0.600   14.000    0.800 
#    3.600    0.000    0.000    0.000    0.000    0.000 
#    0.000    0.000    0.000    0.000    0.000    0.000 
#
# Total GULP energy -247773.823710 kJ/mol
# GULP energy per Si atom -12388.691185 kJ/mol
# Density = 2.359833 g / cm^3
# Si number density = 23.652160 Si / 1000 Ang^3
#
#
#
# Elastic Constant Matrix: (Units=GPa)
#
#
# Indices 1 2 3 4 5 6 
#
# 1 133.5962 52.1737 19.3929 0.0000 0.0000 0.0000
# 2 52.1737 123.8608 27.6058 0.0000 0.0000 0.0000
# 3 19.3929 27.6058 75.9959 0.0000 0.0000 0.0000
# 4 0.0000 0.0000 0.0000 21.6753 0.0000 0.0000
# 5 0.0000 0.0000 0.0000 0.0000 38.3617 0.0000
# 6 0.0000 0.0000 0.0000 0.0000 0.0000 34.9473
#
#
#
# Elastic Compliance Matrix: (Units=1/GPa)
#
#
# Indices 1 2 3 4 5 6 
#
# 1 0.009029 -0.003579 -0.001004 0.000000 0.000000 0.000000
# 2 -0.003579 0.010204 -0.002793 0.000000 0.000000 0.000000
# 3 -0.001004 -0.002793 0.014429 0.000000 0.000000 0.000000
# 4 0.000000 0.000000 0.000000 0.046135 0.000000 0.000000
# 5 0.000000 0.000000 0.000000 0.000000 0.026068 0.000000
# 6 0.000000 0.000000 0.000000 0.000000 0.000000 0.028615
#
#
# Mechanical properties :
#
#
# Convention : Reuss Voigt Hill
#
# Bulk Modulus (GPa) = 52.88408 59.08864 55.98636
# Shear Modulus (GPa) = 32.14696 34.61555 33.38126
#
# Velocity S-wave (km/s) = 3.69067 3.82976 3.76086
# Velocity P-wave (km/s) = 6.36938 6.67777 6.52540
#
# Compressibility (1/GPa) = 0.01890928
#
# Stress axis : x y z
#
# Youngs Moduli (GPa) = 110.75593 98.00175 69.30303
#
# Poissons Ratio (x) = 0.35080 0.06956
# Poissons Ratio (y) = 0.39645 0.19358
# Poissons Ratio (z) = 0.11117 0.27374
#
# Static dielectric constant tensor:
#      x y z
#    x 4.536170 0.000000 0.000000 
#    y 0.000000 4.136480 0.000000 
#    z 0.000000 0.000000 4.204500 
# 
# 
# High freq. dielectric constant tensor:
#      x y z
#    x 1.950000 0.000000 0.000000 
#    y 0.000000 1.935020 0.000000 
#    z 0.000000 0.000000 1.939230 
# 
# From -- ./inp_files/22624.got.cif
#   From: 2010.03.12/outbox.cif.g09.slc.cpg/sg20_12_cif.got.tgz:22624.got - 2010.04.14 01:38:04.
