data_PCOD8160058
_publ_section_title
;
Structure prediction by ZEFSAII (Michael W. Deem and Ramdas Pophale) SiO2 
 PCOD8160058
Probable space group: C 2 2 21
;
_chemical_formula_sum "Si O2"
_cell_formula_units_Z 32
_cell_length_a 7.697503
_cell_length_b 13.759094
_cell_length_c 12.091923
_cell_angle_alpha 90.000000
_cell_angle_beta 90.000000
_cell_angle_gamma 90.000000
_cell_volume 1280.663634
_symmetry_space_group_name_H-M "C 2 2 21"
_symmetry_group_IT_number 20
_symmetry_cell_setting 'orthorhombic'
loop_
_space_group_symop_operation_xyz
x,y,z
-x,-y,1/2+z
x,-y,-z
-x,y,1/2-z
1/2+x,1/2+y,z
1/2-x,1/2-y,1/2+z
1/2+x,1/2-y,-z
1/2-x,1/2+y,1/2-z
loop_
_atom_site_type_symbol
_atom_site_label
_atom_site_fract_x
_atom_site_fract_y
_atom_site_fract_z
Si Si1 0.519412 0.387266 0.524095
Si Si2 0.000000 0.804484 0.750000
Si Si3 0.661629 0.147112 0.879927
Si Si4 0.135257 0.390745 0.539149
Si Si5 0.500000 0.026236 0.250000
O O1 0.520918 0.500000 0.500000
O O2 0.578040 0.370342 0.651263
O O3 0.650894 0.339644 0.436694
O O4 0.323717 0.343938 0.511945
O O5 0.154603 0.733125 0.790842
O O6 0.633242 0.042407 0.820470
O O7 0.511445 0.168404 0.972060
O O8 0.129288 0.500000 0.500000
O O9 0.104811 0.399675 0.670890
#
# Coordination Sequence:
#
# PCOD8160058 Si02
#       5
#     8   4   8   8   4
#     4  11  25  45  72 103 140 181 245 286 339 433
#     4  11  28  46  68 105 142 182 236 289 366 412
#     4  10  23  46  66  98 148 183 228 296 351 417
#     4   9  20  39  68 104 136 179 237 283 341 420
#     4   9  18  40  74 101 138 190 232 293 356 400
#
# _framework density 24.987044999999998
#
# number of rings (size 3 to 8) (size 9 to 14) (size 15 to 20)
#    0.000    2.000    0.000    2.250   10.500    0.000 
#    0.000    2.500    0.000    0.000    0.000    0.000 
#    0.000    0.000    0.000    0.000    0.000    0.000 
#
# Total GULP energy -198353.035577 kJ/mol
# GULP energy per Si atom -12397.064724 kJ/mol
# Density = 2.493017 g / cm^3
# Si number density = 24.987045 Si / 1000 Ang^3
#
#
#
# Elastic Constant Matrix: (Units=GPa)
#
#
# Indices 1 2 3 4 5 6 
#
# 1 174.9011 38.0911 72.9507 0.0000 0.0000 0.0000
# 2 38.0911 61.3351 43.3330 0.0000 0.0000 0.0000
# 3 72.9507 43.3330 162.1839 0.0000 0.0000 0.0000
# 4 0.0000 0.0000 0.0000 55.3890 0.0000 0.0000
# 5 0.0000 0.0000 0.0000 0.0000 52.0443 0.0000
# 6 0.0000 0.0000 0.0000 0.0000 0.0000 28.3784
#
#
#
# Elastic Compliance Matrix: (Units=1/GPa)
#
#
# Indices 1 2 3 4 5 6 
#
# 1 0.007400 -0.002766 -0.002589 0.000000 0.000000 0.000000
# 2 -0.002766 0.021132 -0.004402 0.000000 0.000000 0.000000
# 3 -0.002589 -0.004402 0.008507 0.000000 0.000000 0.000000
# 4 0.000000 0.000000 0.000000 0.018054 0.000000 0.000000
# 5 0.000000 0.000000 0.000000 0.000000 0.019214 0.000000
# 6 0.000000 0.000000 0.000000 0.000000 0.000000 0.035238
#
#
# Mechanical properties :
#
#
# Convention : Reuss Voigt Hill
#
# Bulk Modulus (GPa) = 57.06653 78.57440 67.82047
# Shear Modulus (GPa) = 37.06423 43.43202 40.24813
#
# Velocity S-wave (km/s) = 3.85559 4.17367 4.01778
# Velocity P-wave (km/s) = 6.53520 7.39867 6.98030
#
# Compressibility (1/GPa) = 0.01752341
#
# Stress axis : x y z
#
# Youngs Moduli (GPa) = 135.13484 47.32238 117.55472
#
# Poissons Ratio (x) = 0.13090 0.30440
# Poissons Ratio (y) = 0.37381 0.51745
# Poissons Ratio (z) = 0.34993 0.20830
#
# Static dielectric constant tensor:
#      x y z
#    x 4.837560 0.000000 0.000000 
#    y 0.000000 4.498300 0.000000 
#    z 0.000000 0.000000 5.979760 
# 
# 
# High freq. dielectric constant tensor:
#      x y z
#    x 1.978380 0.000000 0.000000 
#    y 0.000000 2.008460 0.000000 
#    z 0.000000 0.000000 2.002290 
# 
# From -- ./inp_files/12531.got.cif
#   From: 2010.03.12/outbox.cif.g09.slc.cpg/sg20_7_cif.got.tgz:12531.got - 2010.04.14 01:38:04.
