data_PCOD8160777
_publ_section_title
;
Structure prediction by ZEFSAII (Michael W. Deem and Ramdas Pophale) SiO2 
 PCOD8160777
Probable space group: C 2 2 2
;
_chemical_formula_sum "Si O2"
_cell_formula_units_Z 40
_cell_length_a 14.920783
_cell_length_b 18.054639
_cell_length_c 8.993905
_cell_angle_alpha 90.000000
_cell_angle_beta 90.000000
_cell_angle_gamma 90.000000
_cell_volume 2422.862228
_symmetry_space_group_name_H-M "C 2 2 2"
_symmetry_group_IT_number 21
_symmetry_cell_setting 'orthorhombic'
loop_
_space_group_symop_operation_xyz
x,y,z
-x,-y,z
x,-y,-z
-x,y,-z
1/2+x,1/2+y,z
1/2-x,1/2-y,z
1/2+x,1/2-y,-z
1/2-x,1/2+y,-z
loop_
_atom_site_type_symbol
_atom_site_label
_atom_site_fract_x
_atom_site_fract_y
_atom_site_fract_z
Si Si1 0.239158 0.078922 0.465306
Si Si2 0.490987 0.714723 0.825860
Si Si3 0.451187 0.574217 0.652729
Si Si4 0.162576 0.287484 0.334973
Si Si5 0.332537 0.706578 0.358427
O O1 0.153128 0.056914 0.367276
O O2 0.313451 0.127715 0.377166
O O3 0.200577 0.122137 0.611282
O O4 0.286564 0.000000 0.500000
O O5 0.452625 0.634985 0.781740
O O6 0.424619 0.780675 0.769878
O O7 0.588594 0.718866 0.755720
O O8 0.500000 0.723126 0.000000
O O9 0.500000 0.500000 0.708383
O O10 0.500000 0.602933 0.500000
O O11 0.250000 0.250000 0.257549
O O12 0.140121 0.239955 0.481855
O O13 0.250000 0.750000 0.285846
#
# Coordination Sequence:
#
# PCOD8160777 Si02
#       5
#     8   8   8   8   8
#     4  10  16  29  56  81  99 128 173 226 274 305
#     4  12  21  31  48  75 112 146 174 211 260 332
#     4  11  17  29  53  76 107 136 169 216 274 326
#     4   9  18  32  53  73 103 135 176 221 259 311
#     4   9  18  33  52  73  98 130 175 225 258 303
#
# _framework density 16.509398999999998
#
# number of rings (size 3 to 8) (size 9 to 14) (size 15 to 20)
#    0.000    2.200    8.000    0.600    0.000    1.200 
#    0.000    0.000    0.000    9.600    0.000    5.600 
#    0.000    0.000    0.000    0.000    0.000    0.000 
#
# Total GULP energy -247813.824243 kJ/mol
# GULP energy per Si atom -12390.691212 kJ/mol
# Density = 1.647182 g / cm^3
# Si number density = 16.509399 Si / 1000 Ang^3
#
#
#
# Elastic Constant Matrix: (Units=GPa)
#
#
# Indices 1 2 3 4 5 6 
#
# 1 87.0757 52.6749 45.8953 0.0000 0.0000 0.0000
# 2 52.6749 130.5065 33.8952 0.0000 0.0000 0.0000
# 3 45.8953 33.8952 77.9822 0.0000 0.0000 0.0000
# 4 0.0000 0.0000 0.0000 14.7894 0.0000 0.0000
# 5 0.0000 0.0000 0.0000 0.0000 11.2641 0.0000
# 6 0.0000 0.0000 0.0000 0.0000 0.0000 25.3081
#
#
#
# Elastic Compliance Matrix: (Units=1/GPa)
#
#
# Indices 1 2 3 4 5 6 
#
# 1 0.019680 -0.005563 -0.009164 0.000000 0.000000 0.000000
# 2 -0.005563 0.010210 -0.001164 0.000000 0.000000 0.000000
# 3 -0.009164 -0.001164 0.018723 0.000000 0.000000 0.000000
# 4 0.000000 0.000000 0.000000 0.067616 0.000000 0.000000
# 5 0.000000 0.000000 0.000000 0.000000 0.088777 0.000000
# 6 0.000000 0.000000 0.000000 0.000000 0.000000 0.039513
#
#
# Mechanical properties :
#
#
# Convention : Reuss Voigt Hill
#
# Bulk Modulus (GPa) = 59.41606 62.27724 60.84665
# Shear Modulus (GPa) = 17.73608 21.14559 19.44083
#
# Velocity S-wave (km/s) = 3.28121 3.58274 3.43528
# Velocity P-wave (km/s) = 7.10088 7.41073 7.25746
#
# Compressibility (1/GPa) = 0.01683047
#
# Stress axis : x y z
#
# Youngs Moduli (GPa) = 50.81376 97.94282 53.41090
#
# Poissons Ratio (x) = 0.54485 0.48947
# Poissons Ratio (y) = 0.28268 0.06216
# Poissons Ratio (z) = 0.46567 0.11399
#
# Static dielectric constant tensor:
#      x y z
#    x 3.206050 0.000000 0.000000 
#    y 0.000000 3.292920 0.000000 
#    z 0.000000 0.000000 2.707990 
# 
# 
# High freq. dielectric constant tensor:
#      x y z
#    x 1.638080 0.000000 0.000000 
#    y 0.000000 1.632950 0.000000 
#    z 0.000000 0.000000 1.586030 
# 
# From -- ./inp_files/14753.got.cif
#   From: 2010.03.12/outbox.cif.g09.slc.cpg/sg21_8_cif.got.tgz:14753.got - 2010.04.14 01:59:26.
