data_PCOD8160033
_publ_section_title
;
Structure prediction by ZEFSAII (Michael W. Deem and Ramdas Pophale) SiO2 
 PCOD8160033
Probable space group: C 2 2 21
;
_chemical_formula_sum "Si O2"
_cell_formula_units_Z 40
_cell_length_a 8.155903
_cell_length_b 22.817947
_cell_length_c 8.947263
_cell_angle_alpha 90.000000
_cell_angle_beta 90.000000
_cell_angle_gamma 90.000000
_cell_volume 1665.094255
_symmetry_space_group_name_H-M "C 2 2 21"
_symmetry_group_IT_number 20
_symmetry_cell_setting 'orthorhombic'
loop_
_space_group_symop_operation_xyz
x,y,z
-x,-y,1/2+z
x,-y,-z
-x,y,1/2-z
1/2+x,1/2+y,z
1/2-x,1/2-y,1/2+z
1/2+x,1/2-y,-z
1/2-x,1/2+y,1/2-z
loop_
_atom_site_type_symbol
_atom_site_label
_atom_site_fract_x
_atom_site_fract_y
_atom_site_fract_z
Si Si1 0.571517 0.273461 0.583611
Si Si2 0.846706 0.456385 0.140244
Si Si3 0.816935 0.640506 0.308547
Si Si4 0.358224 0.529838 0.152417
Si Si5 0.232801 0.835881 0.004895
O O1 0.500000 0.264461 0.750000
O O2 0.744422 0.309537 0.582549
O O3 0.617436 0.210026 0.518182
O O4 0.444799 0.304840 0.466531
O O5 0.698237 0.479600 0.236778
O O6 0.783642 0.391679 0.100949
O O7 0.000000 0.451786 0.250000
O O8 0.885308 0.500000 0.000000
O O9 0.787294 0.576740 0.384679
O O10 0.000000 0.649823 0.250000
O O11 0.706168 0.641294 0.161823
O O12 0.500000 0.561858 0.250000
O O13 0.422043 0.500000 0.000000
#
# Coordination Sequence:
#
# PCOD8160033 Si02
#       5
#     8   8   8   8   8
#     4  10  23  44  71 110 145 203 250 319 385 453
#     4  12  26  46  75 114 155 203 261 325 389 461
#     4  11  24  44  74 101 149 198 252 315 384 453
#     4  12  27  46  73 108 153 202 254 317 392 469
#     4  11  23  45  74 102 156 192 261 317 382 468
#
# _framework density 24.022665
#
# number of rings (size 3 to 8) (size 9 to 14) (size 15 to 20)
#    0.000    0.800    2.000    5.400    5.600    0.000 
#    7.200    1.000    0.000    0.000    0.000    0.000 
#    0.000    0.000    0.000    0.000    0.000    0.000 
#
# Total GULP energy -247770.935686 kJ/mol
# GULP energy per Si atom -12388.546784 kJ/mol
# Density = 2.396799 g / cm^3
# Si number density = 24.022665 Si / 1000 Ang^3
#
#
#
# Elastic Constant Matrix: (Units=GPa)
#
#
# Indices 1 2 3 4 5 6 
#
# 1 132.3457 56.8379 24.7361 0.0000 0.0000 0.0000
# 2 56.8379 170.6561 43.3751 0.0000 0.0000 0.0000
# 3 24.7361 43.3751 95.9809 0.0000 0.0000 0.0000
# 4 0.0000 0.0000 0.0000 24.5327 0.0000 0.0000
# 5 0.0000 0.0000 0.0000 0.0000 40.8216 0.0000
# 6 0.0000 0.0000 0.0000 0.0000 0.0000 38.8350
#
#
#
# Elastic Compliance Matrix: (Units=1/GPa)
#
#
# Indices 1 2 3 4 5 6 
#
# 1 0.008915 -0.002695 -0.001080 0.000000 0.000000 0.000000
# 2 -0.002695 0.007435 -0.002665 0.000000 0.000000 0.000000
# 3 -0.001080 -0.002665 0.011902 0.000000 0.000000 0.000000
# 4 0.000000 0.000000 0.000000 0.040762 0.000000 0.000000
# 5 0.000000 0.000000 0.000000 0.000000 0.024497 0.000000
# 6 0.000000 0.000000 0.000000 0.000000 0.000000 0.025750
#
#
# Mechanical properties :
#
#
# Convention : Reuss Voigt Hill
#
# Bulk Modulus (GPa) = 65.05540 72.09786 68.57663
# Shear Modulus (GPa) = 36.42624 39.10677 37.76650
#
# Velocity S-wave (km/s) = 3.89823 4.03912 3.96930
# Velocity P-wave (km/s) = 6.88486 7.19932 7.04384
#
# Compressibility (1/GPa) = 0.01537151
#
# Stress axis : x y z
#
# Youngs Moduli (GPa) = 112.16927 134.50456 84.02281
#
# Poissons Ratio (x) = 0.36246 0.09073
# Poissons Ratio (y) = 0.30227 0.22395
# Poissons Ratio (z) = 0.12112 0.35850
#
# Static dielectric constant tensor:
#      x y z
#    x 4.671160 0.000000 0.000000 
#    y 0.000000 4.411880 0.000000 
#    z 0.000000 0.000000 4.379210 
# 
# 
# High freq. dielectric constant tensor:
#      x y z
#    x 1.966850 0.000000 0.000000 
#    y 0.000000 1.968900 0.000000 
#    z 0.000000 0.000000 1.934190 
# 
# From -- ./inp_files/6117.got.cif
#   From: 2010.03.12/outbox.cif.g09.slc.cpg/sg20_4_cif.got.tgz:6117.got - 2010.04.14 01:38:04.
