data_PCOD8160155
_publ_section_title
;
Structure prediction by ZEFSAII (Michael W. Deem and Ramdas Pophale) SiO2 
 PCOD8160155
Probable space group: C 2 2 21
;
_chemical_formula_sum "Si O2"
_cell_formula_units_Z 32
_cell_length_a 18.008091
_cell_length_b 13.634422
_cell_length_c 5.453413
_cell_angle_alpha 90.000000
_cell_angle_beta 90.000000
_cell_angle_gamma 90.000000
_cell_volume 1338.976015
_symmetry_space_group_name_H-M "C 2 2 21"
_symmetry_group_IT_number 20
_symmetry_cell_setting 'orthorhombic'
loop_
_space_group_symop_operation_xyz
x,y,z
-x,-y,1/2+z
x,-y,-z
-x,y,1/2-z
1/2+x,1/2+y,z
1/2-x,1/2-y,1/2+z
1/2+x,1/2-y,-z
1/2-x,1/2+y,1/2-z
loop_
_atom_site_type_symbol
_atom_site_label
_atom_site_fract_x
_atom_site_fract_y
_atom_site_fract_z
Si Si1 0.682707 0.839884 0.676181
Si Si2 0.031921 0.611821 0.501840
Si Si3 0.547082 0.500000 0.000000
Si Si4 0.239752 0.500000 0.000000
Si Si5 0.175100 0.868713 0.128049
O O1 0.621544 0.881754 0.488259
O O2 0.685817 0.911708 0.911959
O O3 0.765418 0.838014 0.573991
O O4 0.657175 0.728986 0.722090
O O5 0.004644 0.500000 0.500000
O O6 0.000000 0.662906 0.750000
O O7 0.000000 0.661805 0.250000
O O8 0.500000 0.505686 0.250000
O O9 0.598560 0.403150 0.005145
O O10 0.293048 0.540824 0.786757
#
# Coordination Sequence:
#
# PCOD8160155 Si02
#       5
#     8   8   4   4   8
#     4  12  26  45  79 114 150 206 267 341 394 482
#     4  10  24  44  70 103 151 200 241 303 397 474
#     4  12  29  54  84 111 166 224 270 332 411 496
#     4  12  23  46  78 113 156 198 254 348 405 460
#     4  12  26  47  78 117 150 205 279 333 404 478
#
# _framework density 23.898859999999999
#
# number of rings (size 3 to 8) (size 9 to 14) (size 15 to 20)
#    0.000    0.500    5.000    2.250    8.750    1.000 
#    0.000    5.000    0.000    0.000    0.000    0.000 
#    0.000    0.000    0.000    0.000    0.000    0.000 
#
# Total GULP energy -198413.960581 kJ/mol
# GULP energy per Si atom -12400.872536 kJ/mol
# Density = 2.384447 g / cm^3
# Si number density = 23.898860 Si / 1000 Ang^3
#
#
#
# Elastic Constant Matrix: (Units=GPa)
#
#
# Indices 1 2 3 4 5 6 
#
# 1 159.8018 30.5181 75.2952 0.0000 0.0000 0.0000
# 2 30.5181 112.3507 29.6579 0.0000 0.0000 0.0000
# 3 75.2952 29.6579 152.1831 0.0000 0.0000 0.0000
# 4 0.0000 0.0000 0.0000 30.5963 0.0000 0.0000
# 5 0.0000 0.0000 0.0000 0.0000 53.5935 0.0000
# 6 0.0000 0.0000 0.0000 0.0000 0.0000 9.3717
#
#
#
# Elastic Compliance Matrix: (Units=1/GPa)
#
#
# Indices 1 2 3 4 5 6 
#
# 1 0.008320 -0.001237 -0.003875 0.000000 0.000000 0.000000
# 2 -0.001237 0.009567 -0.001252 0.000000 0.000000 0.000000
# 3 -0.003875 -0.001252 0.008733 0.000000 0.000000 0.000000
# 4 0.000000 0.000000 0.000000 0.032684 0.000000 0.000000
# 5 0.000000 0.000000 0.000000 0.000000 0.018659 0.000000
# 6 0.000000 0.000000 0.000000 0.000000 0.000000 0.106705
#
#
# Mechanical properties :
#
#
# Convention : Reuss Voigt Hill
#
# Bulk Modulus (GPa) = 71.99351 77.25309 74.62330
# Shear Modulus (GPa) = 24.74916 37.96991 31.35954
#
# Velocity S-wave (km/s) = 3.22153 3.99027 3.62633
# Velocity P-wave (km/s) = 6.63531 7.32290 6.98757
#
# Compressibility (1/GPa) = 0.01389014
#
# Stress axis : x y z
#
# Youngs Moduli (GPa) = 120.19258 104.52239 114.51427
#
# Poissons Ratio (x) = 0.12929 0.44379
# Poissons Ratio (y) = 0.14867 0.14343
# Poissons Ratio (z) = 0.46579 0.13091
#
# Static dielectric constant tensor:
#      x y z
#    x 4.268030 0.000000 0.000000 
#    y 0.000000 4.394960 0.000000 
#    z 0.000000 0.000000 4.466340 
# 
# 
# High freq. dielectric constant tensor:
#      x y z
#    x 1.950790 0.000000 0.000000 
#    y 0.000000 1.939820 0.000000 
#    z 0.000000 0.000000 1.949360 
# 
# From -- ./inp_files/1677.got.cif
#   From: 2010.03.12/outbox.cif.g09.slc.cpg/sg20_1_cif.got.tgz:1677.got - 2010.04.14 01:38:04.
