data_PCOD8160022
_publ_section_title
;
Structure prediction by ZEFSAII (Michael W. Deem and Ramdas Pophale) SiO2 
 PCOD8160022
Probable space group: C 2 2 21
;
_chemical_formula_sum "Si O2"
_cell_formula_units_Z 64
_cell_length_a 30.547229
_cell_length_b 11.846673
_cell_length_c 8.554368
_cell_angle_alpha 90.000000
_cell_angle_beta 90.000000
_cell_angle_gamma 90.000000
_cell_volume 3095.680637
_symmetry_space_group_name_H-M "C 2 2 21"
_symmetry_group_IT_number 20
_symmetry_cell_setting 'orthorhombic'
loop_
_space_group_symop_operation_xyz
x,y,z
-x,-y,1/2+z
x,-y,-z
-x,y,1/2-z
1/2+x,1/2+y,z
1/2-x,1/2-y,1/2+z
1/2+x,1/2-y,-z
1/2-x,1/2+y,1/2-z
loop_
_atom_site_type_symbol
_atom_site_label
_atom_site_fract_x
_atom_site_fract_y
_atom_site_fract_z
Si Si1 0.700620 0.788485 0.182752
Si Si2 0.076616 0.515470 0.182442
Si Si3 0.954211 0.280756 0.178799
Si Si4 0.331257 0.982236 0.817613
Si Si5 0.871038 0.866251 0.820525
Si Si6 0.455876 0.764385 0.809694
Si Si7 0.292201 0.233903 0.319276
Si Si8 0.370476 0.371921 0.184702
O O1 0.669995 0.683685 0.227474
O O2 0.746172 0.786926 0.273067
O O3 0.676395 0.903283 0.224995
O O4 0.709400 0.789531 0.000977
O O5 0.056252 0.403273 0.253883
O O6 0.119899 0.555414 0.274903
O O7 0.044045 0.619024 0.211441
O O8 0.086487 0.500000 0.000000
O O9 0.916066 0.194415 0.229602
O O10 0.000000 0.236714 0.250000
O O11 0.957362 0.288815 0.993173
O O12 0.297751 0.884416 0.770023
O O13 0.326172 0.000000 0.000000
O O14 0.875030 0.996693 0.776595
O O15 0.861425 0.848464 0.003075
O O16 0.500000 0.701828 0.750000
O O17 0.415382 0.685934 0.761707
O O18 0.330387 0.322020 0.281830
#
# Coordination Sequence:
#
# PCOD8160022 Si02
#       8
#     8   8   8   8   8   8   8   8
#     4  12  26  44  68  98 132 172 217 266 322 383
#     4  12  23  39  64  96 131 166 212 265 325 391
#     4  11  23  40  64  93 129 170 215 267 322 382
#     4  12  24  43  69  98 132 170 214 267 326 385
#     4  10  23  44  67  92 128 172 218 267 321 381
#     4  11  23  40  64  93 129 170 215 267 322 382
#     4  12  26  44  68  98 132 172 217 266 322 383
#     4  10  23  44  67  92 128 172 218 267 321 381
#
# _framework density 20.673967000000001
#
# number of rings (size 3 to 8) (size 9 to 14) (size 15 to 20)
#    0.000    0.750    2.500    5.625    1.750    2.000 
#    0.000    0.000    0.000    0.000    0.000    0.000 
#    0.000    0.000    0.000    0.000    0.000    0.000 
#
# Total GULP energy -397024.253088 kJ/mol
# GULP energy per Si atom -12407.007909 kJ/mol
# Density = 2.062691 g / cm^3
# Si number density = 20.673967 Si / 1000 Ang^3
#
#
#
# Elastic Constant Matrix: (Units=GPa)
#
#
# Indices 1 2 3 4 5 6 
#
# 1 130.9358 33.7758 35.8369 0.0000 0.0000 0.0000
# 2 33.7758 105.6893 27.1064 0.0000 0.0000 0.0000
# 3 35.8369 27.1064 101.1342 0.0000 0.0000 0.0000
# 4 0.0000 0.0000 0.0000 16.5448 0.0000 0.0000
# 5 0.0000 0.0000 0.0000 0.0000 41.4491 0.0000
# 6 0.0000 0.0000 0.0000 0.0000 0.0000 19.6754
#
#
#
# Elastic Compliance Matrix: (Units=1/GPa)
#
#
# Indices 1 2 3 4 5 6 
#
# 1 0.008905 -0.002187 -0.002569 0.000000 0.000000 0.000000
# 2 -0.002187 0.010697 -0.002092 0.000000 0.000000 0.000000
# 3 -0.002569 -0.002092 0.011359 0.000000 0.000000 0.000000
# 4 0.000000 0.000000 0.000000 0.060442 0.000000 0.000000
# 5 0.000000 0.000000 0.000000 0.000000 0.024126 0.000000
# 6 0.000000 0.000000 0.000000 0.000000 0.000000 0.050825
#
#
# Mechanical properties :
#
#
# Convention : Reuss Voigt Hill
#
# Bulk Modulus (GPa) = 57.92287 59.02194 58.47240
# Shear Modulus (GPa) = 26.90995 31.60319 29.25657
#
# Velocity S-wave (km/s) = 3.61173 3.91403 3.76592
# Velocity P-wave (km/s) = 6.74321 7.00265 6.87416
#
# Compressibility (1/GPa) = 0.01726434
#
# Stress axis : x y z
#
# Youngs Moduli (GPa) = 112.30122 93.48299 88.03571
#
# Poissons Ratio (x) = 0.20443 0.22619
# Poissons Ratio (y) = 0.24558 0.18419
# Poissons Ratio (z) = 0.28853 0.19559
#
# Static dielectric constant tensor:
#      x y z
#    x 3.957680 0.000000 0.000000 
#    y 0.000000 3.736800 0.000000 
#    z 0.000000 0.000000 3.651340 
# 
# 
# High freq. dielectric constant tensor:
#      x y z
#    x 1.825250 0.000000 0.000000 
#    y 0.000000 1.811660 0.000000 
#    z 0.000000 0.000000 1.816510 
# 
# From -- ./inp_files/11609.got.cif
#   From: 2010.03.12/outbox.cif.g09.slc.cpg/sg20_6_cif.got.tgz:11609.got - 2010.04.14 01:38:04.
