data_PCOD8160561
_publ_section_title
;
Structure prediction by ZEFSAII (Michael W. Deem and Ramdas Pophale) SiO2 
 PCOD8160561
Probable space group: C 2 2 21
;
_chemical_formula_sum "Si O2"
_cell_formula_units_Z 48
_cell_length_a 14.516771
_cell_length_b 9.327190
_cell_length_c 16.639129
_cell_angle_alpha 90.000000
_cell_angle_beta 90.000000
_cell_angle_gamma 90.000000
_cell_volume 2252.949403
_symmetry_space_group_name_H-M "C 2 2 21"
_symmetry_group_IT_number 20
_symmetry_cell_setting 'orthorhombic'
loop_
_space_group_symop_operation_xyz
x,y,z
-x,-y,1/2+z
x,-y,-z
-x,y,1/2-z
1/2+x,1/2+y,z
1/2-x,1/2-y,1/2+z
1/2+x,1/2-y,-z
1/2-x,1/2+y,1/2-z
loop_
_atom_site_type_symbol
_atom_site_label
_atom_site_fract_x
_atom_site_fract_y
_atom_site_fract_z
Si Si1 0.954453 0.488844 0.166531
Si Si2 0.377601 0.654624 0.535849
Si Si3 0.773276 0.689787 0.837314
Si Si4 0.960825 0.184314 0.836036
Si Si5 0.212734 0.978808 0.310773
Si Si6 0.873046 0.590491 0.573176
O O1 0.870257 0.385474 0.145076
O O2 0.921615 0.653752 0.171314
O O3 0.000000 0.438418 0.250000
O O4 0.029298 0.477579 0.096512
O O5 0.367424 0.500000 0.500000
O O6 0.284114 0.701456 0.580630
O O7 0.464074 0.671148 0.594563
O O8 0.389240 0.748421 0.455655
O O9 0.712856 0.592761 0.777187
O O10 0.788983 0.849641 0.803167
O O11 0.877004 0.077736 0.858353
O O12 0.000000 0.135554 0.750000
O O13 0.304752 0.919632 0.352098
O O14 0.830419 0.500000 0.500000
#
# Coordination Sequence:
#
# PCOD8160561 Si02
#       6
#     8   8   8   8   8   8
#     4  11  24  44  74 102 136 189 236 280 350 427
#     4  12  29  47  71 107 147 181 234 297 355 412
#     4  12  26  46  72 107 138 189 239 286 351 425
#     4  11  24  46  73 102 141 183 233 286 348 422
#     4  12  26  44  75 102 142 187 240 288 350 423
#     4  12  25  49  69 101 148 185 223 292 361 416
#
# _framework density 21.305403999999999
#
# number of rings (size 3 to 8) (size 9 to 14) (size 15 to 20)
#    0.000    0.333    6.667    1.000    7.000    3.333 
#    0.000    0.000    0.000    0.000    0.000    0.000 
#    0.000    0.000    0.000    0.000    0.000    0.000 
#
# Total GULP energy -297736.462524 kJ/mol
# GULP energy per Si atom -12405.685939 kJ/mol
# Density = 2.125691 g / cm^3
# Si number density = 21.305404 Si / 1000 Ang^3
#
#
#
# Elastic Constant Matrix: (Units=GPa)
#
#
# Indices 1 2 3 4 5 6 
#
# 1 125.8283 40.7995 11.7469 0.0000 0.0000 0.0000
# 2 40.7995 148.5673 21.0352 0.0000 0.0000 0.0000
# 3 11.7469 21.0352 50.9937 0.0000 0.0000 0.0000
# 4 0.0000 0.0000 0.0000 36.1849 0.0000 0.0000
# 5 0.0000 0.0000 0.0000 0.0000 22.1260 0.0000
# 6 0.0000 0.0000 0.0000 0.0000 0.0000 32.4229
#
#
#
# Elastic Compliance Matrix: (Units=1/GPa)
#
#
# Indices 1 2 3 4 5 6 
#
# 1 0.008781 -0.002257 -0.001092 0.000000 0.000000 0.000000
# 2 -0.002257 0.007729 -0.002668 0.000000 0.000000 0.000000
# 3 -0.001092 -0.002668 0.020962 0.000000 0.000000 0.000000
# 4 0.000000 0.000000 0.000000 0.027636 0.000000 0.000000
# 5 0.000000 0.000000 0.000000 0.000000 0.045196 0.000000
# 6 0.000000 0.000000 0.000000 0.000000 0.000000 0.030842
#
#
# Mechanical properties :
#
#
# Convention : Reuss Voigt Hill
#
# Bulk Modulus (GPa) = 39.31087 52.50583 45.90835
# Shear Modulus (GPa) = 30.92931 34.93395 32.93163
#
# Velocity S-wave (km/s) = 3.81427 4.05368 3.93580
# Velocity P-wave (km/s) = 6.15543 6.82698 6.49989
#
# Compressibility (1/GPa) = 0.02543825
#
# Stress axis : x y z
#
# Youngs Moduli (GPa) = 113.88164 129.39104 47.70448
#
# Poissons Ratio (x) = 0.29202 0.05208
# Poissons Ratio (y) = 0.25701 0.12728
# Poissons Ratio (z) = 0.12434 0.34524
#
# Static dielectric constant tensor:
#      x y z
#    x 3.876270 0.000000 0.000000 
#    y 0.000000 3.946280 0.000000 
#    z 0.000000 0.000000 4.088520 
# 
# 
# High freq. dielectric constant tensor:
#      x y z
#    x 1.841160 0.000000 0.000000 
#    y 0.000000 1.847570 0.000000 
#    z 0.000000 0.000000 1.835160 
# 
# From -- ./inp_files/23489.got.cif
#   From: 2010.03.12/outbox.cif.g09.slc.cpg/sg20_12_cif.got.tgz:23489.got - 2010.04.14 01:38:04.
