data_PCOD8160481
_publ_section_title
;
Structure prediction by ZEFSAII (Michael W. Deem and Ramdas Pophale) SiO2 
 PCOD8160481
Probable space group: C 2 2 21
;
_chemical_formula_sum "Si O2"
_cell_formula_units_Z 64
_cell_length_a 11.539926
_cell_length_b 13.803931
_cell_length_c 18.606018
_cell_angle_alpha 90.000000
_cell_angle_beta 90.000000
_cell_angle_gamma 90.000000
_cell_volume 2963.870611
_symmetry_space_group_name_H-M "C 2 2 21"
_symmetry_group_IT_number 20
_symmetry_cell_setting 'orthorhombic'
loop_
_space_group_symop_operation_xyz
x,y,z
-x,-y,1/2+z
x,-y,-z
-x,y,1/2-z
1/2+x,1/2+y,z
1/2-x,1/2-y,1/2+z
1/2+x,1/2-y,-z
1/2-x,1/2+y,1/2-z
loop_
_atom_site_type_symbol
_atom_site_label
_atom_site_fract_x
_atom_site_fract_y
_atom_site_fract_z
Si Si1 0.985248 0.429794 0.170459
Si Si2 0.199463 0.195438 0.202258
Si Si3 0.407718 0.756235 0.551242
Si Si4 0.449912 0.148983 0.175401
Si Si5 0.589257 0.515433 0.810525
Si Si6 0.819465 0.647570 0.591535
Si Si7 0.064435 0.079172 0.559147
Si Si8 0.267359 0.178437 0.839750
O O1 0.934011 0.535354 0.181453
O O2 0.889415 0.362870 0.131848
O O3 0.000000 0.384002 0.250000
O O4 0.100400 0.440152 0.120940
O O5 0.323024 0.189689 0.163413
O O6 0.138778 0.271361 0.149250
O O7 0.212644 0.233849 0.283599
O O8 0.132115 0.094019 0.201706
O O9 0.471486 0.823198 0.608621
O O10 0.361877 0.820981 0.486529
O O11 0.494503 0.670524 0.525889
O O12 0.293519 0.714366 0.588343
O O13 0.500000 0.192472 0.250000
O O14 0.500000 0.546275 0.750000
O O15 0.520192 0.526380 0.884872
O O16 0.694970 0.590794 0.803514
O O17 0.685260 0.616072 0.593868
O O18 0.097063 0.000000 0.500000
#
# Coordination Sequence:
#
# PCOD8160481 Si02
#       8
#     8   8   8   8   8   8   8   8
#     4  11  25  43  67 101 141 178 227 288 341 414
#     4  12  23  44  69 102 136 181 226 287 345 415
#     4  11  26  44  70 102 135 186 230 288 350 419
#     4  11  23  43  70 101 136 179 232 280 345 413
#     4  11  26  42  71 102 134 181 230 282 350 414
#     4  12  27  43  70  99 142 182 232 287 352 411
#     4  11  26  48  66  95 142 180 231 285 346 424
#     4  11  24  44  70 102 139 179 229 286 348 416
#
# _framework density 21.593382999999999
#
# number of rings (size 3 to 8) (size 9 to 14) (size 15 to 20)
#    0.000    0.750    5.000    1.500    7.000    1.000 
#    0.000    0.000    0.000    0.000    0.000    0.000 
#    0.000    0.000    0.000    0.000    0.000    0.000 
#
# Total GULP energy -396767.342902 kJ/mol
# GULP energy per Si atom -12398.979466 kJ/mol
# Density = 2.154424 g / cm^3
# Si number density = 21.593383 Si / 1000 Ang^3
#
#
#
# Elastic Constant Matrix: (Units=GPa)
#
#
# Indices 1 2 3 4 5 6 
#
# 1 109.5013 26.1192 21.2820 0.0000 0.0000 0.0000
# 2 26.1192 82.6373 28.5512 0.0000 0.0000 0.0000
# 3 21.2820 28.5512 86.9952 0.0000 0.0000 0.0000
# 4 0.0000 0.0000 0.0000 28.3607 0.0000 0.0000
# 5 0.0000 0.0000 0.0000 0.0000 32.3570 0.0000
# 6 0.0000 0.0000 0.0000 0.0000 0.0000 30.7038
#
#
#
# Elastic Compliance Matrix: (Units=1/GPa)
#
#
# Indices 1 2 3 4 5 6 
#
# 1 0.010071 -0.002630 -0.001600 0.000000 0.000000 0.000000
# 2 -0.002630 0.014336 -0.004061 0.000000 0.000000 0.000000
# 3 -0.001600 -0.004061 0.013219 0.000000 0.000000 0.000000
# 4 0.000000 0.000000 0.000000 0.035260 0.000000 0.000000
# 5 0.000000 0.000000 0.000000 0.000000 0.030905 0.000000
# 6 0.000000 0.000000 0.000000 0.000000 0.000000 0.032569
#
#
# Mechanical properties :
#
#
# Convention : Reuss Voigt Hill
#
# Bulk Modulus (GPa) = 47.52471 47.89318 47.70894
# Shear Modulus (GPa) = 31.25820 31.82973 31.54396
#
# Velocity S-wave (km/s) = 3.80884 3.84350 3.82621
# Velocity P-wave (km/s) = 6.43426 6.47490 6.45461
#
# Compressibility (1/GPa) = 0.02104169
#
# Stress axis : x y z
#
# Youngs Moduli (GPa) = 99.29771 69.75650 75.64673
#
# Poissons Ratio (x) = 0.18347 0.12107
# Poissons Ratio (y) = 0.26116 0.30723
# Poissons Ratio (z) = 0.15892 0.28331
#
# Static dielectric constant tensor:
#      x y z
#    x 4.291100 0.000000 0.000000 
#    y 0.000000 3.881020 0.000000 
#    z 0.000000 0.000000 3.713580 
# 
# 
# High freq. dielectric constant tensor:
#      x y z
#    x 1.866440 0.000000 0.000000 
#    y 0.000000 1.855420 0.000000 
#    z 0.000000 0.000000 1.837920 
# 
# From -- ./inp_files/24457.got.cif
#   From: 2010.03.12/outbox.cif.g09.slc.cpg/sg20_13_cif.got.tgz:24457.got - 2010.04.14 01:38:04.
