data_PCOD8160078
_publ_section_title
;
Structure prediction by ZEFSAII (Michael W. Deem and Ramdas Pophale) SiO2 
 PCOD8160078
Probable space group: C 2 2 21
;
_chemical_formula_sum "Si O2"
_cell_formula_units_Z 40
_cell_length_a 9.500077
_cell_length_b 9.913183
_cell_length_c 17.203867
_cell_angle_alpha 90.000000
_cell_angle_beta 90.000000
_cell_angle_gamma 90.000000
_cell_volume 1620.191410
_symmetry_space_group_name_H-M "C 2 2 21"
_symmetry_group_IT_number 20
_symmetry_cell_setting 'orthorhombic'
loop_
_space_group_symop_operation_xyz
x,y,z
-x,-y,1/2+z
x,-y,-z
-x,y,1/2-z
1/2+x,1/2+y,z
1/2-x,1/2-y,1/2+z
1/2+x,1/2-y,-z
1/2-x,1/2+y,1/2-z
loop_
_atom_site_type_symbol
_atom_site_label
_atom_site_fract_x
_atom_site_fract_y
_atom_site_fract_z
Si Si1 0.465319 0.739016 0.454892
Si Si2 0.302178 0.671984 0.162025
Si Si3 0.658653 0.228548 0.408549
Si Si4 0.448887 0.986537 0.610611
Si Si5 0.739134 0.908100 0.226905
O O1 0.549214 0.681648 0.380771
O O2 0.549006 0.698567 0.532538
O O3 0.304960 0.687819 0.450873
O O4 0.460666 0.904003 0.458957
O O5 0.263190 0.821390 0.194463
O O6 0.309509 0.559396 0.232439
O O7 0.179880 0.622773 0.101194
O O8 0.596412 0.087845 0.376495
O O9 0.669579 0.329693 0.337518
O O10 0.417190 0.074408 0.689122
#
# Coordination Sequence:
#
# PCOD8160078 Si02
#       5
#     8   8   8   8   8
#     4  11  24  44  72 105 147 195 253 313 378 452
#     4  10  23  48  75 104 150 195 247 309 378 452
#     4  11  23  45  71 105 145 200 243 314 378 441
#     4   9  23  45  65 103 146 187 239 299 373 438
#     4   9  24  44  77 103 147 194 248 305 372 455
#
# _framework density 24.688442999999999
#
# number of rings (size 3 to 8) (size 9 to 14) (size 15 to 20)
#    1.200    0.800    0.000    1.800    2.800    8.000 
#   10.800    4.000    0.000    0.000    0.000    0.000 
#    0.000    0.000    0.000    0.000    0.000    0.000 
#
# Total GULP energy -247762.104731 kJ/mol
# GULP energy per Si atom -12388.105237 kJ/mol
# Density = 2.463225 g / cm^3
# Si number density = 24.688443 Si / 1000 Ang^3
#
#
#
# Elastic Constant Matrix: (Units=GPa)
#
#
# Indices 1 2 3 4 5 6 
#
# 1 152.3894 42.1757 20.2039 0.0000 0.0000 0.0000
# 2 42.1757 124.9177 13.5165 0.0000 0.0000 0.0000
# 3 20.2039 13.5165 24.0007 0.0000 0.0000 0.0000
# 4 0.0000 0.0000 0.0000 21.3366 0.0000 0.0000
# 5 0.0000 0.0000 0.0000 0.0000 30.4674 0.0000
# 6 0.0000 0.0000 0.0000 0.0000 0.0000 50.5229
#
#
#
# Elastic Compliance Matrix: (Units=1/GPa)
#
#
# Indices 1 2 3 4 5 6 
#
# 1 0.007856 -0.002062 -0.005451 0.000000 0.000000 0.000000
# 2 -0.002062 0.009066 -0.003370 0.000000 0.000000 0.000000
# 3 -0.005451 -0.003370 0.048152 0.000000 0.000000 0.000000
# 4 0.000000 0.000000 0.000000 0.046868 0.000000 0.000000
# 5 0.000000 0.000000 0.000000 0.000000 0.032822 0.000000
# 6 0.000000 0.000000 0.000000 0.000000 0.000000 0.019793
#
#
# Mechanical properties :
#
#
# Convention : Reuss Voigt Hill
#
# Bulk Modulus (GPa) = 23.09094 50.34444 36.71769
# Shear Modulus (GPa) = 24.90539 35.49283 30.19911
#
# Velocity S-wave (km/s) = 3.17959 3.79572 3.50123
# Velocity P-wave (km/s) = 4.78047 6.29652 5.59013
#
# Compressibility (1/GPa) = 0.04330703
#
# Stress axis : x y z
#
# Youngs Moduli (GPa) = 127.29613 110.29963 20.76746
#
# Poissons Ratio (x) = 0.22749 0.11321
# Poissons Ratio (y) = 0.26254 0.06998
# Poissons Ratio (z) = 0.69395 0.37167
#
# Static dielectric constant tensor:
#      x y z
#    x 4.330510 0.000000 0.000000 
#    y 0.000000 4.559320 0.000000 
#    z 0.000000 0.000000 4.085670 
# 
# 
# High freq. dielectric constant tensor:
#      x y z
#    x 1.978050 0.000000 0.000000 
#    y 0.000000 1.982160 0.000000 
#    z 0.000000 0.000000 1.967640 
# 
# From -- ./inp_files/26467.got.cif
#   From: 2010.03.12/outbox.cif.g09.slc.cpg/sg20_14_cif.got.tgz:26467.got - 2010.04.14 01:38:04.
