data_PCOD8160435
_publ_section_title
;
Structure prediction by ZEFSAII (Michael W. Deem and Ramdas Pophale) SiO2 
 PCOD8160435
Probable space group: C 2 2 21
;
_chemical_formula_sum "Si O2"
_cell_formula_units_Z 60
_cell_length_a 11.934587
_cell_length_b 25.638051
_cell_length_c 9.062618
_cell_angle_alpha 90.000000
_cell_angle_beta 90.000000
_cell_angle_gamma 90.000000
_cell_volume 2772.975779
_symmetry_space_group_name_H-M "C 2 2 21"
_symmetry_group_IT_number 20
_symmetry_cell_setting 'orthorhombic'
loop_
_space_group_symop_operation_xyz
x,y,z
-x,-y,1/2+z
x,-y,-z
-x,y,1/2-z
1/2+x,1/2+y,z
1/2-x,1/2-y,1/2+z
1/2+x,1/2-y,-z
1/2-x,1/2+y,1/2-z
loop_
_atom_site_type_symbol
_atom_site_label
_atom_site_fract_x
_atom_site_fract_y
_atom_site_fract_z
Si Si1 0.984746 0.689162 0.425351
Si Si2 0.914905 0.100864 0.977520
Si Si3 0.296387 0.440179 0.294198
Si Si4 0.280865 0.852157 0.998129
Si Si5 0.607199 0.006471 0.165253
Si Si6 0.557025 0.304028 0.089907
Si Si7 0.052949 0.000000 0.000000
Si Si8 0.299453 0.881801 0.669456
O O1 0.963202 0.747619 0.484272
O O2 0.875083 0.652857 0.443369
O O3 0.000000 0.688086 0.250000
O O4 0.091018 0.667627 0.518726
O O5 0.877163 0.096541 0.805186
O O6 0.996759 0.149963 0.000802
O O7 0.810462 0.106179 0.081120
O O8 0.977535 0.049795 0.036138
O O9 0.235860 0.408385 0.425263
O O10 0.208034 0.466593 0.187706
O O11 0.370086 0.486977 0.359906
O O12 0.262347 0.854127 0.821794
O O13 0.191448 0.813605 0.078496
O O14 0.500000 0.986101 0.250000
O O15 0.635469 0.065421 0.212065
O O16 0.570195 0.000000 0.000000
O O17 0.500000 0.302670 0.250000
#
# Coordination Sequence:
#
# PCOD8160435 Si02
#       8
#     8   8   8   8   8   8   4   8
#     4   9  23  44  74  98 137 181 231 289 354 405
#     4  12  24  44  67 101 146 177 230 279 353 406
#     4  12  25  44  68 103 136 185 226 284 341 417
#     4  11  23  44  73 101 135 182 239 281 350 411
#     4  12  27  44  69 100 138 181 230 277 342 415
#     4  11  22  44  71 103 134 184 228 295 347 414
#     4  12  24  40  68 100 134 180 228 276 344 414
#     4  11  25  46  68 101 142 184 225 293 343 414
#
# _framework density 21.637404
#
# number of rings (size 3 to 8) (size 9 to 14) (size 15 to 20)
#    0.000    0.800    4.000    3.200    6.533    1.600 
#    0.000    0.000    2.933    0.000    0.000    0.000 
#    0.000    0.000    0.000    0.000    0.000    0.000 
#
# Total GULP energy -371965.354805 kJ/mol
# GULP energy per Si atom -12398.845160 kJ/mol
# Density = 2.158816 g / cm^3
# Si number density = 21.637404 Si / 1000 Ang^3
#
#
#
# Elastic Constant Matrix: (Units=GPa)
#
#
# Indices 1 2 3 4 5 6 
#
# 1 136.0482 56.3231 49.2537 0.0000 0.0000 0.0000
# 2 56.3231 134.3573 20.7429 0.0000 0.0000 0.0000
# 3 49.2537 20.7429 82.7685 0.0000 0.0000 0.0000
# 4 0.0000 0.0000 0.0000 15.6474 0.0000 0.0000
# 5 0.0000 0.0000 0.0000 0.0000 33.8808 0.0000
# 6 0.0000 0.0000 0.0000 0.0000 0.0000 27.6378
#
#
#
# Elastic Compliance Matrix: (Units=1/GPa)
#
#
# Indices 1 2 3 4 5 6 
#
# 1 0.010898 -0.003711 -0.005555 0.000000 0.000000 0.000000
# 2 -0.003711 0.009006 -0.000049 0.000000 0.000000 0.000000
# 3 -0.005555 -0.000049 0.015400 0.000000 0.000000 0.000000
# 4 0.000000 0.000000 0.000000 0.063908 0.000000 0.000000
# 5 0.000000 0.000000 0.000000 0.000000 0.029515 0.000000
# 6 0.000000 0.000000 0.000000 0.000000 0.000000 0.036182
#
#
# Mechanical properties :
#
#
# Convention : Reuss Voigt Hill
#
# Bulk Modulus (GPa) = 59.97269 67.31259 63.64264
# Shear Modulus (GPa) = 26.44155 30.55683 28.49919
#
# Velocity S-wave (km/s) = 3.49955 3.76203 3.63316
# Velocity P-wave (km/s) = 6.64127 7.07442 6.86126
#
# Compressibility (1/GPa) = 0.01667426
#
# Stress axis : x y z
#
# Youngs Moduli (GPa) = 91.76310 111.03800 64.93600
#
# Poissons Ratio (x) = 0.41203 0.36072
# Poissons Ratio (y) = 0.34051 0.00317
# Poissons Ratio (z) = 0.50974 0.00542
#
# Static dielectric constant tensor:
#      x y z
#    x 4.168840 0.000000 0.000000 
#    y 0.000000 4.214770 0.000000 
#    z 0.000000 0.000000 3.677880 
# 
# 
# High freq. dielectric constant tensor:
#      x y z
#    x 1.867440 0.000000 0.000000 
#    y 0.000000 1.854680 0.000000 
#    z 0.000000 0.000000 1.830230 
# 
# From -- ./inp_files/7562.got.cif
#   From: 2010.03.12/outbox.cif.g09.slc.cpg/sg20_4_cif.got.tgz:7562.got - 2010.04.14 01:38:04.
