data_PCOD8160410
_publ_section_title
;
Structure prediction by ZEFSAII (Michael W. Deem and Ramdas Pophale) SiO2 
 PCOD8160410
Probable space group: C 2 2 21
;
_chemical_formula_sum "Si O2"
_cell_formula_units_Z 48
_cell_length_a 17.503732
_cell_length_b 9.151376
_cell_length_c 14.696131
_cell_angle_alpha 90.000000
_cell_angle_beta 90.000000
_cell_angle_gamma 90.000000
_cell_volume 2354.073775
_symmetry_space_group_name_H-M "C 2 2 21"
_symmetry_group_IT_number 20
_symmetry_cell_setting 'orthorhombic'
loop_
_space_group_symop_operation_xyz
x,y,z
-x,-y,1/2+z
x,-y,-z
-x,y,1/2-z
1/2+x,1/2+y,z
1/2-x,1/2-y,1/2+z
1/2+x,1/2-y,-z
1/2-x,1/2+y,1/2-z
loop_
_atom_site_type_symbol
_atom_site_label
_atom_site_fract_x
_atom_site_fract_y
_atom_site_fract_z
Si Si1 0.692923 0.299007 0.654240
Si Si2 0.072362 0.671638 0.996101
Si Si3 0.742413 0.166839 0.970416
Si Si4 0.218212 0.105414 0.720754
Si Si5 0.016675 0.162275 0.348754
Si Si6 0.941239 0.146821 0.676557
O O1 0.720632 0.245142 0.554447
O O2 0.709108 0.164027 0.721665
O O3 0.738735 0.437627 0.696456
O O4 0.607044 0.355627 0.645067
O O5 0.063778 0.737981 0.096039
O O6 0.060346 0.500000 0.000000
O O7 0.154875 0.715559 0.956409
O O8 0.008606 0.732225 0.928828
O O9 0.787115 0.193573 0.875565
O O10 0.747328 0.000000 0.000000
O O11 0.141343 0.123951 0.778373
O O12 0.000000 0.232085 0.250000
O O13 0.974440 0.006924 0.359745
O O14 0.000000 0.212635 0.750000
#
# Coordination Sequence:
#
# PCOD8160410 Si02
#       6
#     8   8   8   8   8   8
#     4  11  22  43  66  98 131 173 223 273 337 399
#     4  11  24  44  64  96 137 178 223 280 343 399
#     4   9  21  37  62  88 126 171 210 267 332 389
#     4  11  22  42  66  95 132 171 224 273 332 404
#     4  11  23  42  68  98 135 174 225 280 337 402
#     4  11  23  42  68 100 131 178 225 277 340 406
#
# _framework density 20.390186
#
# number of rings (size 3 to 8) (size 9 to 14) (size 15 to 20)
#    0.000    1.333    5.000    1.500    2.333    2.000 
#    3.000    0.833    0.000    0.000    0.000    0.000 
#    0.000    0.000    0.000    0.000    0.000    0.000 
#
# Total GULP energy -297549.870611 kJ/mol
# GULP energy per Si atom -12397.911275 kJ/mol
# Density = 2.034378 g / cm^3
# Si number density = 20.390186 Si / 1000 Ang^3
#
#
#
# Elastic Constant Matrix: (Units=GPa)
#
#
# Indices 1 2 3 4 5 6 
#
# 1 93.0171 48.2671 50.7810 0.0000 0.0000 0.0000
# 2 48.2671 78.4349 54.0673 0.0000 0.0000 0.0000
# 3 50.7810 54.0673 128.3304 0.0000 0.0000 0.0000
# 4 0.0000 0.0000 0.0000 25.5418 0.0000 0.0000
# 5 0.0000 0.0000 0.0000 0.0000 33.3352 0.0000
# 6 0.0000 0.0000 0.0000 0.0000 0.0000 17.9172
#
#
#
# Elastic Compliance Matrix: (Units=1/GPa)
#
#
# Indices 1 2 3 4 5 6 
#
# 1 0.016681 -0.008054 -0.003207 0.000000 0.000000 0.000000
# 2 -0.008054 0.021856 -0.006021 0.000000 0.000000 0.000000
# 3 -0.003207 -0.006021 0.011598 0.000000 0.000000 0.000000
# 4 0.000000 0.000000 0.000000 0.039151 0.000000 0.000000
# 5 0.000000 0.000000 0.000000 0.000000 0.029998 0.000000
# 6 0.000000 0.000000 0.000000 0.000000 0.000000 0.055812
#
#
# Mechanical properties :
#
#
# Convention : Reuss Voigt Hill
#
# Bulk Modulus (GPa) = 64.22582 67.33481 65.78032
# Shear Modulus (GPa) = 23.27161 25.13665 24.20413
#
# Velocity S-wave (km/s) = 3.38200 3.51491 3.44909
# Velocity P-wave (km/s) = 6.84232 7.04043 6.94208
#
# Compressibility (1/GPa) = 0.01557006
#
# Stress axis : x y z
#
# Youngs Moduli (GPa) = 59.94792 45.75310 86.21828
#
# Poissons Ratio (x) = 0.36850 0.27654
# Poissons Ratio (y) = 0.48283 0.51915
# Poissons Ratio (z) = 0.19228 0.27549
#
# Static dielectric constant tensor:
#      x y z
#    x 3.731970 0.000000 0.000000 
#    y 0.000000 3.464880 0.000000 
#    z 0.000000 0.000000 4.105940 
# 
# 
# High freq. dielectric constant tensor:
#      x y z
#    x 1.798280 0.000000 0.000000 
#    y 0.000000 1.768750 0.000000 
#    z 0.000000 0.000000 1.819560 
# 
# From -- ./inp_files/18907.got.cif
#   From: 2010.03.12/outbox.cif.g09.slc.cpg/sg20_10_cif.got.tgz:18907.got - 2010.04.14 01:38:04.
