data_PCOD8160936
_publ_section_title
;
Structure prediction by ZEFSAII (Michael W. Deem and Ramdas Pophale) SiO2 
 PCOD8160936
Probable space group: C 2 2 2
;
_chemical_formula_sum "Si O2"
_cell_formula_units_Z 48
_cell_length_a 5.063181
_cell_length_b 26.818818
_cell_length_c 18.395537
_cell_angle_alpha 90.000000
_cell_angle_beta 90.000000
_cell_angle_gamma 90.000000
_cell_volume 2497.902923
_symmetry_space_group_name_H-M "C 2 2 2"
_symmetry_group_IT_number 21
_symmetry_cell_setting 'orthorhombic'
loop_
_space_group_symop_operation_xyz
x,y,z
-x,-y,z
x,-y,-z
-x,y,-z
1/2+x,1/2+y,z
1/2-x,1/2-y,z
1/2+x,1/2-y,-z
1/2-x,1/2+y,-z
loop_
_atom_site_type_symbol
_atom_site_label
_atom_site_fract_x
_atom_site_fract_y
_atom_site_fract_z
Si Si1 0.442519 0.553936 0.676472
Si Si2 0.959357 0.053567 0.842496
Si Si3 0.465069 0.882780 0.326102
Si Si4 0.255257 0.192585 0.951359
Si Si5 0.033496 0.384650 0.839995
Si Si6 0.498790 0.782286 0.415109
O O1 0.500000 0.500000 0.639750
O O2 0.365031 0.544365 0.760248
O O3 0.681317 0.592047 0.665163
O O4 0.182998 0.579009 0.641828
O O5 0.738897 0.092306 0.876074
O O6 0.256317 0.071937 0.842814
O O7 0.000000 0.000000 0.882991
O O8 0.524425 0.867547 0.242420
O O9 0.485403 0.833380 0.372448
O O10 0.250000 0.250000 0.926643
O O11 0.315719 0.160760 0.879782
O O12 0.500000 0.180174 0.000000
O O13 0.000000 0.177929 0.000000
O O14 0.500000 0.795262 0.500000
O O15 0.750000 0.750000 0.391732
O O16 0.250000 0.750000 0.392129
#
# Coordination Sequence:
#
# PCOD8160936 Si02
#       6
#     8   8   8   8   8   8
#     4   9  17  30  50  77 108 138 168 208 260 314
#     4   9  17  30  50  77 106 133 165 207 257 311
#     4  10  19  32  53  80 105 133 174 220 260 301
#     4  10  21  37  54  72  99 137 173 206 256 318
#     4  10  19  32  53  79 102 131 172 216 257 300
#     4  10  21  37  55  75 104 144 182 217 268 328
#
# _framework density 19.21612
#
# number of rings (size 3 to 8) (size 9 to 14) (size 15 to 20)
#    0.000    2.333    0.000    3.000    0.000    4.667 
#    0.000    2.500    0.000   10.500    0.000    0.000 
#    0.000    0.000    0.000    0.000    0.000    0.000 
#
# Total GULP energy -297365.399970 kJ/mol
# GULP energy per Si atom -12390.224999 kJ/mol
# Density = 1.917238 g / cm^3
# Si number density = 19.216120 Si / 1000 Ang^3
#
#
#
# Elastic Constant Matrix: (Units=GPa)
#
#
# Indices 1 2 3 4 5 6 
#
# 1 128.2875 39.6809 22.6708 0.0000 0.0000 0.0000
# 2 39.6809 129.3063 49.3586 0.0000 0.0000 0.0000
# 3 22.6708 49.3586 41.6644 0.0000 0.0000 0.0000
# 4 0.0000 0.0000 0.0000 -48.5219 0.0000 0.0000
# 5 0.0000 0.0000 0.0000 0.0000 25.3393 0.0000
# 6 0.0000 0.0000 0.0000 0.0000 0.0000 26.3425
#
#
#
# Elastic Compliance Matrix: (Units=1/GPa)
#
#
# Indices 1 2 3 4 5 6 
#
# 1 0.008800 -0.001593 -0.002901 0.000000 0.000000 0.000000
# 2 -0.001593 0.014406 -0.016200 0.000000 0.000000 0.000000
# 3 -0.002901 -0.016200 0.044771 0.000000 0.000000 0.000000
# 4 0.000000 0.000000 0.000000 -0.020609 0.000000 0.000000
# 5 0.000000 0.000000 0.000000 0.000000 0.039464 0.000000
# 6 0.000000 0.000000 0.000000 0.000000 0.000000 0.037962
#
#
# Mechanical properties :
#
#
# Convention : Reuss Voigt Hill
#
# Bulk Modulus (GPa) = 37.60842 58.07543 47.84192
# Shear Modulus (GPa) = 28.56389 13.13516 20.84953
#
# Velocity S-wave (km/s) = 3.85964 2.61731 3.29751
# Velocity P-wave (km/s) = 6.28301 6.27866 6.28084
#
# Compressibility (1/GPa) = 0.02658979
#
# Stress axis : x y z
#
# Youngs Moduli (GPa) = 113.63009 69.41433 22.33574
#
# Poissons Ratio (x) = 0.11059 0.06480
# Poissons Ratio (y) = 0.18104 0.36183
# Poissons Ratio (z) = 0.32965 1.12450
#
# Static dielectric constant tensor:
#      x y z
#    x 3.883740 0.000000 0.000000 
#    y 0.000000 3.323520 0.000000 
#    z 0.000000 0.000000 3.119740 
# 
# 
# High freq. dielectric constant tensor:
#      x y z
#    x 1.773170 0.000000 0.000000 
#    y 0.000000 1.758200 0.000000 
#    z 0.000000 0.000000 1.695940 
# 
# From -- ./inp_files/35025.got.cif
#   From: 2010.03.12/outbox.cif.g09.slc.cpg/sg21_18_cif.got.tgz:35025.got - 2010.04.14 01:59:26.
