data_PCOD8160820
_publ_section_title
;
Structure prediction by ZEFSAII (Michael W. Deem and Ramdas Pophale) SiO2 
 PCOD8160820
Probable space group: C 2 2 2
;
_chemical_formula_sum "Si O2"
_cell_formula_units_Z 36
_cell_length_a 4.873550
_cell_length_b 24.311354
_cell_length_c 14.892836
_cell_angle_alpha 90.000000
_cell_angle_beta 90.000000
_cell_angle_gamma 90.000000
_cell_volume 1764.541920
_symmetry_space_group_name_H-M "C 2 2 2"
_symmetry_group_IT_number 21
_symmetry_cell_setting 'orthorhombic'
loop_
_space_group_symop_operation_xyz
x,y,z
-x,-y,z
x,-y,-z
-x,y,-z
1/2+x,1/2+y,z
1/2-x,1/2-y,z
1/2+x,1/2-y,-z
1/2-x,1/2+y,-z
loop_
_atom_site_type_symbol
_atom_site_label
_atom_site_fract_x
_atom_site_fract_y
_atom_site_fract_z
Si Si1 0.892983 0.418396 0.903934
Si Si2 0.105790 0.303166 0.169550
Si Si3 0.396997 0.328015 0.716580
Si Si4 0.250000 0.750000 0.438576
Si Si5 0.888573 0.056103 0.208918
O O1 0.905078 0.352055 0.902304
O O2 0.581126 0.433433 0.878893
O O3 0.082215 0.448268 0.829735
O O4 0.000000 0.439245 0.000000
O O5 0.250000 0.250000 0.122191
O O6 0.291294 0.314903 0.257281
O O7 0.799966 0.298008 0.210064
O O8 0.334326 0.303649 0.619097
O O9 0.378999 0.394596 0.718425
O O10 0.500000 0.769243 0.500000
O O11 0.000000 0.000000 0.255891
#
# Coordination Sequence:
#
# PCOD8160820 Si02
#       5
#     8   8   8   4   8
#     4  10  21  33  49  79 110 140 190 243 281 313
#     4  10  17  33  54  71 104 152 183 215 269 324
#     4  10  20  35  54  80 110 137 180 220 258 340
#     4  12  22  34  58  90 116 136 166 220 292 334
#     4  10  21  36  56  76 102 150 193 225 273 323
#
# _framework density 20.401896000000001
#
# number of rings (size 3 to 8) (size 9 to 14) (size 15 to 20)
#    0.000    1.778    2.222    2.667    0.000    2.667 
#    0.000    6.667    0.000    0.667    0.000    1.556 
#    0.000    0.000    0.000    0.000    0.000    0.000 
#
# Total GULP energy -223022.858750 kJ/mol
# GULP energy per Si atom -12390.158819 kJ/mol
# Density = 2.035546 g / cm^3
# Si number density = 20.401896 Si / 1000 Ang^3
#
#
#
# Elastic Constant Matrix: (Units=GPa)
#
#
# Indices 1 2 3 4 5 6 
#
# 1 65.0609 16.1903 11.5765 0.0000 0.0000 0.0000
# 2 16.1903 145.0764 27.6176 0.0000 0.0000 0.0000
# 3 11.5765 27.6176 65.5463 0.0000 0.0000 0.0000
# 4 0.0000 0.0000 0.0000 60.9452 0.0000 0.0000
# 5 0.0000 0.0000 0.0000 0.0000 19.9860 0.0000
# 6 0.0000 0.0000 0.0000 0.0000 0.0000 37.4871
#
#
#
# Elastic Compliance Matrix: (Units=1/GPa)
#
#
# Indices 1 2 3 4 5 6 
#
# 1 0.016114 -0.001366 -0.002270 0.000000 0.000000 0.000000
# 2 -0.001366 0.007610 -0.002965 0.000000 0.000000 0.000000
# 3 -0.002270 -0.002965 0.016907 0.000000 0.000000 0.000000
# 4 0.000000 0.000000 0.000000 0.016408 0.000000 0.000000
# 5 0.000000 0.000000 0.000000 0.000000 0.050035 0.000000
# 6 0.000000 0.000000 0.000000 0.000000 0.000000 0.026676
#
#
# Mechanical properties :
#
#
# Convention : Reuss Voigt Hill
#
# Bulk Modulus (GPa) = 36.45975 42.93913 39.69944
# Shear Modulus (GPa) = 32.03167 38.37028 35.20098
#
# Velocity S-wave (km/s) = 3.96666 4.34143 4.15827
# Velocity P-wave (km/s) = 6.23609 6.79875 6.52349
#
# Compressibility (1/GPa) = 0.02742750
#
# Stress axis : x y z
#
# Youngs Moduli (GPa) = 62.05727 131.40912 59.14811
#
# Poissons Ratio (x) = 0.17952 0.13429
# Poissons Ratio (y) = 0.08478 0.17538
# Poissons Ratio (z) = 0.14090 0.38964
#
# Static dielectric constant tensor:
#      x y z
#    x 3.949360 0.000000 0.000000 
#    y 0.000000 4.061320 0.000000 
#    z 0.000000 0.000000 3.059040 
# 
# 
# High freq. dielectric constant tensor:
#      x y z
#    x 1.826560 0.000000 0.000000 
#    y 0.000000 1.812840 0.000000 
#    z 0.000000 0.000000 1.722720 
# 
# From -- ./inp_files/29067.got.cif
#   From: 2010.03.12/outbox.cif.g09.slc.cpg/sg21_15_cif.got.tgz:29067.got - 2010.04.14 01:59:26.
