data_PCOD8160190
_publ_section_title
;
Structure prediction by ZEFSAII (Michael W. Deem and Ramdas Pophale) SiO2 
 PCOD8160190
Probable space group: C 2 2 21
;
_chemical_formula_sum "Si O2"
_cell_formula_units_Z 32
_cell_length_a 5.118972
_cell_length_b 27.402212
_cell_length_c 9.435204
_cell_angle_alpha 90.000000
_cell_angle_beta 90.000000
_cell_angle_gamma 90.000000
_cell_volume 1323.486972
_symmetry_space_group_name_H-M "C 2 2 21"
_symmetry_group_IT_number 20
_symmetry_cell_setting 'orthorhombic'
loop_
_space_group_symop_operation_xyz
x,y,z
-x,-y,1/2+z
x,-y,-z
-x,y,1/2-z
1/2+x,1/2+y,z
1/2-x,1/2-y,1/2+z
1/2+x,1/2-y,-z
1/2-x,1/2+y,1/2-z
loop_
_atom_site_type_symbol
_atom_site_label
_atom_site_fract_x
_atom_site_fract_y
_atom_site_fract_z
Si Si1 0.500000 0.324069 0.250000
Si Si2 0.853509 0.722166 0.955159
Si Si3 0.614088 0.955642 0.599754
Si Si4 0.000000 0.111777 0.250000
Si Si5 0.180981 0.633469 0.005585
O O1 0.269226 0.287716 0.300358
O O2 0.624783 0.357736 0.373035
O O3 0.616734 0.745031 0.049232
O O4 0.928316 0.668331 0.010050
O O5 0.500000 0.974587 0.750000
O O6 0.406130 0.923098 0.510621
O O7 0.861498 0.922327 0.633295
O O8 0.699958 0.000000 0.500000
O O9 0.814725 0.146285 0.156573
#
# Coordination Sequence:
#
# PCOD8160190 Si02
#       5
#     4   8   8   4   8
#     4  12  26  52  77 114 146 206 252 319 380 450
#     4  12  27  51  74 113 153 198 255 315 374 449
#     4  10  24  46  72 108 149 198 251 312 379 453
#     4  10  24  48  73 108 154 202 244 311 392 442
#     4  11  25  50  75 112 153 195 255 313 383 453
#
# _framework density 24.178550999999999
#
# number of rings (size 3 to 8) (size 9 to 14) (size 15 to 20)
#    0.000    1.000    2.500    2.250    0.000    8.000 
#   15.750    2.500    0.000    0.000    0.000    0.000 
#    0.000    0.000    0.000    0.000    0.000    0.000 
#
# Total GULP energy -198272.666199 kJ/mol
# GULP energy per Si atom -12392.041637 kJ/mol
# Density = 2.412352 g / cm^3
# Si number density = 24.178551 Si / 1000 Ang^3
#
#
#
# Elastic Constant Matrix: (Units=GPa)
#
#
# Indices 1 2 3 4 5 6 
#
# 1 142.1544 37.2843 64.0236 0.0000 0.0000 0.0000
# 2 37.2843 86.5164 81.9129 0.0000 0.0000 0.0000
# 3 64.0236 81.9129 147.1416 0.0000 0.0000 0.0000
# 4 0.0000 0.0000 0.0000 50.8702 0.0000 0.0000
# 5 0.0000 0.0000 0.0000 0.0000 56.5882 0.0000
# 6 0.0000 0.0000 0.0000 0.0000 0.0000 9.7008
#
#
#
# Elastic Compliance Matrix: (Units=1/GPa)
#
#
# Indices 1 2 3 4 5 6 
#
# 1 0.008754 -0.000351 -0.003613 0.000000 0.000000 0.000000
# 2 -0.000351 0.024455 -0.013461 0.000000 0.000000 0.000000
# 3 -0.003613 -0.013461 0.015862 0.000000 0.000000 0.000000
# 4 0.000000 0.000000 0.000000 0.019658 0.000000 0.000000
# 5 0.000000 0.000000 0.000000 0.000000 0.017672 0.000000
# 6 0.000000 0.000000 0.000000 0.000000 0.000000 0.103084
#
#
# Mechanical properties :
#
#
# Convention : Reuss Voigt Hill
#
# Bulk Modulus (GPa) = 70.32669 82.47266 76.39968
# Shear Modulus (GPa) = 21.82688 36.27126 29.04907
#
# Velocity S-wave (km/s) = 3.00782 3.87737 3.46994
# Velocity P-wave (km/s) = 6.41967 7.36405 6.90802
#
# Compressibility (1/GPa) = 0.01421935
#
# Stress axis : x y z
#
# Youngs Moduli (GPa) = 114.23076 40.89224 63.04385
#
# Poissons Ratio (x) = 0.01437 0.22780
# Poissons Ratio (y) = 0.04015 0.84862
# Poissons Ratio (z) = 0.41276 0.55044
#
# Static dielectric constant tensor:
#      x y z
#    x 4.770740 0.000000 0.000000 
#    y 0.000000 4.092830 0.000000 
#    z 0.000000 0.000000 4.293950 
# 
# 
# High freq. dielectric constant tensor:
#      x y z
#    x 1.983470 0.000000 0.000000 
#    y 0.000000 1.940540 0.000000 
#    z 0.000000 0.000000 1.962420 
# 
# From -- ./inp_files/5266.got.cif
#   From: 2010.03.12/outbox.cif.g09.slc.cpg/sg20_3_cif.got.tgz:5266.got - 2010.04.14 01:38:04.
