data_PCOD8160128
_publ_section_title
;
Structure prediction by ZEFSAII (Michael W. Deem and Ramdas Pophale) SiO2 
 PCOD8160128
Probable space group: C 2 2 21
;
_chemical_formula_sum "Si O2"
_cell_formula_units_Z 64
_cell_length_a 22.204310
_cell_length_b 8.893901
_cell_length_c 16.216299
_cell_angle_alpha 90.000000
_cell_angle_beta 90.000000
_cell_angle_gamma 90.000000
_cell_volume 3202.442320
_symmetry_space_group_name_H-M "C 2 2 21"
_symmetry_group_IT_number 20
_symmetry_cell_setting 'orthorhombic'
loop_
_space_group_symop_operation_xyz
x,y,z
-x,-y,1/2+z
x,-y,-z
-x,y,1/2-z
1/2+x,1/2+y,z
1/2-x,1/2-y,1/2+z
1/2+x,1/2-y,-z
1/2-x,1/2+y,1/2-z
loop_
_atom_site_type_symbol
_atom_site_label
_atom_site_fract_x
_atom_site_fract_y
_atom_site_fract_z
Si Si1 0.534740 0.329538 0.867640
Si Si2 0.906570 0.164029 0.803704
Si Si3 0.767770 0.822820 0.496694
Si Si4 0.409546 0.328612 0.811357
Si Si5 0.785916 0.327987 0.175929
Si Si6 0.393419 0.827926 0.497815
Si Si7 0.962711 0.834598 0.369411
Si Si8 0.215495 0.317775 0.670797
O O1 0.463948 0.282831 0.873268
O O2 0.558526 0.337185 0.775906
O O3 0.575675 0.205921 0.910952
O O4 0.541177 0.496659 0.906718
O O5 0.916864 0.176690 0.706430
O O6 0.855098 0.280565 0.829137
O O7 0.968789 0.206577 0.847832
O O8 0.885034 0.996534 0.830115
O O9 0.734554 0.763526 0.413621
O O10 0.836579 0.777204 0.488359
O O11 0.741059 0.757582 0.582693
O O12 0.762138 0.000000 0.500000
O O13 0.356422 0.208422 0.815138
O O14 0.775307 0.505115 0.179981
O O15 0.749155 0.257850 0.251960
O O16 0.443026 0.790668 0.566006
O O17 0.373131 0.000000 0.500000
#
# Coordination Sequence:
#
# PCOD8160128 Si02
#       8
#     8   8   8   8   8   8   8   8
#     4   9  19  37  59  81 110 148 183 221 278 343
#     4   9  19  37  60  84 109 143 188 230 275 336
#     4  10  24  43  58  77 113 158 194 228 283 352
#     4   9  19  37  60  84 109 143 188 230 275 336
#     4  11  23  39  60  85 116 154 193 237 288 339
#     4  12  24  35  54  85 113 140 184 236 279 324
#     4   9  19  37  59  81 110 148 183 221 278 343
#     4  11  23  39  60  85 116 154 193 237 288 339
#
# _framework density 19.984746999999999
#
# number of rings (size 3 to 8) (size 9 to 14) (size 15 to 20)
#    0.000    2.000    0.000    4.875    0.000   11.000 
#    0.000    5.000    0.000    0.000    0.000    0.000 
#    0.000    0.000    0.000    0.000    0.000    0.000 
#
# Total GULP energy -396716.189929 kJ/mol
# GULP energy per Si atom -12397.380935 kJ/mol
# Density = 1.993926 g / cm^3
# Si number density = 19.984747 Si / 1000 Ang^3
#
#
#
# Elastic Constant Matrix: (Units=GPa)
#
#
# Indices 1 2 3 4 5 6 
#
# 1 108.2208 25.0406 38.5838 0.0000 0.0000 0.0000
# 2 25.0406 37.5603 34.6976 0.0000 0.0000 0.0000
# 3 38.5838 34.6976 100.6651 0.0000 0.0000 0.0000
# 4 0.0000 0.0000 0.0000 29.5810 0.0000 0.0000
# 5 0.0000 0.0000 0.0000 0.0000 27.4153 0.0000
# 6 0.0000 0.0000 0.0000 0.0000 0.0000 -13.7384
#
#
#
# Elastic Compliance Matrix: (Units=1/GPa)
#
#
# Indices 1 2 3 4 5 6 
#
# 1 0.011358 -0.005209 -0.002558 0.000000 0.000000 0.000000
# 2 -0.005209 0.041451 -0.012291 0.000000 0.000000 0.000000
# 3 -0.002558 -0.012291 0.015151 0.000000 0.000000 0.000000
# 4 0.000000 0.000000 0.000000 0.033805 0.000000 0.000000
# 5 0.000000 0.000000 0.000000 0.000000 0.036476 0.000000
# 6 0.000000 0.000000 0.000000 0.000000 0.000000 -0.072789
#
#
# Mechanical properties :
#
#
# Convention : Reuss Voigt Hill
#
# Bulk Modulus (GPa) = 35.91467 49.23225 42.57346
# Shear Modulus (GPa) = 43.53585 18.52655 31.03120
#
# Velocity S-wave (km/s) = 4.67245 3.04803 3.94476
# Velocity P-wave (km/s) = 6.86434 6.08898 6.48825
#
# Compressibility (1/GPa) = 0.02784378
#
# Stress axis : x y z
#
# Youngs Moduli (GPa) = 88.04704 24.12506 66.00340
#
# Poissons Ratio (x) = 0.12567 0.16882
# Poissons Ratio (y) = 0.45864 0.81124
# Poissons Ratio (z) = 0.22520 0.29652
#
# Static dielectric constant tensor:
#      x y z
#    x 3.713850 0.000000 0.000000 
#    y 0.000000 3.498700 0.000000 
#    z 0.000000 0.000000 3.898730 
# 
# 
# High freq. dielectric constant tensor:
#      x y z
#    x 1.790280 0.000000 0.000000 
#    y 0.000000 1.764100 0.000000 
#    z 0.000000 0.000000 1.783100 
# 
# From -- ./inp_files/25530.got.cif
#   From: 2010.03.12/outbox.cif.g09.slc.cpg/sg20_13_cif.got.tgz:25530.got - 2010.04.14 01:38:04.
