data_PCOD8160869
_publ_section_title
;
Structure prediction by ZEFSAII (Michael W. Deem and Ramdas Pophale) SiO2 
 PCOD8160869
Probable space group: C 2 2 2
;
_chemical_formula_sum "Si O2"
_cell_formula_units_Z 52
_cell_length_a 26.060792
_cell_length_b 16.750542
_cell_length_c 6.455918
_cell_angle_alpha 90.000000
_cell_angle_beta 90.000000
_cell_angle_gamma 90.000000
_cell_volume 2818.217320
_symmetry_space_group_name_H-M "C 2 2 2"
_symmetry_group_IT_number 21
_symmetry_cell_setting 'orthorhombic'
loop_
_space_group_symop_operation_xyz
x,y,z
-x,-y,z
x,-y,-z
-x,y,-z
1/2+x,1/2+y,z
1/2-x,1/2-y,z
1/2+x,1/2-y,-z
1/2-x,1/2+y,-z
loop_
_atom_site_type_symbol
_atom_site_label
_atom_site_fract_x
_atom_site_fract_y
_atom_site_fract_z
Si Si1 0.846755 0.728360 0.488001
Si Si2 0.452806 0.271488 0.375359
Si Si3 0.433105 0.573895 0.357990
Si Si4 0.500000 0.355151 0.000000
Si Si5 0.828088 0.127928 0.249596
Si Si6 0.781879 0.178834 0.850417
Si Si7 0.728259 0.909580 0.487789
O O1 0.903543 0.712975 0.392188
O O2 0.848326 0.783645 0.691637
O O3 0.814017 0.778926 0.327002
O O4 0.820118 0.645387 0.551023
O O5 0.500000 0.230210 0.500000
O O6 0.439205 0.352242 0.492130
O O7 0.465186 0.294869 0.137759
O O8 0.451277 0.500000 0.500000
O O9 0.373247 0.563993 0.293795
O O10 0.466642 0.586896 0.149247
O O11 0.775740 0.101765 0.357958
O O12 0.818244 0.130862 0.004711
O O13 0.750000 0.250000 0.965048
O O14 0.744633 0.113388 0.745479
O O15 0.708835 0.000000 0.500000
#
# Coordination Sequence:
#
# PCOD8160869 Si02
#       7
#     8   8   8   4   8   8   8
#     4   9  18  33  51  73  99 127 165 207 245 291
#     4   9  19  33  51  73  93 122 168 211 248 296
#     4  10  21  33  48  73 101 132 170 208 248 296
#     4  10  20  35  52  68  98 135 168 212 256 281
#     4  10  18  33  52  71  99 134 170 205 243 286
#     4   9  17  30  50  72  95 130 169 199 236 291
#     4  10  20  32  48  73 105 133 159 201 250 300
#
# _framework density 18.451381000000001
#
# number of rings (size 3 to 8) (size 9 to 14) (size 15 to 20)
#    0.000    2.462    0.000    3.692    0.000    4.615 
#    0.000    1.538    0.000    5.077    0.000    0.000 
#    0.000   11.077    0.000    0.000    0.000    0.000 
#
# Total GULP energy -322257.777818 kJ/mol
# GULP energy per Si atom -12394.529916 kJ/mol
# Density = 1.840938 g / cm^3
# Si number density = 18.451381 Si / 1000 Ang^3
#
#
#
# Elastic Constant Matrix: (Units=GPa)
#
#
# Indices 1 2 3 4 5 6 
#
# 1 115.6476 37.1396 21.5884 0.0000 0.0000 0.0000
# 2 37.1396 77.0994 21.7474 0.0000 0.0000 0.0000
# 3 21.5884 21.7474 83.9014 0.0000 0.0000 0.0000
# 4 0.0000 0.0000 0.0000 15.5650 0.0000 0.0000
# 5 0.0000 0.0000 0.0000 0.0000 20.0989 0.0000
# 6 0.0000 0.0000 0.0000 0.0000 0.0000 16.3807
#
#
#
# Elastic Compliance Matrix: (Units=1/GPa)
#
#
# Indices 1 2 3 4 5 6 
#
# 1 0.010398 -0.004590 -0.001486 0.000000 0.000000 0.000000
# 2 -0.004590 0.016019 -0.002971 0.000000 0.000000 0.000000
# 3 -0.001486 -0.002971 0.013071 0.000000 0.000000 0.000000
# 4 0.000000 0.000000 0.000000 0.064247 0.000000 0.000000
# 5 0.000000 0.000000 0.000000 0.000000 0.049754 0.000000
# 6 0.000000 0.000000 0.000000 0.000000 0.000000 0.061048
#
#
# Mechanical properties :
#
#
# Convention : Reuss Voigt Hill
#
# Bulk Modulus (GPa) = 46.73995 48.62213 47.68104
# Shear Modulus (GPa) = 20.85393 23.48711 22.17052
#
# Velocity S-wave (km/s) = 3.36551 3.57167 3.47012
# Velocity P-wave (km/s) = 6.36306 6.58922 6.47713
#
# Compressibility (1/GPa) = 0.02139497
#
# Stress axis : x y z
#
# Youngs Moduli (GPa) = 96.16920 62.42445 76.50395
#
# Poissons Ratio (x) = 0.28652 0.11367
# Poissons Ratio (y) = 0.44141 0.22731
# Poissons Ratio (z) = 0.14289 0.18548
#
# Static dielectric constant tensor:
#      x y z
#    x 4.060200 0.000000 0.000000 
#    y 0.000000 3.130890 0.000000 
#    z 0.000000 0.000000 3.481220 
# 
# 
# High freq. dielectric constant tensor:
#      x y z
#    x 1.721500 0.000000 0.000000 
#    y 0.000000 1.667180 0.000000 
#    z 0.000000 0.000000 1.719640 
# 
# From -- ./inp_files/8089.got.cif
#   From: 2010.03.12/outbox.cif.g09.slc.cpg/sg21_5_cif.got.tgz:8089.got - 2010.04.14 01:59:26.
