data_PCOD8160154
_publ_section_title
;
Structure prediction by ZEFSAII (Michael W. Deem and Ramdas Pophale) SiO2 
 PCOD8160154
Probable space group: C 2 2 21
;
_chemical_formula_sum "Si O2"
_cell_formula_units_Z 48
_cell_length_a 9.045788
_cell_length_b 22.794302
_cell_length_c 11.004560
_cell_angle_alpha 90.000000
_cell_angle_beta 90.000000
_cell_angle_gamma 90.000000
_cell_volume 2269.056896
_symmetry_space_group_name_H-M "C 2 2 21"
_symmetry_group_IT_number 20
_symmetry_cell_setting 'orthorhombic'
loop_
_space_group_symop_operation_xyz
x,y,z
-x,-y,1/2+z
x,-y,-z
-x,y,1/2-z
1/2+x,1/2+y,z
1/2-x,1/2-y,1/2+z
1/2+x,1/2-y,-z
1/2-x,1/2+y,1/2-z
loop_
_atom_site_type_symbol
_atom_site_label
_atom_site_fract_x
_atom_site_fract_y
_atom_site_fract_z
Si Si1 0.006502 0.418877 0.887412
Si Si2 0.048328 0.281587 0.884513
Si Si3 0.636816 0.695387 0.461517
Si Si4 0.558041 0.404382 0.384600
Si Si5 0.750627 0.000000 0.000000
Si Si6 0.500000 0.618186 0.250000
Si Si7 0.680400 0.438175 0.947311
O O1 0.856803 0.435272 0.958662
O O2 0.000000 0.441036 0.750000
O O3 0.017203 0.349871 0.897959
O O4 0.149687 0.450213 0.941076
O O5 0.219929 0.271517 0.910873
O O6 0.000000 0.259506 0.750000
O O7 0.965878 0.247389 0.991017
O O8 0.664424 0.649540 0.573460
O O9 0.573942 0.659650 0.348110
O O10 0.500000 0.398321 0.250000
O O11 0.644177 0.466189 0.403607
O O12 0.409468 0.394067 0.465449
O O13 0.374707 0.575696 0.309711
O O14 0.626950 0.500000 0.000000
#
# Coordination Sequence:
#
# PCOD8160154 Si02
#       7
#     8   8   8   8   4   4   8
#     4  11  25  43  68  99 137 176 234 297 357 415
#     4  11  25  45  74 101 140 182 240 300 358 419
#     4  11  25  46  71 104 134 190 234 291 361 420
#     4  11  26  43  67 100 145 182 229 288 349 432
#     4  12  24  42  66 102 138 188 234 278 362 426
#     4  10  24  44  70 100 140 186 238 280 358 432
#     4  11  24  39  69 101 132 182 230 282 349 424
#
# _framework density 21.154163
#
# number of rings (size 3 to 8) (size 9 to 14) (size 15 to 20)
#    0.000    1.000    3.333    2.500   12.833    0.000 
#    0.000    0.000    1.833    0.000    0.000    0.000 
#    0.000    0.000    0.000    0.000    0.000    0.000 
#
# Total GULP energy -297453.451086 kJ/mol
# GULP energy per Si atom -12393.893795 kJ/mol
# Density = 2.110602 g / cm^3
# Si number density = 21.154163 Si / 1000 Ang^3
#
#
#
# Elastic Constant Matrix: (Units=GPa)
#
#
# Indices 1 2 3 4 5 6 
#
# 1 141.4484 34.1169 63.1484 0.0000 0.0000 0.0000
# 2 34.1169 80.9538 53.5104 0.0000 0.0000 0.0000
# 3 63.1484 53.5104 146.4236 0.0000 0.0000 0.0000
# 4 0.0000 0.0000 0.0000 39.2400 0.0000 0.0000
# 5 0.0000 0.0000 0.0000 0.0000 31.3763 0.0000
# 6 0.0000 0.0000 0.0000 0.0000 0.0000 47.6067
#
#
#
# Elastic Compliance Matrix: (Units=1/GPa)
#
#
# Indices 1 2 3 4 5 6 
#
# 1 0.008910 -0.001602 -0.003257 0.000000 0.000000 0.000000
# 2 -0.001602 0.016575 -0.005366 0.000000 0.000000 0.000000
# 3 -0.003257 -0.005366 0.010195 0.000000 0.000000 0.000000
# 4 0.000000 0.000000 0.000000 0.025484 0.000000 0.000000
# 5 0.000000 0.000000 0.000000 0.000000 0.031871 0.000000
# 6 0.000000 0.000000 0.000000 0.000000 0.000000 0.021005
#
#
# Mechanical properties :
#
#
# Convention : Reuss Voigt Hill
#
# Bulk Modulus (GPa) = 65.66300 74.48635 70.07468
# Shear Modulus (GPa) = 35.82438 38.18127 37.00283
#
# Velocity S-wave (km/s) = 4.11967 4.25303 4.18688
# Velocity P-wave (km/s) = 7.33052 7.70748 7.52136
#
# Compressibility (1/GPa) = 0.01522928
#
# Stress axis : x y z
#
# Youngs Moduli (GPa) = 112.22938 60.33142 98.08303
#
# Poissons Ratio (x) = 0.09665 0.31949
# Poissons Ratio (y) = 0.17980 0.52636
# Poissons Ratio (z) = 0.36556 0.32377
#
# Static dielectric constant tensor:
#      x y z
#    x 4.034290 0.000000 0.000000 
#    y 0.000000 3.899500 0.000000 
#    z 0.000000 0.000000 3.905780 
# 
# 
# High freq. dielectric constant tensor:
#      x y z
#    x 1.838880 0.000000 0.000000 
#    y 0.000000 1.835180 0.000000 
#    z 0.000000 0.000000 1.826620 
# 
# From -- ./inp_files/13151.got.cif
#   From: 2010.03.12/outbox.cif.g09.slc.cpg/sg20_7_cif.got.tgz:13151.got - 2010.04.14 01:38:04.
