data_PCOD8160299
_publ_section_title
;
Structure prediction by ZEFSAII (Michael W. Deem and Ramdas Pophale) SiO2 
 PCOD8160299
Probable space group: C 2 2 21
;
_chemical_formula_sum "Si O2"
_cell_formula_units_Z 56
_cell_length_a 9.101526
_cell_length_b 21.814378
_cell_length_c 12.783604
_cell_angle_alpha 90.000000
_cell_angle_beta 90.000000
_cell_angle_gamma 90.000000
_cell_volume 2538.109516
_symmetry_space_group_name_H-M "C 2 2 21"
_symmetry_group_IT_number 20
_symmetry_cell_setting 'orthorhombic'
loop_
_space_group_symop_operation_xyz
x,y,z
-x,-y,1/2+z
x,-y,-z
-x,y,1/2-z
1/2+x,1/2+y,z
1/2-x,1/2-y,1/2+z
1/2+x,1/2-y,-z
1/2-x,1/2+y,1/2-z
loop_
_atom_site_type_symbol
_atom_site_label
_atom_site_fract_x
_atom_site_fract_y
_atom_site_fract_z
Si Si1 0.720373 0.424483 0.193188
Si Si2 0.506608 0.000000 0.000000
Si Si3 0.695810 0.100653 0.916632
Si Si4 0.909587 0.334670 0.072990
Si Si5 0.298316 0.341053 0.615028
Si Si6 0.002040 0.072270 0.979536
Si Si7 0.643875 0.050485 0.315328
Si Si8 0.000000 0.752686 0.750000
O O1 0.739391 0.387640 0.300963
O O2 0.845712 0.399547 0.114333
O O3 0.561490 0.414604 0.138798
O O4 0.741764 0.496905 0.212838
O O5 0.609915 0.963712 0.081089
O O6 0.402386 0.046971 0.062471
O O7 0.583509 0.154609 0.952677
O O8 0.835708 0.096571 0.992963
O O9 0.901378 0.286093 0.168226
O O10 0.814425 0.311869 0.972049
O O11 0.408842 0.388980 0.562829
O O12 0.210938 0.381866 0.700574
O O13 0.385283 0.290208 0.679076
O O14 0.015533 0.000000 0.000000
O O15 0.500000 0.042297 0.250000
#
# Coordination Sequence:
#
# PCOD8160299 Si02
#       8
#     8   4   8   8   8   8   8   4
#     4  11  20  39  67 102 139 186 227 287 361 427
#     4  12  20  32  62 106 142 168 224 282 354 422
#     4  12  21  36  67 104 137 186 235 289 350 431
#     4  11  23  47  77  98 131 189 256 299 343 437
#     4  11  27  47  71 101 142 190 233 304 375 433
#     4  11  23  38  64 104 152 182 220 295 375 444
#     4  12  21  38  68 104 137 176 229 294 361 438
#     4  12  28  52  74  98 146 194 246 306 370 428
#
# _framework density 22.063665
#
# number of rings (size 3 to 8) (size 9 to 14) (size 15 to 20)
#    0.000    0.571    7.857    1.286    0.000    3.429 
#    2.571    0.000    0.000    0.000    0.000    0.000 
#    0.000    0.000    0.000    0.000    0.000    0.000 
#
# Total GULP energy -347059.060824 kJ/mol
# GULP energy per Si atom -12394.966458 kJ/mol
# Density = 2.201345 g / cm^3
# Si number density = 22.063665 Si / 1000 Ang^3
#
#
#
# Elastic Constant Matrix: (Units=GPa)
#
#
# Indices 1 2 3 4 5 6 
#
# 1 123.0519 40.9765 35.3434 0.0000 0.0000 0.0000
# 2 40.9765 88.7484 35.8538 0.0000 0.0000 0.0000
# 3 35.3434 35.8538 80.9527 0.0000 0.0000 0.0000
# 4 0.0000 0.0000 0.0000 27.9448 0.0000 0.0000
# 5 0.0000 0.0000 0.0000 0.0000 31.1086 0.0000
# 6 0.0000 0.0000 0.0000 0.0000 0.0000 30.3000
#
#
#
# Elastic Compliance Matrix: (Units=1/GPa)
#
#
# Indices 1 2 3 4 5 6 
#
# 1 0.010119 -0.003517 -0.002861 0.000000 0.000000 0.000000
# 2 -0.003517 0.014945 -0.005084 0.000000 0.000000 0.000000
# 3 -0.002861 -0.005084 0.015853 0.000000 0.000000 0.000000
# 4 0.000000 0.000000 0.000000 0.035785 0.000000 0.000000
# 5 0.000000 0.000000 0.000000 0.000000 0.032145 0.000000
# 6 0.000000 0.000000 0.000000 0.000000 0.000000 0.033003
#
#
# Mechanical properties :
#
#
# Convention : Reuss Voigt Hill
#
# Bulk Modulus (GPa) = 55.56803 57.45560 56.51181
# Shear Modulus (GPa) = 29.27873 29.90930 29.59402
#
# Velocity S-wave (km/s) = 3.64677 3.68583 3.66635
# Velocity P-wave (km/s) = 6.55529 6.64915 6.60239
#
# Compressibility (1/GPa) = 0.01799596
#
# Stress axis : x y z
#
# Youngs Moduli (GPa) = 98.82110 66.91037 63.07776
#
# Poissons Ratio (x) = 0.23530 0.18044
# Poissons Ratio (y) = 0.34751 0.32068
# Poissons Ratio (z) = 0.28268 0.34017
#
# Static dielectric constant tensor:
#      x y z
#    x 4.181170 0.000000 0.000000 
#    y 0.000000 3.729790 0.000000 
#    z 0.000000 0.000000 3.959670 
# 
# 
# High freq. dielectric constant tensor:
#      x y z
#    x 1.877920 0.000000 0.000000 
#    y 0.000000 1.837630 0.000000 
#    z 0.000000 0.000000 1.867270 
# 
# From -- ./inp_files/19265.got.cif
#   From: 2010.03.12/outbox.cif.g09.slc.cpg/sg20_10_cif.got.tgz:19265.got - 2010.04.14 01:38:04.
