data_PCOD8160586
_publ_section_title
;
Structure prediction by ZEFSAII (Michael W. Deem and Ramdas Pophale) SiO2 
 PCOD8160586
Probable space group: C 2 2 21
;
_chemical_formula_sum "Si O2"
_cell_formula_units_Z 48
_cell_length_a 25.362506
_cell_length_b 6.551290
_cell_length_c 13.826818
_cell_angle_alpha 90.000000
_cell_angle_beta 90.000000
_cell_angle_gamma 90.000000
_cell_volume 2297.424423
_symmetry_space_group_name_H-M "C 2 2 21"
_symmetry_group_IT_number 20
_symmetry_cell_setting 'orthorhombic'
loop_
_space_group_symop_operation_xyz
x,y,z
-x,-y,1/2+z
x,-y,-z
-x,y,1/2-z
1/2+x,1/2+y,z
1/2-x,1/2-y,1/2+z
1/2+x,1/2-y,-z
1/2-x,1/2+y,1/2-z
loop_
_atom_site_type_symbol
_atom_site_label
_atom_site_fract_x
_atom_site_fract_y
_atom_site_fract_z
Si Si1 0.500000 0.852693 0.250000
Si Si2 0.217683 0.021084 0.111674
Si Si3 0.869413 0.766098 0.306889
Si Si4 0.960897 0.000000 0.000000
Si Si5 0.526323 0.137527 0.088763
Si Si6 0.403583 0.380224 0.815617
Si Si7 0.693241 0.127861 0.750311
O O1 0.551909 0.710334 0.242638
O O2 0.490260 0.998254 0.157950
O O3 0.160044 0.920372 0.120700
O O4 0.257862 0.895852 0.178415
O O5 0.212474 0.253370 0.152272
O O6 0.235828 0.000000 0.000000
O O7 0.919204 0.676419 0.359405
O O8 0.828987 0.591084 0.277736
O O9 0.890049 0.887263 0.212668
O O10 0.997108 0.154502 0.939255
O O11 0.924654 0.875332 0.925424
O O12 0.542052 0.000000 0.000000
O O13 0.350650 0.249935 0.809511
#
# Coordination Sequence:
#
# PCOD8160586 Si02
#       7
#     4   8   8   4   8   8   8
#     4  12  22  48  64  98 144 186 222 294 344 404
#     4  11  26  45  74 101 137 180 233 298 357 429
#     4  11  25  44  71  99 140 181 227 294 353 417
#     4  12  26  44  66 108 144 184 244 282 346 432
#     4  12  26  41  70 101 135 182 235 282 339 418
#     4  11  25  43  69  99 144 185 229 284 353 418
#     4  11  24  49  69 104 140 181 237 291 364 427
#
# _framework density 20.892959999999999
#
# number of rings (size 3 to 8) (size 9 to 14) (size 15 to 20)
#    0.000    0.667    5.000    2.000    3.500    1.333 
#    0.000    0.000    0.000    0.000    0.000    0.000 
#    0.000    0.000    0.000    0.000    0.000    0.000 
#
# Total GULP energy -297658.690432 kJ/mol
# GULP energy per Si atom -12402.445435 kJ/mol
# Density = 2.084541 g / cm^3
# Si number density = 20.892960 Si / 1000 Ang^3
#
#
#
# Elastic Constant Matrix: (Units=GPa)
#
#
# Indices 1 2 3 4 5 6 
#
# 1 85.0122 32.1574 21.7685 0.0000 0.0000 0.0000
# 2 32.1574 109.2599 38.4063 0.0000 0.0000 0.0000
# 3 21.7685 38.4063 107.9480 0.0000 0.0000 0.0000
# 4 0.0000 0.0000 0.0000 36.7560 0.0000 0.0000
# 5 0.0000 0.0000 0.0000 0.0000 -1.0441 0.0000
# 6 0.0000 0.0000 0.0000 0.0000 0.0000 52.8647
#
#
#
# Elastic Compliance Matrix: (Units=1/GPa)
#
#
# Indices 1 2 3 4 5 6 
#
# 1 0.013443 -0.003433 -0.001489 0.000000 0.000000 0.000000
# 2 -0.003433 0.011337 -0.003341 0.000000 0.000000 0.000000
# 3 -0.001489 -0.003341 0.010753 0.000000 0.000000 0.000000
# 4 0.000000 0.000000 0.000000 0.027206 0.000000 0.000000
# 5 0.000000 0.000000 0.000000 0.000000 -0.957771 0.000000
# 6 0.000000 0.000000 0.000000 0.000000 0.000000 0.018916
#
#
# Mechanical properties :
#
#
# Convention : Reuss Voigt Hill
#
# Bulk Modulus (GPa) = 52.61600 54.09826 53.35713
# Shear Modulus (GPa) = -5.85993 31.70784 12.92395
#
# Velocity S-wave (km/s) = -1.67655 3.89991 2.48982
# Velocity P-wave (km/s) = 4.63578 6.79914 5.81888
#
# Compressibility (1/GPa) = 0.01900563
#
# Stress axis : x y z
#
# Youngs Moduli (GPa) = 74.38816 88.20339 92.99809
#
# Poissons Ratio (x) = 0.30280 0.13852
# Poissons Ratio (y) = 0.25537 0.31074
# Poissons Ratio (z) = 0.11080 0.29472
#
# Static dielectric constant tensor:
#      x y z
#    x 3.872190 0.000000 0.000000 
#    y 0.000000 4.079000 0.000000 
#    z 0.000000 0.000000 3.799760 
# 
# 
# High freq. dielectric constant tensor:
#      x y z
#    x 1.830150 0.000000 0.000000 
#    y 0.000000 1.835780 0.000000 
#    z 0.000000 0.000000 1.807800 
# 
# From -- ./inp_files/22170.got.cif
#   From: 2010.03.12/outbox.cif.g09.slc.cpg/sg20_12_cif.got.tgz:22170.got - 2010.04.14 01:38:04.
