data_PCOD8160974
_publ_section_title
;
Structure prediction by ZEFSAII (Michael W. Deem and Ramdas Pophale) SiO2 
 PCOD8160974
Probable space group: C 2 2 2
;
_chemical_formula_sum "Si O2"
_cell_formula_units_Z 48
_cell_length_a 8.647153
_cell_length_b 16.299268
_cell_length_c 15.568263
_cell_angle_alpha 90.000000
_cell_angle_beta 90.000000
_cell_angle_gamma 90.000000
_cell_volume 2194.226237
_symmetry_space_group_name_H-M "C 2 2 2"
_symmetry_group_IT_number 21
_symmetry_cell_setting 'orthorhombic'
loop_
_space_group_symop_operation_xyz
x,y,z
-x,-y,z
x,-y,-z
-x,y,-z
1/2+x,1/2+y,z
1/2-x,1/2-y,z
1/2+x,1/2-y,-z
1/2-x,1/2+y,-z
loop_
_atom_site_type_symbol
_atom_site_label
_atom_site_fract_x
_atom_site_fract_y
_atom_site_fract_z
Si Si1 0.578456 0.153272 0.412964
Si Si2 0.573381 0.410322 0.083350
Si Si3 0.588412 0.651940 0.245751
Si Si4 0.425763 0.159673 0.242234
Si Si5 0.424962 0.349367 0.586927
Si Si6 0.629334 0.827325 0.925418
O O1 0.500000 0.119750 0.500000
O O2 0.495035 0.117587 0.327783
O O3 0.574536 0.251291 0.411781
O O4 0.750916 0.118248 0.409382
O O5 0.500000 0.500000 0.092525
O O6 0.529554 0.359168 0.167304
O O7 0.759023 0.407576 0.067530
O O8 0.500000 0.366047 0.000000
O O9 0.605833 0.746897 0.265054
O O10 0.759357 0.616259 0.222767
O O11 0.518257 0.612088 0.332239
O O12 0.541409 0.156367 0.162868
O O13 0.500000 0.383413 0.500000
O O14 0.750000 0.750000 0.924875
O O15 0.500000 0.821047 0.000000
#
# Coordination Sequence:
#
# PCOD8160974 Si02
#       6
#     8   8   8   8   8   8
#     4   9  16  26  42  73 115 153 190 231 298 359
#     4  11  24  43  61  82 118 157 195 244 302 367
#     4  10  19  34  54  81 116 153 197 240 301 353
#     4  10  20  31  55  85 117 150 193 253 295 353
#     4   9  16  26  45  71 109 151 191 239 290 351
#     4  12  24  38  64  93 121 156 204 258 312 366
#
# _framework density 21.875594
#
# number of rings (size 3 to 8) (size 9 to 14) (size 15 to 20)
#    0.000    1.833    1.667    3.500    4.667    4.000 
#    0.000    5.833    0.000    0.500    0.000    0.000 
#    0.000    1.333    0.000    0.000    0.000    0.000 
#
# Total GULP energy -297365.087806 kJ/mol
# GULP energy per Si atom -12390.211992 kJ/mol
# Density = 2.182580 g / cm^3
# Si number density = 21.875594 Si / 1000 Ang^3
#
#
#
# Elastic Constant Matrix: (Units=GPa)
#
#
# Indices 1 2 3 4 5 6 
#
# 1 214.1713 23.9479 101.2641 0.0000 0.0000 0.0000
# 2 23.9479 26.9314 4.8928 0.0000 0.0000 0.0000
# 3 101.2641 4.8928 214.3306 0.0000 0.0000 0.0000
# 4 0.0000 0.0000 0.0000 10.6068 0.0000 0.0000
# 5 0.0000 0.0000 0.0000 0.0000 49.2362 0.0000
# 6 0.0000 0.0000 0.0000 0.0000 0.0000 16.5232
#
#
#
# Elastic Compliance Matrix: (Units=1/GPa)
#
#
# Indices 1 2 3 4 5 6 
#
# 1 0.006717 -0.005419 -0.003050 0.000000 0.000000 0.000000
# 2 -0.005419 0.041658 0.001609 0.000000 0.000000 0.000000
# 3 -0.003050 0.001609 0.006070 0.000000 0.000000 0.000000
# 4 0.000000 0.000000 0.000000 0.094279 0.000000 0.000000
# 5 0.000000 0.000000 0.000000 0.000000 0.020310 0.000000
# 6 0.000000 0.000000 0.000000 0.000000 0.000000 0.060521
#
#
# Mechanical properties :
#
#
# Convention : Reuss Voigt Hill
#
# Bulk Modulus (GPa) = 24.55462 79.51589 52.03525
# Shear Modulus (GPa) = 19.46664 36.96179 28.21422
#
# Velocity S-wave (km/s) = 2.98632 4.11498 3.59522
# Velocity P-wave (km/s) = 4.81039 7.68150 6.40879
#
# Compressibility (1/GPa) = 0.04072554
#
# Stress axis : x y z
#
# Youngs Moduli (GPa) = 148.87284 24.00525 164.74630
#
# Poissons Ratio (x) = 0.13008 0.50246
# Poissons Ratio (y) = 0.80673 -0.26512
# Poissons Ratio (z) = 0.45405 -0.03863
#
# Static dielectric constant tensor:
#      x y z
#    x 4.416840 0.000000 0.000000 
#    y 0.000000 3.227980 0.000000 
#    z 0.000000 0.000000 4.208250 
# 
# 
# High freq. dielectric constant tensor:
#      x y z
#    x 1.883930 0.000000 0.000000 
#    y 0.000000 1.785550 0.000000 
#    z 0.000000 0.000000 1.879770 
# 
# From -- ./inp_files/30622.got.cif
#   From: 2010.03.12/outbox.cif.g09.slc.cpg/sg21_16_cif.got.tgz:30622.got - 2010.04.14 01:59:26.
