data_PCOD8160345
_publ_section_title
;
Structure prediction by ZEFSAII (Michael W. Deem and Ramdas Pophale) SiO2 
 PCOD8160345
Probable space group: C 2 2 21
;
_chemical_formula_sum "Si O2"
_cell_formula_units_Z 64
_cell_length_a 8.398260
_cell_length_b 20.253724
_cell_length_c 17.676264
_cell_angle_alpha 90.000000
_cell_angle_beta 90.000000
_cell_angle_gamma 90.000000
_cell_volume 3006.662511
_symmetry_space_group_name_H-M "C 2 2 21"
_symmetry_group_IT_number 20
_symmetry_cell_setting 'orthorhombic'
loop_
_space_group_symop_operation_xyz
x,y,z
-x,-y,1/2+z
x,-y,-z
-x,y,1/2-z
1/2+x,1/2+y,z
1/2-x,1/2-y,1/2+z
1/2+x,1/2-y,-z
1/2-x,1/2+y,1/2-z
loop_
_atom_site_type_symbol
_atom_site_label
_atom_site_fract_x
_atom_site_fract_y
_atom_site_fract_z
Si Si1 0.330996 0.670390 0.806626
Si Si2 0.128539 0.077961 0.312889
Si Si3 0.304189 0.193210 0.535447
Si Si4 0.812164 0.461034 0.252499
Si Si5 0.122561 0.096067 0.876048
Si Si6 0.831839 0.775639 0.788878
Si Si7 0.157291 0.296714 0.437247
Si Si8 0.107221 0.929292 0.515213
O O1 0.267104 0.702704 0.882321
O O2 0.213341 0.610544 0.788621
O O3 0.511580 0.641341 0.819363
O O4 0.311119 0.730237 0.745598
O O5 0.214213 0.146844 0.289527
O O6 0.049685 0.076950 0.397224
O O7 0.000000 0.061476 0.250000
O O8 0.254121 0.018350 0.308843
O O9 0.270324 0.264489 0.499561
O O10 0.490469 0.181352 0.528291
O O11 0.227765 0.130296 0.495157
O O12 0.708055 0.461990 0.173483
O O13 0.000000 0.472081 0.250000
O O14 0.269616 0.138306 0.902844
O O15 0.032809 0.071455 0.951392
O O16 0.865821 0.759169 0.875179
O O17 0.000000 0.761977 0.750000
O O18 0.192169 0.000000 0.500000
#
# Coordination Sequence:
#
# PCOD8160345 Si02
#       8
#     8   8   8   8   8   8   8   8
#     4  11  21  41  69 101 128 171 227 280 334 402
#     4  11  24  44  69  96 137 180 224 280 346 413
#     4  11  23  40  66  96 137 178 219 282 342 405
#     4  12  24  44  68 102 136 177 229 284 342 410
#     4  11  25  42  74 101 129 183 233 286 335 413
#     4  11  22  40  69 101 138 173 216 279 347 400
#     4  12  23  42  65 100 135 172 230 278 341 400
#     4  11  23  44  67  99 136 182 230 281 350 412
#
# _framework density 21.286061
#
# number of rings (size 3 to 8) (size 9 to 14) (size 15 to 20)
#    0.000    0.750    3.750    6.000    0.000    0.000 
#    2.250    3.125    0.000    1.500    0.000    0.000 
#    0.000    0.000    0.000    0.000    0.000    0.000 
#
# Total GULP energy -396568.303487 kJ/mol
# GULP energy per Si atom -12392.759484 kJ/mol
# Density = 2.123761 g / cm^3
# Si number density = 21.286061 Si / 1000 Ang^3
#
#
#
# Elastic Constant Matrix: (Units=GPa)
#
#
# Indices 1 2 3 4 5 6 
#
# 1 106.8061 21.7136 50.9355 0.0000 0.0000 0.0000
# 2 21.7136 101.4275 34.0218 0.0000 0.0000 0.0000
# 3 50.9355 34.0218 135.7965 0.0000 0.0000 0.0000
# 4 0.0000 0.0000 0.0000 32.4868 0.0000 0.0000
# 5 0.0000 0.0000 0.0000 0.0000 26.5974 0.0000
# 6 0.0000 0.0000 0.0000 0.0000 0.0000 26.7087
#
#
#
# Elastic Compliance Matrix: (Units=1/GPa)
#
#
# Indices 1 2 3 4 5 6 
#
# 1 0.011516 -0.001110 -0.004041 0.000000 0.000000 0.000000
# 2 -0.001110 0.010871 -0.002307 0.000000 0.000000 0.000000
# 3 -0.004041 -0.002307 0.009458 0.000000 0.000000 0.000000
# 4 0.000000 0.000000 0.000000 0.030782 0.000000 0.000000
# 5 0.000000 0.000000 0.000000 0.000000 0.037598 0.000000
# 6 0.000000 0.000000 0.000000 0.000000 0.000000 0.037441
#
#
# Mechanical properties :
#
#
# Convention : Reuss Voigt Hill
#
# Bulk Modulus (GPa) = 59.07495 61.93022 60.50258
# Shear Modulus (GPa) = 31.60079 32.98252 32.29166
#
# Velocity S-wave (km/s) = 3.85720 3.94063 3.89914
# Velocity P-wave (km/s) = 6.90293 7.06131 6.98257
#
# Compressibility (1/GPa) = 0.01692765
#
# Stress axis : x y z
#
# Youngs Moduli (GPa) = 86.83811 91.98997 105.73189
#
# Poissons Ratio (x) = 0.10208 0.42730
# Poissons Ratio (y) = 0.09636 0.24395
# Poissons Ratio (z) = 0.35094 0.21225
#
# Static dielectric constant tensor:
#      x y z
#    x 3.700160 0.000000 0.000000 
#    y 0.000000 4.032290 0.000000 
#    z 0.000000 0.000000 3.954710 
# 
# 
# High freq. dielectric constant tensor:
#      x y z
#    x 1.816640 0.000000 0.000000 
#    y 0.000000 1.842330 0.000000 
#    z 0.000000 0.000000 1.855950 
# 
# From -- ./inp_files/23898.got.cif
#   From: 2010.03.12/outbox.cif.g09.slc.cpg/sg20_12_cif.got.tgz:23898.got - 2010.04.14 01:38:04.
