data_PCOD8160294
_publ_section_title
;
Structure prediction by ZEFSAII (Michael W. Deem and Ramdas Pophale) SiO2 
 PCOD8160294
Probable space group: C 2 2 21
;
_chemical_formula_sum "Si O2"
_cell_formula_units_Z 48
_cell_length_a 14.266418
_cell_length_b 24.465892
_cell_length_c 6.211363
_cell_angle_alpha 90.000000
_cell_angle_beta 90.000000
_cell_angle_gamma 90.000000
_cell_volume 2168.018129
_symmetry_space_group_name_H-M "C 2 2 21"
_symmetry_group_IT_number 20
_symmetry_cell_setting 'orthorhombic'
loop_
_space_group_symop_operation_xyz
x,y,z
-x,-y,1/2+z
x,-y,-z
-x,y,1/2-z
1/2+x,1/2+y,z
1/2-x,1/2-y,1/2+z
1/2+x,1/2-y,-z
1/2-x,1/2+y,1/2-z
loop_
_atom_site_type_symbol
_atom_site_label
_atom_site_fract_x
_atom_site_fract_y
_atom_site_fract_z
Si Si1 0.272307 0.111050 0.533620
Si Si2 0.104023 0.143035 0.280581
Si Si3 0.908691 0.363730 0.847285
Si Si4 0.203409 0.187102 0.890976
Si Si5 0.375732 0.749052 0.959366
Si Si6 0.606366 0.045683 0.673001
O O1 0.164768 0.104691 0.444946
O O2 0.328647 0.136880 0.333067
O O3 0.269535 0.155422 0.722048
O O4 0.322269 0.054436 0.621128
O O5 0.093310 0.206550 0.356922
O O6 0.000000 0.117812 0.250000
O O7 0.156945 0.143661 0.052500
O O8 0.000000 0.392713 0.750000
O O9 0.938109 0.303622 0.936363
O O10 0.880426 0.397113 0.055617
O O11 0.268275 0.230836 0.012444
O O12 0.119180 0.217763 0.769102
O O13 0.500000 0.033776 0.750000
O O14 0.639289 0.000000 0.500000
#
# Coordination Sequence:
#
# PCOD8160294 Si02
#       6
#     8   8   8   8   8   8
#     4  11  23  42  64  89 136 180 223 286 346 408
#     4  11  25  39  60  93 138 186 245 285 339 408
#     4  12  24  39  61  95 137 182 226 275 346 416
#     4  11  20  38  58  87 131 180 230 282 330 401
#     4  11  21  33  58  86 130 180 233 280 329 398
#     4  12  26  44  68 100 139 174 226 286 359 436
#
# _framework density 22.140035999999998
#
# number of rings (size 3 to 8) (size 9 to 14) (size 15 to 20)
#    0.000    0.667    6.667    1.500    2.333    2.667 
#    0.000    0.000    0.000    0.000    0.000    0.000 
#   70.000    0.000    0.000    0.000    0.000    0.000 
#
# Total GULP energy -297328.148700 kJ/mol
# GULP energy per Si atom -12388.672863 kJ/mol
# Density = 2.208964 g / cm^3
# Si number density = 22.140036 Si / 1000 Ang^3
#
#
#
# Elastic Constant Matrix: (Units=GPa)
#
#
# Indices 1 2 3 4 5 6 
#
# 1 123.5449 22.3191 35.2042 0.0000 0.0000 0.0000
# 2 22.3191 60.5879 15.7438 0.0000 0.0000 0.0000
# 3 35.2042 15.7438 74.5909 0.0000 0.0000 0.0000
# 4 0.0000 0.0000 0.0000 37.4668 0.0000 0.0000
# 5 0.0000 0.0000 0.0000 0.0000 41.2865 0.0000
# 6 0.0000 0.0000 0.0000 0.0000 0.0000 16.6055
#
#
#
# Elastic Compliance Matrix: (Units=1/GPa)
#
#
# Indices 1 2 3 4 5 6 
#
# 1 0.009703 -0.002523 -0.004047 0.000000 0.000000 0.000000
# 2 -0.002523 0.018119 -0.002634 0.000000 0.000000 0.000000
# 3 -0.004047 -0.002634 0.015872 0.000000 0.000000 0.000000
# 4 0.000000 0.000000 0.000000 0.026690 0.000000 0.000000
# 5 0.000000 0.000000 0.000000 0.000000 0.024221 0.000000
# 6 0.000000 0.000000 0.000000 0.000000 0.000000 0.060221
#
#
# Mechanical properties :
#
#
# Convention : Reuss Voigt Hill
#
# Bulk Modulus (GPa) = 39.54557 45.02865 42.28711
# Shear Modulus (GPa) = 27.52357 31.43554 29.47955
#
# Velocity S-wave (km/s) = 3.52967 3.77218 3.65294
# Velocity P-wave (km/s) = 5.87467 6.27333 6.07727
#
# Compressibility (1/GPa) = 0.02528728
#
# Stress axis : x y z
#
# Youngs Moduli (GPa) = 103.05883 55.19186 63.00248
#
# Poissons Ratio (x) = 0.13924 0.25498
# Poissons Ratio (y) = 0.26000 0.16592
# Poissons Ratio (z) = 0.41709 0.14535
#
# Static dielectric constant tensor:
#      x y z
#    x 3.895400 0.000000 0.000000 
#    y 0.000000 3.619740 0.000000 
#    z 0.000000 0.000000 4.303250 
# 
# 
# High freq. dielectric constant tensor:
#      x y z
#    x 1.857160 0.000000 0.000000 
#    y 0.000000 1.824400 0.000000 
#    z 0.000000 0.000000 1.897160 
# 
# From -- ./inp_files/2016.got.cif
#   From: 2010.03.12/outbox.cif.g09.slc.cpg/sg20_2_cif.got.tgz:2016.got - 2010.04.14 01:38:04.
