data_PCOD8160766
_publ_section_title
;
Structure prediction by ZEFSAII (Michael W. Deem and Ramdas Pophale) SiO2 
 PCOD8160766
Probable space group: C 2 2 2
;
_chemical_formula_sum "Si O2"
_cell_formula_units_Z 58
_cell_length_a 5.326886
_cell_length_b 19.014522
_cell_length_c 29.660858
_cell_angle_alpha 90.000000
_cell_angle_beta 90.000000
_cell_angle_gamma 90.000000
_cell_volume 3004.294651
_symmetry_space_group_name_H-M "C 2 2 2"
_symmetry_group_IT_number 21
_symmetry_cell_setting 'orthorhombic'
loop_
_space_group_symop_operation_xyz
x,y,z
-x,-y,z
x,-y,-z
-x,y,-z
1/2+x,1/2+y,z
1/2-x,1/2-y,z
1/2+x,1/2-y,-z
1/2-x,1/2+y,-z
loop_
_atom_site_type_symbol
_atom_site_label
_atom_site_fract_x
_atom_site_fract_y
_atom_site_fract_z
Si Si1 0.749967 0.830490 0.971544
Si Si2 0.253015 0.083503 0.235688
Si Si3 0.662909 0.068470 0.572075
Si Si4 0.247810 0.928191 0.198736
Si Si5 0.498864 0.783040 0.447845
Si Si6 0.000000 0.000000 0.500000
Si Si7 0.746099 0.455319 0.668917
Si Si8 0.249040 0.042026 0.906391
O O1 0.750000 0.750000 0.954074
O O2 0.749323 0.881384 0.928703
O O3 0.500000 0.845899 0.000000
O O4 0.000000 0.845906 0.000000
O O5 0.500941 0.115922 0.211440
O O6 0.262888 0.099614 0.289389
O O7 0.001365 0.115925 0.212792
O O8 0.251682 0.999420 0.227911
O O9 0.487624 0.133481 0.559037
O O10 0.793024 0.083500 0.620569
O O11 0.500000 0.000000 0.577691
O O12 0.852517 0.054773 0.531290
O O13 0.243220 0.947402 0.146729
O O14 0.500000 0.762116 0.500000
O O15 0.750000 0.750000 0.425291
O O16 0.250000 0.750000 0.424886
O O17 0.500000 0.500000 0.678381
O O18 0.000000 0.500000 0.668306
O O19 0.500000 0.000000 0.920879
O O20 0.000000 0.000000 0.922075
#
# Coordination Sequence:
#
# PCOD8160766 Si02
#       8
#     8   8   8   8   8   2   8   8
#     4  10  23  42  57  73 109 161 197 222 272 341
#     4  10  15  28  47  69 114 145 167 214 285 337
#     4  11  25  37  57  87 120 146 192 238 291 337
#     4  10  16  27  46  75 112 138 167 223 289 323
#     4  10  23  40  61  80 106 148 192 226 273 338
#     4  12  22  36  60  82 128 152 180 248 322 320
#     4  11  19  31  49  78 110 144 186 218 267 339
#     4  12  21  32  55  88 114 135 185 243 290 324
#
# _framework density 19.305696999999999
#
# number of rings (size 3 to 8) (size 9 to 14) (size 15 to 20)
#    0.000    1.379    6.207    1.862    4.828    1.655 
#    0.000    0.000    0.000    0.000    0.000    2.897 
#    0.000    0.000    0.000    0.000    0.000    0.000 
#
# Total GULP energy -359412.695677 kJ/mol
# GULP energy per Si atom -12393.541230 kJ/mol
# Density = 1.926176 g / cm^3
# Si number density = 19.305697 Si / 1000 Ang^3
#
#
#
# Elastic Constant Matrix: (Units=GPa)
#
#
# Indices 1 2 3 4 5 6 
#
# 1 185.6879 41.9233 35.8127 0.0000 0.0000 0.0000
# 2 41.9233 79.2866 37.5383 0.0000 0.0000 0.0000
# 3 35.8127 37.5383 91.5778 0.0000 0.0000 0.0000
# 4 0.0000 0.0000 0.0000 12.7870 0.0000 0.0000
# 5 0.0000 0.0000 0.0000 0.0000 22.0376 0.0000
# 6 0.0000 0.0000 0.0000 0.0000 0.0000 14.2561
#
#
#
# Elastic Compliance Matrix: (Units=1/GPa)
#
#
# Indices 1 2 3 4 5 6 
#
# 1 0.006247 -0.002664 -0.001351 0.000000 0.000000 0.000000
# 2 -0.002664 0.016785 -0.005839 0.000000 0.000000 0.000000
# 3 -0.001351 -0.005839 0.013841 0.000000 0.000000 0.000000
# 4 0.000000 0.000000 0.000000 0.078205 0.000000 0.000000
# 5 0.000000 0.000000 0.000000 0.000000 0.045377 0.000000
# 6 0.000000 0.000000 0.000000 0.000000 0.000000 0.070145
#
#
# Mechanical properties :
#
#
# Convention : Reuss Voigt Hill
#
# Bulk Modulus (GPa) = 58.25193 65.23345 61.74269
# Shear Modulus (GPa) = 19.52892 25.90133 22.71512
#
# Velocity S-wave (km/s) = 3.18396 3.66682 3.43388
# Velocity P-wave (km/s) = 6.61481 7.19656 6.91181
#
# Compressibility (1/GPa) = 0.01716681
#
# Stress axis : x y z
#
# Youngs Moduli (GPa) = 160.06770 59.57634 72.24673
#
# Poissons Ratio (x) = 0.15868 0.09763
# Poissons Ratio (y) = 0.42635 0.42183
# Poissons Ratio (z) = 0.21630 0.34785
#
# Static dielectric constant tensor:
#      x y z
#    x 4.534520 0.000000 0.000000 
#    y 0.000000 3.044550 0.000000 
#    z 0.000000 0.000000 3.761610 
# 
# 
# High freq. dielectric constant tensor:
#      x y z
#    x 1.784840 0.000000 0.000000 
#    y 0.000000 1.683090 0.000000 
#    z 0.000000 0.000000 1.751720 
# 
# From -- ./inp_files/39158.got.cif
#   From: 2010.03.12/outbox.cif.g09.slc.cpg/sg21_20_cif.got.tgz:39158.got - 2010.04.14 01:59:26.
