data_PCOD8160255
_publ_section_title
;
Structure prediction by ZEFSAII (Michael W. Deem and Ramdas Pophale) SiO2 
 PCOD8160255
Probable space group: C 2 2 21
;
_chemical_formula_sum "Si O2"
_cell_formula_units_Z 44
_cell_length_a 8.034100
_cell_length_b 12.957077
_cell_length_c 17.252159
_cell_angle_alpha 90.000000
_cell_angle_beta 90.000000
_cell_angle_gamma 90.000000
_cell_volume 1795.923051
_symmetry_space_group_name_H-M "C 2 2 21"
_symmetry_group_IT_number 20
_symmetry_cell_setting 'orthorhombic'
loop_
_space_group_symop_operation_xyz
x,y,z
-x,-y,1/2+z
x,-y,-z
-x,y,1/2-z
1/2+x,1/2+y,z
1/2-x,1/2-y,1/2+z
1/2+x,1/2-y,-z
1/2-x,1/2+y,1/2-z
loop_
_atom_site_type_symbol
_atom_site_label
_atom_site_fract_x
_atom_site_fract_y
_atom_site_fract_z
Si Si1 0.000000 0.373298 0.250000
Si Si2 0.713590 0.142005 0.127925
Si Si3 0.390695 0.334438 0.469360
Si Si4 0.895973 0.557299 0.165585
Si Si5 0.866844 0.500000 0.000000
Si Si6 0.916014 0.199348 0.354614
Si Si7 0.845092 0.000000 0.000000
O O1 0.869195 0.445312 0.203609
O O2 0.889385 0.306002 0.309322
O O3 0.577490 0.106587 0.194552
O O4 0.895587 0.160846 0.166323
O O5 0.629267 0.245705 0.093760
O O6 0.730821 0.052691 0.063820
O O7 0.234946 0.408242 0.460363
O O8 0.402254 0.281063 0.553944
O O9 0.549047 0.409353 0.457700
O O10 0.955974 0.549095 0.074638
O O11 0.725022 0.619915 0.173826
#
# Coordination Sequence:
#
# PCOD8160255 Si02
#       7
#     4   8   8   8   4   8   4
#     4  12  28  48  74  96 144 204 234 286 370 414
#     4  11  23  40  74 104 138 181 233 291 358 420
#     4   9  20  39  67 105 140 174 226 290 356 412
#     4  11  26  44  73 105 139 183 246 287 351 437
#     4   9  19  42  68 101 137 172 223 299 344 403
#     4  10  26  46  67 100 145 182 234 296 346 426
#     4   9  21  36  64 111 145 172 223 287 360 419
#
# _framework density 24.499936999999999
#
# number of rings (size 3 to 8) (size 9 to 14) (size 15 to 20)
#    0.000    1.818    0.000    2.727   17.818    0.000 
#    0.000    1.818    0.000    0.000    0.000    0.000 
#    0.000    0.000    0.000    0.000    0.000    0.000 
#
# Total GULP energy -272550.493861 kJ/mol
# GULP energy per Si atom -12388.658812 kJ/mol
# Density = 2.444417 g / cm^3
# Si number density = 24.499937 Si / 1000 Ang^3
#
#
#
# Elastic Constant Matrix: (Units=GPa)
#
#
# Indices 1 2 3 4 5 6 
#
# 1 184.3638 74.6109 44.2922 0.0000 0.0000 0.0000
# 2 74.6109 175.2980 49.2577 0.0000 0.0000 0.0000
# 3 44.2922 49.2577 34.6832 0.0000 0.0000 0.0000
# 4 0.0000 0.0000 0.0000 49.0193 0.0000 0.0000
# 5 0.0000 0.0000 0.0000 0.0000 36.4420 0.0000
# 6 0.0000 0.0000 0.0000 0.0000 0.0000 21.4793
#
#
#
# Elastic Compliance Matrix: (Units=1/GPa)
#
#
# Indices 1 2 3 4 5 6 
#
# 1 0.007905 -0.000878 -0.008848 0.000000 0.000000 0.000000
# 2 -0.000878 0.009591 -0.012499 0.000000 0.000000 0.000000
# 3 -0.008848 -0.012499 0.057882 0.000000 0.000000 0.000000
# 4 0.000000 0.000000 0.000000 0.020400 0.000000 0.000000
# 5 0.000000 0.000000 0.000000 0.000000 0.027441 0.000000
# 6 0.000000 0.000000 0.000000 0.000000 0.000000 0.046556
#
#
# Mechanical properties :
#
#
# Convention : Reuss Voigt Hill
#
# Bulk Modulus (GPa) = 32.33296 81.18517 56.75907
# Shear Modulus (GPa) = 22.26824 36.46706 29.36765
#
# Velocity S-wave (km/s) = 3.01808 3.86224 3.46596
# Velocity P-wave (km/s) = 5.03696 7.28684 6.26374
#
# Compressibility (1/GPa) = 0.03092819
#
# Stress axis : x y z
#
# Youngs Moduli (GPa) = 126.49946 104.26898 17.27638
#
# Poissons Ratio (x) = 0.09160 0.15286
# Poissons Ratio (y) = 0.11113 0.21594
# Poissons Ratio (z) = 1.11923 1.30324
#
# Static dielectric constant tensor:
#      x y z
#    x 4.408550 0.000000 0.000000 
#    y 0.000000 4.367780 0.000000 
#    z 0.000000 0.000000 4.934890 
# 
# 
# High freq. dielectric constant tensor:
#      x y z
#    x 1.982910 0.000000 0.000000 
#    y 0.000000 1.978690 0.000000 
#    z 0.000000 0.000000 1.982000 
# 
# From -- ./inp_files/28694.got.cif
#   From: 2010.03.12/outbox.cif.g09.slc.cpg/sg20_15_cif.got.tgz:28694.got - 2010.04.14 01:38:04.
