data_PCOD8160980
_publ_section_title
;
Structure prediction by ZEFSAII (Michael W. Deem and Ramdas Pophale) SiO2 
 PCOD8160980
Probable space group: C 2 2 2
;
_chemical_formula_sum "Si O2"
_cell_formula_units_Z 48
_cell_length_a 14.931402
_cell_length_b 32.099704
_cell_length_c 5.020530
_cell_angle_alpha 90.000000
_cell_angle_beta 90.000000
_cell_angle_gamma 90.000000
_cell_volume 2406.307820
_symmetry_space_group_name_H-M "C 2 2 2"
_symmetry_group_IT_number 21
_symmetry_cell_setting 'orthorhombic'
loop_
_space_group_symop_operation_xyz
x,y,z
-x,-y,z
x,-y,-z
-x,y,-z
1/2+x,1/2+y,z
1/2-x,1/2-y,z
1/2+x,1/2-y,-z
1/2-x,1/2+y,-z
loop_
_atom_site_type_symbol
_atom_site_label
_atom_site_fract_x
_atom_site_fract_y
_atom_site_fract_z
Si Si1 0.280636 0.972726 0.759867
Si Si2 0.058360 0.588781 0.760734
Si Si3 0.321979 0.158119 0.065005
Si Si4 0.664910 0.598272 0.088284
Si Si5 0.403455 0.359227 0.603550
Si Si6 0.744587 0.200953 0.414606
O O1 0.356346 0.939217 0.682435
O O2 0.190274 0.950509 0.876840
O O3 0.256935 0.000000 0.500000
O O4 0.319964 0.000000 0.000000
O O5 0.086448 0.635527 0.851160
O O6 0.000000 0.593292 0.500000
O O7 0.000000 0.568646 0.000000
O O8 0.253700 0.121434 0.988819
O O9 0.285359 0.188346 0.292440
O O10 0.330530 0.185421 0.796502
O O11 0.639466 0.612236 0.380683
O O12 0.589853 0.610765 0.866819
O O13 0.500000 0.343851 0.500000
O O14 0.342516 0.318414 0.655923
O O15 0.750000 0.250000 0.396099
#
# Coordination Sequence:
#
# PCOD8160980 Si02
#       6
#     8   8   8   8   8   8
#     4  11  22  36  56  81 109 143 184 230 280 332
#     4  11  22  36  54  78 111 149 190 231 272 325
#     4   9  19  35  53  74 104 147 188 218 263 329
#     4   9  19  35  55  77 104 140 179 218 264 327
#     4  10  19  34  57  82 106 137 182 226 266 318
#     4  10  19  34  56  81 110 143 181 227 277 329
#
# _framework density 19.947571
#
# number of rings (size 3 to 8) (size 9 to 14) (size 15 to 20)
#    0.000    2.000    0.000    4.000    0.000    7.333 
#    0.000    2.500    0.000    9.500    0.000    0.000 
#    0.000    0.000    0.000    0.000    0.000    0.000 
#
# Total GULP energy -297498.062417 kJ/mol
# GULP energy per Si atom -12395.752601 kJ/mol
# Density = 1.990217 g / cm^3
# Si number density = 19.947571 Si / 1000 Ang^3
#
#
#
# Elastic Constant Matrix: (Units=GPa)
#
#
# Indices 1 2 3 4 5 6 
#
# 1 69.2596 39.7906 25.1827 0.0000 0.0000 0.0000
# 2 39.7906 113.2453 43.4404 0.0000 0.0000 0.0000
# 3 25.1827 43.4404 122.7344 0.0000 0.0000 0.0000
# 4 0.0000 0.0000 0.0000 27.9305 0.0000 0.0000
# 5 0.0000 0.0000 0.0000 0.0000 33.7352 0.0000
# 6 0.0000 0.0000 0.0000 0.0000 0.0000 8.7280
#
#
#
# Elastic Compliance Matrix: (Units=1/GPa)
#
#
# Indices 1 2 3 4 5 6 
#
# 1 0.018399 -0.005805 -0.001721 0.000000 0.000000 0.000000
# 2 -0.005805 0.012049 -0.003074 0.000000 0.000000 0.000000
# 3 -0.001721 -0.003074 0.009589 0.000000 0.000000 0.000000
# 4 0.000000 0.000000 0.000000 0.035803 0.000000 0.000000
# 5 0.000000 0.000000 0.000000 0.000000 0.029643 0.000000
# 6 0.000000 0.000000 0.000000 0.000000 0.000000 0.114574
#
#
# Mechanical properties :
#
#
# Convention : Reuss Voigt Hill
#
# Bulk Modulus (GPa) = 53.08230 58.00740 55.54485
# Shear Modulus (GPa) = 20.19928 27.20043 23.69986
#
# Velocity S-wave (km/s) = 3.18562 3.69670 3.45063
# Velocity P-wave (km/s) = 6.34031 6.88214 6.61677
#
# Compressibility (1/GPa) = 0.01883867
#
# Stress axis : x y z
#
# Youngs Moduli (GPa) = 54.35095 82.99440 104.29095
#
# Poissons Ratio (x) = 0.48176 0.17944
# Poissons Ratio (y) = 0.31549 0.32055
# Poissons Ratio (z) = 0.09351 0.25509
#
# Static dielectric constant tensor:
#      x y z
#    x 3.626680 0.000000 0.000000 
#    y 0.000000 3.571110 0.000000 
#    z 0.000000 0.000000 3.824510 
# 
# 
# High freq. dielectric constant tensor:
#      x y z
#    x 1.753040 0.000000 0.000000 
#    y 0.000000 1.762920 0.000000 
#    z 0.000000 0.000000 1.801460 
# 
# From -- ./inp_files/4089.got.cif
#   From: 2010.03.12/outbox.cif.g09.slc.cpg/sg21_3_cif.got.tgz:4089.got - 2010.04.14 01:59:26.
