data_PCOD8160069
_publ_section_title
;
Structure prediction by ZEFSAII (Michael W. Deem and Ramdas Pophale) SiO2 
 PCOD8160069
Probable space group: C 2 2 21
;
_chemical_formula_sum "Si O2"
_cell_formula_units_Z 36
_cell_length_a 22.606969
_cell_length_b 7.796174
_cell_length_c 8.511644
_cell_angle_alpha 90.000000
_cell_angle_beta 90.000000
_cell_angle_gamma 90.000000
_cell_volume 1500.159074
_symmetry_space_group_name_H-M "C 2 2 21"
_symmetry_group_IT_number 20
_symmetry_cell_setting 'orthorhombic'
loop_
_space_group_symop_operation_xyz
x,y,z
-x,-y,1/2+z
x,-y,-z
-x,y,1/2-z
1/2+x,1/2+y,z
1/2-x,1/2-y,1/2+z
1/2+x,1/2-y,-z
1/2-x,1/2+y,1/2-z
loop_
_atom_site_type_symbol
_atom_site_label
_atom_site_fract_x
_atom_site_fract_y
_atom_site_fract_z
Si Si1 0.634678 0.000000 0.000000
Si Si2 0.573858 0.684623 0.570402
Si Si3 0.440005 0.310274 0.440099
Si Si4 0.269544 0.063212 0.247878
Si Si5 0.803685 0.742265 0.962943
O O1 0.595683 0.168517 0.961407
O O2 0.671425 0.047772 0.151751
O O3 0.586995 0.500000 0.500000
O O4 0.577659 0.692802 0.757955
O O5 0.508021 0.741437 0.523163
O O6 0.626042 0.795458 0.486256
O O7 0.425028 0.500000 0.500000
O O8 0.212593 0.083023 0.365699
O O9 0.268198 0.902259 0.133275
O O10 0.273780 0.235634 0.136703
#
# Coordination Sequence:
#
# PCOD8160069 Si02
#       5
#     4   8   8   8   8
#     4  12  24  46  72 112 150 190 250 322 370 466
#     4  10  23  46  76 104 149 195 250 312 384 451
#     4  10  24  48  74 113 145 196 252 313 385 459
#     4  11  26  44  72 103 145 193 254 296 389 435
#     4  11  25  48  68 105 145 197 246 315 359 470
#
# _framework density 23.997454000000001
#
# number of rings (size 3 to 8) (size 9 to 14) (size 15 to 20)
#    0.000    1.333    2.222    1.333    7.778    1.778 
#    4.000    0.000    0.000    0.000    0.000    0.000 
#    0.000    0.000    0.000    0.000    0.000    0.000 
#
# Total GULP energy -223003.357775 kJ/mol
# GULP energy per Si atom -12389.075432 kJ/mol
# Density = 2.394283 g / cm^3
# Si number density = 23.997454 Si / 1000 Ang^3
#
#
#
# Elastic Constant Matrix: (Units=GPa)
#
#
# Indices 1 2 3 4 5 6 
#
# 1 155.1267 50.3781 70.5317 0.0000 0.0000 0.0000
# 2 50.3781 75.3167 47.0801 0.0000 0.0000 0.0000
# 3 70.5317 47.0801 125.3241 0.0000 0.0000 0.0000
# 4 0.0000 0.0000 0.0000 41.6342 0.0000 0.0000
# 5 0.0000 0.0000 0.0000 0.0000 30.6330 0.0000
# 6 0.0000 0.0000 0.0000 0.0000 0.0000 38.2113
#
#
#
# Elastic Compliance Matrix: (Units=1/GPa)
#
#
# Indices 1 2 3 4 5 6 
#
# 1 0.009475 -0.003927 -0.003858 0.000000 0.000000 0.000000
# 2 -0.003927 0.018979 -0.004920 0.000000 0.000000 0.000000
# 3 -0.003858 -0.004920 0.011999 0.000000 0.000000 0.000000
# 4 0.000000 0.000000 0.000000 0.024019 0.000000 0.000000
# 5 0.000000 0.000000 0.000000 0.000000 0.032644 0.000000
# 6 0.000000 0.000000 0.000000 0.000000 0.000000 0.026170
#
#
# Mechanical properties :
#
#
# Convention : Reuss Voigt Hill
#
# Bulk Modulus (GPa) = 66.46799 76.86082 71.66440
# Shear Modulus (GPa) = 32.52874 34.61420 33.57147
#
# Velocity S-wave (km/s) = 3.68572 3.80203 3.74432
# Velocity P-wave (km/s) = 6.77279 7.16744 6.97291
#
# Compressibility (1/GPa) = 0.01504484
#
# Stress axis : x y z
#
# Youngs Moduli (GPa) = 105.53540 52.68934 83.34273
#
# Poissons Ratio (x) = 0.20689 0.32151
# Poissons Ratio (y) = 0.41440 0.41004
# Poissons Ratio (z) = 0.40712 0.25923
#
# Static dielectric constant tensor:
#      x y z
#    x 4.464290 0.000000 0.000000 
#    y 0.000000 4.531650 0.000000 
#    z 0.000000 0.000000 4.683060 
# 
# 
# High freq. dielectric constant tensor:
#      x y z
#    x 1.950350 0.000000 0.000000 
#    y 0.000000 1.951470 0.000000 
#    z 0.000000 0.000000 1.968820 
# 
# From -- ./inp_files/9845.got.cif
#   From: 2010.03.12/outbox.cif.g09.slc.cpg/sg20_5_cif.got.tgz:9845.got - 2010.04.14 01:38:04.
