data_PCOD8160470
_publ_section_title
;
Structure prediction by ZEFSAII (Michael W. Deem and Ramdas Pophale) SiO2 
 PCOD8160470
Probable space group: C 2 2 21
;
_chemical_formula_sum "Si O2"
_cell_formula_units_Z 40
_cell_length_a 17.689205
_cell_length_b 7.446126
_cell_length_c 14.081993
_cell_angle_alpha 90.000000
_cell_angle_beta 90.000000
_cell_angle_gamma 90.000000
_cell_volume 1854.824484
_symmetry_space_group_name_H-M "C 2 2 21"
_symmetry_group_IT_number 20
_symmetry_cell_setting 'orthorhombic'
loop_
_space_group_symop_operation_xyz
x,y,z
-x,-y,1/2+z
x,-y,-z
-x,y,1/2-z
1/2+x,1/2+y,z
1/2-x,1/2-y,1/2+z
1/2+x,1/2-y,-z
1/2-x,1/2+y,1/2-z
loop_
_atom_site_type_symbol
_atom_site_label
_atom_site_fract_x
_atom_site_fract_y
_atom_site_fract_z
Si Si1 0.634419 0.000000 0.000000
Si Si2 0.357700 0.709708 0.973616
Si Si3 0.484233 0.696116 0.456171
Si Si4 0.158951 0.086308 0.724370
Si Si5 0.500000 0.565498 0.250000
Si Si6 0.753408 0.699191 0.373787
O O1 0.687939 0.950501 0.911454
O O2 0.585883 0.173841 0.973582
O O3 0.336439 0.730080 0.862598
O O4 0.360072 0.500000 0.000000
O O5 0.441502 0.785393 0.994831
O O6 0.292670 0.797552 0.040054
O O7 0.465879 0.500000 0.500000
O O8 0.499881 0.688043 0.343738
O O9 0.202645 0.149944 0.816913
O O10 0.071907 0.064481 0.751847
O O11 0.193381 0.894928 0.695488
#
# Coordination Sequence:
#
# PCOD8160470 Si02
#       6
#     4   8   8   8   4   8
#     4  12  26  44  68 104 140 170 232 298 330 412
#     4   9  18  45  65  84 142 181 209 287 350 389
#     4  11  23  46  71  98 138 183 227 277 353 408
#     4  11  23  42  70 100 133 184 229 280 350 411
#     4  12  22  42  76  96 136 192 228 276 348 424
#     4  11  23  44  67  99 137 178 226 291 345 400
#
# _framework density 21.565383000000001
#
# number of rings (size 3 to 8) (size 9 to 14) (size 15 to 20)
#    0.000    1.200    9.000    1.200    2.800    0.000 
#    7.200    0.000    0.000    0.000    0.000    0.000 
#    0.000    0.000    0.000    0.000    0.000    0.000 
#
# Total GULP energy -247994.859216 kJ/mol
# GULP energy per Si atom -12399.742961 kJ/mol
# Density = 2.151630 g / cm^3
# Si number density = 21.565383 Si / 1000 Ang^3
#
#
#
# Elastic Constant Matrix: (Units=GPa)
#
#
# Indices 1 2 3 4 5 6 
#
# 1 146.7569 23.2543 21.6330 0.0000 0.0000 0.0000
# 2 23.2543 36.6441 3.3751 0.0000 0.0000 0.0000
# 3 21.6330 3.3751 69.3552 0.0000 0.0000 0.0000
# 4 0.0000 0.0000 0.0000 29.9697 0.0000 0.0000
# 5 0.0000 0.0000 0.0000 0.0000 41.6990 0.0000
# 6 0.0000 0.0000 0.0000 0.0000 0.0000 26.1828
#
#
#
# Elastic Compliance Matrix: (Units=1/GPa)
#
#
# Indices 1 2 3 4 5 6 
#
# 1 0.007905 -0.004811 -0.002232 0.000000 0.000000 0.000000
# 2 -0.004811 0.030340 0.000024 0.000000 0.000000 0.000000
# 3 -0.002232 0.000024 0.015113 0.000000 0.000000 0.000000
# 4 0.000000 0.000000 0.000000 0.033367 0.000000 0.000000
# 5 0.000000 0.000000 0.000000 0.000000 0.023981 0.000000
# 6 0.000000 0.000000 0.000000 0.000000 0.000000 0.038193
#
#
# Mechanical properties :
#
#
# Convention : Reuss Voigt Hill
#
# Bulk Modulus (GPa) = 25.43109 38.80900 32.12004
# Shear Modulus (GPa) = 28.40180 33.20322 30.80251
#
# Velocity S-wave (km/s) = 3.63300 3.92810 3.78343
# Velocity P-wave (km/s) = 5.42369 6.21356 5.83201
#
# Compressibility (1/GPa) = 0.03932195
#
# Stress axis : x y z
#
# Youngs Moduli (GPa) = 126.49738 32.95930 66.16627
#
# Poissons Ratio (x) = 0.15857 0.14766
# Poissons Ratio (y) = 0.60860 -0.00160
# Poissons Ratio (z) = 0.28230 -0.00080
#
# Static dielectric constant tensor:
#      x y z
#    x 4.344080 0.000000 0.000000 
#    y 0.000000 3.298570 0.000000 
#    z 0.000000 0.000000 4.310270 
# 
# 
# High freq. dielectric constant tensor:
#      x y z
#    x 1.872830 0.000000 0.000000 
#    y 0.000000 1.794840 0.000000 
#    z 0.000000 0.000000 1.859780 
# 
# From -- ./inp_files/18583.got.cif
#   From: 2010.03.12/outbox.cif.g09.slc.cpg/sg20_10_cif.got.tgz:18583.got - 2010.04.14 01:38:04.
