data_PCOD8160892
_publ_section_title
;
Structure prediction by ZEFSAII (Michael W. Deem and Ramdas Pophale) SiO2 
 PCOD8160892
Probable space group: C 2 2 2
;
_chemical_formula_sum "Si O2"
_cell_formula_units_Z 32
_cell_length_a 15.156392
_cell_length_b 11.715647
_cell_length_c 8.813361
_cell_angle_alpha 90.000000
_cell_angle_beta 90.000000
_cell_angle_gamma 90.000000
_cell_volume 1564.961530
_symmetry_space_group_name_H-M "C 2 2 2"
_symmetry_group_IT_number 21
_symmetry_cell_setting 'orthorhombic'
loop_
_space_group_symop_operation_xyz
x,y,z
-x,-y,z
x,-y,-z
-x,y,-z
1/2+x,1/2+y,z
1/2-x,1/2-y,z
1/2+x,1/2-y,-z
1/2-x,1/2+y,-z
loop_
_atom_site_type_symbol
_atom_site_label
_atom_site_fract_x
_atom_site_fract_y
_atom_site_fract_z
Si Si1 0.532523 0.165461 0.173613
Si Si2 0.362493 0.937879 0.755240
Si Si3 0.235332 0.000000 0.500000
Si Si4 0.672046 0.658884 0.750087
Si Si5 0.256848 0.500000 0.000000
O O1 0.442177 0.150698 0.269842
O O2 0.576822 0.283449 0.224808
O O3 0.600558 0.065508 0.215415
O O4 0.500000 0.160617 0.000000
O O5 0.300050 0.929589 0.609982
O O6 0.303926 0.910911 0.904407
O O7 0.173957 0.088471 0.592311
O O8 0.750000 0.750000 0.750345
O O9 0.682092 0.572016 0.888653
#
# Coordination Sequence:
#
# PCOD8160892 Si02
#       5
#     8   8   4   8   4
#     4  11  19  35  68  97 124 160 221 292 331 359
#     4  10  18  36  64  97 125 157 219 279 328 386
#     4  10  22  37  64  96 133 176 214 258 335 412
#     4  11  21  40  63  94 136 173 217 275 330 392
#     4  10  18  37  67  94 124 168 226 274 321 400
#
# _framework density 20.447787999999999
#
# number of rings (size 3 to 8) (size 9 to 14) (size 15 to 20)
#    0.000    1.500    7.500    0.750    0.000    2.000 
#    0.000   10.625    0.000    3.000    0.000    0.000 
#    0.000    0.000    0.000    0.000    0.000    0.000 
#
# Total GULP energy -198316.560058 kJ/mol
# GULP energy per Si atom -12394.785004 kJ/mol
# Density = 2.040125 g / cm^3
# Si number density = 20.447788 Si / 1000 Ang^3
#
#
#
# Elastic Constant Matrix: (Units=GPa)
#
#
# Indices 1 2 3 4 5 6 
#
# 1 103.1558 61.8042 48.2606 0.0000 0.0000 0.0000
# 2 61.8042 103.3398 50.4233 0.0000 0.0000 0.0000
# 3 48.2606 50.4233 127.4887 0.0000 0.0000 0.0000
# 4 0.0000 0.0000 0.0000 28.5508 0.0000 0.0000
# 5 0.0000 0.0000 0.0000 0.0000 14.4588 0.0000
# 6 0.0000 0.0000 0.0000 0.0000 0.0000 53.9849
#
#
#
# Elastic Compliance Matrix: (Units=1/GPa)
#
#
# Indices 1 2 3 4 5 6 
#
# 1 0.015871 -0.008129 -0.002793 0.000000 0.000000 0.000000
# 2 -0.008129 0.016155 -0.003312 0.000000 0.000000 0.000000
# 3 -0.002793 -0.003312 0.010211 0.000000 0.000000 0.000000
# 4 0.000000 0.000000 0.000000 0.035025 0.000000 0.000000
# 5 0.000000 0.000000 0.000000 0.000000 0.069162 0.000000
# 6 0.000000 0.000000 0.000000 0.000000 0.000000 0.018524
#
#
# Mechanical properties :
#
#
# Convention : Reuss Voigt Hill
#
# Bulk Modulus (GPa) = 72.62887 72.77340 72.70114
# Shear Modulus (GPa) = 25.25179 30.96532 28.10856
#
# Velocity S-wave (km/s) = 3.51798 3.89570 3.71165
# Velocity P-wave (km/s) = 7.21789 7.47679 7.34848
#
# Compressibility (1/GPa) = 0.01376863
#
# Stress axis : x y z
#
# Youngs Moduli (GPa) = 63.00703 61.90109 97.93374
#
# Poissons Ratio (x) = 0.50322 0.27351
# Poissons Ratio (y) = 0.51221 0.32436
# Poissons Ratio (z) = 0.17596 0.20502
#
# Static dielectric constant tensor:
#      x y z
#    x 3.826780 0.000000 0.000000 
#    y 0.000000 3.600380 0.000000 
#    z 0.000000 0.000000 3.826720 
# 
# 
# High freq. dielectric constant tensor:
#      x y z
#    x 1.792020 0.000000 0.000000 
#    y 0.000000 1.766430 0.000000 
#    z 0.000000 0.000000 1.806430 
# 
# From -- ./inp_files/14053.got.cif
#   From: 2010.03.12/outbox.cif.g09.slc.cpg/sg21_8_cif.got.tgz:14053.got - 2010.04.14 01:59:26.
