data_PCOD8160731
_publ_section_title
;
Structure prediction by ZEFSAII (Michael W. Deem and Ramdas Pophale) SiO2 
 PCOD8160731
Probable space group: C 2 2 21
;
_chemical_formula_sum "Si O2"
_cell_formula_units_Z 32
_cell_length_a 7.856878
_cell_length_b 11.956209
_cell_length_c 13.495214
_cell_angle_alpha 90.000000
_cell_angle_beta 90.000000
_cell_angle_gamma 90.000000
_cell_volume 1267.719829
_symmetry_space_group_name_H-M "C 2 2 21"
_symmetry_group_IT_number 20
_symmetry_cell_setting 'orthorhombic'
loop_
_space_group_symop_operation_xyz
x,y,z
-x,-y,1/2+z
x,-y,-z
-x,y,1/2-z
1/2+x,1/2+y,z
1/2-x,1/2-y,1/2+z
1/2+x,1/2-y,-z
1/2-x,1/2+y,1/2-z
loop_
_atom_site_type_symbol
_atom_site_label
_atom_site_fract_x
_atom_site_fract_y
_atom_site_fract_z
Si Si1 0.756375 0.198901 0.980132
Si Si2 0.072010 0.602204 0.557254
Si Si3 0.500000 0.017810 0.250000
Si Si4 0.013403 0.000000 0.000000
Si Si5 0.162685 0.126882 0.179924
O O1 0.583254 0.139112 0.016083
O O2 0.716030 0.258550 0.874935
O O3 0.798883 0.293247 0.063338
O O4 0.905474 0.109061 0.970541
O O5 0.163707 0.500000 0.500000
O O6 0.989338 0.567462 0.659352
O O7 0.326083 0.089537 0.245128
O O8 0.120694 0.029840 0.099408
O O9 0.000000 0.148255 0.250000
#
# Coordination Sequence:
#
# PCOD8160731 Si02
#       5
#     8   8   4   4   8
#     4  12  26  48  83 109 165 213 273 334 414 493
#     4  12  26  50  76 114 160 213 266 342 408 488
#     4  12  28  52  84 120 166 212 288 346 416 506
#     4  12  26  54  84 120 164 226 270 342 426 502
#     4  12  28  53  82 122 167 219 279 346 420 493
#
# _framework density 25.242172
#
# number of rings (size 3 to 8) (size 9 to 14) (size 15 to 20)
#    0.000    0.000    6.250    3.000    1.750    0.000 
#    6.750    0.000    0.000    0.000    0.000    0.000 
#    0.000    0.000    0.000    0.000    0.000    0.000 
#
# Total GULP energy -198321.726896 kJ/mol
# GULP energy per Si atom -12395.107931 kJ/mol
# Density = 2.518472 g / cm^3
# Si number density = 25.242172 Si / 1000 Ang^3
#
#
#
# Elastic Constant Matrix: (Units=GPa)
#
#
# Indices 1 2 3 4 5 6 
#
# 1 160.7203 49.6956 48.4839 0.0000 0.0000 0.0000
# 2 49.6956 159.7380 49.5842 0.0000 0.0000 0.0000
# 3 48.4839 49.5842 118.7335 0.0000 0.0000 0.0000
# 4 0.0000 0.0000 0.0000 39.1913 0.0000 0.0000
# 5 0.0000 0.0000 0.0000 0.0000 46.0775 0.0000
# 6 0.0000 0.0000 0.0000 0.0000 0.0000 -9.5568
#
#
#
# Elastic Compliance Matrix: (Units=1/GPa)
#
#
# Indices 1 2 3 4 5 6 
#
# 1 0.007425 -0.001573 -0.002375 0.000000 0.000000 0.000000
# 2 -0.001573 0.007526 -0.002501 0.000000 0.000000 0.000000
# 3 -0.002375 -0.002501 0.010436 0.000000 0.000000 0.000000
# 4 0.000000 0.000000 0.000000 0.025516 0.000000 0.000000
# 5 0.000000 0.000000 0.000000 0.000000 0.021703 0.000000
# 6 0.000000 0.000000 0.000000 0.000000 0.000000 -0.104638
#
#
# Mechanical properties :
#
#
# Convention : Reuss Voigt Hill
#
# Bulk Modulus (GPa) = 80.06340 81.63549 80.84945
# Shear Modulus (GPa) = -333.94484 34.57093 -149.68695
#
# Velocity S-wave (km/s) = -11.51450 3.70479 -7.70903
# Velocity P-wave (km/s) = 12.04123 7.12121 6.86584
#
# Compressibility (1/GPa) = 0.01249010
#
# Stress axis : x y z
#
# Youngs Moduli (GPa) = 134.68485 132.87743 95.81882
#
# Poissons Ratio (x) = 0.20897 0.22758
# Poissons Ratio (y) = 0.21181 0.23961
# Poissons Ratio (z) = 0.31989 0.33228
#
# Static dielectric constant tensor:
#      x y z
#    x 5.045620 0.000000 0.000000 
#    y 0.000000 4.876100 0.000000 
#    z 0.000000 0.000000 4.882510 
# 
# 
# High freq. dielectric constant tensor:
#      x y z
#    x 2.042820 0.000000 0.000000 
#    y 0.000000 2.028560 0.000000 
#    z 0.000000 0.000000 1.984070 
# 
# From -- ./inp_files/18259.got.cif
#   From: 2010.03.12/outbox.cif.g09.slc.cpg/sg20_10_cif.got.tgz:18259.got - 2010.04.14 01:38:04.
