data_PCOD8160243
_publ_section_title
;
Structure prediction by ZEFSAII (Michael W. Deem and Ramdas Pophale) SiO2 
 PCOD8160243
Probable space group: C 2 2 21
;
_chemical_formula_sum "Si O2"
_cell_formula_units_Z 60
_cell_length_a 12.465134
_cell_length_b 12.997459
_cell_length_c 17.086229
_cell_angle_alpha 90.000000
_cell_angle_beta 90.000000
_cell_angle_gamma 90.000000
_cell_volume 2768.226555
_symmetry_space_group_name_H-M "C 2 2 21"
_symmetry_group_IT_number 20
_symmetry_cell_setting 'orthorhombic'
loop_
_space_group_symop_operation_xyz
x,y,z
-x,-y,1/2+z
x,-y,-z
-x,y,1/2-z
1/2+x,1/2+y,z
1/2-x,1/2-y,1/2+z
1/2+x,1/2-y,-z
1/2-x,1/2+y,1/2-z
loop_
_atom_site_type_symbol
_atom_site_label
_atom_site_fract_x
_atom_site_fract_y
_atom_site_fract_z
Si Si1 0.825173 0.542211 0.088765
Si Si2 0.577085 0.355258 0.607616
Si Si3 0.484664 0.795754 0.841239
Si Si4 0.292933 0.753866 0.606362
Si Si5 0.121711 0.110534 0.022826
Si Si6 0.706322 0.112432 0.727779
Si Si7 0.500000 0.219498 0.750000
Si Si8 0.414128 0.567498 0.816272
O O1 0.906776 0.630178 0.112633
O O2 0.706867 0.593862 0.093437
O O3 0.833786 0.454134 0.153975
O O4 0.846851 0.500000 0.000000
O O5 0.694158 0.323295 0.575258
O O6 0.482762 0.323920 0.546991
O O7 0.548453 0.291390 0.683971
O O8 0.574866 0.478093 0.619691
O O9 0.500000 0.823197 0.750000
O O10 0.597676 0.816975 0.884401
O O11 0.442819 0.678376 0.853409
O O12 0.311182 0.660277 0.547230
O O13 0.268351 0.711023 0.692968
O O14 0.076551 0.000000 0.000000
O O15 0.600196 0.146847 0.776494
O O16 0.791660 0.058279 0.784889
O O17 0.500000 0.541988 0.750000
#
# Coordination Sequence:
#
# PCOD8160243 Si02
#       8
#     8   8   8   8   8   8   4   8
#     4  11  25  42  71  95 131 184 222 268 342 413
#     4  11  25  41  67  99 133 170 225 276 333 395
#     4  11  25  41  71  99 134 177 223 277 338 396
#     4  11  23  43  64  99 134 170 222 270 328 402
#     4  11  23  43  67  91 128 182 215 270 330 403
#     4  11  22  42  63  97 137 167 223 268 336 399
#     4  10  26  38  66  96 136 174 204 282 336 388
#     4  11  21  40  67 100 131 170 219 285 326 397
#
# _framework density 21.674526
#
# number of rings (size 3 to 8) (size 9 to 14) (size 15 to 20)
#    0.000    1.067    6.000    1.600    6.533    0.000 
#    0.000    0.667    0.000    0.000    0.000    0.000 
#    0.000    0.000    0.000    0.000    0.000    0.000 
#
# Total GULP energy -371845.619994 kJ/mol
# GULP energy per Si atom -12394.854000 kJ/mol
# Density = 2.162519 g / cm^3
# Si number density = 21.674526 Si / 1000 Ang^3
#
#
#
# Elastic Constant Matrix: (Units=GPa)
#
#
# Indices 1 2 3 4 5 6 
#
# 1 168.2664 61.7965 42.6258 0.0000 0.0000 0.0000
# 2 61.7965 78.6198 32.2134 0.0000 0.0000 0.0000
# 3 42.6258 32.2134 53.1961 0.0000 0.0000 0.0000
# 4 0.0000 0.0000 0.0000 18.1626 0.0000 0.0000
# 5 0.0000 0.0000 0.0000 0.0000 34.2070 0.0000
# 6 0.0000 0.0000 0.0000 0.0000 0.0000 39.8710
#
#
#
# Elastic Compliance Matrix: (Units=1/GPa)
#
#
# Indices 1 2 3 4 5 6 
#
# 1 0.008912 -0.005425 -0.003856 0.000000 0.000000 0.000000
# 2 -0.005425 0.020219 -0.007897 0.000000 0.000000 0.000000
# 3 -0.003856 -0.007897 0.026670 0.000000 0.000000 0.000000
# 4 0.000000 0.000000 0.000000 0.055058 0.000000 0.000000
# 5 0.000000 0.000000 0.000000 0.000000 0.029234 0.000000
# 6 0.000000 0.000000 0.000000 0.000000 0.000000 0.025081
#
#
# Mechanical properties :
#
#
# Convention : Reuss Voigt Hill
#
# Bulk Modulus (GPa) = 46.62953 63.70596 55.16774
# Shear Modulus (GPa) = 24.19205 29.34456 26.76830
#
# Velocity S-wave (km/s) = 3.34451 3.68349 3.51809
# Velocity P-wave (km/s) = 6.03942 6.89541 6.48156
#
# Compressibility (1/GPa) = 0.02144564
#
# Stress axis : x y z
#
# Youngs Moduli (GPa) = 112.20573 49.45751 37.49498
#
# Poissons Ratio (x) = 0.26832 0.14458
# Poissons Ratio (y) = 0.60874 0.29609
# Poissons Ratio (z) = 0.43267 0.39056
#
# Static dielectric constant tensor:
#      x y z
#    x 4.274420 0.000000 0.000000 
#    y 0.000000 3.876940 0.000000 
#    z 0.000000 0.000000 3.707620 
# 
# 
# High freq. dielectric constant tensor:
#      x y z
#    x 1.874380 0.000000 0.000000 
#    y 0.000000 1.841650 0.000000 
#    z 0.000000 0.000000 1.827600 
# 
# From -- ./inp_files/27266.got.cif
#   From: 2010.03.12/outbox.cif.g09.slc.cpg/sg20_14_cif.got.tgz:27266.got - 2010.04.14 01:38:04.
