data_PCOD8160031
_publ_section_title
;
Structure prediction by ZEFSAII (Michael W. Deem and Ramdas Pophale) SiO2 
 PCOD8160031
Probable space group: C 2 2 21
;
_chemical_formula_sum "Si O2"
_cell_formula_units_Z 40
_cell_length_a 18.395095
_cell_length_b 8.621337
_cell_length_c 11.520976
_cell_angle_alpha 90.000000
_cell_angle_beta 90.000000
_cell_angle_gamma 90.000000
_cell_volume 1827.115192
_symmetry_space_group_name_H-M "C 2 2 21"
_symmetry_group_IT_number 20
_symmetry_cell_setting 'orthorhombic'
loop_
_space_group_symop_operation_xyz
x,y,z
-x,-y,1/2+z
x,-y,-z
-x,y,1/2-z
1/2+x,1/2+y,z
1/2-x,1/2-y,1/2+z
1/2+x,1/2-y,-z
1/2-x,1/2+y,1/2-z
loop_
_atom_site_type_symbol
_atom_site_label
_atom_site_fract_x
_atom_site_fract_y
_atom_site_fract_z
Si Si1 0.429838 0.102876 0.172506
Si Si2 0.602563 0.666198 0.040930
Si Si3 0.313628 0.742911 0.687634
Si Si4 0.554764 0.230919 0.571727
Si Si5 0.833545 0.097596 0.220754
O O1 0.500000 0.144345 0.250000
O O2 0.356596 0.125856 0.243604
O O3 0.424974 0.925894 0.136378
O O4 0.426606 0.220810 0.064062
O O5 0.532124 0.760334 0.080821
O O6 0.654735 0.662891 0.150930
O O7 0.573151 0.500000 0.000000
O O8 0.649647 0.737499 0.938133
O O9 0.232628 0.804982 0.666783
O O10 0.317158 0.584788 0.763208
O O11 0.597174 0.373088 0.635009
#
# Coordination Sequence:
#
# PCOD8160031 Si02
#       5
#     8   8   8   8   8
#     4  11  23  42  67  99 136 174 223 275 338 400
#     4  10  23  44  70  96 136 175 226 281 336 400
#     4  11  25  45  67 100 138 182 222 280 342 403
#     4  11  24  42  70 100 133 175 225 282 332 404
#     4  11  25  43  69  98 136 179 228 276 339 408
#
# _framework density 21.892434999999999
#
# number of rings (size 3 to 8) (size 9 to 14) (size 15 to 20)
#    0.000    1.200    2.000    3.000    5.600    0.000 
#    0.000    0.000    0.000    0.000    0.000    0.000 
#    0.000    0.000    0.000    0.000    0.000    0.000 
#
# Total GULP energy -248013.703551 kJ/mol
# GULP energy per Si atom -12400.685178 kJ/mol
# Density = 2.184261 g / cm^3
# Si number density = 21.892435 Si / 1000 Ang^3
#
#
#
# Elastic Constant Matrix: (Units=GPa)
#
#
# Indices 1 2 3 4 5 6 
#
# 1 120.1029 33.9928 40.7747 0.0000 0.0000 0.0000
# 2 33.9928 59.9771 28.7130 0.0000 0.0000 0.0000
# 3 40.7747 28.7130 115.1116 0.0000 0.0000 0.0000
# 4 0.0000 0.0000 0.0000 31.0320 0.0000 0.0000
# 5 0.0000 0.0000 0.0000 0.0000 37.2020 0.0000
# 6 0.0000 0.0000 0.0000 0.0000 0.0000 37.0361
#
#
#
# Elastic Compliance Matrix: (Units=1/GPa)
#
#
# Indices 1 2 3 4 5 6 
#
# 1 0.010536 -0.004752 -0.002547 0.000000 0.000000 0.000000
# 2 -0.004752 0.021077 -0.003574 0.000000 0.000000 0.000000
# 3 -0.002547 -0.003574 0.010481 0.000000 0.000000 0.000000
# 4 0.000000 0.000000 0.000000 0.032225 0.000000 0.000000
# 5 0.000000 0.000000 0.000000 0.000000 0.026880 0.000000
# 6 0.000000 0.000000 0.000000 0.000000 0.000000 0.027001
#
#
# Mechanical properties :
#
#
# Convention : Reuss Voigt Hill
#
# Bulk Modulus (GPa) = 49.14451 55.79473 52.46962
# Shear Modulus (GPa) = 31.90232 33.83474 32.86853
#
# Velocity S-wave (km/s) = 3.82151 3.93555 3.87895
# Velocity P-wave (km/s) = 6.47833 6.79651 6.63933
#
# Compressibility (1/GPa) = 0.02034815
#
# Stress axis : x y z
#
# Youngs Moduli (GPa) = 94.91478 47.44410 95.41245
#
# Poissons Ratio (x) = 0.22546 0.24298
# Poissons Ratio (y) = 0.45105 0.34102
# Poissons Ratio (z) = 0.24171 0.16957
#
# Static dielectric constant tensor:
#      x y z
#    x 3.831140 0.000000 0.000000 
#    y 0.000000 3.982070 0.000000 
#    z 0.000000 0.000000 4.174380 
# 
# 
# High freq. dielectric constant tensor:
#      x y z
#    x 1.862930 0.000000 0.000000 
#    y 0.000000 1.857930 0.000000 
#    z 0.000000 0.000000 1.877680 
# 
# From -- ./inp_files/12662.got.cif
#   From: 2010.03.12/outbox.cif.g09.slc.cpg/sg20_7_cif.got.tgz:12662.got - 2010.04.14 01:38:04.
