data_PCOD8160804
_publ_section_title
;
Structure prediction by ZEFSAII (Michael W. Deem and Ramdas Pophale) SiO2 
 PCOD8160804
Probable space group: C 2 2 2
;
_chemical_formula_sum "Si O2"
_cell_formula_units_Z 48
_cell_length_a 9.524871
_cell_length_b 25.993368
_cell_length_c 12.520144
_cell_angle_alpha 90.000000
_cell_angle_beta 90.000000
_cell_angle_gamma 90.000000
_cell_volume 3099.780785
_symmetry_space_group_name_H-M "C 2 2 2"
_symmetry_group_IT_number 21
_symmetry_cell_setting 'orthorhombic'
loop_
_space_group_symop_operation_xyz
x,y,z
-x,-y,z
x,-y,-z
-x,y,-z
1/2+x,1/2+y,z
1/2-x,1/2-y,z
1/2+x,1/2-y,-z
1/2-x,1/2+y,-z
loop_
_atom_site_type_symbol
_atom_site_label
_atom_site_fract_x
_atom_site_fract_y
_atom_site_fract_z
Si Si1 0.999391 0.557516 0.127089
Si Si2 0.508409 0.326328 0.778892
Si Si3 0.509857 0.785954 0.179593
Si Si4 0.772102 0.636725 0.862400
Si Si5 0.414008 0.746613 0.606064
Si Si6 0.729307 0.863948 0.107856
O O1 0.135531 0.587351 0.173048
O O2 0.000000 0.500000 0.175346
O O3 0.858501 0.588401 0.157637
O O4 0.000000 0.556533 0.000000
O O5 0.500017 0.274461 0.852261
O O6 0.364520 0.358645 0.787362
O O7 0.541898 0.309163 0.656461
O O8 0.632208 0.362136 0.821256
O O9 0.362260 0.811713 0.152634
O O10 0.546074 0.790328 0.306494
O O11 0.635615 0.812217 0.113882
O O12 0.726668 0.628916 0.985031
O O13 0.500000 0.757544 0.500000
O O14 0.250000 0.750000 0.579130
#
# Coordination Sequence:
#
# PCOD8160804 Si02
#       6
#     8   8   8   8   8   8
#     4   8  16  31  47  62  86 124 163 193 223 264
#     4  10  19  30  41  69  98 120 154 196 217 270
#     4   9  18  31  42  65  94 127 156 187 209 273
#     4  10  19  26  46  69  93 129 157 180 224 271
#     4  10  21  34  47  61  91 128 160 191 229 257
#     4  10  17  30  44  65  97 128 153 187 225 269
#
# _framework density 15.484966
#
# number of rings (size 3 to 8) (size 9 to 14) (size 15 to 20)
#    1.000    1.500    1.667    3.000    2.333    4.000 
#    0.000    0.833    0.000    4.000    0.000    0.000 
#    0.000   25.333    0.000    0.000    0.000    0.000 
#
# Total GULP energy -297417.099898 kJ/mol
# GULP energy per Si atom -12392.379162 kJ/mol
# Density = 1.544972 g / cm^3
# Si number density = 15.484966 Si / 1000 Ang^3
#
#
#
# Elastic Constant Matrix: (Units=GPa)
#
#
# Indices 1 2 3 4 5 6 
#
# 1 120.8429 36.3427 20.6278 0.0000 0.0000 0.0000
# 2 36.3427 88.4372 6.6288 0.0000 0.0000 0.0000
# 3 20.6278 6.6288 46.3490 0.0000 0.0000 0.0000
# 4 0.0000 0.0000 0.0000 3.1457 0.0000 0.0000
# 5 0.0000 0.0000 0.0000 0.0000 21.5494 0.0000
# 6 0.0000 0.0000 0.0000 0.0000 0.0000 11.3654
#
#
#
# Elastic Compliance Matrix: (Units=1/GPa)
#
#
# Indices 1 2 3 4 5 6 
#
# 1 0.010109 -0.003859 -0.003947 0.000000 0.000000 0.000000
# 2 -0.003859 0.012903 -0.000128 0.000000 0.000000 0.000000
# 3 -0.003947 -0.000128 0.023351 0.000000 0.000000 0.000000
# 4 0.000000 0.000000 0.000000 0.317890 0.000000 0.000000
# 5 0.000000 0.000000 0.000000 0.000000 0.046405 0.000000
# 6 0.000000 0.000000 0.000000 0.000000 0.000000 0.087986
#
#
# Mechanical properties :
#
#
# Convention : Reuss Voigt Hill
#
# Bulk Modulus (GPa) = 32.79263 42.53641 37.66452
# Shear Modulus (GPa) = 9.52967 20.01410 14.77189
#
# Velocity S-wave (km/s) = 2.48345 3.59902 3.09196
# Velocity P-wave (km/s) = 5.42645 6.69326 6.09287
#
# Compressibility (1/GPa) = 0.03049465
#
# Stress axis : x y z
#
# Youngs Moduli (GPa) = 98.91733 77.50314 42.82555
#
# Poissons Ratio (x) = 0.29905 0.16905
# Poissons Ratio (y) = 0.38168 0.00549
# Poissons Ratio (z) = 0.39047 0.00993
#
# Static dielectric constant tensor:
#      x y z
#    x 3.060120 0.000000 0.000000 
#    y 0.000000 2.923910 0.000000 
#    z 0.000000 0.000000 2.617190 
# 
# 
# High freq. dielectric constant tensor:
#      x y z
#    x 1.606240 0.000000 0.000000 
#    y 0.000000 1.563460 0.000000 
#    z 0.000000 0.000000 1.555560 
# 
# From -- ./inp_files/22908.got.cif
#   From: 2010.03.12/outbox.cif.g09.slc.cpg/sg21_12_cif.got.tgz:22908.got - 2010.04.14 01:59:26.
