data_PCOD8160329
_publ_section_title
;
Structure prediction by ZEFSAII (Michael W. Deem and Ramdas Pophale) SiO2 
 PCOD8160329
Probable space group: C 2 2 21
;
_chemical_formula_sum "Si O2"
_cell_formula_units_Z 40
_cell_length_a 4.992749
_cell_length_b 14.041656
_cell_length_c 24.671197
_cell_angle_alpha 90.000000
_cell_angle_beta 90.000000
_cell_angle_gamma 90.000000
_cell_volume 1729.610383
_symmetry_space_group_name_H-M "C 2 2 21"
_symmetry_group_IT_number 20
_symmetry_cell_setting 'orthorhombic'
loop_
_space_group_symop_operation_xyz
x,y,z
-x,-y,1/2+z
x,-y,-z
-x,y,1/2-z
1/2+x,1/2+y,z
1/2-x,1/2-y,1/2+z
1/2+x,1/2-y,-z
1/2-x,1/2+y,1/2-z
loop_
_atom_site_type_symbol
_atom_site_label
_atom_site_fract_x
_atom_site_fract_y
_atom_site_fract_z
Si Si1 0.237503 0.582116 0.215553
Si Si2 0.384143 0.863236 0.305184
Si Si3 0.895561 0.837095 0.374992
Si Si4 0.130014 0.024980 0.060178
Si Si5 0.146407 0.365372 0.903501
O O1 0.500000 0.599395 0.250000
O O2 0.182658 0.471620 0.207171
O O3 0.263186 0.632151 0.157566
O O4 0.000000 0.629627 0.250000
O O5 0.500000 0.814216 0.250000
O O6 0.600419 0.853344 0.352222
O O7 0.108387 0.817010 0.326689
O O8 0.901359 0.746458 0.415725
O O9 0.972142 0.931230 0.408502
O O10 0.373685 0.075064 0.091519
O O11 0.874172 0.094782 0.056435
O O12 0.227886 0.000000 0.000000
#
# Coordination Sequence:
#
# PCOD8160329 Si02
#       5
#     8   8   8   8   8
#     4  11  21  38  64  95 132 174 216 262 322 403
#     4  11  22  40  68  97 138 183 219 263 335 405
#     4  12  24  44  69  99 137 177 224 281 335 409
#     4  12  26  48  71  97 135 177 230 295 351 396
#     4  12  26  44  70 102 134 177 229 277 342 413
#
# _framework density 23.126594000000001
#
# number of rings (size 3 to 8) (size 9 to 14) (size 15 to 20)
#    0.000    0.400    4.000    6.000    0.000    4.000 
#    0.000    0.000    0.000    0.000    0.000    0.000 
#    0.000    0.000    0.000    0.000    0.000    0.000 
#
# Total GULP energy -248085.205592 kJ/mol
# GULP energy per Si atom -12404.260280 kJ/mol
# Density = 2.307396 g / cm^3
# Si number density = 23.126594 Si / 1000 Ang^3
#
#
#
# Elastic Constant Matrix: (Units=GPa)
#
#
# Indices 1 2 3 4 5 6 
#
# 1 144.8690 40.3809 17.8481 0.0000 0.0000 0.0000
# 2 40.3809 97.5256 18.9266 0.0000 0.0000 0.0000
# 3 17.8481 18.9266 76.3501 0.0000 0.0000 0.0000
# 4 0.0000 0.0000 0.0000 17.0360 0.0000 0.0000
# 5 0.0000 0.0000 0.0000 0.0000 37.9953 0.0000
# 6 0.0000 0.0000 0.0000 0.0000 0.0000 14.9364
#
#
#
# Elastic Compliance Matrix: (Units=1/GPa)
#
#
# Indices 1 2 3 4 5 6 
#
# 1 0.007888 -0.003055 -0.001087 0.000000 0.000000 0.000000
# 2 -0.003055 0.011955 -0.002249 0.000000 0.000000 0.000000
# 3 -0.001087 -0.002249 0.013909 0.000000 0.000000 0.000000
# 4 0.000000 0.000000 0.000000 0.058699 0.000000 0.000000
# 5 0.000000 0.000000 0.000000 0.000000 0.026319 0.000000
# 6 0.000000 0.000000 0.000000 0.000000 0.000000 0.066951
#
#
# Mechanical properties :
#
#
# Convention : Reuss Voigt Hill
#
# Bulk Modulus (GPa) = 47.68691 52.56177 50.12434
# Shear Modulus (GPa) = 24.33157 30.09948 27.21552
#
# Velocity S-wave (km/s) = 3.24713 3.61156 3.43418
# Velocity P-wave (km/s) = 5.89264 6.33785 6.11929
#
# Compressibility (1/GPa) = 0.02097012
#
# Stress axis : x y z
#
# Youngs Moduli (GPa) = 126.77002 83.64484 71.89495
#
# Poissons Ratio (x) = 0.25556 0.07812
# Poissons Ratio (y) = 0.38732 0.16172
# Poissons Ratio (z) = 0.13775 0.18815
#
# Static dielectric constant tensor:
#      x y z
#    x 4.312650 0.000000 0.000000 
#    y 0.000000 4.337410 0.000000 
#    z 0.000000 0.000000 4.164070 
# 
# 
# High freq. dielectric constant tensor:
#      x y z
#    x 1.929580 0.000000 0.000000 
#    y 0.000000 1.918660 0.000000 
#    z 0.000000 0.000000 1.895790 
# 
# From -- ./inp_files/28261.got.cif
#   From: 2010.03.12/outbox.cif.g09.slc.cpg/sg20_15_cif.got.tgz:28261.got - 2010.04.14 01:38:04.
