data_PCOD8160749
_publ_section_title
;
Structure prediction by ZEFSAII (Michael W. Deem and Ramdas Pophale) SiO2 
 PCOD8160749
Probable space group: C 2 2 21
;
_chemical_formula_sum "Si O2"
_cell_formula_units_Z 32
_cell_length_a 4.943450
_cell_length_b 15.412280
_cell_length_c 15.935424
_cell_angle_alpha 90.000000
_cell_angle_beta 90.000000
_cell_angle_gamma 90.000000
_cell_volume 1214.117334
_symmetry_space_group_name_H-M "C 2 2 21"
_symmetry_group_IT_number 20
_symmetry_cell_setting 'orthorhombic'
loop_
_space_group_symop_operation_xyz
x,y,z
-x,-y,1/2+z
x,-y,-z
-x,y,1/2-z
1/2+x,1/2+y,z
1/2-x,1/2-y,1/2+z
1/2+x,1/2-y,-z
1/2-x,1/2+y,1/2-z
loop_
_atom_site_type_symbol
_atom_site_label
_atom_site_fract_x
_atom_site_fract_y
_atom_site_fract_z
Si Si1 0.500000 0.679175 0.250000
Si Si2 0.633111 0.303693 0.164217
Si Si3 0.287427 0.782449 0.458127
Si Si4 0.000000 0.558571 0.250000
Si Si5 0.543536 0.949476 0.415875
O O1 0.400686 0.744031 0.176026
O O2 0.251638 0.618352 0.275903
O O3 0.500000 0.335500 0.250000
O O4 0.398598 0.246303 0.118310
O O5 0.705355 0.390577 0.113448
O O6 0.593152 0.741679 0.461902
O O7 0.302036 0.886223 0.446654
O O8 0.939502 0.503880 0.334961
O O9 0.635298 0.000000 0.500000
#
# Coordination Sequence:
#
# PCOD8160749 Si02
#       5
#     4   8   8   4   8
#     4  12  29  50  89 114 166 230 276 342 421 510
#     4  12  27  53  85 124 162 227 282 348 416 502
#     4  12  28  51  85 118 164 215 282 336 406 506
#     4  12  31  54  83 130 170 214 286 350 427 488
#     4  12  31  52  85 123 175 220 275 356 427 498
#
# _framework density 26.356594999999999
#
# number of rings (size 3 to 8) (size 9 to 14) (size 15 to 20)
#    0.000    0.000    3.750    3.750    8.750    3.000 
#    0.000    0.000    0.000    0.000    0.000    0.000 
#    0.000    0.000    0.000    0.000    0.000    0.000 
#
# Total GULP energy -198230.090677 kJ/mol
# GULP energy per Si atom -12389.380667 kJ/mol
# Density = 2.629661 g / cm^3
# Si number density = 26.356595 Si / 1000 Ang^3
#
#
#
# Elastic Constant Matrix: (Units=GPa)
#
#
# Indices 1 2 3 4 5 6 
#
# 1 191.2094 69.4207 30.9815 0.0000 0.0000 0.0000
# 2 69.4207 161.1465 85.1701 0.0000 0.0000 0.0000
# 3 30.9815 85.1701 190.0015 0.0000 0.0000 0.0000
# 4 0.0000 0.0000 0.0000 169.2085 0.0000 0.0000
# 5 0.0000 0.0000 0.0000 0.0000 52.7611 0.0000
# 6 0.0000 0.0000 0.0000 0.0000 0.0000 34.2172
#
#
#
# Elastic Compliance Matrix: (Units=1/GPa)
#
#
# Indices 1 2 3 4 5 6 
#
# 1 0.006208 -0.002804 0.000244 0.000000 0.000000 0.000000
# 2 -0.002804 0.009398 -0.003756 0.000000 0.000000 0.000000
# 3 0.000244 -0.003756 0.006907 0.000000 0.000000 0.000000
# 4 0.000000 0.000000 0.000000 0.005910 0.000000 0.000000
# 5 0.000000 0.000000 0.000000 0.000000 0.018953 0.000000
# 6 0.000000 0.000000 0.000000 0.000000 0.000000 0.029225
#
#
# Mechanical properties :
#
#
# Convention : Reuss Voigt Hill
#
# Bulk Modulus (GPa) = 101.17913 101.50023 101.33968
# Shear Modulus (GPa) = 54.03894 75.02304 64.53099
#
# Velocity S-wave (km/s) = 4.53294 5.34101 4.95348
# Velocity P-wave (km/s) = 8.11595 8.75381 8.44090
#
# Compressibility (1/GPa) = 0.00988346
#
# Stress axis : x y z
#
# Youngs Moduli (GPa) = 161.07863 106.40203 144.78484
#
# Poissons Ratio (x) = 0.29831 -0.03539
# Poissons Ratio (y) = 0.45160 0.54377
# Poissons Ratio (z) = -0.03938 0.39962
#
# Static dielectric constant tensor:
#      x y z
#    x 2.799930 0.000000 0.000000 
#    y 0.000000 4.744270 0.000000 
#    z 0.000000 0.000000 5.127110 
# 
# 
# High freq. dielectric constant tensor:
#      x y z
#    x 2.076760 0.000000 0.000000 
#    y 0.000000 2.037630 0.000000 
#    z 0.000000 0.000000 2.094870 
# 
# From -- ./inp_files/22509.got.cif
#   From: 2010.03.12/outbox.cif.g09.slc.cpg/sg20_12_cif.got.tgz:22509.got - 2010.04.14 01:38:04.
