data_PCOD8160503
_publ_section_title
;
Structure prediction by ZEFSAII (Michael W. Deem and Ramdas Pophale) SiO2 
 PCOD8160503
Probable space group: C 2 2 21
;
_chemical_formula_sum "Si O2"
_cell_formula_units_Z 32
_cell_length_a 9.884433
_cell_length_b 9.302726
_cell_length_c 16.099483
_cell_angle_alpha 90.000000
_cell_angle_beta 90.000000
_cell_angle_gamma 90.000000
_cell_volume 1480.382428
_symmetry_space_group_name_H-M "C 2 2 21"
_symmetry_group_IT_number 20
_symmetry_cell_setting 'orthorhombic'
loop_
_space_group_symop_operation_xyz
x,y,z
-x,-y,1/2+z
x,-y,-z
-x,y,1/2-z
1/2+x,1/2+y,z
1/2-x,1/2-y,1/2+z
1/2+x,1/2-y,-z
1/2-x,1/2+y,1/2-z
loop_
_atom_site_type_symbol
_atom_site_label
_atom_site_fract_x
_atom_site_fract_y
_atom_site_fract_z
Si Si1 0.155309 0.408433 0.257648
Si Si2 0.988201 0.656610 0.468009
Si Si3 0.736693 0.141774 0.557311
Si Si4 0.876651 0.715152 0.203408
O O1 0.230054 0.385855 0.345193
O O2 0.162777 0.578578 0.237478
O O3 0.247961 0.320509 0.191418
O O4 0.000000 0.353164 0.250000
O O5 0.939996 0.500000 0.500000
O O6 0.096305 0.721586 0.533506
O O7 0.071206 0.645420 0.381968
O O8 0.862608 0.759877 0.463230
O O9 0.747247 0.000000 0.500000
O O10 0.000000 0.798122 0.250000
#
# Coordination Sequence:
#
# PCOD8160503 Si02
#       4
#     8   8   8   8
#     4  11  25  44  68  99 134 177 224 274 333 399
#     4  11  24  45  69  96 137 175 223 279 334 397
#     4  11  24  45  66  98 135 173 224 277 332 400
#     4  11  23  45  67  95 136 174 219 275 333 394
#
# _framework density 21.616036000000001
#
# number of rings (size 3 to 8) (size 9 to 14) (size 15 to 20)
#    0.000    1.000    7.500    0.000    3.500    2.000 
#    4.500    0.000    0.000    0.000    0.000    0.000 
#    0.000    0.000    0.000    0.000    0.000    0.000 
#
# Total GULP energy -198275.145481 kJ/mol
# GULP energy per Si atom -12392.196593 kJ/mol
# Density = 2.156684 g / cm^3
# Si number density = 21.616036 Si / 1000 Ang^3
#
#
#
# Elastic Constant Matrix: (Units=GPa)
#
#
# Indices 1 2 3 4 5 6 
#
# 1 158.7027 71.9418 9.6231 0.0000 0.0000 0.0000
# 2 71.9418 81.0601 20.2707 0.0000 0.0000 0.0000
# 3 9.6231 20.2707 59.2114 0.0000 0.0000 0.0000
# 4 0.0000 0.0000 0.0000 25.0995 0.0000 0.0000
# 5 0.0000 0.0000 0.0000 0.0000 33.1743 0.0000
# 6 0.0000 0.0000 0.0000 0.0000 0.0000 43.2544
#
#
#
# Elastic Compliance Matrix: (Units=1/GPa)
#
#
# Indices 1 2 3 4 5 6 
#
# 1 0.010688 -0.009899 0.001652 0.000000 0.000000 0.000000
# 2 -0.009899 0.022660 -0.006149 0.000000 0.000000 0.000000
# 3 0.001652 -0.006149 0.018725 0.000000 0.000000 0.000000
# 4 0.000000 0.000000 0.000000 0.039841 0.000000 0.000000
# 5 0.000000 0.000000 0.000000 0.000000 0.030144 0.000000
# 6 0.000000 0.000000 0.000000 0.000000 0.000000 0.023119
#
#
# Mechanical properties :
#
#
# Convention : Reuss Voigt Hill
#
# Bulk Modulus (GPa) = 42.95280 55.84950 49.40115
# Shear Modulus (GPa) = 27.51343 33.44822 30.48082
#
# Velocity S-wave (km/s) = 3.57154 3.93794 3.75921
# Velocity P-wave (km/s) = 6.07633 6.82420 6.46109
#
# Compressibility (1/GPa) = 0.02328137
#
# Stress axis : x y z
#
# Youngs Moduli (GPa) = 93.56035 44.13132 53.40423
#
# Poissons Ratio (x) = 0.43686 -0.08821
# Poissons Ratio (y) = 0.92616 0.32836
# Poissons Ratio (z) = -0.15454 0.27135
#
# Static dielectric constant tensor:
#      x y z
#    x 4.164940 0.000000 0.000000 
#    y 0.000000 3.735950 0.000000 
#    z 0.000000 0.000000 4.029130 
# 
# 
# High freq. dielectric constant tensor:
#      x y z
#    x 1.865190 0.000000 0.000000 
#    y 0.000000 1.825130 0.000000 
#    z 0.000000 0.000000 1.853740 
# 
# From -- ./inp_files/18212.got.cif
#   From: 2010.03.12/outbox.cif.g09.slc.cpg/sg20_10_cif.got.tgz:18212.got - 2010.04.14 01:38:04.
