data_PCOD8160822
_publ_section_title
;
Structure prediction by ZEFSAII (Michael W. Deem and Ramdas Pophale) SiO2 
 PCOD8160822
Probable space group: C 2 2 2
;
_chemical_formula_sum "Si O2"
_cell_formula_units_Z 48
_cell_length_a 7.847187
_cell_length_b 14.437983
_cell_length_c 18.445515
_cell_angle_alpha 90.000000
_cell_angle_beta 90.000000
_cell_angle_gamma 90.000000
_cell_volume 2089.831704
_symmetry_space_group_name_H-M "C 2 2 2"
_symmetry_group_IT_number 21
_symmetry_cell_setting 'orthorhombic'
loop_
_space_group_symop_operation_xyz
x,y,z
-x,-y,z
x,-y,-z
-x,y,-z
1/2+x,1/2+y,z
1/2-x,1/2-y,z
1/2+x,1/2-y,-z
1/2-x,1/2+y,-z
loop_
_atom_site_type_symbol
_atom_site_label
_atom_site_fract_x
_atom_site_fract_y
_atom_site_fract_z
Si Si1 0.825499 0.559613 0.841235
Si Si2 0.785455 0.350869 0.689775
Si Si3 0.668850 0.621149 0.150035
Si Si4 0.684671 0.853054 0.695336
Si Si5 0.298041 0.005142 0.580355
Si Si6 0.495074 0.219304 0.085130
O O1 0.679762 0.488452 0.871449
O O2 0.747399 0.589320 0.763807
O O3 0.000000 0.500000 0.833025
O O4 0.849046 0.652060 0.890479
O O5 0.750000 0.250000 0.657523
O O6 0.681299 0.366877 0.763458
O O7 0.723125 0.421633 0.628172
O O8 0.983426 0.360528 0.706273
O O9 0.499481 0.677171 0.122767
O O10 0.823563 0.670050 0.109007
O O11 0.750000 0.750000 0.696520
O O12 0.749592 0.898782 0.620375
O O13 0.500000 0.000000 0.574373
O O14 0.216029 0.000000 0.500000
O O15 0.500000 0.233032 0.000000
#
# Coordination Sequence:
#
# PCOD8160822 Si02
#       6
#     8   8   8   8   8   8
#     4  10  17  35  62  83 109 159 208 244 307 381
#     4  11  18  36  65  85 115 165 211 248 303 384
#     4  10  18  34  62  86 111 158 217 244 304 391
#     4  11  20  34  58  92 125 154 206 264 312 372
#     4   9  19  35  59  90 122 159 209 260 304 368
#     4  10  20  34  57  90 118 148 205 266 308 368
#
# _framework density 22.968356
#
# number of rings (size 3 to 8) (size 9 to 14) (size 15 to 20)
#    0.000    1.833    6.667    0.500    0.000    3.667 
#    3.000    0.833    0.000    3.000    0.000    0.000 
#    0.000    0.000    0.000    0.000    0.000    0.000 
#
# Total GULP energy -297417.646169 kJ/mol
# GULP energy per Si atom -12392.401924 kJ/mol
# Density = 2.291608 g / cm^3
# Si number density = 22.968356 Si / 1000 Ang^3
#
#
#
# Elastic Constant Matrix: (Units=GPa)
#
#
# Indices 1 2 3 4 5 6 
#
# 1 33.0390 25.2054 20.0358 0.0000 0.0000 0.0000
# 2 25.2054 217.2145 86.5340 0.0000 0.0000 0.0000
# 3 20.0358 86.5340 199.2091 0.0000 0.0000 0.0000
# 4 0.0000 0.0000 0.0000 31.3334 0.0000 0.0000
# 5 0.0000 0.0000 0.0000 0.0000 -1.6432 0.0000
# 6 0.0000 0.0000 0.0000 0.0000 0.0000 24.9563
#
#
#
# Elastic Compliance Matrix: (Units=1/GPa)
#
#
# Indices 1 2 3 4 5 6 
#
# 1 0.033889 -0.003113 -0.002056 0.000000 0.000000 0.000000
# 2 -0.003113 0.005853 -0.002229 0.000000 0.000000 0.000000
# 3 -0.002056 -0.002229 0.006195 0.000000 0.000000 0.000000
# 4 0.000000 0.000000 0.000000 0.031915 0.000000 0.000000
# 5 0.000000 0.000000 0.000000 0.000000 -0.608552 0.000000
# 6 0.000000 0.000000 0.000000 0.000000 0.000000 0.040070
#
#
# Mechanical properties :
#
#
# Convention : Reuss Voigt Hill
#
# Bulk Modulus (GPa) = 32.11325 79.22369 55.66847
# Shear Modulus (GPa) = -10.74226 32.10846 10.68310
#
# Velocity S-wave (km/s) = -2.16498 3.74296 2.15901
# Velocity P-wave (km/s) = 2.78610 7.29706 5.52311
#
# Compressibility (1/GPa) = 0.03113979
#
# Stress axis : x y z
#
# Youngs Moduli (GPa) = 29.50787 170.84748 161.41870
#
# Poissons Ratio (x) = 0.53192 0.33188
# Poissons Ratio (y) = 0.09187 0.35987
# Poissons Ratio (z) = 0.06067 0.38089
#
# Static dielectric constant tensor:
#      x y z
#    x 3.995280 0.000000 0.000000 
#    y 0.000000 4.935170 0.000000 
#    z 0.000000 0.000000 4.270570 
# 
# 
# High freq. dielectric constant tensor:
#      x y z
#    x 1.876960 0.000000 0.000000 
#    y 0.000000 1.931640 0.000000 
#    z 0.000000 0.000000 1.891330 
# 
# From -- ./inp_files/35690.got.cif
#   From: 2010.03.12/outbox.cif.g09.slc.cpg/sg21_18_cif.got.tgz:35690.got - 2010.04.14 01:59:26.
