data_PCOD8160092
_publ_section_title
;
Structure prediction by ZEFSAII (Michael W. Deem and Ramdas Pophale) SiO2 
 PCOD8160092
Probable space group: C 2 2 21
;
_chemical_formula_sum "Si O2"
_cell_formula_units_Z 64
_cell_length_a 8.490053
_cell_length_b 18.672427
_cell_length_c 19.856947
_cell_angle_alpha 90.000000
_cell_angle_beta 90.000000
_cell_angle_gamma 90.000000
_cell_volume 3147.919720
_symmetry_space_group_name_H-M "C 2 2 21"
_symmetry_group_IT_number 20
_symmetry_cell_setting 'orthorhombic'
loop_
_space_group_symop_operation_xyz
x,y,z
-x,-y,1/2+z
x,-y,-z
-x,y,1/2-z
1/2+x,1/2+y,z
1/2-x,1/2-y,1/2+z
1/2+x,1/2-y,-z
1/2-x,1/2+y,1/2-z
loop_
_atom_site_type_symbol
_atom_site_label
_atom_site_fract_x
_atom_site_fract_y
_atom_site_fract_z
Si Si1 0.488778 0.292010 0.120783
Si Si2 0.631233 0.872155 0.610992
Si Si3 0.699835 0.312382 0.998775
Si Si4 0.186052 0.622112 0.836100
Si Si5 0.895938 0.464200 0.683994
Si Si6 0.720170 0.782848 0.285449
Si Si7 0.018105 0.277450 0.409222
Si Si8 0.817953 0.864823 0.738506
O O1 0.442561 0.208601 0.113082
O O2 0.348811 0.344815 0.138699
O O3 0.617738 0.303302 0.178828
O O4 0.561950 0.325726 0.051917
O O5 0.719811 0.881166 0.538350
O O6 0.493857 0.930727 0.621264
O O7 0.762278 0.892651 0.666248
O O8 0.631710 0.267168 0.935295
O O9 0.844931 0.273062 0.035532
O O10 0.190378 0.536704 0.837937
O O11 0.157785 0.650478 0.759290
O O12 0.047360 0.644038 0.888660
O O13 0.763486 0.406359 0.700426
O O14 0.000000 0.478692 0.750000
O O15 0.590363 0.750878 0.338053
O O16 0.746250 0.716626 0.235600
O O17 0.000000 0.875147 0.750000
#
# Coordination Sequence:
#
# PCOD8160092 Si02
#       8
#     8   8   8   8   8   8   8   8
#     4  11  22  36  65  96 125 165 220 274 319 374
#     4  11  20  41  62  87 129 172 212 272 318 392
#     4  11  21  38  61  94 123 163 221 279 310 375
#     4  12  22  40  61  97 129 165 212 278 332 402
#     4  10  24  40  63  90 137 173 209 260 352 396
#     4  11  21  34  61  94 126 159 212 267 322 386
#     4  11  21  34  60  90 124 158 215 268 324 368
#     4  11  21  35  61  96 127 166 215 260 324 399
#
# _framework density 20.330886
#
# number of rings (size 3 to 8) (size 9 to 14) (size 15 to 20)
#    0.000    1.000    5.000    3.000    0.000    1.000 
#    0.000    1.875    0.000    1.500    0.000    0.000 
#    0.000    0.000    0.000    0.000    0.000    0.000 
#
# Total GULP energy -396461.409909 kJ/mol
# GULP energy per Si atom -12389.419060 kJ/mol
# Density = 2.028461 g / cm^3
# Si number density = 20.330886 Si / 1000 Ang^3
#
#
#
# Elastic Constant Matrix: (Units=GPa)
#
#
# Indices 1 2 3 4 5 6 
#
# 1 111.5426 39.8849 46.6571 0.0000 0.0000 0.0000
# 2 39.8849 90.0349 12.1699 0.0000 0.0000 0.0000
# 3 46.6571 12.1699 87.7478 0.0000 0.0000 0.0000
# 4 0.0000 0.0000 0.0000 15.7606 0.0000 0.0000
# 5 0.0000 0.0000 0.0000 0.0000 44.4684 0.0000
# 6 0.0000 0.0000 0.0000 0.0000 0.0000 28.8514
#
#
#
# Elastic Compliance Matrix: (Units=1/GPa)
#
#
# Indices 1 2 3 4 5 6 
#
# 1 0.013496 -0.005104 -0.006468 0.000000 0.000000 0.000000
# 2 -0.005104 0.013250 0.000876 0.000000 0.000000 0.000000
# 3 -0.006468 0.000876 0.014714 0.000000 0.000000 0.000000
# 4 0.000000 0.000000 0.000000 0.063449 0.000000 0.000000
# 5 0.000000 0.000000 0.000000 0.000000 0.022488 0.000000
# 6 0.000000 0.000000 0.000000 0.000000 0.000000 0.034660
#
#
# Mechanical properties :
#
#
# Convention : Reuss Voigt Hill
#
# Bulk Modulus (GPa) = 49.83193 54.08325 51.95759
# Shear Modulus (GPa) = 26.29669 30.52363 28.41016
#
# Velocity S-wave (km/s) = 3.60034 3.87892 3.74222
# Velocity P-wave (km/s) = 6.46892 6.83525 6.65461
#
# Compressibility (1/GPa) = 0.02006746
#
# Stress axis : x y z
#
# Youngs Moduli (GPa) = 74.09663 75.47447 67.96274
#
# Poissons Ratio (x) = 0.38525 0.43959
# Poissons Ratio (y) = 0.37821 -0.05957
# Poissons Ratio (z) = 0.47926 -0.06615
#
# Static dielectric constant tensor:
#      x y z
#    x 3.925590 0.000000 0.000000 
#    y 0.000000 3.315530 0.000000 
#    z 0.000000 0.000000 3.935830 
# 
# 
# High freq. dielectric constant tensor:
#      x y z
#    x 1.818550 0.000000 0.000000 
#    y 0.000000 1.743460 0.000000 
#    z 0.000000 0.000000 1.802910 
# 
# From -- ./inp_files/26883.got.cif
#   From: 2010.03.12/outbox.cif.g09.slc.cpg/sg20_14_cif.got.tgz:26883.got - 2010.04.14 01:38:04.
