data_PCOD8160383
_publ_section_title
;
Structure prediction by ZEFSAII (Michael W. Deem and Ramdas Pophale) SiO2 
 PCOD8160383
Probable space group: C 2 2 21
;
_chemical_formula_sum "Si O2"
_cell_formula_units_Z 48
_cell_length_a 5.525084
_cell_length_b 26.768661
_cell_length_c 14.551605
_cell_angle_alpha 90.000000
_cell_angle_beta 90.000000
_cell_angle_gamma 90.000000
_cell_volume 2152.169292
_symmetry_space_group_name_H-M "C 2 2 21"
_symmetry_group_IT_number 20
_symmetry_cell_setting 'orthorhombic'
loop_
_space_group_symop_operation_xyz
x,y,z
-x,-y,1/2+z
x,-y,-z
-x,y,1/2-z
1/2+x,1/2+y,z
1/2-x,1/2-y,1/2+z
1/2+x,1/2-y,-z
1/2-x,1/2+y,1/2-z
loop_
_atom_site_type_symbol
_atom_site_label
_atom_site_fract_x
_atom_site_fract_y
_atom_site_fract_z
Si Si1 0.000000 0.147554 0.750000
Si Si2 0.854679 0.896096 0.075640
Si Si3 0.631311 0.868417 0.653855
Si Si4 0.791330 0.276825 0.128408
Si Si5 0.151661 0.558843 0.503270
Si Si6 0.157228 0.693223 0.006244
Si Si7 0.500000 0.304926 0.750000
O O1 0.167378 0.112632 0.685858
O O2 0.133683 0.181263 0.824801
O O3 0.601526 0.922320 0.047405
O O4 0.882176 0.843701 0.017583
O O5 0.103502 0.926316 0.057829
O O6 0.500000 0.880003 0.750000
O O7 0.676791 0.920302 0.600758
O O8 0.487117 0.831200 0.589237
O O9 0.881547 0.840278 0.674004
O O10 0.699680 0.251052 0.033562
O O11 0.812500 0.231283 0.199559
O O12 0.031345 0.305263 0.094788
O O13 0.137854 0.500000 0.500000
#
# Coordination Sequence:
#
# PCOD8160383 Si02
#       7
#     4   8   8   8   8   8   4
#     4  12  24  42  65 104 144 188 235 288 346 406
#     4  11  25  47  73 101 144 180 225 290 360 421
#     4  11  23  42  66  97 136 175 231 294 356 406
#     4  12  22  36  63  96 140 191 245 277 326 413
#     4  11  26  50  77 102 133 177 231 290 370 442
#     4  11  22  40  61  99 137 195 231 285 340 406
#     4  12  22  38  63  98 140 184 243 292 334 402
#
# _framework density 22.303079
#
# number of rings (size 3 to 8) (size 9 to 14) (size 15 to 20)
#    0.000    0.667    1.667    7.500    2.333    2.000 
#    3.000    0.000    0.000    0.000    0.000    0.000 
#    0.000    0.000    0.000    0.000    0.000    0.000 
#
# Total GULP energy -297340.455653 kJ/mol
# GULP energy per Si atom -12389.185652 kJ/mol
# Density = 2.225232 g / cm^3
# Si number density = 22.303079 Si / 1000 Ang^3
#
#
#
# Elastic Constant Matrix: (Units=GPa)
#
#
# Indices 1 2 3 4 5 6 
#
# 1 114.4740 44.9295 49.9878 0.0000 0.0000 0.0000
# 2 44.9295 129.7131 64.9449 0.0000 0.0000 0.0000
# 3 49.9878 64.9449 117.2211 0.0000 0.0000 0.0000
# 4 0.0000 0.0000 0.0000 -61.9535 0.0000 0.0000
# 5 0.0000 0.0000 0.0000 0.0000 40.5167 0.0000
# 6 0.0000 0.0000 0.0000 0.0000 0.0000 33.6715
#
#
#
# Elastic Compliance Matrix: (Units=1/GPa)
#
#
# Indices 1 2 3 4 5 6 
#
# 1 0.011113 -0.002043 -0.003607 0.000000 0.000000 0.000000
# 2 -0.002043 0.011045 -0.005248 0.000000 0.000000 0.000000
# 3 -0.003607 -0.005248 0.012976 0.000000 0.000000 0.000000
# 4 0.000000 0.000000 0.000000 -0.016141 0.000000 0.000000
# 5 0.000000 0.000000 0.000000 0.000000 0.024681 0.000000
# 6 0.000000 0.000000 0.000000 0.000000 0.000000 0.029699
#
#
# Mechanical properties :
#
#
# Convention : Reuss Voigt Hill
#
# Bulk Modulus (GPa) = 74.97449 75.68141 75.32795
# Shear Modulus (GPa) = 50.19385 15.88333 33.03859
#
# Velocity S-wave (km/s) = 4.74913 2.67153 3.85300
# Velocity P-wave (km/s) = 7.98508 6.59719 7.32408
#
# Compressibility (1/GPa) = 0.01333787
#
# Stress axis : x y z
#
# Youngs Moduli (GPa) = 89.98829 90.54272 77.06293
#
# Poissons Ratio (x) = 0.18500 0.27795
# Poissons Ratio (y) = 0.18387 0.40441
# Poissons Ratio (z) = 0.32457 0.47514
#
# Static dielectric constant tensor:
#      x y z
#    x 5.464330 0.000000 0.000000 
#    y 0.000000 4.016680 0.000000 
#    z 0.000000 0.000000 4.382630 
# 
# 
# High freq. dielectric constant tensor:
#      x y z
#    x 1.879380 0.000000 0.000000 
#    y 0.000000 1.864190 0.000000 
#    z 0.000000 0.000000 1.897800 
# 
# From -- ./inp_files/17838.got.cif
#   From: 2010.03.12/outbox.cif.g09.slc.cpg/sg20_9_cif.got.tgz:17838.got - 2010.04.14 01:38:04.
