data_PCOD8160081
_publ_section_title
;
Structure prediction by ZEFSAII (Michael W. Deem and Ramdas Pophale) SiO2 
 PCOD8160081
Probable space group: C 2 2 21
;
_chemical_formula_sum "Si O2"
_cell_formula_units_Z 40
_cell_length_a 17.557304
_cell_length_b 8.572238
_cell_length_c 11.964826
_cell_angle_alpha 90.000000
_cell_angle_beta 90.000000
_cell_angle_gamma 90.000000
_cell_volume 1800.770786
_symmetry_space_group_name_H-M "C 2 2 21"
_symmetry_group_IT_number 20
_symmetry_cell_setting 'orthorhombic'
loop_
_space_group_symop_operation_xyz
x,y,z
-x,-y,1/2+z
x,-y,-z
-x,y,1/2-z
1/2+x,1/2+y,z
1/2-x,1/2-y,1/2+z
1/2+x,1/2-y,-z
1/2-x,1/2+y,1/2-z
loop_
_atom_site_type_symbol
_atom_site_label
_atom_site_fract_x
_atom_site_fract_y
_atom_site_fract_z
Si Si1 0.897422 0.000000 0.000000
Si Si2 0.290452 0.648954 0.828264
Si Si3 0.051103 0.500000 0.000000
Si Si4 0.680846 0.657325 0.057293
Si Si5 0.177321 0.627593 0.143309
Si Si6 0.511251 0.288234 0.878127
O O1 0.847607 0.875552 0.068704
O O2 0.948259 0.084456 0.092757
O O3 0.235894 0.800160 0.841291
O O4 0.241194 0.491421 0.808540
O O5 0.335876 0.715444 0.719245
O O6 0.098953 0.535816 0.114897
O O7 0.997992 0.356903 0.037686
O O8 0.594702 0.640601 0.099897
O O9 0.708611 0.500000 0.000000
O O10 0.698137 0.806620 0.978754
O O11 0.500000 0.239056 0.750000
#
# Coordination Sequence:
#
# PCOD8160081 Si02
#       6
#     4   8   4   8   8   8
#     4  12  27  46  64 113 138 168 244 296 319 420
#     4  12  24  43  72 105 143 175 237 290 341 403
#     4  10  23  50  64  97 140 182 234 278 339 430
#     4  11  22  45  68 100 137 190 229 274 352 421
#     4  11  22  42  72  97 138 181 228 283 343 402
#     4  11  26  44  72  96 143 183 226 282 353 406
#
# _framework density 22.212710999999999
#
# number of rings (size 3 to 8) (size 9 to 14) (size 15 to 20)
#    0.000    0.800    7.000    1.200    5.600    1.600 
#    5.400    0.000    0.000    0.000    0.000    0.000 
#    0.000    0.000    0.000    0.000    0.000    0.000 
#
# Total GULP energy -247837.402239 kJ/mol
# GULP energy per Si atom -12391.870112 kJ/mol
# Density = 2.216215 g / cm^3
# Si number density = 22.212711 Si / 1000 Ang^3
#
#
#
# Elastic Constant Matrix: (Units=GPa)
#
#
# Indices 1 2 3 4 5 6 
#
# 1 87.8465 36.0359 34.0928 0.0000 0.0000 0.0000
# 2 36.0359 92.8904 29.4400 0.0000 0.0000 0.0000
# 3 34.0928 29.4400 98.2120 0.0000 0.0000 0.0000
# 4 0.0000 0.0000 0.0000 57.1536 0.0000 0.0000
# 5 0.0000 0.0000 0.0000 0.0000 18.9541 0.0000
# 6 0.0000 0.0000 0.0000 0.0000 0.0000 22.1159
#
#
#
# Elastic Compliance Matrix: (Units=1/GPa)
#
#
# Indices 1 2 3 4 5 6 
#
# 1 0.014688 -0.004511 -0.003747 0.000000 0.000000 0.000000
# 2 -0.004511 0.013281 -0.002415 0.000000 0.000000 0.000000
# 3 -0.003747 -0.002415 0.012207 0.000000 0.000000 0.000000
# 4 0.000000 0.000000 0.000000 0.017497 0.000000 0.000000
# 5 0.000000 0.000000 0.000000 0.000000 0.052759 0.000000
# 6 0.000000 0.000000 0.000000 0.000000 0.000000 0.045216
#
#
# Mechanical properties :
#
#
# Convention : Reuss Voigt Hill
#
# Bulk Modulus (GPa) = 53.10575 53.12069 53.11322
# Shear Modulus (GPa) = 27.28233 31.60339 29.44286
#
# Velocity S-wave (km/s) = 3.50841 3.77604 3.64469
# Velocity P-wave (km/s) = 6.35387 6.55575 6.45560
#
# Compressibility (1/GPa) = 0.01883035
#
# Stress axis : x y z
#
# Youngs Moduli (GPa) = 68.08359 75.29741 81.92280
#
# Poissons Ratio (x) = 0.33964 0.30693
# Poissons Ratio (y) = 0.30710 0.19786
# Poissons Ratio (z) = 0.25508 0.18186
#
# Static dielectric constant tensor:
#      x y z
#    x 3.784360 0.000000 0.000000 
#    y 0.000000 4.058810 0.000000 
#    z 0.000000 0.000000 3.963670 
# 
# 
# High freq. dielectric constant tensor:
#      x y z
#    x 1.851110 0.000000 0.000000 
#    y 0.000000 1.889960 0.000000 
#    z 0.000000 0.000000 1.877050 
# 
# From -- ./inp_files/15600.got.cif
#   From: 2010.03.12/outbox.cif.g09.slc.cpg/sg20_8_cif.got.tgz:15600.got - 2010.04.14 01:38:04.
