data_PCOD8160995
_publ_section_title
;
Structure prediction by ZEFSAII (Michael W. Deem and Ramdas Pophale) SiO2 
 PCOD8160995
Probable space group: C 2 2 2
;
_chemical_formula_sum "Si O2"
_cell_formula_units_Z 48
_cell_length_a 5.789133
_cell_length_b 28.013012
_cell_length_c 13.312656
_cell_angle_alpha 90.000000
_cell_angle_beta 90.000000
_cell_angle_gamma 90.000000
_cell_volume 2158.927431
_symmetry_space_group_name_H-M "C 2 2 2"
_symmetry_group_IT_number 21
_symmetry_cell_setting 'orthorhombic'
loop_
_space_group_symop_operation_xyz
x,y,z
-x,-y,z
x,-y,-z
-x,y,-z
1/2+x,1/2+y,z
1/2-x,1/2-y,z
1/2+x,1/2-y,-z
1/2-x,1/2+y,-z
loop_
_atom_site_type_symbol
_atom_site_label
_atom_site_fract_x
_atom_site_fract_y
_atom_site_fract_z
Si Si1 0.329384 0.365926 0.254450
Si Si2 0.055137 0.331736 0.604482
Si Si3 0.855315 0.921686 0.597464
Si Si4 0.780446 0.196680 0.201085
Si Si5 0.750140 0.524038 0.776192
Si Si6 0.452203 0.107940 0.884785
O O1 0.488151 0.402609 0.312410
O O2 0.461340 0.324265 0.192142
O O3 0.180428 0.339036 0.337241
O O4 0.186734 0.399411 0.178380
O O5 0.168015 0.381945 0.568753
O O6 0.223682 0.303245 0.679041
O O7 0.000000 0.303666 0.500000
O O8 0.738475 0.966843 0.654573
O O9 0.000000 0.937752 0.500000
O O10 0.750000 0.250000 0.158493
O O11 0.615591 0.163122 0.134660
O O12 0.500000 0.500000 0.804366
O O13 0.753787 0.573391 0.840976
O O14 0.000000 0.500000 0.805463
O O15 0.500000 0.097082 0.000000
#
# Coordination Sequence:
#
# PCOD8160995 Si02
#       6
#     8   8   8   8   8   8
#     4  10  19  41  68  93 142 182 224 292 347 424
#     4  10  19  34  64  98 136 187 232 277 347 425
#     4  11  21  39  68  99 135 189 231 283 359 424
#     4  10  23  43  66 103 140 183 233 296 364 429
#     4  12  27  48  73 105 147 188 245 307 364 436
#     4  11  25  47  72 101 134 190 237 297 374 431
#
# _framework density 22.233263000000001
#
# number of rings (size 3 to 8) (size 9 to 14) (size 15 to 20)
#    0.000    1.333    6.667    1.000    0.000    4.000 
#    6.000    5.000    0.000    0.000    0.000    0.000 
#    0.000    0.000    0.000    0.000    0.000    0.000 
#
# Total GULP energy -297357.640358 kJ/mol
# GULP energy per Si atom -12389.901682 kJ/mol
# Density = 2.218266 g / cm^3
# Si number density = 22.233263 Si / 1000 Ang^3
#
#
#
# Elastic Constant Matrix: (Units=GPa)
#
#
# Indices 1 2 3 4 5 6 
#
# 1 118.5322 29.6678 31.9943 0.0000 0.0000 0.0000
# 2 29.6678 85.1186 26.9314 0.0000 0.0000 0.0000
# 3 31.9943 26.9314 122.5045 0.0000 0.0000 0.0000
# 4 0.0000 0.0000 0.0000 12.5071 0.0000 0.0000
# 5 0.0000 0.0000 0.0000 0.0000 25.8231 0.0000
# 6 0.0000 0.0000 0.0000 0.0000 0.0000 25.8908
#
#
#
# Elastic Compliance Matrix: (Units=1/GPa)
#
#
# Indices 1 2 3 4 5 6 
#
# 1 0.009642 -0.002756 -0.001912 0.000000 0.000000 0.000000
# 2 -0.002756 0.013414 -0.002229 0.000000 0.000000 0.000000
# 3 -0.001912 -0.002229 0.009153 0.000000 0.000000 0.000000
# 4 0.000000 0.000000 0.000000 0.079955 0.000000 0.000000
# 5 0.000000 0.000000 0.000000 0.000000 0.038725 0.000000
# 6 0.000000 0.000000 0.000000 0.000000 0.000000 0.038624
#
#
# Mechanical properties :
#
#
# Convention : Reuss Voigt Hill
#
# Bulk Modulus (GPa) = 54.30597 55.92694 55.11646
# Shear Modulus (GPa) = 23.87254 28.68164 26.27709
#
# Velocity S-wave (km/s) = 3.28034 3.59560 3.44158
# Velocity P-wave (km/s) = 6.23106 6.51514 6.37468
#
# Compressibility (1/GPa) = 0.01841418
#
# Stress axis : x y z
#
# Youngs Moduli (GPa) = 103.70768 74.54811 109.25943
#
# Poissons Ratio (x) = 0.20544 0.20896
# Poissons Ratio (y) = 0.28579 0.24357
# Poissons Ratio (z) = 0.19834 0.16619
#
# Static dielectric constant tensor:
#      x y z
#    x 4.506040 0.000000 0.000000 
#    y 0.000000 3.822780 0.000000 
#    z 0.000000 0.000000 3.781810 
# 
# 
# High freq. dielectric constant tensor:
#      x y z
#    x 1.889490 0.000000 0.000000 
#    y 0.000000 1.851430 0.000000 
#    z 0.000000 0.000000 1.857930 
# 
# From -- ./inp_files/29367.got.cif
#   From: 2010.03.12/outbox.cif.g09.slc.cpg/sg21_15_cif.got.tgz:29367.got - 2010.04.14 01:59:26.
