data_PCOD8160483
_publ_section_title
;
Structure prediction by ZEFSAII (Michael W. Deem and Ramdas Pophale) SiO2 
 PCOD8160483
Probable space group: C 2 2 21
;
_chemical_formula_sum "Si O2"
_cell_formula_units_Z 40
_cell_length_a 17.697586
_cell_length_b 4.926034
_cell_length_c 17.963418
_cell_angle_alpha 90.000000
_cell_angle_beta 90.000000
_cell_angle_gamma 90.000000
_cell_volume 1566.031207
_symmetry_space_group_name_H-M "C 2 2 21"
_symmetry_group_IT_number 20
_symmetry_cell_setting 'orthorhombic'
loop_
_space_group_symop_operation_xyz
x,y,z
-x,-y,1/2+z
x,-y,-z
-x,y,1/2-z
1/2+x,1/2+y,z
1/2-x,1/2-y,1/2+z
1/2+x,1/2-y,-z
1/2-x,1/2+y,1/2-z
loop_
_atom_site_type_symbol
_atom_site_label
_atom_site_fract_x
_atom_site_fract_y
_atom_site_fract_z
Si Si1 0.256882 0.828387 0.351699
Si Si2 0.916599 0.107075 0.814966
Si Si3 0.806243 0.170464 0.568881
Si Si4 0.406338 0.902929 0.281143
Si Si5 0.968927 0.371322 0.578650
O O1 0.171121 0.874450 0.332860
O O2 0.276978 0.511051 0.362292
O O3 0.314872 0.914815 0.285929
O O4 0.274879 0.021922 0.423744
O O5 0.935689 0.310666 0.748551
O O6 0.963758 0.181113 0.889245
O O7 0.935747 0.814481 0.779475
O O8 0.896933 0.177690 0.565678
O O9 0.773098 0.000000 0.500000
O O10 0.444323 0.885524 0.363745
O O11 0.995746 0.500000 0.500000
#
# Coordination Sequence:
#
# PCOD8160483 Si02
#       5
#     8   8   8   8   8
#     4  11  23  43  73 105 139 186 244 302 360 433
#     4  12  26  46  73 109 147 186 242 311 368 425
#     4  11  23  44  70  99 141 194 240 287 363 449
#     4  11  24  45  72 105 144 194 239 293 369 448
#     4  11  27  48  75 108 149 196 249 305 369 443
#
# _framework density 25.542278
#
# number of rings (size 3 to 8) (size 9 to 14) (size 15 to 20)
#    0.000    0.800    0.000    8.400    0.000   10.400 
#    0.000    4.000    0.000    2.400    0.000    0.000 
#    0.000    0.000    0.000    0.000    0.000    0.000 
#
# Total GULP energy -247882.340223 kJ/mol
# GULP energy per Si atom -12394.117011 kJ/mol
# Density = 2.548414 g / cm^3
# Si number density = 25.542278 Si / 1000 Ang^3
#
#
#
# Elastic Constant Matrix: (Units=GPa)
#
#
# Indices 1 2 3 4 5 6 
#
# 1 151.4466 11.1938 50.7897 0.0000 0.0000 0.0000
# 2 11.1938 111.4647 29.7558 0.0000 0.0000 0.0000
# 3 50.7897 29.7558 129.7758 0.0000 0.0000 0.0000
# 4 0.0000 0.0000 0.0000 29.4771 0.0000 0.0000
# 5 0.0000 0.0000 0.0000 0.0000 29.6861 0.0000
# 6 0.0000 0.0000 0.0000 0.0000 0.0000 147.2403
#
#
#
# Elastic Compliance Matrix: (Units=1/GPa)
#
#
# Indices 1 2 3 4 5 6 
#
# 1 0.007601 0.000033 -0.002982 0.000000 0.000000 0.000000
# 2 0.000033 0.009557 -0.002204 0.000000 0.000000 0.000000
# 3 -0.002982 -0.002204 0.009378 0.000000 0.000000 0.000000
# 4 0.000000 0.000000 0.000000 0.033925 0.000000 0.000000
# 5 0.000000 0.000000 0.000000 0.000000 0.033686 0.000000
# 6 0.000000 0.000000 0.000000 0.000000 0.000000 0.006792
#
#
# Mechanical properties :
#
#
# Convention : Reuss Voigt Hill
#
# Bulk Modulus (GPa) = 61.61994 64.01839 62.81916
# Shear Modulus (GPa) = 42.86197 61.34389 52.10293
#
# Velocity S-wave (km/s) = 4.10088 4.90599 4.52139
# Velocity P-wave (km/s) = 6.82642 7.56371 7.20451
#
# Compressibility (1/GPa) = 0.01622851
#
# Stress axis : x y z
#
# Youngs Moduli (GPa) = 131.56735 104.64061 106.63189
#
# Poissons Ratio (x) = -0.00343 0.31799
# Poissons Ratio (y) = -0.00432 0.23502
# Poissons Ratio (z) = 0.39235 0.23063
#
# Static dielectric constant tensor:
#      x y z
#    x 5.179040 0.000000 0.000000 
#    y 0.000000 4.812630 0.000000 
#    z 0.000000 0.000000 4.626130 
# 
# 
# High freq. dielectric constant tensor:
#      x y z
#    x 2.028360 0.000000 0.000000 
#    y 0.000000 2.027270 0.000000 
#    z 0.000000 0.000000 2.012650 
# 
# From -- ./inp_files/25092.got.cif
#   From: 2010.03.12/outbox.cif.g09.slc.cpg/sg20_13_cif.got.tgz:25092.got - 2010.04.14 01:38:04.
