data_PCOD8160203
_publ_section_title
;
Structure prediction by ZEFSAII (Michael W. Deem and Ramdas Pophale) SiO2 
 PCOD8160203
Probable space group: C 2 2 21
;
_chemical_formula_sum "Si O2"
_cell_formula_units_Z 40
_cell_length_a 16.035015
_cell_length_b 7.588992
_cell_length_c 13.667244
_cell_angle_alpha 90.000000
_cell_angle_beta 90.000000
_cell_angle_gamma 90.000000
_cell_volume 1663.161463
_symmetry_space_group_name_H-M "C 2 2 21"
_symmetry_group_IT_number 20
_symmetry_cell_setting 'orthorhombic'
loop_
_space_group_symop_operation_xyz
x,y,z
-x,-y,1/2+z
x,-y,-z
-x,y,1/2-z
1/2+x,1/2+y,z
1/2-x,1/2-y,1/2+z
1/2+x,1/2-y,-z
1/2-x,1/2+y,1/2-z
loop_
_atom_site_type_symbol
_atom_site_label
_atom_site_fract_x
_atom_site_fract_y
_atom_site_fract_z
Si Si1 0.274160 0.322173 0.443798
Si Si2 0.500000 0.948510 0.750000
Si Si3 0.818964 0.496875 0.228584
Si Si4 0.452982 0.815508 0.554409
Si Si5 0.444857 0.500000 0.000000
Si Si6 0.806125 0.864263 0.121632
O O1 0.296676 0.500000 0.500000
O O2 0.216044 0.361570 0.351140
O O3 0.360967 0.237549 0.410318
O O4 0.225675 0.189319 0.514134
O O5 0.507318 0.829161 0.653030
O O6 0.586116 0.062401 0.756044
O O7 0.820551 0.695874 0.189843
O O8 0.761513 0.490731 0.326019
O O9 0.496398 0.671273 0.484256
O O10 0.452604 0.000000 0.500000
O O11 0.390548 0.526906 0.900608
#
# Coordination Sequence:
#
# PCOD8160203 Si02
#       6
#     8   4   8   8   4   8
#     4  10  24  47  74 107 154 205 253 316 392 469
#     4  12  26  44  72 116 152 192 266 328 372 466
#     4  11  25  47  74 110 155 206 258 326 384 471
#     4  12  27  50  78 113 158 201 262 323 387 465
#     4  12  28  48  76 116 152 216 252 330 380 474
#     4  11  26  46  74 108 154 205 262 316 397 467
#
# _framework density 24.050581000000001
#
# number of rings (size 3 to 8) (size 9 to 14) (size 15 to 20)
#    0.000    0.800    3.000    2.400    9.800    0.000 
#    0.000    1.000    0.000    0.000    0.000    0.000 
#    0.000    0.000    0.000    0.000    0.000    0.000 
#
# Total GULP energy -248041.604285 kJ/mol
# GULP energy per Si atom -12402.080214 kJ/mol
# Density = 2.399584 g / cm^3
# Si number density = 24.050581 Si / 1000 Ang^3
#
#
#
# Elastic Constant Matrix: (Units=GPa)
#
#
# Indices 1 2 3 4 5 6 
#
# 1 183.4509 76.0873 52.3169 0.0000 0.0000 0.0000
# 2 76.0873 125.2187 38.1001 0.0000 0.0000 0.0000
# 3 52.3169 38.1001 111.6441 0.0000 0.0000 0.0000
# 4 0.0000 0.0000 0.0000 32.5686 0.0000 0.0000
# 5 0.0000 0.0000 0.0000 0.0000 45.6335 0.0000
# 6 0.0000 0.0000 0.0000 0.0000 0.0000 29.4762
#
#
#
# Elastic Compliance Matrix: (Units=1/GPa)
#
#
# Indices 1 2 3 4 5 6 
#
# 1 0.007769 -0.004032 -0.002265 0.000000 0.000000 0.000000
# 2 -0.004032 0.011004 -0.001866 0.000000 0.000000 0.000000
# 3 -0.002265 -0.001866 0.010655 0.000000 0.000000 0.000000
# 4 0.000000 0.000000 0.000000 0.030704 0.000000 0.000000
# 5 0.000000 0.000000 0.000000 0.000000 0.021914 0.000000
# 6 0.000000 0.000000 0.000000 0.000000 0.000000 0.033926
#
#
# Mechanical properties :
#
#
# Convention : Reuss Voigt Hill
#
# Bulk Modulus (GPa) = 76.31779 83.70247 80.01013
# Shear Modulus (GPa) = 36.58617 38.45631 37.52124
#
# Velocity S-wave (km/s) = 3.90451 4.00306 3.95409
# Velocity P-wave (km/s) = 7.21997 7.49961 7.36112
#
# Compressibility (1/GPa) = 0.01310310
#
# Stress axis : x y z
#
# Youngs Moduli (GPa) = 128.71552 90.87992 93.85220
#
# Poissons Ratio (x) = 0.36640 0.21255
# Poissons Ratio (y) = 0.51894 0.17511
# Poissons Ratio (z) = 0.29151 0.16957
#
# Static dielectric constant tensor:
#      x y z
#    x 4.519930 0.000000 0.000000 
#    y 0.000000 4.266070 0.000000 
#    z 0.000000 0.000000 4.360990 
# 
# 
# High freq. dielectric constant tensor:
#      x y z
#    x 1.970780 0.000000 0.000000 
#    y 0.000000 1.952370 0.000000 
#    z 0.000000 0.000000 1.957910 
# 
# From -- ./inp_files/20523.got.cif
#   From: 2010.03.12/outbox.cif.g09.slc.cpg/sg20_11_cif.got.tgz:20523.got - 2010.04.14 01:38:04.
