data_PCOD8160998
_publ_section_title
;
Structure prediction by ZEFSAII (Michael W. Deem and Ramdas Pophale) SiO2 
 PCOD8160998
Probable space group: C 2 2 2
;
_chemical_formula_sum "Si O2"
_cell_formula_units_Z 46
_cell_length_a 14.389003
_cell_length_b 22.409378
_cell_length_c 8.411386
_cell_angle_alpha 90.000000
_cell_angle_beta 90.000000
_cell_angle_gamma 90.000000
_cell_volume 2712.239701
_symmetry_space_group_name_H-M "C 2 2 2"
_symmetry_group_IT_number 21
_symmetry_cell_setting 'orthorhombic'
loop_
_space_group_symop_operation_xyz
x,y,z
-x,-y,z
x,-y,-z
-x,y,-z
1/2+x,1/2+y,z
1/2-x,1/2-y,z
1/2+x,1/2-y,-z
1/2-x,1/2+y,-z
loop_
_atom_site_type_symbol
_atom_site_label
_atom_site_fract_x
_atom_site_fract_y
_atom_site_fract_z
Si Si1 0.360749 0.068053 0.953965
Si Si2 0.500000 0.000000 0.500000
Si Si3 0.419061 0.779427 0.602246
Si Si4 0.740052 0.670308 0.895993
Si Si5 0.463641 0.906041 0.740035
Si Si6 0.605141 0.254616 0.948281
Si Si7 0.750000 0.750000 0.610598
O O1 0.265960 0.100194 0.895126
O O2 0.436413 0.075873 0.814580
O O3 0.391072 0.099829 0.117309
O O4 0.341889 0.000000 0.000000
O O5 0.563409 0.042591 0.612300
O O6 0.500000 0.746865 0.500000
O O7 0.461924 0.843635 0.648986
O O8 0.391361 0.743646 0.758802
O O9 0.328287 0.781039 0.494851
O O10 0.715839 0.695016 0.720526
O O11 0.647113 0.681075 0.000461
O O12 0.829850 0.704911 0.968891
O O13 0.500000 0.243294 0.000000
#
# Coordination Sequence:
#
# PCOD8160998 Si02
#       7
#     8   2   8   8   8   8   4
#     4  11  20  36  53  77 107 150 191 219 262 333
#     4  12  20  34  44  84 112 150 182 212 274 338
#     4  12  21  31  51  77 108 142 178 228 280 323
#     4  10  21  35  53  76 105 144 187 226 271 338
#     4  11  21  31  51  74 113 147 181 217 266 329
#     4  10  19  35  53  73 102 142 181 223 277 328
#     4  10  22  34  48  80 110 144 186 230 282 326
#
# _framework density 16.960152999999998
#
# number of rings (size 3 to 8) (size 9 to 14) (size 15 to 20)
#    0.000    1.391    4.348    5.739    0.000    0.000 
#    0.000    0.000    0.000    0.522    0.000    0.000 
#    0.000    0.000    0.000    0.000    0.000    0.000 
#
# Total GULP energy -284994.124749 kJ/mol
# GULP energy per Si atom -12391.048902 kJ/mol
# Density = 1.692155 g / cm^3
# Si number density = 16.960153 Si / 1000 Ang^3
#
#
#
# Elastic Constant Matrix: (Units=GPa)
#
#
# Indices 1 2 3 4 5 6 
#
# 1 66.0948 23.8183 32.3178 0.0000 0.0000 0.0000
# 2 23.8183 74.5802 32.2529 0.0000 0.0000 0.0000
# 3 32.3178 32.2529 119.8608 0.0000 0.0000 0.0000
# 4 0.0000 0.0000 0.0000 -6.1340 0.0000 0.0000
# 5 0.0000 0.0000 0.0000 0.0000 25.5387 0.0000
# 6 0.0000 0.0000 0.0000 0.0000 0.0000 29.0917
#
#
#
# Elastic Compliance Matrix: (Units=1/GPa)
#
#
# Indices 1 2 3 4 5 6 
#
# 1 0.018549 -0.004256 -0.003856 0.000000 0.000000 0.000000
# 2 -0.004256 0.016151 -0.003198 0.000000 0.000000 0.000000
# 3 -0.003856 -0.003198 0.010243 0.000000 0.000000 0.000000
# 4 0.000000 0.000000 0.000000 -0.163026 0.000000 0.000000
# 5 0.000000 0.000000 0.000000 0.000000 0.039156 0.000000
# 6 0.000000 0.000000 0.000000 0.000000 0.000000 0.034374
#
#
# Mechanical properties :
#
#
# Convention : Reuss Voigt Hill
#
# Bulk Modulus (GPa) = 44.79920 48.59043 46.69481
# Shear Modulus (GPa) = -345.05230 21.17574 -161.93828
#
# Velocity S-wave (km/s) = -14.27902 3.53733 -9.78207
# Velocity P-wave (km/s) = 15.66468 6.73762 9.99967
#
# Compressibility (1/GPa) = 0.02232183
#
# Stress axis : x y z
#
# Youngs Moduli (GPa) = 53.91108 61.91616 97.62446
#
# Poissons Ratio (x) = 0.26354 0.37644
# Poissons Ratio (y) = 0.22946 0.31224
# Poissons Ratio (z) = 0.20788 0.19803
#
# Static dielectric constant tensor:
#      x y z
#    x 3.204870 0.000000 0.000000 
#    y 0.000000 3.135460 0.000000 
#    z 0.000000 0.000000 3.580820 
# 
# 
# High freq. dielectric constant tensor:
#      x y z
#    x 1.620170 0.000000 0.000000 
#    y 0.000000 1.627840 0.000000 
#    z 0.000000 0.000000 1.682850 
# 
# From -- ./inp_files/15370.got.cif
#   From: 2010.03.12/outbox.cif.g09.slc.cpg/sg21_8_cif.got.tgz:15370.got - 2010.04.14 01:59:26.
