data_PCOD8160969
_publ_section_title
;
Structure prediction by ZEFSAII (Michael W. Deem and Ramdas Pophale) SiO2 
 PCOD8160969
Probable space group: C 2 2 2
;
_chemical_formula_sum "Si O2"
_cell_formula_units_Z 38
_cell_length_a 9.555898
_cell_length_b 20.621915
_cell_length_c 9.336764
_cell_angle_alpha 90.000000
_cell_angle_beta 90.000000
_cell_angle_gamma 90.000000
_cell_volume 1839.911269
_symmetry_space_group_name_H-M "C 2 2 2"
_symmetry_group_IT_number 21
_symmetry_cell_setting 'orthorhombic'
loop_
_space_group_symop_operation_xyz
x,y,z
-x,-y,z
x,-y,-z
-x,y,-z
1/2+x,1/2+y,z
1/2-x,1/2-y,z
1/2+x,1/2-y,-z
1/2-x,1/2+y,-z
loop_
_atom_site_type_symbol
_atom_site_label
_atom_site_fract_x
_atom_site_fract_y
_atom_site_fract_z
Si Si1 0.856046 0.696307 0.931653
Si Si2 0.373513 0.370600 0.088769
Si Si3 0.747775 0.000000 0.000000
Si Si4 0.162255 0.426007 0.744587
Si Si5 0.024804 0.924826 0.337681
Si Si6 0.500000 0.000000 0.500000
O O1 0.750000 0.750000 0.861914
O O2 0.897897 0.640435 0.815640
O O3 0.769266 0.669269 0.069142
O O4 0.000000 0.724217 0.000000
O O5 0.350674 0.440373 0.018799
O O6 0.414294 0.379210 0.254380
O O7 0.500000 0.337514 0.000000
O O8 0.651770 0.015055 0.139765
O O9 0.319917 0.406791 0.707517
O O10 0.089363 0.451217 0.599454
O O11 0.000000 0.906995 0.500000
O O12 0.000000 0.000000 0.304261
#
# Coordination Sequence:
#
# PCOD8160969 Si02
#       6
#     8   8   4   8   8   2
#     4  11  26  43  70  98 128 178 238 293 330 390
#     4  11  18  36  63  94 128 167 223 280 334 396
#     4  10  19  33  60  98 125 170 219 270 339 410
#     4  11  25  39  65  97 142 178 221 284 351 416
#     4  11  20  33  60  96 135 175 213 264 342 426
#     4  12  28  42  62 104 152 174 212 284 368 426
#
# _framework density 20.653171
#
# number of rings (size 3 to 8) (size 9 to 14) (size 15 to 20)
#    0.000    1.053    6.316    2.211    5.895    0.000 
#    0.000    0.000    2.316    1.263    0.000    0.000 
#    0.000    0.000    0.000    0.000    0.000    0.000 
#
# Total GULP energy -235430.913989 kJ/mol
# GULP energy per Si atom -12391.100736 kJ/mol
# Density = 2.060616 g / cm^3
# Si number density = 20.653171 Si / 1000 Ang^3
#
#
#
# Elastic Constant Matrix: (Units=GPa)
#
#
# Indices 1 2 3 4 5 6 
#
# 1 101.2441 29.8366 40.8366 0.0000 0.0000 0.0000
# 2 29.8366 79.3296 31.3337 0.0000 0.0000 0.0000
# 3 40.8366 31.3337 140.4170 0.0000 0.0000 0.0000
# 4 0.0000 0.0000 0.0000 14.3075 0.0000 0.0000
# 5 0.0000 0.0000 0.0000 0.0000 39.5749 0.0000
# 6 0.0000 0.0000 0.0000 0.0000 0.0000 21.8102
#
#
#
# Elastic Compliance Matrix: (Units=1/GPa)
#
#
# Indices 1 2 3 4 5 6 
#
# 1 0.011986 -0.003434 -0.002720 0.000000 0.000000 0.000000
# 2 -0.003434 0.014808 -0.002306 0.000000 0.000000 0.000000
# 3 -0.002720 -0.002306 0.008427 0.000000 0.000000 0.000000
# 4 0.000000 0.000000 0.000000 0.069894 0.000000 0.000000
# 5 0.000000 0.000000 0.000000 0.000000 0.025269 0.000000
# 6 0.000000 0.000000 0.000000 0.000000 0.000000 0.045850
#
#
# Mechanical properties :
#
#
# Convention : Reuss Voigt Hill
#
# Bulk Modulus (GPa) = 54.63675 58.33383 56.48529
# Shear Modulus (GPa) = 25.09381 29.73743 27.41562
#
# Velocity S-wave (km/s) = 3.48948 3.79865 3.64734
# Velocity P-wave (km/s) = 6.53813 6.89532 6.71910
#
# Compressibility (1/GPa) = 0.01830270
#
# Stress axis : x y z
#
# Youngs Moduli (GPa) = 83.43062 67.53173 118.66527
#
# Poissons Ratio (x) = 0.23190 0.32272
# Poissons Ratio (y) = 0.28649 0.27361
# Poissons Ratio (z) = 0.22689 0.15571
#
# Static dielectric constant tensor:
#      x y z
#    x 3.791840 0.000000 0.000000 
#    y 0.000000 3.754070 0.000000 
#    z 0.000000 0.000000 4.762500 
# 
# 
# High freq. dielectric constant tensor:
#      x y z
#    x 1.815690 0.000000 0.000000 
#    y 0.000000 1.792320 0.000000 
#    z 0.000000 0.000000 1.795460 
# 
# From -- ./inp_files/11015.got.cif
#   From: 2010.03.12/outbox.cif.g09.slc.cpg/sg21_6_cif.got.tgz:11015.got - 2010.04.14 01:59:26.
