data_PCOD8160680
_publ_section_title
;
Structure prediction by ZEFSAII (Michael W. Deem and Ramdas Pophale) SiO2 
 PCOD8160680
Probable space group: C 2 2 21
;
_chemical_formula_sum "Si O2"
_cell_formula_units_Z 44
_cell_length_a 28.038866
_cell_length_b 7.989482
_cell_length_c 9.183523
_cell_angle_alpha 90.000000
_cell_angle_beta 90.000000
_cell_angle_gamma 90.000000
_cell_volume 2057.256228
_symmetry_space_group_name_H-M "C 2 2 21"
_symmetry_group_IT_number 20
_symmetry_cell_setting 'orthorhombic'
loop_
_space_group_symop_operation_xyz
x,y,z
-x,-y,1/2+z
x,-y,-z
-x,y,1/2-z
1/2+x,1/2+y,z
1/2-x,1/2-y,1/2+z
1/2+x,1/2-y,-z
1/2-x,1/2+y,1/2-z
loop_
_atom_site_type_symbol
_atom_site_label
_atom_site_fract_x
_atom_site_fract_y
_atom_site_fract_z
Si Si1 0.782239 0.925600 0.732691
Si Si2 0.715329 0.234573 0.053211
Si Si3 0.491266 0.153612 0.415037
Si Si4 0.459640 0.500000 0.000000
Si Si5 0.609059 0.246783 0.044647
Si Si6 0.388690 0.549515 0.257477
O O1 0.747288 0.910753 0.872653
O O2 0.768418 0.786923 0.609571
O O3 0.835683 0.897788 0.794746
O O4 0.779745 0.105381 0.657775
O O5 0.661398 0.162847 0.041752
O O6 0.500000 0.118625 0.250000
O O7 0.507520 0.341746 0.457621
O O8 0.434720 0.122300 0.436805
O O9 0.517323 0.000000 0.500000
O O10 0.426734 0.569723 0.129289
O O11 0.609911 0.360088 0.188877
O O12 0.597282 0.339844 0.894904
#
# Coordination Sequence:
#
# PCOD8160680 Si02
#       6
#     8   8   8   4   8   8
#     4   9  19  36  59  87 125 162 211 263 318 388
#     4   9  19  37  59  88 121 166 212 262 317 385
#     4  12  28  45  68 101 136 176 226 283 331 408
#     4  12  24  42  74  98 132 178 222 278 348 376
#     4   9  19  41  63  85 131 173 218 265 333 396
#     4   9  19  37  66  95 119 173 223 265 324 409
#
# _framework density 21.387709999999998
#
# number of rings (size 3 to 8) (size 9 to 14) (size 15 to 20)
#    0.000    2.182    1.818    3.273    2.545    3.636 
#    6.545    0.000    0.000    0.000    0.000    0.000 
#    0.000    0.000    0.000    0.000    0.000    0.000 
#
# Total GULP energy -272557.976860 kJ/mol
# GULP energy per Si atom -12388.998948 kJ/mol
# Density = 2.133903 g / cm^3
# Si number density = 21.387710 Si / 1000 Ang^3
#
#
#
# Elastic Constant Matrix: (Units=GPa)
#
#
# Indices 1 2 3 4 5 6 
#
# 1 112.7475 19.4696 53.5630 0.0000 0.0000 0.0000
# 2 19.4696 89.8493 31.6510 0.0000 0.0000 0.0000
# 3 53.5630 31.6510 108.1624 0.0000 0.0000 0.0000
# 4 0.0000 0.0000 0.0000 29.5538 0.0000 0.0000
# 5 0.0000 0.0000 0.0000 0.0000 17.3738 0.0000
# 6 0.0000 0.0000 0.0000 0.0000 0.0000 18.0620
#
#
#
# Elastic Compliance Matrix: (Units=1/GPa)
#
#
# Indices 1 2 3 4 5 6 
#
# 1 0.011622 -0.000547 -0.005595 0.000000 0.000000 0.000000
# 2 -0.000547 0.012435 -0.003368 0.000000 0.000000 0.000000
# 3 -0.005595 -0.003368 0.013002 0.000000 0.000000 0.000000
# 4 0.000000 0.000000 0.000000 0.033837 0.000000 0.000000
# 5 0.000000 0.000000 0.000000 0.000000 0.057558 0.000000
# 6 0.000000 0.000000 0.000000 0.000000 0.000000 0.055365
#
#
# Mechanical properties :
#
#
# Convention : Reuss Voigt Hill
#
# Bulk Modulus (GPa) = 55.43874 57.79180 56.61527
# Shear Modulus (GPa) = 23.94054 26.73627 25.33840
#
# Velocity S-wave (km/s) = 3.34931 3.53948 3.44571
# Velocity P-wave (km/s) = 6.39799 6.61691 6.50837
#
# Compressibility (1/GPa) = 0.01803793
#
# Stress axis : x y z
#
# Youngs Moduli (GPa) = 86.04386 80.42030 76.91381
#
# Poissons Ratio (x) = 0.04402 0.43034
# Poissons Ratio (y) = 0.04710 0.25902
# Poissons Ratio (z) = 0.48143 0.27083
#
# Static dielectric constant tensor:
#      x y z
#    x 3.861440 0.000000 0.000000 
#    y 0.000000 3.676190 0.000000 
#    z 0.000000 0.000000 3.848330 
# 
# 
# High freq. dielectric constant tensor:
#      x y z
#    x 1.841500 0.000000 0.000000 
#    y 0.000000 1.827070 0.000000 
#    z 0.000000 0.000000 1.842070 
# 
# From -- ./inp_files/11382.got.cif
#   From: 2010.03.12/outbox.cif.g09.slc.cpg/sg20_6_cif.got.tgz:11382.got - 2010.04.14 01:38:04.
