data_PCOD8160524
_publ_section_title
;
Structure prediction by ZEFSAII (Michael W. Deem and Ramdas Pophale) SiO2 
 PCOD8160524
Probable space group: C 2 2 21
;
_chemical_formula_sum "Si O2"
_cell_formula_units_Z 36
_cell_length_a 7.800474
_cell_length_b 21.555779
_cell_length_c 9.354134
_cell_angle_alpha 90.000000
_cell_angle_beta 90.000000
_cell_angle_gamma 90.000000
_cell_volume 1572.853608
_symmetry_space_group_name_H-M "C 2 2 21"
_symmetry_group_IT_number 20
_symmetry_cell_setting 'orthorhombic'
loop_
_space_group_symop_operation_xyz
x,y,z
-x,-y,1/2+z
x,-y,-z
-x,y,1/2-z
1/2+x,1/2+y,z
1/2-x,1/2-y,1/2+z
1/2+x,1/2-y,-z
1/2-x,1/2+y,1/2-z
loop_
_atom_site_type_symbol
_atom_site_label
_atom_site_fract_x
_atom_site_fract_y
_atom_site_fract_z
Si Si1 0.720867 0.500000 0.000000
Si Si2 0.839400 0.734765 0.850485
Si Si3 0.031579 0.392365 0.416119
Si Si4 0.170422 0.865571 0.520389
Si Si5 0.000000 0.174275 0.750000
Si Si6 0.500000 0.550733 0.250000
O O1 0.839446 0.440272 0.013983
O O2 0.608126 0.506975 0.143590
O O3 0.889518 0.675557 0.946685
O O4 0.800331 0.792910 0.949908
O O5 0.667937 0.717357 0.763543
O O6 0.000000 0.751453 0.750000
O O7 0.000000 0.404365 0.250000
O O8 0.847582 0.398926 0.486597
O O9 0.033903 0.869752 0.388658
O O10 0.113048 0.903049 0.657290
#
# Coordination Sequence:
#
# PCOD8160524 Si02
#       6
#     4   8   8   8   4   4
#     4  12  32  52  76 114 156 208 276 324 396 484
#     4  11  23  47  72 121 156 204 255 327 396 468
#     4  11  26  49  79 110 157 211 259 327 394 468
#     4  12  26  49  80 115 154 205 265 328 406 471
#     4  12  24  41  78 108 168 205 248 324 392 484
#     4  12  32  49  82 110 152 203 272 332 396 486
#
# _framework density 22.888335999999999
#
# number of rings (size 3 to 8) (size 9 to 14) (size 15 to 20)
#    0.000    0.444    5.556    2.667    6.222    4.444 
#    0.000    0.000    0.000    0.000    0.000    0.000 
#    0.000    0.000    0.000    0.000    0.000    0.000 
#
# Total GULP energy -223221.934036 kJ/mol
# GULP energy per Si atom -12401.218558 kJ/mol
# Density = 2.283624 g / cm^3
# Si number density = 22.888336 Si / 1000 Ang^3
#
#
#
# Elastic Constant Matrix: (Units=GPa)
#
#
# Indices 1 2 3 4 5 6 
#
# 1 175.6257 42.8429 75.2474 0.0000 0.0000 0.0000
# 2 42.8429 100.5186 52.8442 0.0000 0.0000 0.0000
# 3 75.2474 52.8442 147.0036 0.0000 0.0000 0.0000
# 4 0.0000 0.0000 0.0000 71.0996 0.0000 0.0000
# 5 0.0000 0.0000 0.0000 0.0000 47.9757 0.0000
# 6 0.0000 0.0000 0.0000 0.0000 0.0000 18.9245
#
#
#
# Elastic Compliance Matrix: (Units=1/GPa)
#
#
# Indices 1 2 3 4 5 6 
#
# 1 0.007460 -0.001445 -0.003299 0.000000 0.000000 0.000000
# 2 -0.001445 0.012547 -0.003770 0.000000 0.000000 0.000000
# 3 -0.003299 -0.003770 0.009847 0.000000 0.000000 0.000000
# 4 0.000000 0.000000 0.000000 0.014065 0.000000 0.000000
# 5 0.000000 0.000000 0.000000 0.000000 0.020844 0.000000
# 6 0.000000 0.000000 0.000000 0.000000 0.000000 0.052841
#
#
# Mechanical properties :
#
#
# Convention : Reuss Voigt Hill
#
# Bulk Modulus (GPa) = 77.98004 85.00189 81.49097
# Shear Modulus (GPa) = 35.99525 44.41419 40.20472
#
# Velocity S-wave (km/s) = 3.96996 4.40986 4.19568
# Velocity P-wave (km/s) = 7.42683 7.94653 7.69108
#
# Compressibility (1/GPa) = 0.01282379
#
# Stress axis : x y z
#
# Youngs Moduli (GPa) = 134.04884 79.70314 101.55766
#
# Poissons Ratio (x) = 0.11519 0.33504
# Poissons Ratio (y) = 0.19373 0.38291
# Poissons Ratio (z) = 0.44223 0.30051
#
# Static dielectric constant tensor:
#      x y z
#    x 4.185430 0.000000 0.000000 
#    y 0.000000 4.110950 0.000000 
#    z 0.000000 0.000000 4.144580 
# 
# 
# High freq. dielectric constant tensor:
#      x y z
#    x 1.925190 0.000000 0.000000 
#    y 0.000000 1.903710 0.000000 
#    z 0.000000 0.000000 1.904340 
# 
# From -- ./inp_files/5956.got.cif
#   From: 2010.03.12/outbox.cif.g09.slc.cpg/sg20_3_cif.got.tgz:5956.got - 2010.04.14 01:38:04.
