data_PCOD8160105
_publ_section_title
;
Structure prediction by ZEFSAII (Michael W. Deem and Ramdas Pophale) SiO2 
 PCOD8160105
Probable space group: C 2 2 21
;
_chemical_formula_sum "Si O2"
_cell_formula_units_Z 40
_cell_length_a 14.602701
_cell_length_b 17.839793
_cell_length_c 7.644293
_cell_angle_alpha 90.000000
_cell_angle_beta 90.000000
_cell_angle_gamma 90.000000
_cell_volume 1991.408372
_symmetry_space_group_name_H-M "C 2 2 21"
_symmetry_group_IT_number 20
_symmetry_cell_setting 'orthorhombic'
loop_
_space_group_symop_operation_xyz
x,y,z
-x,-y,1/2+z
x,-y,-z
-x,y,1/2-z
1/2+x,1/2+y,z
1/2-x,1/2-y,1/2+z
1/2+x,1/2-y,-z
1/2-x,1/2+y,1/2-z
loop_
_atom_site_type_symbol
_atom_site_label
_atom_site_fract_x
_atom_site_fract_y
_atom_site_fract_z
Si Si1 0.307469 0.860623 0.363160
Si Si2 0.434917 0.745860 0.914930
Si Si3 0.900994 0.124562 0.165704
Si Si4 0.264884 0.217947 0.276314
Si Si5 0.000000 0.331951 0.250000
Si Si6 0.200638 0.000000 0.500000
O O1 0.304365 0.810777 0.539566
O O2 0.260079 0.807246 0.215924
O O3 0.411006 0.880785 0.300131
O O4 0.261593 0.941082 0.391535
O O5 0.500000 0.740559 0.750000
O O6 0.345000 0.794300 0.866335
O O7 0.404404 0.662024 0.971642
O O8 0.483200 0.779511 0.083772
O O9 0.827320 0.172601 0.279642
O O10 0.000000 0.121818 0.250000
O O11 0.863090 0.040807 0.142660
#
# Coordination Sequence:
#
# PCOD8160105 Si02
#       6
#     8   8   8   8   4   4
#     4  11  21  41  66  95 133 174 218 274 330 386
#     4  12  22  37  68 105 128 168 222 280 326 374
#     4  11  23  42  65  97 135 174 224 265 327 400
#     4  11  20  37  66  96 129 170 218 272 319 381
#     4  12  22  40  66 102 128 168 234 278 310 390
#     4  10  24  42  60  94 144 176 202 278 338 386
#
# _framework density 20.086286999999999
#
# number of rings (size 3 to 8) (size 9 to 14) (size 15 to 20)
#    0.000    0.800    9.000    0.000    0.000    0.800 
#    0.000    4.000    0.000   10.800    0.000    0.000 
#    0.000    0.000    0.000    0.000    0.000    0.000 
#
# Total GULP energy -247832.576348 kJ/mol
# GULP energy per Si atom -12391.628817 kJ/mol
# Density = 2.004057 g / cm^3
# Si number density = 20.086287 Si / 1000 Ang^3
#
#
#
# Elastic Constant Matrix: (Units=GPa)
#
#
# Indices 1 2 3 4 5 6 
#
# 1 159.0155 68.0534 59.5986 0.0000 0.0000 0.0000
# 2 68.0534 134.7413 46.0262 0.0000 0.0000 0.0000
# 3 59.5986 46.0262 102.4615 0.0000 0.0000 0.0000
# 4 0.0000 0.0000 0.0000 30.9034 0.0000 0.0000
# 5 0.0000 0.0000 0.0000 0.0000 43.4923 0.0000
# 6 0.0000 0.0000 0.0000 0.0000 0.0000 26.4657
#
#
#
# Elastic Compliance Matrix: (Units=1/GPa)
#
#
# Indices 1 2 3 4 5 6 
#
# 1 0.009140 -0.003308 -0.003831 0.000000 0.000000 0.000000
# 2 -0.003308 0.009964 -0.002552 0.000000 0.000000 0.000000
# 3 -0.003831 -0.002552 0.013134 0.000000 0.000000 0.000000
# 4 0.000000 0.000000 0.000000 0.032359 0.000000 0.000000
# 5 0.000000 0.000000 0.000000 0.000000 0.022993 0.000000
# 6 0.000000 0.000000 0.000000 0.000000 0.000000 0.037785
#
#
# Mechanical properties :
#
#
# Convention : Reuss Voigt Hill
#
# Bulk Modulus (GPa) = 77.77409 82.61941 80.19675
# Shear Modulus (GPa) = 33.54789 35.00829 34.27809
#
# Velocity S-wave (km/s) = 4.09123 4.17933 4.13551
# Velocity P-wave (km/s) = 7.81803 8.03185 7.92566
#
# Compressibility (1/GPa) = 0.01285775
#
# Stress axis : x y z
#
# Youngs Moduli (GPa) = 109.40876 100.36147 76.13734
#
# Poissons Ratio (x) = 0.33198 0.29165
# Poissons Ratio (y) = 0.36191 0.19429
# Poissons Ratio (z) = 0.41910 0.25610
#
# Static dielectric constant tensor:
#      x y z
#    x 4.176370 0.000000 0.000000 
#    y 0.000000 3.526410 0.000000 
#    z 0.000000 0.000000 3.786050 
# 
# 
# High freq. dielectric constant tensor:
#      x y z
#    x 1.817240 0.000000 0.000000 
#    y 0.000000 1.749960 0.000000 
#    z 0.000000 0.000000 1.774460 
# 
# From -- ./inp_files/8263.got.cif
#   From: 2010.03.12/outbox.cif.g09.slc.cpg/sg20_5_cif.got.tgz:8263.got - 2010.04.14 01:38:04.
