data_PCOD8160979
_publ_section_title
;
Structure prediction by ZEFSAII (Michael W. Deem and Ramdas Pophale) SiO2 
 PCOD8160979
Probable space group: C 2 2 2
;
_chemical_formula_sum "Si O2"
_cell_formula_units_Z 48
_cell_length_a 31.277590
_cell_length_b 9.532963
_cell_length_c 8.731761
_cell_angle_alpha 90.000000
_cell_angle_beta 90.000000
_cell_angle_gamma 90.000000
_cell_volume 2603.532659
_symmetry_space_group_name_H-M "C 2 2 2"
_symmetry_group_IT_number 21
_symmetry_cell_setting 'orthorhombic'
loop_
_space_group_symop_operation_xyz
x,y,z
-x,-y,z
x,-y,-z
-x,y,-z
1/2+x,1/2+y,z
1/2-x,1/2-y,z
1/2+x,1/2-y,-z
1/2-x,1/2+y,-z
loop_
_atom_site_type_symbol
_atom_site_label
_atom_site_fract_x
_atom_site_fract_y
_atom_site_fract_z
Si Si1 0.881460 0.280438 0.675700
Si Si2 0.858536 0.013720 0.180885
Si Si3 0.885942 0.282387 0.312835
Si Si4 0.822382 0.493070 0.183339
Si Si5 0.452707 0.007903 0.319076
Si Si6 0.734145 0.589635 0.848878
O O1 0.874741 0.127778 0.742356
O O2 0.879619 0.277406 0.493857
O O3 0.842395 0.371871 0.737944
O O4 0.926652 0.350867 0.728750
O O5 0.892078 0.128657 0.242217
O O6 0.811339 0.068308 0.237794
O O7 0.862007 0.000000 0.000000
O O8 0.844472 0.350778 0.236769
O O9 0.927106 0.371908 0.261835
O O10 0.773155 0.484662 0.241129
O O11 0.824793 0.500000 0.000000
O O12 0.500000 0.000000 0.244035
O O13 0.456677 0.000000 0.500000
O O14 0.750000 0.750000 0.882770
O O15 0.726386 0.500000 0.000000
#
# Coordination Sequence:
#
# PCOD8160979 Si02
#       6
#     8   8   8   8   8   8
#     4  10  21  34  55  84 109 141 176 224 281 319
#     4  11  22  36  55  76 109 147 188 224 269 321
#     4  10  19  36  55  81 113 136 176 230 274 324
#     4  10  19  34  56  75 105 143 188 224 262 321
#     4   8  16  34  60  83 104 136 178 218 263 332
#     4  10  21  34  53  77 106 144 196 235 258 311
#
# _framework density 18.436487
#
# number of rings (size 3 to 8) (size 9 to 14) (size 15 to 20)
#    0.000    2.167    1.667    3.000    7.000    0.000 
#    0.000    5.833    0.000   23.000    0.000    0.000 
#    0.000    0.000    0.000    0.000    0.000    0.000 
#
# Total GULP energy -297368.370915 kJ/mol
# GULP energy per Si atom -12390.348788 kJ/mol
# Density = 1.839452 g / cm^3
# Si number density = 18.436487 Si / 1000 Ang^3
#
#
#
# Elastic Constant Matrix: (Units=GPa)
#
#
# Indices 1 2 3 4 5 6 
#
# 1 139.4243 71.3391 36.2820 0.0000 0.0000 0.0000
# 2 71.3391 169.7433 39.7030 0.0000 0.0000 0.0000
# 3 36.2820 39.7030 70.3706 0.0000 0.0000 0.0000
# 4 0.0000 0.0000 0.0000 35.8959 0.0000 0.0000
# 5 0.0000 0.0000 0.0000 0.0000 20.5987 0.0000
# 6 0.0000 0.0000 0.0000 0.0000 0.0000 15.2040
#
#
#
# Elastic Compliance Matrix: (Units=1/GPa)
#
#
# Indices 1 2 3 4 5 6 
#
# 1 0.009694 -0.003347 -0.003110 0.000000 0.000000 0.000000
# 2 -0.003347 0.007942 -0.002756 0.000000 0.000000 0.000000
# 3 -0.003110 -0.002756 0.017369 0.000000 0.000000 0.000000
# 4 0.000000 0.000000 0.000000 0.027858 0.000000 0.000000
# 5 0.000000 0.000000 0.000000 0.000000 0.048547 0.000000
# 6 0.000000 0.000000 0.000000 0.000000 0.000000 0.065772
#
#
# Mechanical properties :
#
#
# Convention : Reuss Voigt Hill
#
# Bulk Modulus (GPa) = 60.31135 74.90960 67.61048
# Shear Modulus (GPa) = 24.85916 29.82068 27.33992
#
# Velocity S-wave (km/s) = 3.67600 4.02616 3.85505
# Velocity P-wave (km/s) = 7.12750 7.89510 7.52110
#
# Compressibility (1/GPa) = 0.01658063
#
# Stress axis : x y z
#
# Youngs Moduli (GPa) = 103.15581 125.90746 57.57546
#
# Poissons Ratio (x) = 0.42139 0.17905
# Poissons Ratio (y) = 0.34524 0.15865
# Poissons Ratio (z) = 0.32080 0.34694
#
# Static dielectric constant tensor:
#      x y z
#    x 3.873170 0.000000 0.000000 
#    y 0.000000 3.527350 0.000000 
#    z 0.000000 0.000000 3.215280 
# 
# 
# High freq. dielectric constant tensor:
#      x y z
#    x 1.712430 0.000000 0.000000 
#    y 0.000000 1.727350 0.000000 
#    z 0.000000 0.000000 1.691420 
# 
# From -- ./inp_files/11535.got.cif
#   From: 2010.03.12/outbox.cif.g09.slc.cpg/sg21_6_cif.got.tgz:11535.got - 2010.04.14 01:59:26.
