data_PCOD8160595
_publ_section_title
;
Structure prediction by ZEFSAII (Michael W. Deem and Ramdas Pophale) SiO2 
 PCOD8160595
Probable space group: C 2 2 21
;
_chemical_formula_sum "Si O2"
_cell_formula_units_Z 56
_cell_length_a 14.387363
_cell_length_b 18.663049
_cell_length_c 9.439876
_cell_angle_alpha 90.000000
_cell_angle_beta 90.000000
_cell_angle_gamma 90.000000
_cell_volume 2534.720557
_symmetry_space_group_name_H-M "C 2 2 21"
_symmetry_group_IT_number 20
_symmetry_cell_setting 'orthorhombic'
loop_
_space_group_symop_operation_xyz
x,y,z
-x,-y,1/2+z
x,-y,-z
-x,y,1/2-z
1/2+x,1/2+y,z
1/2-x,1/2-y,1/2+z
1/2+x,1/2-y,-z
1/2-x,1/2+y,1/2-z
loop_
_atom_site_type_symbol
_atom_site_label
_atom_site_fract_x
_atom_site_fract_y
_atom_site_fract_z
Si Si1 0.836578 0.772839 0.988246
Si Si2 0.234484 0.889468 0.329215
Si Si3 0.896253 0.134414 0.259715
Si Si4 0.059055 0.568701 0.895817
Si Si5 0.570720 0.518349 0.645140
Si Si6 0.522676 0.206679 0.092155
Si Si7 0.821834 0.176454 0.556720
O O1 0.833235 0.820635 0.847053
O O2 0.786133 0.698612 0.957657
O O3 0.769932 0.810314 0.104755
O O4 0.940729 0.759267 0.041167
O O5 0.334951 0.925295 0.342283
O O6 0.158193 0.936545 0.411742
O O7 0.189300 0.886019 0.172632
O O8 0.858610 0.140617 0.416543
O O9 0.000000 0.166165 0.250000
O O10 0.893431 0.050936 0.227271
O O11 0.000000 0.561335 0.750000
O O12 0.046145 0.500000 0.000000
O O13 0.032339 0.640058 0.983856
O O14 0.515584 0.500000 0.500000
O O15 0.500000 0.560865 0.750000
O O16 0.500000 0.177154 0.250000
O O17 0.615460 0.254911 0.100421
#
# Coordination Sequence:
#
# PCOD8160595 Si02
#       7
#     8   8   8   8   8   8   8
#     4  12  24  44  71 105 143 189 243 300 374 431
#     4  12  26  46  74 105 147 190 244 305 370 443
#     4  11  25  43  69 100 145 189 237 299 365 440
#     4  12  29  56  80 106 148 204 261 316 376 447
#     4  11  26  44  69 101 143 188 232 291 363 442
#     4  12  26  45  76 109 152 191 244 311 371 454
#     4  12  26  42  69 112 141 189 242 295 373 436
#
# _framework density 22.093166
#
# number of rings (size 3 to 8) (size 9 to 14) (size 15 to 20)
#    0.000    0.286    5.714    2.571    8.000    0.000 
#    5.143    0.000    0.000    0.000    0.000    0.000 
#    0.000    0.000    0.000    0.000    0.000    0.000 
#
# Total GULP energy -347104.015098 kJ/mol
# GULP energy per Si atom -12396.571968 kJ/mol
# Density = 2.204288 g / cm^3
# Si number density = 22.093166 Si / 1000 Ang^3
#
#
#
# Elastic Constant Matrix: (Units=GPa)
#
#
# Indices 1 2 3 4 5 6 
#
# 1 111.3336 15.1661 35.3899 0.0000 0.0000 0.0000
# 2 15.1661 67.4284 29.4052 0.0000 0.0000 0.0000
# 3 35.3899 29.4052 152.3447 0.0000 0.0000 0.0000
# 4 0.0000 0.0000 0.0000 40.5684 0.0000 0.0000
# 5 0.0000 0.0000 0.0000 0.0000 37.4629 0.0000
# 6 0.0000 0.0000 0.0000 0.0000 0.0000 29.1122
#
#
#
# Elastic Compliance Matrix: (Units=1/GPa)
#
#
# Indices 1 2 3 4 5 6 
#
# 1 0.009805 -0.001323 -0.002022 0.000000 0.000000 0.000000
# 2 -0.001323 0.016372 -0.002853 0.000000 0.000000 0.000000
# 3 -0.002022 -0.002853 0.007584 0.000000 0.000000 0.000000
# 4 0.000000 0.000000 0.000000 0.024650 0.000000 0.000000
# 5 0.000000 0.000000 0.000000 0.000000 0.026693 0.000000
# 6 0.000000 0.000000 0.000000 0.000000 0.000000 0.034350
#
#
# Mechanical properties :
#
#
# Convention : Reuss Voigt Hill
#
# Bulk Modulus (GPa) = 46.80563 54.55879 50.68221
# Shear Modulus (GPa) = 35.97818 38.17172 37.07495
#
# Velocity S-wave (km/s) = 4.03982 4.16114 4.10093
# Velocity P-wave (km/s) = 6.55681 6.91631 6.73895
#
# Compressibility (1/GPa) = 0.02136495
#
# Stress axis : x y z
#
# Youngs Moduli (GPa) = 101.98744 61.07893 131.84855
#
# Poissons Ratio (x) = 0.08084 0.26664
# Poissons Ratio (y) = 0.13498 0.37612
# Poissons Ratio (z) = 0.20625 0.17424
#
# Static dielectric constant tensor:
#      x y z
#    x 4.145390 0.000000 0.000000 
#    y 0.000000 3.802150 0.000000 
#    z 0.000000 0.000000 4.292300 
# 
# 
# High freq. dielectric constant tensor:
#      x y z
#    x 1.873150 0.000000 0.000000 
#    y 0.000000 1.861220 0.000000 
#    z 0.000000 0.000000 1.894110 
# 
# From -- ./inp_files/8731.got.cif
#   From: 2010.03.12/outbox.cif.g09.slc.cpg/sg20_5_cif.got.tgz:8731.got - 2010.04.14 01:38:04.
