data_PCOD8160717
_publ_section_title
;
Structure prediction by ZEFSAII (Michael W. Deem and Ramdas Pophale) SiO2 
 PCOD8160717
Probable space group: C 2 2 21
;
_chemical_formula_sum "Si O2"
_cell_formula_units_Z 40
_cell_length_a 8.501328
_cell_length_b 15.026373
_cell_length_c 13.120244
_cell_angle_alpha 90.000000
_cell_angle_beta 90.000000
_cell_angle_gamma 90.000000
_cell_volume 1676.034096
_symmetry_space_group_name_H-M "C 2 2 21"
_symmetry_group_IT_number 20
_symmetry_cell_setting 'orthorhombic'
loop_
_space_group_symop_operation_xyz
x,y,z
-x,-y,1/2+z
x,-y,-z
-x,y,1/2-z
1/2+x,1/2+y,z
1/2-x,1/2-y,1/2+z
1/2+x,1/2-y,-z
1/2-x,1/2+y,1/2-z
loop_
_atom_site_type_symbol
_atom_site_label
_atom_site_fract_x
_atom_site_fract_y
_atom_site_fract_z
Si Si1 0.000000 0.748166 0.750000
Si Si2 0.293588 0.699326 0.864761
Si Si3 0.473222 0.477840 0.140213
Si Si4 0.304142 0.351366 0.914058
Si Si5 0.541902 0.878686 0.643449
Si Si6 0.746354 0.500000 0.000000
O O1 0.888575 0.691719 0.673186
O O2 0.880609 0.805267 0.817293
O O3 0.374592 0.608846 0.828675
O O4 0.370772 0.788582 0.819610
O O5 0.325415 0.707742 0.985385
O O6 0.500000 0.525023 0.250000
O O7 0.381810 0.550946 0.070914
O O8 0.634481 0.449869 0.082286
O O9 0.118458 0.359910 0.912619
O O10 0.500000 0.930441 0.750000
O O11 0.650382 0.931940 0.564836
#
# Coordination Sequence:
#
# PCOD8160717 Si02
#       6
#     4   8   8   8   8   4
#     4  12  26  50  78 110 156 206 252 326 390 458
#     4  12  27  47  79 113 151 204 262 319 381 462
#     4  12  26  49  79 112 154 205 256 315 394 459
#     4  12  25  50  76 110 156 205 255 318 394 457
#     4  12  27  50  77 113 155 203 257 321 387 459
#     4  12  28  50  80 110 158 210 252 318 390 466
#
# _framework density 23.865862
#
# number of rings (size 3 to 8) (size 9 to 14) (size 15 to 20)
#    0.000    0.000    5.000    4.200    5.600    1.600 
#    1.800    0.000    0.000    0.000    0.000    0.000 
#    0.000    0.000    0.000    0.000    0.000    0.000 
#
# Total GULP energy -247901.268901 kJ/mol
# GULP energy per Si atom -12395.063445 kJ/mol
# Density = 2.381154 g / cm^3
# Si number density = 23.865862 Si / 1000 Ang^3
#
#
#
# Elastic Constant Matrix: (Units=GPa)
#
#
# Indices 1 2 3 4 5 6 
#
# 1 180.6991 63.7497 60.7370 0.0000 0.0000 0.0000
# 2 63.7497 104.8926 32.6748 0.0000 0.0000 0.0000
# 3 60.7370 32.6748 147.7295 0.0000 0.0000 0.0000
# 4 0.0000 0.0000 0.0000 28.9126 0.0000 0.0000
# 5 0.0000 0.0000 0.0000 0.0000 65.0267 0.0000
# 6 0.0000 0.0000 0.0000 0.0000 0.0000 -4.1401
#
#
#
# Elastic Compliance Matrix: (Units=1/GPa)
#
#
# Indices 1 2 3 4 5 6 
#
# 1 0.007704 -0.003969 -0.002289 0.000000 0.000000 0.000000
# 2 -0.003969 0.012284 -0.001085 0.000000 0.000000 0.000000
# 3 -0.002289 -0.001085 0.007950 0.000000 0.000000 0.000000
# 4 0.000000 0.000000 0.000000 0.034587 0.000000 0.000000
# 5 0.000000 0.000000 0.000000 0.000000 0.015378 0.000000
# 6 0.000000 0.000000 0.000000 0.000000 0.000000 -0.241542
#
#
# Mechanical properties :
#
#
# Convention : Reuss Voigt Hill
#
# Bulk Modulus (GPa) = 75.46647 83.07157 79.26902
# Shear Modulus (GPa) = -34.59372 36.37052 0.88840
#
# Velocity S-wave (km/s) = -3.81137 3.90802 0.61078
# Velocity P-wave (km/s) = 3.51013 7.43282 5.81239
#
# Compressibility (1/GPa) = 0.01325092
#
# Stress axis : x y z
#
# Youngs Moduli (GPa) = 129.80586 81.40847 125.77939
#
# Poissons Ratio (x) = 0.32310 0.28797
# Poissons Ratio (y) = 0.51519 0.13649
# Poissons Ratio (z) = 0.29719 0.08834
#
# Static dielectric constant tensor:
#      x y z
#    x 4.795540 0.000000 0.000000 
#    y 0.000000 3.932660 0.000000 
#    z 0.000000 0.000000 5.047470 
# 
# 
# High freq. dielectric constant tensor:
#      x y z
#    x 1.961480 0.000000 0.000000 
#    y 0.000000 1.919690 0.000000 
#    z 0.000000 0.000000 1.978650 
# 
# From -- ./inp_files/18576.got.cif
#   From: 2010.03.12/outbox.cif.g09.slc.cpg/sg20_10_cif.got.tgz:18576.got - 2010.04.14 01:38:04.
