data_PCOD8160422
_publ_section_title
;
Structure prediction by ZEFSAII (Michael W. Deem and Ramdas Pophale) SiO2 
 PCOD8160422
Probable space group: C 2 2 21
;
_chemical_formula_sum "Si O2"
_cell_formula_units_Z 64
_cell_length_a 11.711568
_cell_length_b 9.321720
_cell_length_c 27.154208
_cell_angle_alpha 90.000000
_cell_angle_beta 90.000000
_cell_angle_gamma 90.000000
_cell_volume 2964.478046
_symmetry_space_group_name_H-M "C 2 2 21"
_symmetry_group_IT_number 20
_symmetry_cell_setting 'orthorhombic'
loop_
_space_group_symop_operation_xyz
x,y,z
-x,-y,1/2+z
x,-y,-z
-x,y,1/2-z
1/2+x,1/2+y,z
1/2-x,1/2-y,1/2+z
1/2+x,1/2-y,-z
1/2-x,1/2+y,1/2-z
loop_
_atom_site_type_symbol
_atom_site_label
_atom_site_fract_x
_atom_site_fract_y
_atom_site_fract_z
Si Si1 0.070454 0.376840 0.397328
Si Si2 0.885303 0.574329 0.727222
Si Si3 0.008822 0.693107 0.091274
Si Si4 0.055448 0.273563 0.802330
Si Si5 0.849453 0.229433 0.358303
Si Si6 0.241469 0.177918 0.448907
Si Si7 0.244402 0.946417 0.181400
Si Si8 0.303990 0.644576 0.941141
O O1 0.146336 0.298512 0.438547
O O2 0.147623 0.410919 0.351120
O O3 0.018002 0.524715 0.418493
O O4 0.973363 0.266368 0.379535
O O5 0.926384 0.442875 0.694105
O O6 0.821727 0.685625 0.691900
O O7 0.797668 0.505957 0.766493
O O8 0.000000 0.647293 0.750000
O O9 0.981952 0.748393 0.147473
O O10 0.140905 0.720435 0.077830
O O11 0.933096 0.794631 0.055954
O O12 0.175422 0.196901 0.808169
O O13 0.000000 0.225577 0.750000
O O14 0.755922 0.263582 0.399001
O O15 0.838786 0.062725 0.343605
O O16 0.260683 0.172307 0.507480
O O17 0.197052 0.024345 0.428840
#
# Coordination Sequence:
#
# PCOD8160422 Si02
#       8
#     8   8   8   8   8   8   8   8
#     4  12  24  46  72 101 139 183 233 291 348 419
#     4  11  22  43  67  97 139 190 231 282 343 417
#     4  12  24  49  73 102 146 183 234 293 350 422
#     4  11  24  44  67  99 145 192 229 290 350 412
#     4  12  25  45  72 102 140 186 235 289 348 420
#     4  11  27  48  72 106 136 185 237 290 361 418
#     4  12  25  43  65 109 141 181 240 283 354 418
#     4  11  27  46  73 104 137 185 232 294 356 416
#
# _framework density 21.58896
#
# number of rings (size 3 to 8) (size 9 to 14) (size 15 to 20)
#    0.000    0.500    6.250    1.500    5.250    1.000 
#    2.250    0.000    0.000    0.000    0.000    0.000 
#    0.000    0.000    0.000    0.000    0.000    0.000 
#
# Total GULP energy -396803.286462 kJ/mol
# GULP energy per Si atom -12400.102702 kJ/mol
# Density = 2.153982 g / cm^3
# Si number density = 21.588960 Si / 1000 Ang^3
#
#
#
# Elastic Constant Matrix: (Units=GPa)
#
#
# Indices 1 2 3 4 5 6 
#
# 1 109.0763 40.2859 26.3435 0.0000 0.0000 0.0000
# 2 40.2859 42.9712 27.4610 0.0000 0.0000 0.0000
# 3 26.3435 27.4610 100.1794 0.0000 0.0000 0.0000
# 4 0.0000 0.0000 0.0000 28.7106 0.0000 0.0000
# 5 0.0000 0.0000 0.0000 0.0000 38.4859 0.0000
# 6 0.0000 0.0000 0.0000 0.0000 0.0000 41.0391
#
#
#
# Elastic Compliance Matrix: (Units=1/GPa)
#
#
# Indices 1 2 3 4 5 6 
#
# 1 0.014025 -0.013083 -0.000102 0.000000 0.000000 0.000000
# 2 -0.013083 0.040419 -0.007639 0.000000 0.000000 0.000000
# 3 -0.000102 -0.007639 0.012103 0.000000 0.000000 0.000000
# 4 0.000000 0.000000 0.000000 0.034830 0.000000 0.000000
# 5 0.000000 0.000000 0.000000 0.000000 0.025984 0.000000
# 6 0.000000 0.000000 0.000000 0.000000 0.000000 0.024367
#
#
# Mechanical properties :
#
#
# Convention : Reuss Voigt Hill
#
# Bulk Modulus (GPa) = 40.16331 48.93420 44.54876
# Shear Modulus (GPa) = 24.79240 32.18955 28.49098
#
# Velocity S-wave (km/s) = 3.39246 3.86556 3.63671
# Velocity P-wave (km/s) = 5.83001 6.52985 6.18983
#
# Compressibility (1/GPa) = 0.02489834
#
# Stress axis : x y z
#
# Youngs Moduli (GPa) = 71.30352 24.74088 82.62522
#
# Poissons Ratio (x) = 0.32369 0.00839
# Poissons Ratio (y) = 0.93288 0.63119
# Poissons Ratio (z) = 0.00724 0.18900
#
# Static dielectric constant tensor:
#      x y z
#    x 3.992480 0.000000 0.000000 
#    y 0.000000 3.867970 0.000000 
#    z 0.000000 0.000000 4.086840 
# 
# 
# High freq. dielectric constant tensor:
#      x y z
#    x 1.850340 0.000000 0.000000 
#    y 0.000000 1.841420 0.000000 
#    z 0.000000 0.000000 1.858370 
# 
# From -- ./inp_files/31194.got.cif
#   From: 2010.03.12/outbox.cif.g09.slc.cpg/sg20_16_cif.got.tgz:31194.got - 2010.04.14 01:38:04.
