data_PCOD8160906
_publ_section_title
;
Structure prediction by ZEFSAII (Michael W. Deem and Ramdas Pophale) SiO2 
 PCOD8160906
Probable space group: C 2 2 2
;
_chemical_formula_sum "Si O2"
_cell_formula_units_Z 64
_cell_length_a 16.461446
_cell_length_b 22.748742
_cell_length_c 8.956810
_cell_angle_alpha 90.000000
_cell_angle_beta 90.000000
_cell_angle_gamma 90.000000
_cell_volume 3354.121022
_symmetry_space_group_name_H-M "C 2 2 2"
_symmetry_group_IT_number 21
_symmetry_cell_setting 'orthorhombic'
loop_
_space_group_symop_operation_xyz
x,y,z
-x,-y,z
x,-y,-z
-x,y,-z
1/2+x,1/2+y,z
1/2-x,1/2-y,z
1/2+x,1/2-y,-z
1/2-x,1/2+y,-z
loop_
_atom_site_type_symbol
_atom_site_label
_atom_site_fract_x
_atom_site_fract_y
_atom_site_fract_z
Si Si1 0.228074 0.384634 0.187997
Si Si2 0.085235 0.296319 0.669946
Si Si3 0.097990 0.312156 0.335398
Si Si4 0.284201 0.869769 0.167269
Si Si5 0.267305 0.510350 0.161528
Si Si6 0.450967 0.448468 0.846131
Si Si7 0.830874 0.783918 0.125544
Si Si8 0.388730 0.675957 0.182893
O O1 0.145920 0.368992 0.275733
O O2 0.256119 0.448743 0.247888
O O3 0.300725 0.339167 0.225868
O O4 0.215923 0.377961 0.010531
O O5 0.124285 0.299534 0.505663
O O6 0.137505 0.333493 0.786494
O O7 0.077727 0.228296 0.715818
O O8 0.997071 0.325934 0.673308
O O9 0.116980 0.256159 0.234030
O O10 0.281378 0.935712 0.239660
O O11 0.204875 0.835609 0.225125
O O12 0.359993 0.528771 0.134498
O O13 0.227236 0.500000 0.000000
O O14 0.500000 0.500000 0.751503
O O15 0.444933 0.381767 0.782254
O O16 0.500000 0.443395 0.000000
O O17 0.750000 0.750000 0.062980
O O18 0.889790 0.805171 0.991923
#
# Coordination Sequence:
#
# PCOD8160906 Si02
#       8
#     8   8   8   8   8   8   8   8
#     4   9  18  34  56  79 108 138 176 227 270 337
#     4  11  22  37  52  72 109 144 185 236 276 328
#     4  10  23  36  50  76 104 144 187 230 286 322
#     4   9  19  34  55  80 106 139 177 225 272 329
#     4   9  16  32  52  77 110 141 172 213 269 328
#     4  10  19  28  48  87 120 145 167 212 270 331
#     4   9  18  32  51  80 107 136 177 225 273 330
#     4  10  20  31  54  83 111 141 181 216 271 331
#
# _framework density 19.081005000000001
#
# number of rings (size 3 to 8) (size 9 to 14) (size 15 to 20)
#    0.000    2.375    1.250    3.375    1.750    4.500 
#    0.000    1.250    0.000    3.750    0.000    6.125 
#    0.000    0.000    0.000    0.000    0.000    0.000 
#
# Total GULP energy -396446.345432 kJ/mol
# GULP energy per Si atom -12388.948295 kJ/mol
# Density = 1.903758 g / cm^3
# Si number density = 19.081005 Si / 1000 Ang^3
#
#
#
# Elastic Constant Matrix: (Units=GPa)
#
#
# Indices 1 2 3 4 5 6 
#
# 1 68.5589 42.1615 19.5738 0.0000 0.0000 0.0000
# 2 42.1615 147.6162 12.7535 0.0000 0.0000 0.0000
# 3 19.5738 12.7535 30.4816 0.0000 0.0000 0.0000
# 4 0.0000 0.0000 0.0000 5.5151 0.0000 0.0000
# 5 0.0000 0.0000 0.0000 0.0000 18.3613 0.0000
# 6 0.0000 0.0000 0.0000 0.0000 0.0000 31.8024
#
#
#
# Elastic Compliance Matrix: (Units=1/GPa)
#
#
# Indices 1 2 3 4 5 6 
#
# 1 0.020886 -0.004987 -0.011326 0.000000 0.000000 0.000000
# 2 -0.004987 0.008219 -0.000236 0.000000 0.000000 0.000000
# 3 -0.011326 -0.000236 0.040178 0.000000 0.000000 0.000000
# 4 0.000000 0.000000 0.000000 0.181319 0.000000 0.000000
# 5 0.000000 0.000000 0.000000 0.000000 0.054462 0.000000
# 6 0.000000 0.000000 0.000000 0.000000 0.000000 0.031444
#
#
# Mechanical properties :
#
#
# Convention : Reuss Voigt Hill
#
# Bulk Modulus (GPa) = 27.63525 43.95937 35.79731
# Shear Modulus (GPa) = 13.10034 22.61363 17.85698
#
# Velocity S-wave (km/s) = 2.62308 3.44632 3.06249
# Velocity P-wave (km/s) = 4.86710 6.23895 5.59522
#
# Compressibility (1/GPa) = 0.03618567
#
# Stress axis : x y z
#
# Youngs Moduli (GPa) = 47.87818 121.66763 24.88896
#
# Poissons Ratio (x) = 0.60675 0.28188
# Poissons Ratio (y) = 0.23877 0.00589
# Poissons Ratio (z) = 0.54225 0.02877
#
# Static dielectric constant tensor:
#      x y z
#    x 3.391560 0.000000 0.000000 
#    y 0.000000 4.160110 0.000000 
#    z 0.000000 0.000000 3.082830 
# 
# 
# High freq. dielectric constant tensor:
#      x y z
#    x 1.732690 0.000000 0.000000 
#    y 0.000000 1.762050 0.000000 
#    z 0.000000 0.000000 1.692030 
# 
# From -- ./inp_files/15501.got.cif
#   From: 2010.03.12/outbox.cif.g09.slc.cpg/sg21_8_cif.got.tgz:15501.got - 2010.04.14 01:59:26.
