data_PCOD8160437
_publ_section_title
;
Structure prediction by ZEFSAII (Michael W. Deem and Ramdas Pophale) SiO2 
 PCOD8160437
Probable space group: C 2 2 21
;
_chemical_formula_sum "Si O2"
_cell_formula_units_Z 64
_cell_length_a 9.282065
_cell_length_b 10.910725
_cell_length_c 28.245324
_cell_angle_alpha 90.000000
_cell_angle_beta 90.000000
_cell_angle_gamma 90.000000
_cell_volume 2860.518599
_symmetry_space_group_name_H-M "C 2 2 21"
_symmetry_group_IT_number 20
_symmetry_cell_setting 'orthorhombic'
loop_
_space_group_symop_operation_xyz
x,y,z
-x,-y,1/2+z
x,-y,-z
-x,y,1/2-z
1/2+x,1/2+y,z
1/2-x,1/2-y,1/2+z
1/2+x,1/2-y,-z
1/2-x,1/2+y,1/2-z
loop_
_atom_site_type_symbol
_atom_site_label
_atom_site_fract_x
_atom_site_fract_y
_atom_site_fract_z
Si Si1 0.838438 0.534185 0.403095
Si Si2 0.642483 0.972744 0.435690
Si Si3 0.617158 0.788539 0.816035
Si Si4 0.313316 0.843601 0.784407
Si Si5 0.675837 0.916323 0.335731
Si Si6 0.158286 0.803368 0.529184
Si Si7 0.378788 0.789456 0.358377
Si Si8 0.157858 0.818097 0.958635
O O1 0.884234 0.624136 0.361144
O O2 0.712259 0.592643 0.434461
O O3 0.789634 0.409310 0.376181
O O4 0.973109 0.507101 0.438443
O O5 0.736790 0.065277 0.467638
O O6 0.694058 0.998429 0.382428
O O7 0.667467 0.830563 0.447056
O O8 0.454777 0.768418 0.799028
O O9 0.714698 0.836469 0.771938
O O10 0.677676 0.657512 0.830246
O O11 0.184309 0.781803 0.813464
O O12 0.339109 0.988242 0.792928
O O13 0.538500 0.827441 0.341838
O O14 0.258662 0.798666 0.482058
O O15 0.994683 0.837443 0.514367
O O16 0.382863 0.700698 0.403827
#
# Coordination Sequence:
#
# PCOD8160437 Si02
#       8
#     8   8   8   8   8   8   8   8
#     4  11  22  45  70  91 134 176 222 273 335 400
#     4  11  22  46  68  93 131 174 220 275 334 394
#     4  11  23  41  67  99 129 172 217 272 330 392
#     4  11  25  42  65 100 135 168 222 273 330 397
#     4  11  22  45  71  92 133 177 219 272 331 396
#     4  12  26  45  65 101 133 173 228 279 336 406
#     4  11  23  45  69  95 130 181 219 271 339 398
#     4  12  24  44  69  97 133 175 224 279 339 397
#
# _framework density 22.373564999999999
#
# number of rings (size 3 to 8) (size 9 to 14) (size 15 to 20)
#    0.000    0.750    7.500    1.125    1.750    2.000 
#    9.000    0.000    0.000    0.000    0.000    0.000 
#    0.000    0.000    0.000    0.000    0.000    0.000 
#
# Total GULP energy -396673.240684 kJ/mol
# GULP energy per Si atom -12396.038771 kJ/mol
# Density = 2.232264 g / cm^3
# Si number density = 22.373565 Si / 1000 Ang^3
#
#
#
# Elastic Constant Matrix: (Units=GPa)
#
#
# Indices 1 2 3 4 5 6 
#
# 1 98.2783 31.9769 4.0808 0.0000 0.0000 0.0000
# 2 31.9769 82.4467 -7.1116 0.0000 0.0000 0.0000
# 3 4.0808 -7.1116 31.3379 0.0000 0.0000 0.0000
# 4 0.0000 0.0000 0.0000 23.6290 0.0000 0.0000
# 5 0.0000 0.0000 0.0000 0.0000 29.1350 0.0000
# 6 0.0000 0.0000 0.0000 0.0000 0.0000 33.7623
#
#
#
# Elastic Compliance Matrix: (Units=1/GPa)
#
#
# Indices 1 2 3 4 5 6 
#
# 1 0.011855 -0.004826 -0.002639 0.000000 0.000000 0.000000
# 2 -0.004826 0.014335 0.003882 0.000000 0.000000 0.000000
# 3 -0.002639 0.003882 0.033135 0.000000 0.000000 0.000000
# 4 0.000000 0.000000 0.000000 0.042321 0.000000 0.000000
# 5 0.000000 0.000000 0.000000 0.000000 0.034323 0.000000
# 6 0.000000 0.000000 0.000000 0.000000 0.000000 0.029619
#
#
# Mechanical properties :
#
#
# Convention : Reuss Voigt Hill
#
# Bulk Modulus (GPa) = 19.17198 29.99501 24.58349
# Shear Modulus (GPa) = 26.29646 29.51303 27.90475
#
# Velocity S-wave (km/s) = 3.43204 3.63589 3.53543
# Velocity P-wave (km/s) = 4.92877 5.57331 5.26092
#
# Compressibility (1/GPa) = 0.05215945
#
# Stress axis : x y z
#
# Youngs Moduli (GPa) = 84.35380 69.75723 30.17988
#
# Poissons Ratio (x) = 0.33661 0.07964
# Poissons Ratio (y) = 0.40705 -0.11714
# Poissons Ratio (z) = 0.22259 -0.27077
#
# Static dielectric constant tensor:
#      x y z
#    x 4.003380 0.000000 0.000000 
#    y 0.000000 3.959160 0.000000 
#    z 0.000000 0.000000 4.340480 
# 
# 
# High freq. dielectric constant tensor:
#      x y z
#    x 1.870950 0.000000 0.000000 
#    y 0.000000 1.879480 0.000000 
#    z 0.000000 0.000000 1.892500 
# 
# From -- ./inp_files/31058.got.cif
#   From: 2010.03.12/outbox.cif.g09.slc.cpg/sg20_16_cif.got.tgz:31058.got - 2010.04.14 01:38:04.
