data_PCOD8160468
_publ_section_title
;
Structure prediction by ZEFSAII (Michael W. Deem and Ramdas Pophale) SiO2 
 PCOD8160468
Probable space group: C 2 2 21
;
_chemical_formula_sum "Si O2"
_cell_formula_units_Z 24
_cell_length_a 16.792966
_cell_length_b 12.595246
_cell_length_c 4.875039
_cell_angle_alpha 90.000000
_cell_angle_beta 90.000000
_cell_angle_gamma 90.000000
_cell_volume 1031.126996
_symmetry_space_group_name_H-M "C 2 2 21"
_symmetry_group_IT_number 20
_symmetry_cell_setting 'orthorhombic'
loop_
_space_group_symop_operation_xyz
x,y,z
-x,-y,1/2+z
x,-y,-z
-x,y,1/2-z
1/2+x,1/2+y,z
1/2-x,1/2-y,1/2+z
1/2+x,1/2-y,-z
1/2-x,1/2+y,1/2-z
loop_
_atom_site_type_symbol
_atom_site_label
_atom_site_fract_x
_atom_site_fract_y
_atom_site_fract_z
Si Si1 0.337626 0.426662 0.249942
Si Si2 0.411021 0.213264 0.332403
Si Si3 0.836047 0.389441 0.153151
O O1 0.318583 0.500000 0.500000
O O2 0.401574 0.340727 0.360130
O O3 0.249344 0.379135 0.195815
O O4 0.369474 0.500000 0.000000
O O5 0.500000 0.183509 0.250000
O O6 0.396271 0.142814 0.602753
O O7 0.347098 0.194807 0.089463
O O8 0.857439 0.500000 0.000000
#
# Coordination Sequence:
#
# PCOD8160468 Si02
#       3
#     8   8   8
#     4  11  23  42  68  94 124 167 217 265 313 375
#     4  12  25  41  65  96 132 168 206 263 326 382
#     4  11  23  43  66  92 126 169 218 262 311 377
#
# _framework density 23.275500999999998
#
# number of rings (size 3 to 8) (size 9 to 14) (size 15 to 20)
#    0.000    0.667    0.000   10.000    0.000    4.000 
#    0.000    1.667    0.000    0.000    0.000    0.000 
#    0.000    0.000    0.000    0.000    0.000    0.000 
#
# Total GULP energy -148681.970425 kJ/mol
# GULP energy per Si atom -12390.164202 kJ/mol
# Density = 2.322253 g / cm^3
# Si number density = 23.275501 Si / 1000 Ang^3
#
#
#
# Elastic Constant Matrix: (Units=GPa)
#
#
# Indices 1 2 3 4 5 6 
#
# 1 47.9500 57.4865 37.3502 0.0000 0.0000 0.0000
# 2 57.4865 84.7225 38.2889 0.0000 0.0000 0.0000
# 3 37.3502 38.2889 142.3220 0.0000 0.0000 0.0000
# 4 0.0000 0.0000 0.0000 36.5552 0.0000 0.0000
# 5 0.0000 0.0000 0.0000 0.0000 29.3703 0.0000
# 6 0.0000 0.0000 0.0000 0.0000 0.0000 -52.0256
#
#
#
# Elastic Compliance Matrix: (Units=1/GPa)
#
#
# Indices 1 2 3 4 5 6 
#
# 1 0.126425 -0.080586 -0.011498 0.000000 0.000000 0.000000
# 2 -0.080586 0.064805 0.003714 0.000000 0.000000 0.000000
# 3 -0.011498 0.003714 0.009045 0.000000 0.000000 0.000000
# 4 0.000000 0.000000 0.000000 0.027356 0.000000 0.000000
# 5 0.000000 0.000000 0.000000 0.000000 0.034048 0.000000
# 6 0.000000 0.000000 0.000000 0.000000 0.000000 -0.019221
#
#
# Mechanical properties :
#
#
# Convention : Reuss Voigt Hill
#
# Bulk Modulus (GPa) = 42.49217 60.13840 51.31528
# Shear Modulus (GPa) = 11.70846 12.23792 11.97319
#
# Velocity S-wave (km/s) = 2.24528 2.29549 2.27053
# Velocity P-wave (km/s) = 5.00175 5.73754 5.38224
#
# Compressibility (1/GPa) = 0.02353375
#
# Stress axis : x y z
#
# Youngs Moduli (GPa) = 7.90984 15.43100 110.56352
#
# Poissons Ratio (x) = 1.24353 1.27127
# Poissons Ratio (y) = 0.63742 -0.41066
# Poissons Ratio (z) = 0.09095 -0.05731
#
# Static dielectric constant tensor:
#      x y z
#    x 3.872250 0.000000 0.000000 
#    y 0.000000 4.235040 0.000000 
#    z 0.000000 0.000000 4.288360 
# 
# 
# High freq. dielectric constant tensor:
#      x y z
#    x 1.901380 0.000000 0.000000 
#    y 0.000000 1.930890 0.000000 
#    z 0.000000 0.000000 1.933810 
# 
# From -- ./inp_files/855.got.cif
#   From: 2010.03.12/outbox.cif.g09.slc.cpg/sg20_1_cif.got.tgz:855.got - 2010.04.14 01:38:04.
