data_PCOD8160402
_publ_section_title
;
Structure prediction by ZEFSAII (Michael W. Deem and Ramdas Pophale) SiO2 
 PCOD8160402
Probable space group: C 2 2 21
;
_chemical_formula_sum "Si O2"
_cell_formula_units_Z 60
_cell_length_a 26.218978
_cell_length_b 8.603292
_cell_length_c 12.031658
_cell_angle_alpha 90.000000
_cell_angle_beta 90.000000
_cell_angle_gamma 90.000000
_cell_volume 2713.975364
_symmetry_space_group_name_H-M "C 2 2 21"
_symmetry_group_IT_number 20
_symmetry_cell_setting 'orthorhombic'
loop_
_space_group_symop_operation_xyz
x,y,z
-x,-y,1/2+z
x,-y,-z
-x,y,1/2-z
1/2+x,1/2+y,z
1/2-x,1/2-y,1/2+z
1/2+x,1/2-y,-z
1/2-x,1/2+y,1/2-z
loop_
_atom_site_type_symbol
_atom_site_label
_atom_site_fract_x
_atom_site_fract_y
_atom_site_fract_z
Si Si1 0.098846 0.309304 0.269126
Si Si2 0.212601 0.311800 0.203438
Si Si3 0.217888 0.971079 0.121931
Si Si4 0.299876 0.000000 0.500000
Si Si5 0.943292 0.353670 0.788954
Si Si6 0.439613 0.317973 0.982098
Si Si7 0.129917 0.741520 0.105235
Si Si8 0.554021 0.663139 0.063389
O O1 0.154706 0.360617 0.229558
O O2 0.063379 0.462149 0.274803
O O3 0.101775 0.235658 0.391607
O O4 0.074155 0.176165 0.189630
O O5 0.248245 0.352256 0.307128
O O6 0.231513 0.389281 0.085699
O O7 0.214782 0.127701 0.191646
O O8 0.161076 0.903144 0.104157
O O9 0.242470 0.000000 0.000000
O O10 0.331484 0.101131 0.412256
O O11 0.932739 0.290678 0.911522
O O12 0.900643 0.264014 0.719201
O O13 0.000000 0.304861 0.750000
O O14 0.430882 0.500000 0.000000
O O15 0.495802 0.284132 0.934828
O O16 0.089553 0.720113 0.005446
O O17 0.560224 0.500000 0.000000
#
# Coordination Sequence:
#
# PCOD8160402 Si02
#       8
#     8   8   8   4   8   8   8   8
#     4  12  25  45  70 103 148 185 241 293 369 431
#     4  12  27  47  76 107 139 191 237 310 364 440
#     4  12  27  49  76 106 145 183 247 300 376 429
#     4  12  22  46  74 108 138 182 248 296 352 436
#     4  12  25  43  70 104 147 191 238 297 360 430
#     4  11  27  42  64 101 146 192 239 292 356 428
#     4  12  22  44  74 103 139 186 242 294 350 424
#     4  11  22  41  73 101 137 188 238 293 347 427
#
# _framework density 22.107790999999999
#
# number of rings (size 3 to 8) (size 9 to 14) (size 15 to 20)
#    0.000    0.267    5.333    3.600    3.733    1.067 
#    0.000    0.000    0.000    0.000    0.000    0.000 
#    0.000    0.000    0.000    0.000    0.000    0.000 
#
# Total GULP energy -371985.223051 kJ/mol
# GULP energy per Si atom -12399.507435 kJ/mol
# Density = 2.205747 g / cm^3
# Si number density = 22.107791 Si / 1000 Ang^3
#
#
#
# Elastic Constant Matrix: (Units=GPa)
#
#
# Indices 1 2 3 4 5 6 
#
# 1 58.2746 20.4442 39.6234 0.0000 0.0000 0.0000
# 2 20.4442 111.0632 45.5459 0.0000 0.0000 0.0000
# 3 39.6234 45.5459 166.0075 0.0000 0.0000 0.0000
# 4 0.0000 0.0000 0.0000 46.8451 0.0000 0.0000
# 5 0.0000 0.0000 0.0000 0.0000 34.0884 0.0000
# 6 0.0000 0.0000 0.0000 0.0000 0.0000 16.0305
#
#
#
# Elastic Compliance Matrix: (Units=1/GPa)
#
#
# Indices 1 2 3 4 5 6 
#
# 1 0.020882 -0.002028 -0.004428 0.000000 0.000000 0.000000
# 2 -0.002028 0.010342 -0.002353 0.000000 0.000000 0.000000
# 3 -0.004428 -0.002353 0.007726 0.000000 0.000000 0.000000
# 4 0.000000 0.000000 0.000000 0.021347 0.000000 0.000000
# 5 0.000000 0.000000 0.000000 0.000000 0.029335 0.000000
# 6 0.000000 0.000000 0.000000 0.000000 0.000000 0.062381
#
#
# Mechanical properties :
#
#
# Convention : Reuss Voigt Hill
#
# Bulk Modulus (GPa) = 46.87752 60.73026 53.80389
# Shear Modulus (GPa) = 28.28947 34.70825 31.49886
#
# Velocity S-wave (km/s) = 3.58105 3.96657 3.77873
# Velocity P-wave (km/s) = 6.19263 6.96476 6.59001
#
# Compressibility (1/GPa) = 0.02133219
#
# Stress axis : x y z
#
# Youngs Moduli (GPa) = 47.88736 96.68992 129.42680
#
# Poissons Ratio (x) = 0.19610 0.57308
# Poissons Ratio (y) = 0.09712 0.30460
# Poissons Ratio (z) = 0.21204 0.22755
#
# Static dielectric constant tensor:
#      x y z
#    x 3.905620 0.000000 0.000000 
#    y 0.000000 3.970170 0.000000 
#    z 0.000000 0.000000 4.181180 
# 
# 
# High freq. dielectric constant tensor:
#      x y z
#    x 1.852150 0.000000 0.000000 
#    y 0.000000 1.881170 0.000000 
#    z 0.000000 0.000000 1.883940 
# 
# From -- ./inp_files/17063.got.cif
#   From: 2010.03.12/outbox.cif.g09.slc.cpg/sg20_9_cif.got.tgz:17063.got - 2010.04.14 01:38:04.
