data_PCOD8160527
_publ_section_title
;
Structure prediction by ZEFSAII (Michael W. Deem and Ramdas Pophale) SiO2 
 PCOD8160527
Probable space group: C 2 2 21
;
_chemical_formula_sum "Si O2"
_cell_formula_units_Z 40
_cell_length_a 8.975843
_cell_length_b 17.705313
_cell_length_c 11.982970
_cell_angle_alpha 90.000000
_cell_angle_beta 90.000000
_cell_angle_gamma 90.000000
_cell_volume 1904.334908
_symmetry_space_group_name_H-M "C 2 2 21"
_symmetry_group_IT_number 20
_symmetry_cell_setting 'orthorhombic'
loop_
_space_group_symop_operation_xyz
x,y,z
-x,-y,1/2+z
x,-y,-z
-x,y,1/2-z
1/2+x,1/2+y,z
1/2-x,1/2-y,1/2+z
1/2+x,1/2-y,-z
1/2-x,1/2+y,1/2-z
loop_
_atom_site_type_symbol
_atom_site_label
_atom_site_fract_x
_atom_site_fract_y
_atom_site_fract_z
Si Si1 0.852534 0.424114 0.940753
Si Si2 0.346425 0.159364 0.437040
Si Si3 0.645565 0.664816 0.890548
Si Si4 0.681474 0.612270 0.647323
Si Si5 0.330031 0.555630 0.219624
O O1 0.766016 0.448087 0.830755
O O2 0.994121 0.374929 0.905926
O O3 0.908984 0.500000 0.000000
O O4 0.746282 0.376517 0.019907
O O5 0.352717 0.247351 0.414953
O O6 0.309433 0.143707 0.566428
O O7 0.219665 0.123756 0.359322
O O8 0.709102 0.650191 0.767130
O O9 0.479467 0.633047 0.901798
O O10 0.691928 0.522142 0.653362
O O11 0.500000 0.569717 0.250000
#
# Coordination Sequence:
#
# PCOD8160527 Si02
#       5
#     8   8   8   8   8
#     4  12  24  45  69 104 138 176 228 280 344 402
#     4  12  28  41  72 104 142 171 227 295 346 391
#     4  11  25  46  71 100 137 186 223 284 337 416
#     4  11  23  48  69  96 140 185 232 267 344 417
#     4  12  24  45  73 100 132 189 234 272 331 422
#
# _framework density 21.004709999999999
#
# number of rings (size 3 to 8) (size 9 to 14) (size 15 to 20)
#    0.000    0.400    4.000    4.800    8.400    0.800 
#    0.000    0.000    0.000    0.000    0.000    0.000 
#    0.000    0.000    0.000    0.000    0.000    0.000 
#
# Total GULP energy -248171.526137 kJ/mol
# GULP energy per Si atom -12408.576307 kJ/mol
# Density = 2.095690 g / cm^3
# Si number density = 21.004710 Si / 1000 Ang^3
#
#
#
# Elastic Constant Matrix: (Units=GPa)
#
#
# Indices 1 2 3 4 5 6 
#
# 1 91.7423 -0.6699 19.3867 0.0000 0.0000 0.0000
# 2 -0.6699 287.8716 72.3101 0.0000 0.0000 0.0000
# 3 19.3867 72.3101 93.5488 0.0000 0.0000 0.0000
# 4 0.0000 0.0000 0.0000 18.8701 0.0000 0.0000
# 5 0.0000 0.0000 0.0000 0.0000 39.2372 0.0000
# 6 0.0000 0.0000 0.0000 0.0000 0.0000 31.2387
#
#
#
# Elastic Compliance Matrix: (Units=1/GPa)
#
#
# Indices 1 2 3 4 5 6 
#
# 1 0.011538 0.000779 -0.002993 0.000000 0.000000 0.000000
# 2 0.000779 0.004363 -0.003534 0.000000 0.000000 0.000000
# 3 -0.002993 -0.003534 0.014042 0.000000 0.000000 0.000000
# 4 0.000000 0.000000 0.000000 0.052994 0.000000 0.000000
# 5 0.000000 0.000000 0.000000 0.000000 0.025486 0.000000
# 6 0.000000 0.000000 0.000000 0.000000 0.000000 0.032012
#
#
# Mechanical properties :
#
#
# Convention : Reuss Voigt Hill
#
# Bulk Modulus (GPa) = 54.21138 72.80183 63.50660
# Shear Modulus (GPa) = 31.62954 43.34494 37.48724
#
# Velocity S-wave (km/s) = 3.88471 4.54759 4.22916
# Velocity P-wave (km/s) = 6.78134 7.89362 7.35852
#
# Compressibility (1/GPa) = 0.01844631
#
# Stress axis : x y z
#
# Youngs Moduli (GPa) = 86.66822 229.18453 71.21708
#
# Poissons Ratio (x) = -0.17846 0.21315
# Poissons Ratio (y) = -0.06749 0.25168
# Poissons Ratio (z) = 0.25940 0.80995
#
# Static dielectric constant tensor:
#      x y z
#    x 3.947700 0.000000 0.000000 
#    y 0.000000 3.796470 0.000000 
#    z 0.000000 0.000000 4.022030 
# 
# 
# High freq. dielectric constant tensor:
#      x y z
#    x 1.828890 0.000000 0.000000 
#    y 0.000000 1.838970 0.000000 
#    z 0.000000 0.000000 1.839490 
# 
# From -- ./inp_files/12656.got.cif
#   From: 2010.03.12/outbox.cif.g09.slc.cpg/sg20_7_cif.got.tgz:12656.got - 2010.04.14 01:38:04.
