data_PCOD8160935
_publ_section_title
;
Structure prediction by ZEFSAII (Michael W. Deem and Ramdas Pophale) SiO2 
 PCOD8160935
Probable space group: C 2 2 2
;
_chemical_formula_sum "Si O2"
_cell_formula_units_Z 56
_cell_length_a 5.075146
_cell_length_b 16.763229
_cell_length_c 33.176683
_cell_angle_alpha 90.000000
_cell_angle_beta 90.000000
_cell_angle_gamma 90.000000
_cell_volume 2822.533996
_symmetry_space_group_name_H-M "C 2 2 2"
_symmetry_group_IT_number 21
_symmetry_cell_setting 'orthorhombic'
loop_
_space_group_symop_operation_xyz
x,y,z
-x,-y,z
x,-y,-z
-x,y,-z
1/2+x,1/2+y,z
1/2-x,1/2-y,z
1/2+x,1/2-y,-z
1/2-x,1/2+y,-z
loop_
_atom_site_type_symbol
_atom_site_label
_atom_site_fract_x
_atom_site_fract_y
_atom_site_fract_z
Si Si1 0.748841 0.053447 0.689084
Si Si2 0.000251 0.594369 0.906330
Si Si3 0.509686 0.802505 0.830916
Si Si4 0.750896 0.344335 0.524193
Si Si5 0.501111 0.803449 0.258504
Si Si6 0.500951 0.404846 0.954653
Si Si7 0.240136 0.052528 0.400368
O O1 0.624959 0.124979 0.715302
O O2 0.829574 0.085526 0.644706
O O3 0.500000 0.000000 0.681978
O O4 0.000000 0.000000 0.706893
O O5 0.244547 0.627938 0.931671
O O6 0.000000 0.500000 0.904667
O O7 0.018556 0.622621 0.860316
O O8 0.746475 0.627659 0.929612
O O9 0.750000 0.750000 0.847049
O O10 0.580028 0.835542 0.785870
O O11 0.250000 0.750000 0.831580
O O12 0.500000 0.377370 0.500000
O O13 0.750000 0.250000 0.525953
O O14 0.764836 0.372516 0.570248
O O15 0.000000 0.377970 0.500000
O O16 0.750000 0.750000 0.251424
O O17 0.250000 0.750000 0.276326
O O18 0.500000 0.500000 0.956159
O O19 0.500000 0.370442 0.000000
O O20 0.500000 0.000000 0.401290
O O21 0.000000 0.000000 0.416449
#
# Coordination Sequence:
#
# PCOD8160935 Si02
#       7
#     8   8   8   8   8   8   8
#     4  10  21  38  58  84 116 145 179 232 286 327
#     4  10  19  32  53  79 101 131 177 217 256 312
#     4  10  21  37  55  76 108 143 173 215 270 321
#     4  10  21  36  53  77 108 141 181 227 270 314
#     4  10  21  38  59  83 109 146 191 224 267 338
#     4   9  17  30  50  76 104 132 168 217 263 305
#     4  10  21  36  55  80 109 142 180 220 272 333
#
# _framework density 19.840329000000001
#
# number of rings (size 3 to 8) (size 9 to 14) (size 15 to 20)
#    0.000    2.143    0.000    3.000    0.000    4.571 
#    0.000    4.286    0.000    8.571    0.000    0.000 
#    0.000    0.000    0.000    0.000    0.000    0.000 
#
# Total GULP energy -346911.490680 kJ/mol
# GULP energy per Si atom -12389.696096 kJ/mol
# Density = 1.979517 g / cm^3
# Si number density = 19.840329 Si / 1000 Ang^3
#
#
#
# Elastic Constant Matrix: (Units=GPa)
#
#
# Indices 1 2 3 4 5 6 
#
# 1 158.8581 32.8759 43.7472 0.0000 0.0000 0.0000
# 2 32.8759 47.0676 54.0758 0.0000 0.0000 0.0000
# 3 43.7472 54.0758 136.5013 0.0000 0.0000 0.0000
# 4 0.0000 0.0000 0.0000 -34.6108 0.0000 0.0000
# 5 0.0000 0.0000 0.0000 0.0000 43.3602 0.0000
# 6 0.0000 0.0000 0.0000 0.0000 0.0000 19.2521
#
#
#
# Elastic Compliance Matrix: (Units=1/GPa)
#
#
# Indices 1 2 3 4 5 6 
#
# 1 0.007385 -0.004476 -0.000593 0.000000 0.000000 0.000000
# 2 -0.004476 0.041707 -0.015088 0.000000 0.000000 0.000000
# 3 -0.000593 -0.015088 0.013493 0.000000 0.000000 0.000000
# 4 0.000000 0.000000 0.000000 -0.028893 0.000000 0.000000
# 5 0.000000 0.000000 0.000000 0.000000 0.023063 0.000000
# 6 0.000000 0.000000 0.000000 0.000000 0.000000 0.051942
#
#
# Mechanical properties :
#
#
# Convention : Reuss Voigt Hill
#
# Bulk Modulus (GPa) = 44.90378 67.09165 55.99771
# Shear Modulus (GPa) = 31.96196 19.71551 25.83873
#
# Velocity S-wave (km/s) = 4.01803 3.15573 3.61270
# Velocity P-wave (km/s) = 6.64889 6.86785 6.75926
#
# Compressibility (1/GPa) = 0.02226984
#
# Stress axis : x y z
#
# Youngs Moduli (GPa) = 135.41464 23.97670 74.11095
#
# Poissons Ratio (x) = 0.10733 0.04398
# Poissons Ratio (y) = 0.60616 1.11818
# Poissons Ratio (z) = 0.08035 0.36176
#
# Static dielectric constant tensor:
#      x y z
#    x 4.079000 0.000000 0.000000 
#    y 0.000000 3.077780 0.000000 
#    z 0.000000 0.000000 3.948360 
# 
# 
# High freq. dielectric constant tensor:
#      x y z
#    x 1.798930 0.000000 0.000000 
#    y 0.000000 1.740790 0.000000 
#    z 0.000000 0.000000 1.779610 
# 
# From -- ./inp_files/39497.got.cif
#   From: 2010.03.12/outbox.cif.g09.slc.cpg/sg21_20_cif.got.tgz:39497.got - 2010.04.14 01:59:26.
