data_PCOD8160673
_publ_section_title
;
Structure prediction by ZEFSAII (Michael W. Deem and Ramdas Pophale) SiO2 
 PCOD8160673
Probable space group: C 2 2 21
;
_chemical_formula_sum "Si O2"
_cell_formula_units_Z 40
_cell_length_a 8.664101
_cell_length_b 26.062806
_cell_length_c 8.168717
_cell_angle_alpha 90.000000
_cell_angle_beta 90.000000
_cell_angle_gamma 90.000000
_cell_volume 1844.584386
_symmetry_space_group_name_H-M "C 2 2 21"
_symmetry_group_IT_number 20
_symmetry_cell_setting 'orthorhombic'
loop_
_space_group_symop_operation_xyz
x,y,z
-x,-y,1/2+z
x,-y,-z
-x,y,1/2-z
1/2+x,1/2+y,z
1/2-x,1/2-y,1/2+z
1/2+x,1/2-y,-z
1/2-x,1/2+y,1/2-z
loop_
_atom_site_type_symbol
_atom_site_label
_atom_site_fract_x
_atom_site_fract_y
_atom_site_fract_z
Si Si1 0.156255 0.365815 0.503155
Si Si2 0.000000 0.435049 0.750000
Si Si3 0.673488 0.817711 0.027887
Si Si4 0.175146 0.091729 0.697654
Si Si5 0.805802 0.500000 0.500000
Si Si6 0.825679 0.787209 0.700742
O O1 0.213378 0.401418 0.354262
O O2 0.284466 0.323165 0.546168
O O3 0.129726 0.400615 0.662744
O O4 0.999993 0.337417 0.451651
O O5 0.916733 0.467883 0.614399
O O6 0.705215 0.798504 0.845195
O O7 0.792171 0.863128 0.068656
O O8 0.698131 0.771925 0.155369
O O9 0.201352 0.036896 0.611554
O O10 0.000000 0.094530 0.750000
O O11 0.000000 0.799364 0.750000
#
# Coordination Sequence:
#
# PCOD8160673 Si02
#       6
#     8   4   8   8   4   8
#     4  12  24  46  72 103 142 188 238 288 348 430
#     4  12  24  46  74 104 136 182 242 294 346 422
#     4  12  24  45  66 105 140 192 239 283 349 425
#     4  12  27  46  72 103 143 182 235 300 358 412
#     4  12  26  46  74 104 136 184 240 292 362 410
#     4  12  24  40  68 104 147 189 236 288 352 413
#
# _framework density 21.685103000000002
#
# number of rings (size 3 to 8) (size 9 to 14) (size 15 to 20)
#    0.000    0.000    4.000    6.600    0.000    3.200 
#    0.000    1.000    0.000    0.000    0.000    0.000 
#    0.000    0.000    0.000    0.000    0.000    0.000 
#
# Total GULP energy -248154.453917 kJ/mol
# GULP energy per Si atom -12407.722696 kJ/mol
# Density = 2.163575 g / cm^3
# Si number density = 21.685103 Si / 1000 Ang^3
#
#
#
# Elastic Constant Matrix: (Units=GPa)
#
#
# Indices 1 2 3 4 5 6 
#
# 1 123.1996 61.4542 38.2609 0.0000 0.0000 0.0000
# 2 61.4542 142.3595 52.7073 0.0000 0.0000 0.0000
# 3 38.2609 52.7073 113.5626 0.0000 0.0000 0.0000
# 4 0.0000 0.0000 0.0000 66.8981 0.0000 0.0000
# 5 0.0000 0.0000 0.0000 0.0000 45.0256 0.0000
# 6 0.0000 0.0000 0.0000 0.0000 0.0000 -0.0606
#
#
#
# Elastic Compliance Matrix: (Units=1/GPa)
#
#
# Indices 1 2 3 4 5 6 
#
# 1 0.010625 -0.003938 -0.001752 0.000000 0.000000 0.000000
# 2 -0.003938 0.009942 -0.003287 0.000000 0.000000 0.000000
# 3 -0.001752 -0.003287 0.010922 0.000000 0.000000 0.000000
# 4 0.000000 0.000000 0.000000 0.014948 0.000000 0.000000
# 5 0.000000 0.000000 0.000000 0.000000 0.022210 0.000000
# 6 0.000000 0.000000 0.000000 0.000000 0.000000-16.499604
#
#
# Mechanical properties :
#
#
# Convention : Reuss Voigt Hill
#
# Bulk Modulus (GPa) = 73.88963 75.99630 74.94297
# Shear Modulus (GPa) = -0.30472 37.48591 18.59059
#
# Velocity S-wave (km/s) = -0.37527 4.16221 2.93114
# Velocity P-wave (km/s) = 5.82753 7.63021 6.78897
#
# Compressibility (1/GPa) = 0.01353370
#
# Stress axis : x y z
#
# Youngs Moduli (GPa) = 94.11367 100.58740 91.56036
#
# Poissons Ratio (x) = 0.39613 0.16042
# Poissons Ratio (y) = 0.37063 0.30099
# Poissons Ratio (z) = 0.16489 0.33066
#
# Static dielectric constant tensor:
#      x y z
#    x 3.818230 0.000000 0.000000 
#    y 0.000000 4.273430 0.000000 
#    z 0.000000 0.000000 6.080100 
# 
# 
# High freq. dielectric constant tensor:
#      x y z
#    x 1.849140 0.000000 0.000000 
#    y 0.000000 1.866730 0.000000 
#    z 0.000000 0.000000 1.872810 
# 
# From -- ./inp_files/6139.got.cif
#   From: 2010.03.12/outbox.cif.g09.slc.cpg/sg20_4_cif.got.tgz:6139.got - 2010.04.14 01:38:04.
