data_PCOD8160419
_publ_section_title
;
Structure prediction by ZEFSAII (Michael W. Deem and Ramdas Pophale) SiO2 
 PCOD8160419
Probable space group: C 2 2 21
;
_chemical_formula_sum "Si O2"
_cell_formula_units_Z 60
_cell_length_a 25.470722
_cell_length_b 7.799631
_cell_length_c 14.286966
_cell_angle_alpha 90.000000
_cell_angle_beta 90.000000
_cell_angle_gamma 90.000000
_cell_volume 2838.280567
_symmetry_space_group_name_H-M "C 2 2 21"
_symmetry_group_IT_number 20
_symmetry_cell_setting 'orthorhombic'
loop_
_space_group_symop_operation_xyz
x,y,z
-x,-y,1/2+z
x,-y,-z
-x,y,1/2-z
1/2+x,1/2+y,z
1/2-x,1/2-y,1/2+z
1/2+x,1/2-y,-z
1/2-x,1/2+y,1/2-z
loop_
_atom_site_type_symbol
_atom_site_label
_atom_site_fract_x
_atom_site_fract_y
_atom_site_fract_z
Si Si1 0.442570 0.500000 0.000000
Si Si2 0.134265 0.827144 0.629572
Si Si3 0.523367 0.364775 0.148581
Si Si4 0.442814 0.714559 0.294536
Si Si5 0.408484 0.959583 0.603642
Si Si6 0.268725 0.183085 0.957651
Si Si7 0.212809 0.869457 0.353330
Si Si8 0.700257 0.872108 0.813128
O O1 0.406944 0.647912 0.045785
O O2 0.475836 0.406936 0.079558
O O3 0.103871 0.762502 0.720630
O O4 0.176971 0.682646 0.601423
O O5 0.162882 0.006392 0.651449
O O6 0.500000 0.316950 0.250000
O O7 0.562353 0.529896 0.153729
O O8 0.553716 0.203809 0.106499
O O9 0.500000 0.715906 0.250000
O O10 0.440167 0.872117 0.365149
O O11 0.359057 0.924863 0.668657
O O12 0.388278 0.000000 0.500000
O O13 0.220484 0.237603 0.891396
O O14 0.275425 0.321063 0.039863
O O15 0.255300 0.000000 0.000000
O O16 0.201405 0.704169 0.290996
O O17 0.264138 0.959560 0.311397
#
# Coordination Sequence:
#
# PCOD8160419 Si02
#       8
#     4   8   8   8   8   8   8   8
#     4  12  20  44  74  98 134 182 224 280 342 390
#     4  11  22  42  71  97 132 176 223 286 337 390
#     4  11  24  45  70  99 143 184 230 279 339 407
#     4  11  24  45  69 100 139 180 228 280 339 403
#     4  12  27  45  67 102 141 184 227 281 339 418
#     4  11  24  44  65 104 129 171 230 280 338 413
#     4  11  23  42  70  94 132 171 223 280 341 405
#     4  11  25  44  67  98 135 174 218 283 342 410
#
# _framework density 21.139561
#
# number of rings (size 3 to 8) (size 9 to 14) (size 15 to 20)
#    0.000    0.800    4.000    4.800    5.600    0.000 
#   10.800    0.000    0.000    0.000    0.000    0.000 
#    0.000    0.000    0.000    0.000    0.000    0.000 
#
# Total GULP energy -372150.745505 kJ/mol
# GULP energy per Si atom -12405.024850 kJ/mol
# Density = 2.109145 g / cm^3
# Si number density = 21.139561 Si / 1000 Ang^3
#
#
#
# Elastic Constant Matrix: (Units=GPa)
#
#
# Indices 1 2 3 4 5 6 
#
# 1 74.6646 9.9074 9.3485 0.0000 0.0000 0.0000
# 2 9.9074 86.4183 0.6275 0.0000 0.0000 0.0000
# 3 9.3485 0.6275 50.6120 0.0000 0.0000 0.0000
# 4 0.0000 0.0000 0.0000 23.9359 0.0000 0.0000
# 5 0.0000 0.0000 0.0000 0.0000 34.3116 0.0000
# 6 0.0000 0.0000 0.0000 0.0000 0.0000 20.0016
#
#
#
# Elastic Compliance Matrix: (Units=1/GPa)
#
#
# Indices 1 2 3 4 5 6 
#
# 1 0.013922 -0.001578 -0.002552 0.000000 0.000000 0.000000
# 2 -0.001578 0.011751 0.000146 0.000000 0.000000 0.000000
# 3 -0.002552 0.000146 0.020228 0.000000 0.000000 0.000000
# 4 0.000000 0.000000 0.000000 0.041778 0.000000 0.000000
# 5 0.000000 0.000000 0.000000 0.000000 0.029145 0.000000
# 6 0.000000 0.000000 0.000000 0.000000 0.000000 0.049996
#
#
# Mechanical properties :
#
#
# Convention : Reuss Voigt Hill
#
# Bulk Modulus (GPa) = 26.36189 27.94018 27.15104
# Shear Modulus (GPa) = 26.67630 28.43725 27.55678
#
# Velocity S-wave (km/s) = 3.55620 3.67170 3.61441
# Velocity P-wave (km/s) = 5.41844 5.58756 5.50365
#
# Compressibility (1/GPa) = 0.03793355
#
# Stress axis : x y z
#
# Youngs Moduli (GPa) = 71.82835 85.09609 49.43709
#
# Poissons Ratio (x) = 0.13424 0.12616
# Poissons Ratio (y) = 0.11331 -0.00720
# Poissons Ratio (z) = 0.18330 -0.01240
#
# Static dielectric constant tensor:
#      x y z
#    x 3.840670 0.000000 0.000000 
#    y 0.000000 3.888350 0.000000 
#    z 0.000000 0.000000 3.973760 
# 
# 
# High freq. dielectric constant tensor:
#      x y z
#    x 1.831140 0.000000 0.000000 
#    y 0.000000 1.827930 0.000000 
#    z 0.000000 0.000000 1.842670 
# 
# From -- ./inp_files/22022.got.cif
#   From: 2010.03.12/outbox.cif.g09.slc.cpg/sg20_12_cif.got.tgz:22022.got - 2010.04.14 01:38:04.
