data_PCOD8160013
_publ_section_title
;
Structure prediction by ZEFSAII (Michael W. Deem and Ramdas Pophale) SiO2 
 PCOD8160013
Probable space group: C 2 2 21
;
_chemical_formula_sum "Si O2"
_cell_formula_units_Z 32
_cell_length_a 8.759675
_cell_length_b 19.682789
_cell_length_c 8.069357
_cell_angle_alpha 90.000000
_cell_angle_beta 90.000000
_cell_angle_gamma 90.000000
_cell_volume 1391.276854
_symmetry_space_group_name_H-M "C 2 2 21"
_symmetry_group_IT_number 20
_symmetry_cell_setting 'orthorhombic'
loop_
_space_group_symop_operation_xyz
x,y,z
-x,-y,1/2+z
x,-y,-z
-x,y,1/2-z
1/2+x,1/2+y,z
1/2-x,1/2-y,1/2+z
1/2+x,1/2-y,-z
1/2-x,1/2+y,1/2-z
loop_
_atom_site_type_symbol
_atom_site_label
_atom_site_fract_x
_atom_site_fract_y
_atom_site_fract_z
Si Si1 0.500000 0.448449 0.750000
Si Si2 0.466977 0.883457 0.058823
Si Si3 0.641450 0.763466 0.636538
Si Si4 0.769030 0.000000 0.500000
Si Si5 0.770430 0.853446 0.909896
O O1 0.375446 0.496074 0.662191
O O2 0.415562 0.402389 0.888770
O O3 0.500000 0.894866 0.250000
O O4 0.411648 0.806731 0.023424
O O5 0.617050 0.897397 0.944799
O O6 0.334610 0.933592 0.000904
O O7 0.500000 0.742353 0.750000
O O8 0.759186 0.808371 0.743254
O O9 0.715177 0.694135 0.571899
#
# Coordination Sequence:
#
# PCOD8160013 Si02
#       5
#     4   8   8   4   8
#     4  12  30  48  72 102 148 188 250 300 358 422
#     4  11  26  45  75 102 143 196 242 291 366 428
#     4  10  23  43  73 110 149 185 234 294 372 429
#     4  12  30  50  72 100 146 196 250 300 354 430
#     4  11  25  45  74 109 147 186 238 303 362 441
#
# _framework density 23.000454000000001
#
# number of rings (size 3 to 8) (size 9 to 14) (size 15 to 20)
#    0.000    1.000    2.500    1.500   15.750    2.000 
#    0.000    0.000    0.000    0.000    0.000    0.000 
#    0.000    0.000    0.000    0.000    0.000    0.000 
#
# Total GULP energy -198477.228356 kJ/mol
# GULP energy per Si atom -12404.826772 kJ/mol
# Density = 2.294810 g / cm^3
# Si number density = 23.000454 Si / 1000 Ang^3
#
#
#
# Elastic Constant Matrix: (Units=GPa)
#
#
# Indices 1 2 3 4 5 6 
#
# 1 140.9316 61.0549 38.5993 0.0000 0.0000 0.0000
# 2 61.0549 75.1362 31.3196 0.0000 0.0000 0.0000
# 3 38.5993 31.3196 98.1051 0.0000 0.0000 0.0000
# 4 0.0000 0.0000 0.0000 28.7582 0.0000 0.0000
# 5 0.0000 0.0000 0.0000 0.0000 41.2182 0.0000
# 6 0.0000 0.0000 0.0000 0.0000 0.0000 38.6444
#
#
#
# Elastic Compliance Matrix: (Units=1/GPa)
#
#
# Indices 1 2 3 4 5 6 
#
# 1 0.011200 -0.008379 -0.001732 0.000000 0.000000 0.000000
# 2 -0.008379 0.021621 -0.003606 0.000000 0.000000 0.000000
# 3 -0.001732 -0.003606 0.012026 0.000000 0.000000 0.000000
# 4 0.000000 0.000000 0.000000 0.034773 0.000000 0.000000
# 5 0.000000 0.000000 0.000000 0.000000 0.024261 0.000000
# 6 0.000000 0.000000 0.000000 0.000000 0.000000 0.025877
#
#
# Mechanical properties :
#
#
# Convention : Reuss Voigt Hill
#
# Bulk Modulus (GPa) = 57.42618 64.01338 60.71978
# Shear Modulus (GPa) = 30.67587 33.93743 32.30665
#
# Velocity S-wave (km/s) = 3.65596 3.84541 3.75188
# Velocity P-wave (km/s) = 6.54546 6.89985 6.72499
#
# Compressibility (1/GPa) = 0.01741366
#
# Stress axis : x y z
#
# Youngs Moduli (GPa) = 89.28610 46.25145 83.15654
#
# Poissons Ratio (x) = 0.38755 0.14399
# Poissons Ratio (y) = 0.74814 0.29983
# Poissons Ratio (z) = 0.15461 0.16676
#
# Static dielectric constant tensor:
#      x y z
#    x 4.315230 0.000000 0.000000 
#    y 0.000000 3.920720 0.000000 
#    z 0.000000 0.000000 4.029800 
# 
# 
# High freq. dielectric constant tensor:
#      x y z
#    x 1.923760 0.000000 0.000000 
#    y 0.000000 1.891600 0.000000 
#    z 0.000000 0.000000 1.912840 
# 
# From -- ./inp_files/5844.got.cif
#   From: 2010.03.12/outbox.cif.g09.slc.cpg/sg20_3_cif.got.tgz:5844.got - 2010.04.14 01:38:04.
