data_PCOD8160433
_publ_section_title
;
Structure prediction by ZEFSAII (Michael W. Deem and Ramdas Pophale) SiO2 
 PCOD8160433
Probable space group: C 2 2 21
;
_chemical_formula_sum "Si O2"
_cell_formula_units_Z 56
_cell_length_a 14.399527
_cell_length_b 11.464291
_cell_length_c 14.881897
_cell_angle_alpha 90.000000
_cell_angle_beta 90.000000
_cell_angle_gamma 90.000000
_cell_volume 2456.709030
_symmetry_space_group_name_H-M "C 2 2 21"
_symmetry_group_IT_number 20
_symmetry_cell_setting 'orthorhombic'
loop_
_space_group_symop_operation_xyz
x,y,z
-x,-y,1/2+z
x,-y,-z
-x,y,1/2-z
1/2+x,1/2+y,z
1/2-x,1/2-y,1/2+z
1/2+x,1/2-y,-z
1/2-x,1/2+y,1/2-z
loop_
_atom_site_type_symbol
_atom_site_label
_atom_site_fract_x
_atom_site_fract_y
_atom_site_fract_z
Si Si1 0.129175 0.452024 0.123046
Si Si2 0.661960 0.191612 0.521812
Si Si3 0.035862 0.340783 0.955659
Si Si4 0.327495 0.426952 0.075966
Si Si5 0.892891 0.016800 0.253883
Si Si6 0.361839 0.400215 0.437395
Si Si7 0.892840 0.271660 0.226904
O O1 0.068484 0.571908 0.124888
O O2 0.229973 0.493209 0.091529
O O3 0.145603 0.382905 0.216939
O O4 0.083388 0.366947 0.050598
O O5 0.575023 0.137592 0.466393
O O6 0.691185 0.300186 0.461603
O O7 0.757274 0.119563 0.526070
O O8 0.625421 0.215274 0.621583
O O9 0.066916 0.208633 0.934170
O O10 0.380714 0.431014 0.169322
O O11 0.383334 0.500000 0.000000
O O12 0.852648 0.947172 0.337167
O O13 0.000000 0.045191 0.250000
O O14 0.845631 0.146501 0.252325
O O15 0.407392 0.500000 0.500000
O O16 0.000000 0.272184 0.250000
#
# Coordination Sequence:
#
# PCOD8160433 Si02
#       7
#     8   8   8   8   8   8   8
#     4  11  22  44  69  95 141 187 241 290 357 440
#     4  12  25  43  73 108 142 187 247 302 370 428
#     4  11  24  44  72  99 139 188 237 292 369 428
#     4  12  22  44  72  98 140 190 239 299 360 444
#     4  11  26  44  70 108 145 190 242 301 374 438
#     4  12  27  47  72 108 149 187 245 308 366 437
#     4  11  23  40  69 103 138 188 242 296 359 437
#
# _framework density 22.794723000000001
#
# number of rings (size 3 to 8) (size 9 to 14) (size 15 to 20)
#    0.000    0.571    5.714    2.571    4.000    1.143 
#    0.000    2.143    0.000    0.000    0.000    0.000 
#    0.000    0.000    0.000    0.000    0.000    0.000 
#
# Total GULP energy -346909.248788 kJ/mol
# GULP energy per Si atom -12389.616028 kJ/mol
# Density = 2.274284 g / cm^3
# Si number density = 22.794723 Si / 1000 Ang^3
#
#
#
# Elastic Constant Matrix: (Units=GPa)
#
#
# Indices 1 2 3 4 5 6 
#
# 1 75.2137 15.0674 14.3173 0.0000 0.0000 0.0000
# 2 15.0674 149.4727 69.2240 0.0000 0.0000 0.0000
# 3 14.3173 69.2240 137.5264 0.0000 0.0000 0.0000
# 4 0.0000 0.0000 0.0000 41.1766 0.0000 0.0000
# 5 0.0000 0.0000 0.0000 0.0000 21.0076 0.0000
# 6 0.0000 0.0000 0.0000 0.0000 0.0000 33.8439
#
#
#
# Elastic Compliance Matrix: (Units=1/GPa)
#
#
# Indices 1 2 3 4 5 6 
#
# 1 0.013664 -0.000937 -0.000951 0.000000 0.000000 0.000000
# 2 -0.000937 0.008788 -0.004326 0.000000 0.000000 0.000000
# 3 -0.000951 -0.004326 0.009548 0.000000 0.000000 0.000000
# 4 0.000000 0.000000 0.000000 0.024286 0.000000 0.000000
# 5 0.000000 0.000000 0.000000 0.000000 0.047602 0.000000
# 6 0.000000 0.000000 0.000000 0.000000 0.000000 0.029547
#
#
# Mechanical properties :
#
#
# Convention : Reuss Voigt Hill
#
# Bulk Modulus (GPa) = 51.09245 62.15891 56.62568
# Shear Modulus (GPa) = 32.81128 36.77924 34.79526
#
# Velocity S-wave (km/s) = 3.79809 4.02119 3.91123
# Velocity P-wave (km/s) = 6.45731 6.99201 6.72997
#
# Compressibility (1/GPa) = 0.01957236
#
# Stress axis : x y z
#
# Youngs Moduli (GPa) = 73.18415 113.79057 104.73632
#
# Poissons Ratio (x) = 0.10662 0.09959
# Poissons Ratio (y) = 0.06858 0.45308
# Poissons Ratio (z) = 0.06959 0.49225
#
# Static dielectric constant tensor:
#      x y z
#    x 4.423720 0.000000 0.000000 
#    y 0.000000 4.308100 0.000000 
#    z 0.000000 0.000000 4.320580 
# 
# 
# High freq. dielectric constant tensor:
#      x y z
#    x 1.901130 0.000000 0.000000 
#    y 0.000000 1.905290 0.000000 
#    z 0.000000 0.000000 1.895120 
# 
# From -- ./inp_files/20761.got.cif
#   From: 2010.03.12/outbox.cif.g09.slc.cpg/sg20_11_cif.got.tgz:20761.got - 2010.04.14 01:38:04.
