data_PCOD8160148
_publ_section_title
;
Structure prediction by ZEFSAII (Michael W. Deem and Ramdas Pophale) SiO2 
 PCOD8160148
Probable space group: C 2 2 21
;
_chemical_formula_sum "Si O2"
_cell_formula_units_Z 56
_cell_length_a 11.021854
_cell_length_b 16.160187
_cell_length_c 15.340675
_cell_angle_alpha 90.000000
_cell_angle_beta 90.000000
_cell_angle_gamma 90.000000
_cell_volume 2732.407729
_symmetry_space_group_name_H-M "C 2 2 21"
_symmetry_group_IT_number 20
_symmetry_cell_setting 'orthorhombic'
loop_
_space_group_symop_operation_xyz
x,y,z
-x,-y,1/2+z
x,-y,-z
-x,y,1/2-z
1/2+x,1/2+y,z
1/2-x,1/2-y,1/2+z
1/2+x,1/2-y,-z
1/2-x,1/2+y,1/2-z
loop_
_atom_site_type_symbol
_atom_site_label
_atom_site_fract_x
_atom_site_fract_y
_atom_site_fract_z
Si Si1 0.841523 0.230624 0.117393
Si Si2 0.162785 0.875924 0.121128
Si Si3 0.500000 0.174494 0.750000
Si Si4 0.289848 0.000000 0.000000
Si Si5 0.426380 0.879473 0.877765
Si Si6 0.258105 0.908017 0.306956
Si Si7 0.594585 0.309102 0.427496
Si Si8 0.317239 0.909493 0.691985
O O1 0.744089 0.299366 0.088727
O O2 0.951648 0.269309 0.171685
O O3 0.779671 0.162522 0.178262
O O4 0.897102 0.189544 0.031569
O O5 0.173622 0.886987 0.224640
O O6 0.024010 0.859377 0.099431
O O7 0.205255 0.959548 0.073542
O O8 0.603052 0.114924 0.787661
O O9 0.375255 0.070576 0.040284
O O10 0.405907 0.782510 0.888970
O O11 0.358234 0.909934 0.791849
O O12 0.569483 0.896244 0.872228
O O13 0.211282 0.856052 0.389159
O O14 0.252030 0.004451 0.330287
#
# Coordination Sequence:
#
# PCOD8160148 Si02
#       8
#     8   8   4   4   8   8   8   8
#     4  11  25  43  68 100 135 178 229 284 345 402
#     4  11  24  46  65 103 136 178 227 286 344 414
#     4  10  24  44  68  96 138 176 224 292 350 404
#     4  12  24  42  74 102 136 178 230 292 338 400
#     4  11  23  42  72 100 132 181 232 278 337 410
#     4  11  25  44  69  98 138 178 226 286 350 401
#     4  12  26  43  71  97 140 185 228 280 347 419
#     4  11  24  43  67 100 134 177 228 277 340 407
#
# _framework density 20.494744000000001
#
# number of rings (size 3 to 8) (size 9 to 14) (size 15 to 20)
#    0.000    0.857    4.286    3.000    6.000    4.000 
#    2.571    0.000    0.000    0.000    0.000    0.000 
#    0.000    0.000    0.000    0.000    0.000    0.000 
#
# Total GULP energy -347442.811142 kJ/mol
# GULP energy per Si atom -12408.671827 kJ/mol
# Density = 2.044810 g / cm^3
# Si number density = 20.494744 Si / 1000 Ang^3
#
#
#
# Elastic Constant Matrix: (Units=GPa)
#
#
# Indices 1 2 3 4 5 6 
#
# 1 80.7819 17.1730 14.4341 0.0000 0.0000 0.0000
# 2 17.1730 96.2577 11.8938 0.0000 0.0000 0.0000
# 3 14.4341 11.8938 67.2994 0.0000 0.0000 0.0000
# 4 0.0000 0.0000 0.0000 29.5597 0.0000 0.0000
# 5 0.0000 0.0000 0.0000 0.0000 26.2555 0.0000
# 6 0.0000 0.0000 0.0000 0.0000 0.0000 29.8418
#
#
#
# Elastic Compliance Matrix: (Units=1/GPa)
#
#
# Indices 1 2 3 4 5 6 
#
# 1 0.013260 -0.002059 -0.002480 0.000000 0.000000 0.000000
# 2 -0.002059 0.010940 -0.001492 0.000000 0.000000 0.000000
# 3 -0.002480 -0.001492 0.015655 0.000000 0.000000 0.000000
# 4 0.000000 0.000000 0.000000 0.033830 0.000000 0.000000
# 5 0.000000 0.000000 0.000000 0.000000 0.038087 0.000000
# 6 0.000000 0.000000 0.000000 0.000000 0.000000 0.033510
#
#
# Mechanical properties :
#
#
# Convention : Reuss Voigt Hill
#
# Bulk Modulus (GPa) = 35.98058 36.81564 36.39811
# Shear Modulus (GPa) = 30.01049 30.52062 30.26556
#
# Velocity S-wave (km/s) = 3.83077 3.86319 3.84702
# Velocity P-wave (km/s) = 6.09594 6.15642 6.12625
#
# Compressibility (1/GPa) = 0.02779277
#
# Stress axis : x y z
#
# Youngs Moduli (GPa) = 75.41542 91.40358 63.87927
#
# Poissons Ratio (x) = 0.18822 0.15842
# Poissons Ratio (y) = 0.15530 0.09530
# Poissons Ratio (z) = 0.18703 0.13636
#
# Static dielectric constant tensor:
#      x y z
#    x 3.660100 0.000000 0.000000 
#    y 0.000000 3.765420 0.000000 
#    z 0.000000 0.000000 3.703570 
# 
# 
# High freq. dielectric constant tensor:
#      x y z
#    x 1.801260 0.000000 0.000000 
#    y 0.000000 1.814510 0.000000 
#    z 0.000000 0.000000 1.804640 
# 
# From -- ./inp_files/20077.got.cif
#   From: 2010.03.12/outbox.cif.g09.slc.cpg/sg20_11_cif.got.tgz:20077.got - 2010.04.14 01:38:04.
