data_PCOD8160122
_publ_section_title
;
Structure prediction by ZEFSAII (Michael W. Deem and Ramdas Pophale) SiO2 
 PCOD8160122
Probable space group: C 2 2 21
;
_chemical_formula_sum "Si O2"
_cell_formula_units_Z 44
_cell_length_a 7.219002
_cell_length_b 17.634020
_cell_length_c 15.969039
_cell_angle_alpha 90.000000
_cell_angle_beta 90.000000
_cell_angle_gamma 90.000000
_cell_volume 2032.859074
_symmetry_space_group_name_H-M "C 2 2 21"
_symmetry_group_IT_number 20
_symmetry_cell_setting 'orthorhombic'
loop_
_space_group_symop_operation_xyz
x,y,z
-x,-y,1/2+z
x,-y,-z
-x,y,1/2-z
1/2+x,1/2+y,z
1/2-x,1/2-y,1/2+z
1/2+x,1/2-y,-z
1/2-x,1/2+y,1/2-z
loop_
_atom_site_type_symbol
_atom_site_label
_atom_site_fract_x
_atom_site_fract_y
_atom_site_fract_z
Si Si1 0.806022 0.998548 0.713152
Si Si2 0.764499 0.624360 0.088642
Si Si3 0.020017 0.763797 0.654258
Si Si4 0.309866 0.103278 0.362666
Si Si5 0.120992 0.396269 0.410135
Si Si6 0.662697 0.000000 0.000000
O O1 0.844708 0.942608 0.635664
O O2 0.688494 0.951610 0.781823
O O3 0.000000 0.025843 0.750000
O O4 0.710030 0.074168 0.676840
O O5 0.668506 0.702395 0.115878
O O6 0.980031 0.626444 0.115324
O O7 0.740465 0.608343 0.989674
O O8 0.191946 0.821430 0.649767
O O9 0.051045 0.688659 0.601407
O O10 0.000000 0.740699 0.750000
O O11 0.221187 0.058550 0.443038
O O12 0.958997 0.454982 0.431555
#
# Coordination Sequence:
#
# PCOD8160122 Si02
#       6
#     8   8   8   8   8   4
#     4  12  22  45  73 105 136 186 237 293 350 426
#     4  11  23  47  71  97 142 184 232 285 354 420
#     4  12  27  45  67 106 141 184 235 294 356 414
#     4  11  23  44  73 101 135 191 233 287 358 422
#     4  11  26  44  69 105 144 178 236 296 340 419
#     4  10  24  42  72 100 132 192 232 280 356 412
#
# _framework density 21.644390999999999
#
# number of rings (size 3 to 8) (size 9 to 14) (size 15 to 20)
#    0.000    0.727    7.273    0.545    7.636    1.455 
#    3.273    0.000    0.000    0.000    0.000    0.000 
#    0.000    0.000    0.000    0.000    0.000    0.000 
#
# Total GULP energy -272733.839803 kJ/mol
# GULP energy per Si atom -12396.992718 kJ/mol
# Density = 2.159513 g / cm^3
# Si number density = 21.644391 Si / 1000 Ang^3
#
#
#
# Elastic Constant Matrix: (Units=GPa)
#
#
# Indices 1 2 3 4 5 6 
#
# 1 68.6820 31.9626 38.8458 0.0000 0.0000 0.0000
# 2 31.9626 111.2482 61.2888 0.0000 0.0000 0.0000
# 3 38.8458 61.2888 119.5611 0.0000 0.0000 0.0000
# 4 0.0000 0.0000 0.0000 41.1572 0.0000 0.0000
# 5 0.0000 0.0000 0.0000 0.0000 26.1643 0.0000
# 6 0.0000 0.0000 0.0000 0.0000 0.0000 16.6733
#
#
#
# Elastic Compliance Matrix: (Units=1/GPa)
#
#
# Indices 1 2 3 4 5 6 
#
# 1 0.018436 -0.002783 -0.004563 0.000000 0.000000 0.000000
# 2 -0.002783 0.012947 -0.005732 0.000000 0.000000 0.000000
# 3 -0.004563 -0.005732 0.012785 0.000000 0.000000 0.000000
# 4 0.000000 0.000000 0.000000 0.024297 0.000000 0.000000
# 5 0.000000 0.000000 0.000000 0.000000 0.038220 0.000000
# 6 0.000000 0.000000 0.000000 0.000000 0.000000 0.059976
#
#
# Mechanical properties :
#
#
# Convention : Reuss Voigt Hill
#
# Bulk Modulus (GPa) = 55.52365 62.63176 59.07770
# Shear Modulus (GPa) = 25.14819 27.95856 26.55337
#
# Velocity S-wave (km/s) = 3.41233 3.59795 3.50637
# Velocity P-wave (km/s) = 6.42135 6.80146 6.61414
#
# Compressibility (1/GPa) = 0.01801034
#
# Stress axis : x y z
#
# Youngs Moduli (GPa) = 54.24206 77.24063 78.21573
#
# Poissons Ratio (x) = 0.21494 0.35693
# Poissons Ratio (y) = 0.15094 0.44837
# Poissons Ratio (z) = 0.24753 0.44278
#
# Static dielectric constant tensor:
#      x y z
#    x 3.675900 0.000000 0.000000 
#    y 0.000000 3.889600 0.000000 
#    z 0.000000 0.000000 4.266030 
# 
# 
# High freq. dielectric constant tensor:
#      x y z
#    x 1.832700 0.000000 0.000000 
#    y 0.000000 1.847760 0.000000 
#    z 0.000000 0.000000 1.874350 
# 
# From -- ./inp_files/18758.got.cif
#   From: 2010.03.12/outbox.cif.g09.slc.cpg/sg20_10_cif.got.tgz:18758.got - 2010.04.14 01:38:04.
