data_PCOD8160063
_publ_section_title
;
Structure prediction by ZEFSAII (Michael W. Deem and Ramdas Pophale) SiO2 
 PCOD8160063
Probable space group: C 2 2 21
;
_chemical_formula_sum "Si O2"
_cell_formula_units_Z 40
_cell_length_a 11.135961
_cell_length_b 11.289881
_cell_length_c 14.432137
_cell_angle_alpha 90.000000
_cell_angle_beta 90.000000
_cell_angle_gamma 90.000000
_cell_volume 1814.461295
_symmetry_space_group_name_H-M "C 2 2 21"
_symmetry_group_IT_number 20
_symmetry_cell_setting 'orthorhombic'
loop_
_space_group_symop_operation_xyz
x,y,z
-x,-y,1/2+z
x,-y,-z
-x,y,1/2-z
1/2+x,1/2+y,z
1/2-x,1/2-y,1/2+z
1/2+x,1/2-y,-z
1/2-x,1/2+y,1/2-z
loop_
_atom_site_type_symbol
_atom_site_label
_atom_site_fract_x
_atom_site_fract_y
_atom_site_fract_z
Si Si1 0.325168 0.987850 0.606762
Si Si2 0.613371 0.617768 0.688503
Si Si3 0.719537 0.726073 0.856267
Si Si4 0.033251 0.866760 0.020809
Si Si5 0.495051 0.800773 0.144490
O O1 0.204013 0.011422 0.664989
O O2 0.438928 0.070831 0.636062
O O3 0.296013 0.000000 0.500000
O O4 0.347461 0.849732 0.622456
O O5 0.500000 0.571397 0.750000
O O6 0.694165 0.708822 0.747174
O O7 0.569137 0.681121 0.593180
O O8 0.656765 0.629706 0.922164
O O9 0.856183 0.702469 0.883159
O O10 0.053881 0.790718 0.927802
O O11 0.994592 0.000000 0.000000
O O12 0.500000 0.754727 0.250000
#
# Coordination Sequence:
#
# PCOD8160063 Si02
#       5
#     8   8   8   8   8
#     4  12  24  48  75 105 152 196 244 314 376 441
#     4  10  23  46  69 105 141 193 245 299 376 439
#     4  11  25  46  72 107 148 190 247 308 376 445
#     4  11  25  46  71 101 144 196 248 308 376 451
#     4  12  26  46  74 110 145 196 249 305 381 447
#
# _framework density 22.045110999999999
#
# number of rings (size 3 to 8) (size 9 to 14) (size 15 to 20)
#    0.000    0.800    4.000    3.000    0.000    9.600 
#    0.000    0.000    0.000    0.000    0.000    0.000 
#    0.000    0.000    0.000    0.000    0.000    0.000 
#
# Total GULP energy -247787.355208 kJ/mol
# GULP energy per Si atom -12389.367760 kJ/mol
# Density = 2.199494 g / cm^3
# Si number density = 22.045111 Si / 1000 Ang^3
#
#
#
# Elastic Constant Matrix: (Units=GPa)
#
#
# Indices 1 2 3 4 5 6 
#
# 1 105.5706 33.3072 25.7238 0.0000 0.0000 0.0000
# 2 33.3072 75.2602 36.7256 0.0000 0.0000 0.0000
# 3 25.7238 36.7256 144.5838 0.0000 0.0000 0.0000
# 4 0.0000 0.0000 0.0000 37.0534 0.0000 0.0000
# 5 0.0000 0.0000 0.0000 0.0000 28.7756 0.0000
# 6 0.0000 0.0000 0.0000 0.0000 0.0000 22.4147
#
#
#
# Elastic Compliance Matrix: (Units=1/GPa)
#
#
# Indices 1 2 3 4 5 6 
#
# 1 0.011096 -0.004506 -0.000830 0.000000 0.000000 0.000000
# 2 -0.004506 0.016997 -0.003516 0.000000 0.000000 0.000000
# 3 -0.000830 -0.003516 0.007957 0.000000 0.000000 0.000000
# 4 0.000000 0.000000 0.000000 0.026988 0.000000 0.000000
# 5 0.000000 0.000000 0.000000 0.000000 0.034752 0.000000
# 6 0.000000 0.000000 0.000000 0.000000 0.000000 0.044614
#
#
# Mechanical properties :
#
#
# Convention : Reuss Voigt Hill
#
# Bulk Modulus (GPa) = 54.50288 57.43644 55.96966
# Shear Modulus (GPa) = 30.08031 32.95926 31.51978
#
# Velocity S-wave (km/s) = 3.69791 3.87082 3.78535
# Velocity P-wave (km/s) = 6.55818 6.78884 6.67450
#
# Compressibility (1/GPa) = 0.01834765
#
# Stress axis : x y z
#
# Youngs Moduli (GPa) = 90.12198 58.83405 125.67492
#
# Poissons Ratio (x) = 0.26510 0.10427
# Poissons Ratio (y) = 0.40608 0.44184
# Poissons Ratio (z) = 0.07477 0.20684
#
# Static dielectric constant tensor:
#      x y z
#    x 4.137150 0.000000 0.000000 
#    y 0.000000 3.950630 0.000000 
#    z 0.000000 0.000000 4.422480 
# 
# 
# High freq. dielectric constant tensor:
#      x y z
#    x 1.878560 0.000000 0.000000 
#    y 0.000000 1.836870 0.000000 
#    z 0.000000 0.000000 1.893820 
# 
# From -- ./inp_files/19673.got.cif
#   From: 2010.03.12/outbox.cif.g09.slc.cpg/sg20_10_cif.got.tgz:19673.got - 2010.04.14 01:38:04.
