data_PCOD8160312
_publ_section_title
;
Structure prediction by ZEFSAII (Michael W. Deem and Ramdas Pophale) SiO2 
 PCOD8160312
Probable space group: C 2 2 21
;
_chemical_formula_sum "Si O2"
_cell_formula_units_Z 64
_cell_length_a 19.598646
_cell_length_b 8.887773
_cell_length_c 20.815072
_cell_angle_alpha 90.000000
_cell_angle_beta 90.000000
_cell_angle_gamma 90.000000
_cell_volume 3625.742355
_symmetry_space_group_name_H-M "C 2 2 21"
_symmetry_group_IT_number 20
_symmetry_cell_setting 'orthorhombic'
loop_
_space_group_symop_operation_xyz
x,y,z
-x,-y,1/2+z
x,-y,-z
-x,y,1/2-z
1/2+x,1/2+y,z
1/2-x,1/2-y,1/2+z
1/2+x,1/2-y,-z
1/2-x,1/2+y,1/2-z
loop_
_atom_site_type_symbol
_atom_site_label
_atom_site_fract_x
_atom_site_fract_y
_atom_site_fract_z
Si Si1 0.954114 0.913914 0.939906
Si Si2 0.057060 0.071299 0.301038
Si Si3 0.292511 0.581332 0.063025
Si Si4 0.798513 0.570608 0.197022
Si Si5 0.954114 0.413914 0.060094
Si Si6 0.442940 0.928701 0.198962
Si Si7 0.298513 0.429392 0.197022
Si Si8 0.292511 0.918668 0.063025
O O1 0.971768 0.984468 0.870321
O O2 0.873070 0.907830 0.946167
O O3 0.986967 0.750000 0.943751
O O4 0.987222 0.000000 0.000000
O O5 0.073338 0.250000 0.303085
O O6 0.000000 0.028618 0.250000
O O7 0.125507 0.982115 0.284722
O O8 0.274932 0.487385 0.126963
O O9 0.261921 0.750000 0.068951
O O10 0.260742 0.500000 0.000000
O O11 0.874493 0.517885 0.215278
O O12 0.750000 0.500000 0.250000
O O13 0.794061 0.750000 0.198039
O O14 0.774932 0.512615 0.126963
O O15 0.971768 0.484468 0.129679
O O16 0.873070 0.407830 0.053833
O O17 0.987222 0.500000 0.000000
O O18 0.500000 0.971382 0.250000
O O19 0.260742 0.000000 0.000000
#
# Coordination Sequence:
#
# PCOD8160312 Si02
#       8
#     8   8   8   8   8   8   8   8
#     4   8  14  24  41  65  91 119 151 190 233 278
#     4   9  18  33  51  71  97 128 162 201 246 294
#     4   9  16  28  46  70  97 125 160 201 246 291
#     4  11  21  33  50  73 101 132 167 207 250 295
#     4   8  14  24  41  65  91 119 151 190 233 278
#     4   9  18  33  51  71  97 128 162 201 246 294
#     4  11  21  33  50  73 101 132 167 207 250 295
#     4   9  16  28  46  70  97 125 160 201 246 291
#
# _framework density 17.651558000000001
#
# number of rings (size 3 to 8) (size 9 to 14) (size 15 to 20)
#    0.000    2.750    0.000    4.500    0.000    6.500 
#    0.000    0.000    0.000    1.500    0.000    7.000 
#    0.000    0.000    0.000    0.000    0.000    0.000 
#
# Total GULP energy -396566.711082 kJ/mol
# GULP energy per Si atom -12392.709721 kJ/mol
# Density = 1.761138 g / cm^3
# Si number density = 17.651558 Si / 1000 Ang^3
#
#
#
# Elastic Constant Matrix: (Units=GPa)
#
#
# Indices 1 2 3 4 5 6 
#
# 1 46.2040 41.4027 65.8667 0.0000 0.0000 0.0000
# 2 41.4027 129.7388 78.3358 0.0000 0.0000 0.0000
# 3 65.8667 78.3358 185.3792 0.0000 0.0000 0.0000
# 4 0.0000 0.0000 0.0000 33.9559 0.0000 0.0000
# 5 0.0000 0.0000 0.0000 0.0000 24.2900 0.0000
# 6 0.0000 0.0000 0.0000 0.0000 0.0000 16.6416
#
#
#
# Elastic Compliance Matrix: (Units=1/GPa)
#
#
# Indices 1 2 3 4 5 6 
#
# 1 0.047857 -0.006720 -0.014164 0.000000 0.000000 0.000000
# 2 -0.006720 0.011292 -0.002384 0.000000 0.000000 0.000000
# 3 -0.014164 -0.002384 0.011434 0.000000 0.000000 0.000000
# 4 0.000000 0.000000 0.000000 0.029450 0.000000 0.000000
# 5 0.000000 0.000000 0.000000 0.000000 0.041169 0.000000
# 6 0.000000 0.000000 0.000000 0.000000 0.000000 0.060090
#
#
# Mechanical properties :
#
#
# Convention : Reuss Voigt Hill
#
# Bulk Modulus (GPa) = 41.58566 81.39250 61.48908
# Shear Modulus (GPa) = 19.54314 26.69194 23.11754
#
# Velocity S-wave (km/s) = 3.33101 3.89287 3.62285
# Velocity P-wave (km/s) = 6.19714 8.14964 7.23952
#
# Compressibility (1/GPa) = 0.02404675
#
# Stress axis : x y z
#
# Youngs Moduli (GPa) = 20.89564 88.56095 87.45542
#
# Poissons Ratio (x) = 0.59512 1.23874
# Poissons Ratio (y) = 0.14042 0.20848
# Poissons Ratio (z) = 0.29597 0.21112
#
# Static dielectric constant tensor:
#      x y z
#    x 2.725530 0.000000 0.000000 
#    y 0.000000 3.487140 0.000000 
#    z 0.000000 0.000000 3.695280 
# 
# 
# High freq. dielectric constant tensor:
#      x y z
#    x 1.614600 0.000000 0.000000 
#    y 0.000000 1.688130 0.000000 
#    z 0.000000 0.000000 1.706430 
# 
# From -- ./inp_files/25643.got.cif
#   From: 2010.03.12/outbox.cif.g09.slc.cpg/sg20_13_cif.got.tgz:25643.got - 2010.04.14 01:38:04.
