data_PCOD8160428
_publ_section_title
;
Structure prediction by ZEFSAII (Michael W. Deem and Ramdas Pophale) SiO2 
 PCOD8160428
Probable space group: C 2 2 21
;
_chemical_formula_sum "Si O2"
_cell_formula_units_Z 40
_cell_length_a 16.919375
_cell_length_b 4.930407
_cell_length_c 19.284304
_cell_angle_alpha 90.000000
_cell_angle_beta 90.000000
_cell_angle_gamma 90.000000
_cell_volume 1608.685164
_symmetry_space_group_name_H-M "C 2 2 21"
_symmetry_group_IT_number 20
_symmetry_cell_setting 'orthorhombic'
loop_
_space_group_symop_operation_xyz
x,y,z
-x,-y,1/2+z
x,-y,-z
-x,y,1/2-z
1/2+x,1/2+y,z
1/2-x,1/2-y,1/2+z
1/2+x,1/2-y,-z
1/2-x,1/2+y,1/2-z
loop_
_atom_site_type_symbol
_atom_site_label
_atom_site_fract_x
_atom_site_fract_y
_atom_site_fract_z
Si Si1 0.124852 0.409779 0.258442
Si Si2 0.228874 0.028735 0.330586
Si Si3 0.263272 0.534818 0.421779
Si Si4 0.496676 0.074143 0.352334
Si Si5 0.054179 0.096666 0.073929
O O1 0.146382 0.117716 0.293500
O O2 0.206883 0.537322 0.231838
O O3 0.063815 0.394266 0.195265
O O4 0.083097 0.593545 0.317745
O O5 0.258272 0.242117 0.387612
O O6 0.216370 0.745935 0.371917
O O7 0.228699 0.500000 0.500000
O O8 0.352183 0.648152 0.425493
O O9 0.467605 0.375511 0.367495
O O10 0.494689 0.877450 0.418739
O O11 0.024235 0.000000 0.000000
#
# Coordination Sequence:
#
# PCOD8160428 Si02
#       5
#     8   8   8   8   8
#     4  11  26  43  70 101 147 178 232 278 364 413
#     4  12  24  43  68 102 138 187 224 295 343 429
#     4  11  23  42  69 100 135 179 239 288 346 413
#     4  11  25  44  69 106 136 184 228 296 344 427
#     4  11  22  43  72 102 134 181 237 293 343 415
#
# _framework density 24.865027000000001
#
# number of rings (size 3 to 8) (size 9 to 14) (size 15 to 20)
#    0.000    0.800    4.000    2.400    0.000   12.800 
#    0.000    4.000    0.000    0.000    0.000    0.000 
#    0.000    0.000    0.000    0.000    0.000    0.000 
#
# Total GULP energy -247907.311405 kJ/mol
# GULP energy per Si atom -12395.365570 kJ/mol
# Density = 2.480843 g / cm^3
# Si number density = 24.865027 Si / 1000 Ang^3
#
#
#
# Elastic Constant Matrix: (Units=GPa)
#
#
# Indices 1 2 3 4 5 6 
#
# 1 66.3628 14.9567 28.8876 0.0000 0.0000 0.0000
# 2 14.9567 95.4327 15.0042 0.0000 0.0000 0.0000
# 3 28.8876 15.0042 96.7559 0.0000 0.0000 0.0000
# 4 0.0000 0.0000 0.0000 40.7001 0.0000 0.0000
# 5 0.0000 0.0000 0.0000 0.0000 28.5039 0.0000
# 6 0.0000 0.0000 0.0000 0.0000 0.0000 32.2372
#
#
#
# Elastic Compliance Matrix: (Units=1/GPa)
#
#
# Indices 1 2 3 4 5 6 
#
# 1 0.017681 -0.001990 -0.004970 0.000000 0.000000 0.000000
# 2 -0.001990 0.010964 -0.001106 0.000000 0.000000 0.000000
# 3 -0.004970 -0.001106 0.011991 0.000000 0.000000 0.000000
# 4 0.000000 0.000000 0.000000 0.024570 0.000000 0.000000
# 5 0.000000 0.000000 0.000000 0.000000 0.035083 0.000000
# 6 0.000000 0.000000 0.000000 0.000000 0.000000 0.031020
#
#
# Mechanical properties :
#
#
# Convention : Reuss Voigt Hill
#
# Bulk Modulus (GPa) = 40.81033 41.80537 41.30785
# Shear Modulus (GPa) = 32.13189 33.60176 32.86683
#
# Velocity S-wave (km/s) = 3.59869 3.68008 3.63961
# Velocity P-wave (km/s) = 5.80653 5.90819 5.85758
#
# Compressibility (1/GPa) = 0.02450360
#
# Stress axis : x y z
#
# Youngs Moduli (GPa) = 56.55912 91.20479 83.39759
#
# Poissons Ratio (x) = 0.18146 0.41450
# Poissons Ratio (y) = 0.11253 0.09226
# Poissons Ratio (z) = 0.28111 0.10090
#
# Static dielectric constant tensor:
#      x y z
#    x 4.288170 0.000000 0.000000 
#    y 0.000000 4.277550 0.000000 
#    z 0.000000 0.000000 4.830320 
# 
# 
# High freq. dielectric constant tensor:
#      x y z
#    x 1.970510 0.000000 0.000000 
#    y 0.000000 1.992310 0.000000 
#    z 0.000000 0.000000 2.006980 
# 
# From -- ./inp_files/25097.got.cif
#   From: 2010.03.12/outbox.cif.g09.slc.cpg/sg20_13_cif.got.tgz:25097.got - 2010.04.14 01:38:04.
