data_PCOD8160368
_publ_section_title
;
Structure prediction by ZEFSAII (Michael W. Deem and Ramdas Pophale) SiO2 
 PCOD8160368
Probable space group: C 2 2 21
;
_chemical_formula_sum "Si O2"
_cell_formula_units_Z 52
_cell_length_a 20.025711
_cell_length_b 14.515731
_cell_length_c 9.193425
_cell_angle_alpha 90.000000
_cell_angle_beta 90.000000
_cell_angle_gamma 90.000000
_cell_volume 2672.416800
_symmetry_space_group_name_H-M "C 2 2 21"
_symmetry_group_IT_number 20
_symmetry_cell_setting 'orthorhombic'
loop_
_space_group_symop_operation_xyz
x,y,z
-x,-y,1/2+z
x,-y,-z
-x,y,1/2-z
1/2+x,1/2+y,z
1/2-x,1/2-y,1/2+z
1/2+x,1/2-y,-z
1/2-x,1/2+y,1/2-z
loop_
_atom_site_type_symbol
_atom_site_label
_atom_site_fract_x
_atom_site_fract_y
_atom_site_fract_z
Si Si1 0.701676 0.312972 0.114307
Si Si2 0.448450 0.682530 0.622978
Si Si3 0.329849 0.500000 0.500000
Si Si4 0.933934 0.272994 0.326976
Si Si5 0.612671 0.577653 0.288255
Si Si6 0.280591 0.500000 0.000000
Si Si7 0.994070 0.000000 0.000000
Si Si8 0.796803 0.337889 0.367151
O O1 0.627180 0.316218 0.184512
O O2 0.716242 0.411558 0.036747
O O3 0.754974 0.292300 0.237729
O O4 0.708055 0.231271 0.000871
O O5 0.500000 0.708376 0.750000
O O6 0.454844 0.756039 0.493636
O O7 0.460378 0.583743 0.551497
O O8 0.376031 0.475164 0.637908
O O9 0.904124 0.183662 0.244112
O O10 0.874631 0.348679 0.321289
O O11 0.000000 0.312120 0.250000
O O12 0.675642 0.566436 0.396556
O O13 0.549330 0.530247 0.362129
O O14 0.233030 0.437568 0.098841
#
# Coordination Sequence:
#
# PCOD8160368 Si02
#       8
#     8   8   4   8   8   4   4   8
#     4  11  24  38  62  87 130 166 203 254 307 373
#     4  11  23  32  51  86 123 163 194 233 299 373
#     4  12  19  38  59  93 128 167 200 242 311 372
#     4  11  23  41  61  87 122 160 202 257 313 371
#     4  11  22  37  60  92 128 163 200 243 304 380
#     4  11  24  40  65  91 121 166 216 254 307 356
#     4  11  23  30  54  88 133 167 190 232 296 386
#     4  11  24  41  61  88 121 168 212 259 302 367
#
# _framework density 19.458041999999999
#
# number of rings (size 3 to 8) (size 9 to 14) (size 15 to 20)
#    0.000    0.923    6.154    2.308    4.308    1.231 
#    0.000    0.000    0.000    4.615    0.000    0.000 
#    0.000    0.000    0.000    0.000    0.000    0.000 
#
# Total GULP energy -322381.533308 kJ/mol
# GULP energy per Si atom -12399.289743 kJ/mol
# Density = 1.941376 g / cm^3
# Si number density = 19.458042 Si / 1000 Ang^3
#
#
#
# Elastic Constant Matrix: (Units=GPa)
#
#
# Indices 1 2 3 4 5 6 
#
# 1 147.4806 26.7379 67.4184 0.0000 0.0000 0.0000
# 2 26.7379 34.3978 7.0180 0.0000 0.0000 0.0000
# 3 67.4184 7.0180 102.2629 0.0000 0.0000 0.0000
# 4 0.0000 0.0000 0.0000 16.0026 0.0000 0.0000
# 5 0.0000 0.0000 0.0000 0.0000 39.6268 0.0000
# 6 0.0000 0.0000 0.0000 0.0000 0.0000 11.0771
#
#
#
# Elastic Compliance Matrix: (Units=1/GPa)
#
#
# Indices 1 2 3 4 5 6 
#
# 1 0.011284 -0.007357 -0.006934 0.000000 0.000000 0.000000
# 2 -0.007357 0.034281 0.002497 0.000000 0.000000 0.000000
# 3 -0.006934 0.002497 0.014179 0.000000 0.000000 0.000000
# 4 0.000000 0.000000 0.000000 0.062490 0.000000 0.000000
# 5 0.000000 0.000000 0.000000 0.000000 0.025235 0.000000
# 6 0.000000 0.000000 0.000000 0.000000 0.000000 0.090276
#
#
# Mechanical properties :
#
#
# Convention : Reuss Voigt Hill
#
# Bulk Modulus (GPa) = 27.65761 54.05445 40.85603
# Shear Modulus (GPa) = 18.28923 25.53910 21.91417
#
# Velocity S-wave (km/s) = 3.06916 3.62680 3.35957
# Velocity P-wave (km/s) = 5.17730 6.73636 6.00762
#
# Compressibility (1/GPa) = 0.03615641
#
# Stress axis : x y z
#
# Youngs Moduli (GPa) = 88.61884 29.17106 70.52688
#
# Poissons Ratio (x) = 0.21460 0.48907
# Poissons Ratio (y) = 0.65194 -0.17614
# Poissons Ratio (z) = 0.61453 -0.07285
#
# Static dielectric constant tensor:
#      x y z
#    x 3.872100 0.000000 0.000000 
#    y 0.000000 3.289560 0.000000 
#    z 0.000000 0.000000 3.861760 
# 
# 
# High freq. dielectric constant tensor:
#      x y z
#    x 1.763450 0.000000 0.000000 
#    y 0.000000 1.718090 0.000000 
#    z 0.000000 0.000000 1.774320 
# 
# From -- ./inp_files/9551.got.cif
#   From: 2010.03.12/outbox.cif.g09.slc.cpg/sg20_5_cif.got.tgz:9551.got - 2010.04.14 01:38:04.
