data_PCOD8160249
_publ_section_title
;
Structure prediction by ZEFSAII (Michael W. Deem and Ramdas Pophale) SiO2 
 PCOD8160249
Probable space group: C 2 2 21
;
_chemical_formula_sum "Si O2"
_cell_formula_units_Z 40
_cell_length_a 12.871001
_cell_length_b 15.513010
_cell_length_c 9.177786
_cell_angle_alpha 90.000000
_cell_angle_beta 90.000000
_cell_angle_gamma 90.000000
_cell_volume 1832.509874
_symmetry_space_group_name_H-M "C 2 2 21"
_symmetry_group_IT_number 20
_symmetry_cell_setting 'orthorhombic'
loop_
_space_group_symop_operation_xyz
x,y,z
-x,-y,1/2+z
x,-y,-z
-x,y,1/2-z
1/2+x,1/2+y,z
1/2-x,1/2-y,1/2+z
1/2+x,1/2-y,-z
1/2-x,1/2+y,1/2-z
loop_
_atom_site_type_symbol
_atom_site_label
_atom_site_fract_x
_atom_site_fract_y
_atom_site_fract_z
Si Si1 0.325168 0.408110 0.072332
Si Si2 0.197012 0.878224 0.101185
Si Si3 0.000000 0.414238 0.750000
Si Si4 0.484147 0.333189 0.581919
Si Si5 0.626447 0.000000 0.500000
Si Si6 0.641751 0.194939 0.050348
O O1 0.337202 0.418682 0.245147
O O2 0.340805 0.500000 0.000000
O O3 0.410176 0.343326 0.007927
O O4 0.211361 0.371224 0.039724
O O5 0.210225 0.774060 0.117382
O O6 0.104442 0.897145 0.984510
O O7 0.303221 0.918546 0.043323
O O8 0.947722 0.476038 0.867500
O O9 0.910780 0.354453 0.683384
O O10 0.500000 0.355440 0.750000
O O11 0.445917 0.234202 0.558698
#
# Coordination Sequence:
#
# PCOD8160249 Si02
#       6
#     8   8   4   8   4   8
#     4  12  26  44  76 108 151 190 250 309 374 429
#     4  10  27  47  75 105 148 195 247 300 367 442
#     4  12  28  52  72 112 150 198 246 318 374 440
#     4  10  26  43  76 107 148 197 248 299 366 440
#     4  12  30  48  80 106 156 188 256 302 384 438
#     4  10  27  44  78 101 150 196 251 299 368 442
#
# _framework density 21.827987
#
# number of rings (size 3 to 8) (size 9 to 14) (size 15 to 20)
#    1.200    0.000    0.000    3.000   19.600    0.000 
#    0.000    0.000    0.000    0.000    0.000    0.000 
#    0.000    0.000    0.000    0.000    0.000    0.000 
#
# Total GULP energy -248018.140945 kJ/mol
# GULP energy per Si atom -12400.907047 kJ/mol
# Density = 2.177831 g / cm^3
# Si number density = 21.827987 Si / 1000 Ang^3
#
#
#
# Elastic Constant Matrix: (Units=GPa)
#
#
# Indices 1 2 3 4 5 6 
#
# 1 128.9040 52.3097 68.0701 0.0000 0.0000 0.0000
# 2 52.3097 84.1477 42.2182 0.0000 0.0000 0.0000
# 3 68.0701 42.2182 181.7011 0.0000 0.0000 0.0000
# 4 0.0000 0.0000 0.0000 33.8356 0.0000 0.0000
# 5 0.0000 0.0000 0.0000 0.0000 42.3762 0.0000
# 6 0.0000 0.0000 0.0000 0.0000 0.0000 5.2231
#
#
#
# Elastic Compliance Matrix: (Units=1/GPa)
#
#
# Indices 1 2 3 4 5 6 
#
# 1 0.011698 -0.005742 -0.003048 0.000000 0.000000 0.000000
# 2 -0.005742 0.016271 -0.001629 0.000000 0.000000 0.000000
# 3 -0.003048 -0.001629 0.007024 0.000000 0.000000 0.000000
# 4 0.000000 0.000000 0.000000 0.029555 0.000000 0.000000
# 5 0.000000 0.000000 0.000000 0.000000 0.023598 0.000000
# 6 0.000000 0.000000 0.000000 0.000000 0.000000 0.191456
#
#
# Mechanical properties :
#
#
# Convention : Reuss Voigt Hill
#
# Bulk Modulus (GPa) = 70.65575 79.99432 75.32503
# Shear Modulus (GPa) = 16.38491 31.76398 24.07444
#
# Velocity S-wave (km/s) = 2.74275 3.81884 3.32462
# Velocity P-wave (km/s) = 6.51689 7.49479 7.02288
#
# Compressibility (1/GPa) = 0.01415313
#
# Stress axis : x y z
#
# Youngs Moduli (GPa) = 85.48799 61.45882 142.36988
#
# Poissons Ratio (x) = 0.35293 0.43394
# Poissons Ratio (y) = 0.49091 0.23196
# Poissons Ratio (z) = 0.26056 0.10013
#
# Static dielectric constant tensor:
#      x y z
#    x 3.908030 0.000000 0.000000 
#    y 0.000000 3.832340 0.000000 
#    z 0.000000 0.000000 3.865150 
# 
# 
# High freq. dielectric constant tensor:
#      x y z
#    x 1.863260 0.000000 0.000000 
#    y 0.000000 1.855540 0.000000 
#    z 0.000000 0.000000 1.862910 
# 
# From -- ./inp_files/7098.got.cif
#   From: 2010.03.12/outbox.cif.g09.slc.cpg/sg20_4_cif.got.tgz:7098.got - 2010.04.14 01:38:04.
