data_PCOD8160167
_publ_section_title
;
Structure prediction by ZEFSAII (Michael W. Deem and Ramdas Pophale) SiO2 
 PCOD8160167
Probable space group: C 2 2 21
;
_chemical_formula_sum "Si O2"
_cell_formula_units_Z 64
_cell_length_a 11.701448
_cell_length_b 30.515577
_cell_length_c 8.838151
_cell_angle_alpha 90.000000
_cell_angle_beta 90.000000
_cell_angle_gamma 90.000000
_cell_volume 3155.895473
_symmetry_space_group_name_H-M "C 2 2 21"
_symmetry_group_IT_number 20
_symmetry_cell_setting 'orthorhombic'
loop_
_space_group_symop_operation_xyz
x,y,z
-x,-y,1/2+z
x,-y,-z
-x,y,1/2-z
1/2+x,1/2+y,z
1/2-x,1/2-y,1/2+z
1/2+x,1/2-y,-z
1/2-x,1/2+y,1/2-z
loop_
_atom_site_type_symbol
_atom_site_label
_atom_site_fract_x
_atom_site_fract_y
_atom_site_fract_z
Si Si1 0.604046 0.190494 0.432667
Si Si2 0.131419 0.923447 0.300226
Si Si3 0.821855 0.908748 0.864237
Si Si4 0.376100 0.488665 0.676178
Si Si5 0.502787 0.338996 0.902298
Si Si6 0.338022 0.288807 0.096228
Si Si7 0.297191 0.659090 0.625302
Si Si8 0.654836 0.832010 0.894669
O O1 0.609015 0.242709 0.453342
O O2 0.669217 0.165638 0.566411
O O3 0.478236 0.169943 0.438014
O O4 0.670144 0.184595 0.275353
O O5 0.141437 0.930421 0.478376
O O6 0.203069 0.882328 0.237122
O O7 0.000000 0.917032 0.250000
O O8 0.186556 0.968048 0.237964
O O9 0.805904 0.945064 0.729223
O O10 0.929692 0.878494 0.823241
O O11 0.704502 0.881495 0.893309
O O12 0.385614 0.500000 0.500000
O O13 0.500000 0.483618 0.750000
O O14 0.500000 0.307351 0.750000
O O15 0.431632 0.323696 0.045013
O O16 0.626066 0.348833 0.974760
O O17 0.328550 0.297049 0.277263
O O18 0.219683 0.299214 0.009758
#
# Coordination Sequence:
#
# PCOD8160167 Si02
#       8
#     8   8   8   8   8   8   8   8
#     4  11  26  40  65  89 125 174 222 272 322 381
#     4  11  20  39  61  96 136 164 205 252 336 392
#     4  11  21  42  60  89 135 166 211 257 329 383
#     4  11  24  35  62 100 135 168 207 264 326 409
#     4  11  23  35  62  91 129 173 210 256 325 387
#     4  11  23  42  61  92 128 167 221 274 319 382
#     4  12  22  39  66  94 129 173 214 272 325 395
#     4  10  24  45  59  90 125 176 214 268 325 378
#
# _framework density 20.279506000000001
#
# number of rings (size 3 to 8) (size 9 to 14) (size 15 to 20)
#    0.000    1.000    3.750    4.875    8.750    0.500 
#    0.000    0.000    0.000    0.000   13.000    0.000 
#    0.000    0.000    0.000    0.000    0.000    0.000 
#
# Total GULP energy -396417.677124 kJ/mol
# GULP energy per Si atom -12388.052410 kJ/mol
# Density = 2.023335 g / cm^3
# Si number density = 20.279506 Si / 1000 Ang^3
#
#
#
# Elastic Constant Matrix: (Units=GPa)
#
#
# Indices 1 2 3 4 5 6 
#
# 1 94.2223 51.9324 44.7720 0.0000 0.0000 0.0000
# 2 51.9324 108.1277 32.3204 0.0000 0.0000 0.0000
# 3 44.7720 32.3204 123.5309 0.0000 0.0000 0.0000
# 4 0.0000 0.0000 0.0000 29.3532 0.0000 0.0000
# 5 0.0000 0.0000 0.0000 0.0000 34.9705 0.0000
# 6 0.0000 0.0000 0.0000 0.0000 0.0000 15.7621
#
#
#
# Elastic Compliance Matrix: (Units=1/GPa)
#
#
# Indices 1 2 3 4 5 6 
#
# 1 0.016190 -0.006533 -0.004159 0.000000 0.000000 0.000000
# 2 -0.006533 0.012669 -0.000947 0.000000 0.000000 0.000000
# 3 -0.004159 -0.000947 0.009850 0.000000 0.000000 0.000000
# 4 0.000000 0.000000 0.000000 0.034068 0.000000 0.000000
# 5 0.000000 0.000000 0.000000 0.000000 0.028596 0.000000
# 6 0.000000 0.000000 0.000000 0.000000 0.000000 0.063443
#
#
# Mechanical properties :
#
#
# Convention : Reuss Voigt Hill
#
# Bulk Modulus (GPa) = 64.79888 64.88115 64.84002
# Shear Modulus (GPa) = 25.87504 29.14089 27.50796
#
# Velocity S-wave (km/s) = 3.57588 3.79484 3.68699
# Velocity P-wave (km/s) = 7.00510 7.15989 7.08292
#
# Compressibility (1/GPa) = 0.01543236
#
# Stress axis : x y z
#
# Youngs Moduli (GPa) = 61.76688 78.93282 101.52153
#
# Poissons Ratio (x) = 0.51565 0.42219
# Poissons Ratio (y) = 0.40351 0.09614
# Poissons Ratio (z) = 0.25686 0.07475
#
# Static dielectric constant tensor:
#      x y z
#    x 3.564290 0.000000 0.000000 
#    y 0.000000 3.909340 0.000000 
#    z 0.000000 0.000000 4.679170 
# 
# 
# High freq. dielectric constant tensor:
#      x y z
#    x 1.757770 0.000000 0.000000 
#    y 0.000000 1.782320 0.000000 
#    z 0.000000 0.000000 1.823520 
# 
# From -- ./inp_files/7672.got.cif
#   From: 2010.03.12/outbox.cif.g09.slc.cpg/sg20_4_cif.got.tgz:7672.got - 2010.04.14 01:38:04.
