data_PCOD8160947
_publ_section_title
;
Structure prediction by ZEFSAII (Michael W. Deem and Ramdas Pophale) SiO2 
 PCOD8160947
Probable space group: C 2 2 2
;
_chemical_formula_sum "Si O2"
_cell_formula_units_Z 60
_cell_length_a 5.038184
_cell_length_b 23.863147
_cell_length_c 26.730062
_cell_angle_alpha 90.000000
_cell_angle_beta 90.000000
_cell_angle_gamma 90.000000
_cell_volume 3213.673170
_symmetry_space_group_name_H-M "C 2 2 2"
_symmetry_group_IT_number 21
_symmetry_cell_setting 'orthorhombic'
loop_
_space_group_symop_operation_xyz
x,y,z
-x,-y,z
x,-y,-z
-x,y,-z
1/2+x,1/2+y,z
1/2-x,1/2-y,z
1/2+x,1/2-y,-z
1/2-x,1/2+y,-z
loop_
_atom_site_type_symbol
_atom_site_label
_atom_site_fract_x
_atom_site_fract_y
_atom_site_fract_z
Si Si1 0.907485 0.560075 0.779268
Si Si2 0.914516 0.560638 0.663129
Si Si3 0.000000 0.212390 0.000000
Si Si4 0.088692 0.127099 0.367137
Si Si5 0.572279 0.373431 0.802755
Si Si6 0.000983 0.210456 0.891708
Si Si7 0.498391 0.288447 0.284431
Si Si8 0.747253 0.686155 0.465757
O O1 0.129667 0.605972 0.792852
O O2 0.000000 0.500000 0.799478
O O3 0.832015 0.556078 0.720748
O O4 0.633562 0.575153 0.806972
O O5 0.668527 0.585952 0.630910
O O6 0.000000 0.500000 0.640990
O O7 0.172683 0.599374 0.663072
O O8 0.250000 0.250000 0.010744
O O9 0.040562 0.180335 0.946841
O O10 0.009106 0.184338 0.339417
O O11 0.210668 0.142158 0.421016
O O12 0.547891 0.339510 0.853713
O O13 0.474027 0.336418 0.756479
O O14 0.250000 0.250000 0.877801
O O15 0.750000 0.250000 0.889455
O O16 0.250000 0.250000 0.272432
O O17 0.750000 0.250000 0.281508
O O18 0.500000 0.676781 0.500000
O O19 0.750000 0.750000 0.445182
O O20 0.000000 0.671754 0.500000
#
# Coordination Sequence:
#
# PCOD8160947 Si02
#       8
#     8   8   4   8   8   8   8   8
#     4  11  22  38  56  78 109 148 195 238 273 327
#     4  11  22  39  60  84 111 144 190 234 272 324
#     4   8  16  30  50  74 105 144 197 236 270 328
#     4  12  22  39  61  85 112 149 184 222 280 320
#     4  12  21  36  53  80 114 151 183 229 285 342
#     4  10  19  33  52  79 113 153 188 232 282 342
#     4  12  23  34  50  81 119 149 178 214 269 343
#     4  10  22  40  61  86 114 146 183 220 260 320
#
# _framework density 18.670226
#
# number of rings (size 3 to 8) (size 9 to 14) (size 15 to 20)
#    0.000    1.067    2.667    5.200    0.000    3.733 
#    0.000    0.000    0.000    6.000    0.000    2.800 
#    0.000    0.000    0.000    0.000    0.000    0.000 
#
# Total GULP energy -371916.607481 kJ/mol
# GULP energy per Si atom -12397.220249 kJ/mol
# Density = 1.862773 g / cm^3
# Si number density = 18.670226 Si / 1000 Ang^3
#
#
#
# Elastic Constant Matrix: (Units=GPa)
#
#
# Indices 1 2 3 4 5 6 
#
# 1 117.0768 22.4804 17.2462 0.0000 0.0000 0.0000
# 2 22.4804 71.8033 36.0593 0.0000 0.0000 0.0000
# 3 17.2462 36.0593 93.7595 0.0000 0.0000 0.0000
# 4 0.0000 0.0000 0.0000 16.0307 0.0000 0.0000
# 5 0.0000 0.0000 0.0000 0.0000 29.5384 0.0000
# 6 0.0000 0.0000 0.0000 0.0000 0.0000 36.8298
#
#
#
# Elastic Compliance Matrix: (Units=1/GPa)
#
#
# Indices 1 2 3 4 5 6 
#
# 1 0.009127 -0.002496 -0.000719 0.000000 0.000000 0.000000
# 2 -0.002496 0.017944 -0.006442 0.000000 0.000000 0.000000
# 3 -0.000719 -0.006442 0.013275 0.000000 0.000000 0.000000
# 4 0.000000 0.000000 0.000000 0.062380 0.000000 0.000000
# 5 0.000000 0.000000 0.000000 0.000000 0.033854 0.000000
# 6 0.000000 0.000000 0.000000 0.000000 0.000000 0.027152
#
#
# Mechanical properties :
#
#
# Convention : Reuss Voigt Hill
#
# Bulk Modulus (GPa) = 47.54741 48.24571 47.89656
# Shear Modulus (GPa) = 26.30802 30.27003 28.28902
#
# Velocity S-wave (km/s) = 3.75786 4.03090 3.89677
# Velocity P-wave (km/s) = 6.65965 6.89647 6.77909
#
# Compressibility (1/GPa) = 0.02103164
#
# Stress axis : x y z
#
# Youngs Moduli (GPa) = 109.56957 55.73022 75.32819
#
# Poissons Ratio (x) = 0.13913 0.05413
# Poissons Ratio (y) = 0.27354 0.48525
# Poissons Ratio (z) = 0.07874 0.35900
#
# Static dielectric constant tensor:
#      x y z
#    x 3.615600 0.000000 0.000000 
#    y 0.000000 3.360670 0.000000 
#    z 0.000000 0.000000 3.503290 
# 
# 
# High freq. dielectric constant tensor:
#      x y z
#    x 1.752860 0.000000 0.000000 
#    y 0.000000 1.708200 0.000000 
#    z 0.000000 0.000000 1.709930 
# 
# From -- ./inp_files/38331.got.cif
#   From: 2010.03.12/outbox.cif.g09.slc.cpg/sg21_20_cif.got.tgz:38331.got - 2010.04.14 01:59:26.
