data_PCOD8160616
_publ_section_title
;
Structure prediction by ZEFSAII (Michael W. Deem and Ramdas Pophale) SiO2 
 PCOD8160616
Probable space group: C 2 2 21
;
_chemical_formula_sum "Si O2"
_cell_formula_units_Z 40
_cell_length_a 17.194285
_cell_length_b 10.312061
_cell_length_c 9.248877
_cell_angle_alpha 90.000000
_cell_angle_beta 90.000000
_cell_angle_gamma 90.000000
_cell_volume 1639.904653
_symmetry_space_group_name_H-M "C 2 2 21"
_symmetry_group_IT_number 20
_symmetry_cell_setting 'orthorhombic'
loop_
_space_group_symop_operation_xyz
x,y,z
-x,-y,1/2+z
x,-y,-z
-x,y,1/2-z
1/2+x,1/2+y,z
1/2-x,1/2-y,1/2+z
1/2+x,1/2-y,-z
1/2-x,1/2+y,1/2-z
loop_
_atom_site_type_symbol
_atom_site_label
_atom_site_fract_x
_atom_site_fract_y
_atom_site_fract_z
Si Si1 0.153596 0.000000 0.000000
Si Si2 0.215336 0.051346 0.698677
Si Si3 0.536424 0.277834 0.963859
Si Si4 0.000000 0.628806 0.250000
Si Si5 0.384865 0.089574 0.753364
Si Si6 0.135644 0.183503 0.452545
O O1 0.205160 0.058353 0.870996
O O2 0.102582 0.882969 0.939802
O O3 0.306754 0.060961 0.661992
O O4 0.167182 0.167084 0.617643
O O5 0.185991 0.912510 0.644745
O O6 0.553413 0.164324 0.849040
O O7 0.455245 0.352110 0.935406
O O8 0.532214 0.218433 0.123080
O O9 0.927286 0.541867 0.195250
O O10 0.357444 0.169601 0.895329
#
# Coordination Sequence:
#
# PCOD8160616 Si02
#       6
#     4   8   8   4   8   8
#     4  12  26  50  78 114 156 206 268 334 396 486
#     4  11  28  45  78 114 159 207 266 336 411 468
#     4  12  26  49  79 113 157 210 273 329 399 487
#     4  12  28  48  78 114 156 218 262 326 410 484
#     4  12  27  49  77 114 167 212 267 338 399 494
#     4  11  25  49  75 112 154 210 265 332 403 479
#
# _framework density 24.391663000000001
#
# number of rings (size 3 to 8) (size 9 to 14) (size 15 to 20)
#    0.000    0.400    4.000    3.000    8.400    4.800 
#    0.000    0.000    0.000    0.000    0.000    0.000 
#    0.000    0.000    0.000    0.000    0.000    0.000 
#
# Total GULP energy -248006.625609 kJ/mol
# GULP energy per Si atom -12400.331280 kJ/mol
# Density = 2.433615 g / cm^3
# Si number density = 24.391663 Si / 1000 Ang^3
#
#
#
# Elastic Constant Matrix: (Units=GPa)
#
#
# Indices 1 2 3 4 5 6 
#
# 1 138.0760 18.9542 31.9412 0.0000 0.0000 0.0000
# 2 18.9542 75.1560 19.8447 0.0000 0.0000 0.0000
# 3 31.9412 19.8447 134.9941 0.0000 0.0000 0.0000
# 4 0.0000 0.0000 0.0000 45.4123 0.0000 0.0000
# 5 0.0000 0.0000 0.0000 0.0000 34.4226 0.0000
# 6 0.0000 0.0000 0.0000 0.0000 0.0000 34.4363
#
#
#
# Elastic Compliance Matrix: (Units=1/GPa)
#
#
# Indices 1 2 3 4 5 6 
#
# 1 0.007831 -0.001546 -0.001626 0.000000 0.000000 0.000000
# 2 -0.001546 0.014148 -0.001714 0.000000 0.000000 0.000000
# 3 -0.001626 -0.001714 0.008044 0.000000 0.000000 0.000000
# 4 0.000000 0.000000 0.000000 0.022020 0.000000 0.000000
# 5 0.000000 0.000000 0.000000 0.000000 0.029051 0.000000
# 6 0.000000 0.000000 0.000000 0.000000 0.000000 0.029039
#
#
# Mechanical properties :
#
#
# Convention : Reuss Voigt Hill
#
# Bulk Modulus (GPa) = 49.37700 54.41182 51.89441
# Shear Modulus (GPa) = 39.47739 41.35331 40.41535
#
# Velocity S-wave (km/s) = 4.02740 4.12197 4.07496
# Velocity P-wave (km/s) = 6.47409 6.70896 6.59258
#
# Compressibility (1/GPa) = 0.02025234
#
# Stress axis : x y z
#
# Youngs Moduli (GPa) = 127.70394 70.68100 124.31086
#
# Poissons Ratio (x) = 0.10925 0.20208
# Poissons Ratio (y) = 0.19738 0.21308
# Poissons Ratio (z) = 0.20760 0.12116
#
# Static dielectric constant tensor:
#      x y z
#    x 4.631710 0.000000 0.000000 
#    y 0.000000 4.275150 0.000000 
#    z 0.000000 0.000000 4.432030 
# 
# 
# High freq. dielectric constant tensor:
#      x y z
#    x 1.985790 0.000000 0.000000 
#    y 0.000000 1.962240 0.000000 
#    z 0.000000 0.000000 1.971620 
# 
# From -- ./inp_files/9171.got.cif
#   From: 2010.03.12/outbox.cif.g09.slc.cpg/sg20_5_cif.got.tgz:9171.got - 2010.04.14 01:38:04.
