data_PCOD8160248
_publ_section_title
;
Structure prediction by ZEFSAII (Michael W. Deem and Ramdas Pophale) SiO2 
 PCOD8160248
Probable space group: C 2 2 21
;
_chemical_formula_sum "Si O2"
_cell_formula_units_Z 32
_cell_length_a 7.878139
_cell_length_b 10.244036
_cell_length_c 17.122264
_cell_angle_alpha 90.000000
_cell_angle_beta 90.000000
_cell_angle_gamma 90.000000
_cell_volume 1381.834158
_symmetry_space_group_name_H-M "C 2 2 21"
_symmetry_group_IT_number 20
_symmetry_cell_setting 'orthorhombic'
loop_
_space_group_symop_operation_xyz
x,y,z
-x,-y,1/2+z
x,-y,-z
-x,y,1/2-z
1/2+x,1/2+y,z
1/2-x,1/2-y,1/2+z
1/2+x,1/2-y,-z
1/2-x,1/2+y,1/2-z
loop_
_atom_site_type_symbol
_atom_site_label
_atom_site_fract_x
_atom_site_fract_y
_atom_site_fract_z
Si Si1 0.189678 0.499544 0.222846
Si Si2 0.656536 0.642362 0.987333
Si Si3 0.170241 0.173150 0.598782
Si Si4 0.340798 0.719050 0.676914
O O1 0.219960 0.444764 0.134977
O O2 0.309543 0.419661 0.281412
O O3 0.235336 0.654041 0.220966
O O4 0.000000 0.471592 0.250000
O O5 0.453297 0.628394 0.971998
O O6 0.739939 0.708904 0.910284
O O7 0.736741 0.500000 0.000000
O O8 0.695446 0.723172 0.065526
O O9 0.047903 0.235543 0.667610
#
# Coordination Sequence:
#
# PCOD8160248 Si02
#       4
#     8   8   8   8
#     4  12  26  43  71 101 140 190 227 295 344 419
#     4  10  26  43  74 100 141 182 231 294 344 419
#     4  10  26  44  70 101 140 179 238 286 348 417
#     4  10  28  44  71 102 142 181 238 287 348 422
#
# _framework density 23.157626
#
# number of rings (size 3 to 8) (size 9 to 14) (size 15 to 20)
#    1.500    0.000    0.000    2.250   14.000    2.000 
#    0.000    0.000    0.000    0.000    0.000    0.000 
#    0.000    0.000    0.000    0.000    0.000    0.000 
#
# Total GULP energy -198211.522567 kJ/mol
# GULP energy per Si atom -12388.220160 kJ/mol
# Density = 2.310492 g / cm^3
# Si number density = 23.157626 Si / 1000 Ang^3
#
#
#
# Elastic Constant Matrix: (Units=GPa)
#
#
# Indices 1 2 3 4 5 6 
#
# 1 81.7223 35.2104 51.5437 0.0000 0.0000 0.0000
# 2 35.2104 167.9707 67.1338 0.0000 0.0000 0.0000
# 3 51.5437 67.1338 78.4816 0.0000 0.0000 0.0000
# 4 0.0000 0.0000 0.0000 51.9293 0.0000 0.0000
# 5 0.0000 0.0000 0.0000 0.0000 58.2089 0.0000
# 6 0.0000 0.0000 0.0000 0.0000 0.0000 21.7176
#
#
#
# Elastic Compliance Matrix: (Units=1/GPa)
#
#
# Indices 1 2 3 4 5 6 
#
# 1 0.021206 0.001704 -0.015384 0.000000 0.000000 0.000000
# 2 0.001704 0.009183 -0.008974 0.000000 0.000000 0.000000
# 3 -0.015384 -0.008974 0.030522 0.000000 0.000000 0.000000
# 4 0.000000 0.000000 0.000000 0.019257 0.000000 0.000000
# 5 0.000000 0.000000 0.000000 0.000000 0.017180 0.000000
# 6 0.000000 0.000000 0.000000 0.000000 0.000000 0.046046
#
#
# Mechanical properties :
#
#
# Convention : Reuss Voigt Hill
#
# Bulk Modulus (GPa) = 64.09752 70.66116 67.37934
# Shear Modulus (GPa) = 25.78601 37.99025 31.88813
#
# Velocity S-wave (km/s) = 3.34053 4.05471 3.71483
# Velocity P-wave (km/s) = 6.52823 7.24571 6.89631
#
# Compressibility (1/GPa) = 0.01560123
#
# Stress axis : x y z
#
# Youngs Moduli (GPa) = 47.15689 108.89639 32.76298
#
# Poissons Ratio (x) = -0.18551 0.50404
# Poissons Ratio (y) = -0.08034 0.29402
# Poissons Ratio (z) = 0.72548 0.97725
#
# Static dielectric constant tensor:
#      x y z
#    x 3.834860 0.000000 0.000000 
#    y 0.000000 3.937460 0.000000 
#    z 0.000000 0.000000 4.230890 
# 
# 
# High freq. dielectric constant tensor:
#      x y z
#    x 1.886360 0.000000 0.000000 
#    y 0.000000 1.908760 0.000000 
#    z 0.000000 0.000000 1.929610 
# 
# From -- ./inp_files/26356.got.cif
#   From: 2010.03.12/outbox.cif.g09.slc.cpg/sg20_14_cif.got.tgz:26356.got - 2010.04.14 01:38:04.
