data_PCOD8160200
_publ_section_title
;
Structure prediction by ZEFSAII (Michael W. Deem and Ramdas Pophale) SiO2 
 PCOD8160200
Probable space group: C 2 2 21
;
_chemical_formula_sum "Si O2"
_cell_formula_units_Z 64
_cell_length_a 9.357583
_cell_length_b 11.188191
_cell_length_c 27.910432
_cell_angle_alpha 90.000000
_cell_angle_beta 90.000000
_cell_angle_gamma 90.000000
_cell_volume 2922.066655
_symmetry_space_group_name_H-M "C 2 2 21"
_symmetry_group_IT_number 20
_symmetry_cell_setting 'orthorhombic'
loop_
_space_group_symop_operation_xyz
x,y,z
-x,-y,1/2+z
x,-y,-z
-x,y,1/2-z
1/2+x,1/2+y,z
1/2-x,1/2-y,1/2+z
1/2+x,1/2-y,-z
1/2-x,1/2+y,1/2-z
loop_
_atom_site_type_symbol
_atom_site_label
_atom_site_fract_x
_atom_site_fract_y
_atom_site_fract_z
Si Si1 0.438418 0.914790 0.123621
Si Si2 0.239148 0.127501 0.131044
Si Si3 0.051672 0.234977 0.051909
Si Si4 0.849673 0.999798 0.271910
Si Si5 0.698218 0.632156 0.511617
Si Si6 0.307311 0.021703 0.323055
Si Si7 0.605130 0.632618 0.618813
Si Si8 0.326107 0.705499 0.663450
O O1 0.510228 0.861257 0.076172
O O2 0.334174 0.815256 0.145425
O O3 0.354617 0.035146 0.109379
O O4 0.559003 0.938383 0.163662
O O5 0.113267 0.143569 0.091824
O O6 0.180002 0.079411 0.181356
O O7 0.314615 0.253256 0.141322
O O8 0.172044 0.271980 0.012669
O O9 0.916720 0.172702 0.027685
O O10 0.724387 0.016892 0.233325
O O11 0.000000 0.040479 0.250000
O O12 0.849546 0.858838 0.285199
O O13 0.756638 0.500000 0.500000
O O14 0.622576 0.626604 0.562526
O O15 0.355153 0.155182 0.335379
O O16 0.168614 0.983393 0.354087
O O17 0.436245 0.640862 0.627390
#
# Coordination Sequence:
#
# PCOD8160200 Si02
#       8
#     8   8   8   8   8   8   8   8
#     4  11  25  44  72 104 139 192 235 294 367 425
#     4  10  24  47  71 103 152 188 240 306 358 432
#     4  11  27  47  72 108 144 187 247 302 369 444
#     4  11  26  43  71 111 144 192 244 299 359 436
#     4  11  28  44  74 106 140 187 242 302 367 439
#     4  12  25  45  74 102 146 193 235 300 357 432
#     4  11  24  49  70 101 147 186 240 299 362 427
#     4  11  27  43  72 101 139 193 235 288 364 423
#
# _framework density 21.902305999999999
#
# number of rings (size 3 to 8) (size 9 to 14) (size 15 to 20)
#    0.000    1.000    5.000    0.000   10.500    4.000 
#    0.000    0.000    0.000    0.000    0.000    0.000 
#    0.000    0.000    0.000    0.000    0.000    0.000 
#
# Total GULP energy -396889.016523 kJ/mol
# GULP energy per Si atom -12402.781766 kJ/mol
# Density = 2.185246 g / cm^3
# Si number density = 21.902306 Si / 1000 Ang^3
#
#
#
# Elastic Constant Matrix: (Units=GPa)
#
#
# Indices 1 2 3 4 5 6 
#
# 1 112.3552 28.4568 47.1078 0.0000 0.0000 0.0000
# 2 28.4568 89.7499 43.2027 0.0000 0.0000 0.0000
# 3 47.1078 43.2027 105.2314 0.0000 0.0000 0.0000
# 4 0.0000 0.0000 0.0000 36.3555 0.0000 0.0000
# 5 0.0000 0.0000 0.0000 0.0000 43.2925 0.0000
# 6 0.0000 0.0000 0.0000 0.0000 0.0000 35.5991
#
#
#
# Elastic Compliance Matrix: (Units=1/GPa)
#
#
# Indices 1 2 3 4 5 6 
#
# 1 0.011097 -0.001405 -0.004391 0.000000 0.000000 0.000000
# 2 -0.001405 0.014064 -0.005145 0.000000 0.000000 0.000000
# 3 -0.004391 -0.005145 0.013581 0.000000 0.000000 0.000000
# 4 0.000000 0.000000 0.000000 0.027506 0.000000 0.000000
# 5 0.000000 0.000000 0.000000 0.000000 0.023099 0.000000
# 6 0.000000 0.000000 0.000000 0.000000 0.000000 0.028091
#
#
# Mechanical properties :
#
#
# Convention : Reuss Voigt Hill
#
# Bulk Modulus (GPa) = 59.31110 60.54124 59.92617
# Shear Modulus (GPa) = 34.49705 35.62068 35.05887
#
# Velocity S-wave (km/s) = 3.97299 4.03717 4.00521
# Velocity P-wave (km/s) = 6.94153 7.03087 6.98634
#
# Compressibility (1/GPa) = 0.01686025
#
# Stress axis : x y z
#
# Youngs Moduli (GPa) = 90.11278 71.10239 73.63301
#
# Poissons Ratio (x) = 0.09989 0.32332
# Poissons Ratio (y) = 0.12660 0.37885
# Poissons Ratio (z) = 0.39568 0.36583
#
# Static dielectric constant tensor:
#      x y z
#    x 4.135290 0.000000 0.000000 
#    y 0.000000 4.100790 0.000000 
#    z 0.000000 0.000000 3.851260 
# 
# 
# High freq. dielectric constant tensor:
#      x y z
#    x 1.876810 0.000000 0.000000 
#    y 0.000000 1.867860 0.000000 
#    z 0.000000 0.000000 1.852750 
# 
# From -- ./inp_files/31066.got.cif
#   From: 2010.03.12/outbox.cif.g09.slc.cpg/sg20_16_cif.got.tgz:31066.got - 2010.04.14 01:38:04.
