data_PCOD8160737
_publ_section_title
;
Structure prediction by ZEFSAII (Michael W. Deem and Ramdas Pophale) SiO2 
 PCOD8160737
Probable space group: C 2 2 21
;
_chemical_formula_sum "Si O2"
_cell_formula_units_Z 24
_cell_length_a 12.224621
_cell_length_b 8.440433
_cell_length_c 9.503646
_cell_angle_alpha 90.000000
_cell_angle_beta 90.000000
_cell_angle_gamma 90.000000
_cell_volume 980.596596
_symmetry_space_group_name_H-M "C 2 2 21"
_symmetry_group_IT_number 20
_symmetry_cell_setting 'orthorhombic'
loop_
_space_group_symop_operation_xyz
x,y,z
-x,-y,1/2+z
x,-y,-z
-x,y,1/2-z
1/2+x,1/2+y,z
1/2-x,1/2-y,1/2+z
1/2+x,1/2-y,-z
1/2-x,1/2+y,1/2-z
loop_
_atom_site_type_symbol
_atom_site_label
_atom_site_fract_x
_atom_site_fract_y
_atom_site_fract_z
Si Si1 0.871417 0.290366 0.729330
Si Si2 0.500000 0.208561 0.750000
Si Si3 0.065581 0.500000 0.000000
Si Si4 0.678192 0.452349 0.844549
O O1 0.854002 0.372324 0.576036
O O2 0.803593 0.392329 0.843813
O O3 0.000000 0.298903 0.750000
O O4 0.829454 0.112442 0.745037
O O5 0.605756 0.319499 0.767136
O O6 0.510160 0.095009 0.612910
O O7 0.637231 0.500000 0.000000
#
# Coordination Sequence:
#
# PCOD8160737 Si02
#       4
#     8   4   4   8
#     4  12  28  49  78 119 157 215 275 346 416 493
#     4  12  26  54  84 126 172 226 284 350 440 502
#     4  12  26  50  80 122 164 216 284 342 420 508
#     4  12  28  54  81 119 170 223 282 349 418 510
#
# _framework density 24.474896000000001
#
# number of rings (size 3 to 8) (size 9 to 14) (size 15 to 20)
#    0.000    0.000    6.667    2.000    2.333    0.000 
#    3.000    0.000    0.000    0.000    0.000    0.000 
#    0.000    0.000    0.000    0.000    0.000    0.000 
#
# Total GULP energy -148740.919154 kJ/mol
# GULP energy per Si atom -12395.076596 kJ/mol
# Density = 2.441919 g / cm^3
# Si number density = 24.474896 Si / 1000 Ang^3
#
#
#
# Elastic Constant Matrix: (Units=GPa)
#
#
# Indices 1 2 3 4 5 6 
#
# 1 139.7264 78.0180 25.2865 0.0000 0.0000 0.0000
# 2 78.0180 216.0096 62.6053 0.0000 0.0000 0.0000
# 3 25.2865 62.6053 110.7964 0.0000 0.0000 0.0000
# 4 0.0000 0.0000 0.0000 38.8740 0.0000 0.0000
# 5 0.0000 0.0000 0.0000 0.0000 35.4147 0.0000
# 6 0.0000 0.0000 0.0000 0.0000 0.0000 48.7173
#
#
#
# Elastic Compliance Matrix: (Units=1/GPa)
#
#
# Indices 1 2 3 4 5 6 
#
# 1 0.008971 -0.003165 -0.000259 0.000000 0.000000 0.000000
# 2 -0.003165 0.006653 -0.003037 0.000000 0.000000 0.000000
# 3 -0.000259 -0.003037 0.010801 0.000000 0.000000 0.000000
# 4 0.000000 0.000000 0.000000 0.025724 0.000000 0.000000
# 5 0.000000 0.000000 0.000000 0.000000 0.028237 0.000000
# 6 0.000000 0.000000 0.000000 0.000000 0.000000 0.020527
#
#
# Mechanical properties :
#
#
# Convention : Reuss Voigt Hill
#
# Bulk Modulus (GPa) = 74.05951 88.70578 81.38265
# Shear Modulus (GPa) = 42.25318 44.64272 43.44795
#
# Velocity S-wave (km/s) = 4.15949 4.27549 4.21789
# Velocity P-wave (km/s) = 7.30709 7.79072 7.55278
#
# Compressibility (1/GPa) = 0.01350265
#
# Stress axis : x y z
#
# Youngs Moduli (GPa) = 111.47074 150.31483 92.58764
#
# Poissons Ratio (x) = 0.47575 0.02398
# Poissons Ratio (y) = 0.35281 0.28117
# Poissons Ratio (z) = 0.02887 0.45647
#
# Static dielectric constant tensor:
#      x y z
#    x 4.161640 0.000000 0.000000 
#    y 0.000000 5.354020 0.000000 
#    z 0.000000 0.000000 4.496500 
# 
# 
# High freq. dielectric constant tensor:
#      x y z
#    x 1.958400 0.000000 0.000000 
#    y 0.000000 2.015570 0.000000 
#    z 0.000000 0.000000 1.958170 
# 
# From -- ./inp_files/7753.got.cif
#   From: 2010.03.12/outbox.cif.g09.slc.cpg/sg20_4_cif.got.tgz:7753.got - 2010.04.14 01:38:04.
