data_PCOD8160987
_publ_section_title
;
Structure prediction by ZEFSAII (Michael W. Deem and Ramdas Pophale) SiO2 
 PCOD8160987
Probable space group: C 2 2 2
;
_chemical_formula_sum "Si O2"
_cell_formula_units_Z 48
_cell_length_a 13.749387
_cell_length_b 13.620703
_cell_length_c 12.670597
_cell_angle_alpha 90.000000
_cell_angle_beta 90.000000
_cell_angle_gamma 90.000000
_cell_volume 2372.902737
_symmetry_space_group_name_H-M "C 2 2 2"
_symmetry_group_IT_number 21
_symmetry_cell_setting 'orthorhombic'
loop_
_space_group_symop_operation_xyz
x,y,z
-x,-y,z
x,-y,-z
-x,y,-z
1/2+x,1/2+y,z
1/2-x,1/2-y,z
1/2+x,1/2-y,-z
1/2-x,1/2+y,-z
loop_
_atom_site_type_symbol
_atom_site_label
_atom_site_fract_x
_atom_site_fract_y
_atom_site_fract_z
Si Si1 0.791806 0.446988 0.607937
Si Si2 0.961224 0.298233 0.608409
Si Si3 0.609396 0.804306 0.957769
Si Si4 0.082604 0.426690 0.753143
Si Si5 0.335758 0.672585 0.741326
Si Si6 0.303199 0.387796 0.031409
O O1 0.766936 0.500000 0.500000
O O2 0.866651 0.361156 0.579667
O O3 0.827567 0.512816 0.706453
O O4 0.690850 0.403931 0.649911
O O5 0.936075 0.221120 0.701033
O O6 0.000000 0.248642 0.500000
O O7 0.043619 0.369431 0.651751
O O8 0.618984 0.851923 0.842337
O O9 0.500000 0.818205 0.000000
O O10 0.640212 0.689040 0.954155
O O11 0.687236 0.861855 0.032716
O O12 0.000000 0.500000 0.799625
O O13 0.250000 0.750000 0.757086
O O14 0.352367 0.622571 0.853943
O O15 0.320431 0.500000 0.000000
#
# Coordination Sequence:
#
# PCOD8160987 Si02
#       6
#     8   8   8   8   8   8
#     4  10  19  34  58  91 120 156 196 246 321 374
#     4  10  19  35  59  90 121 159 204 254 314 374
#     4  11  24  39  61  96 125 162 222 269 318 380
#     4  10  21  33  59  92 123 156 204 268 315 364
#     4  10  20  37  60  87 123 165 198 253 317 377
#     4  11  24  43  64  90 131 174 215 264 328 387
#
# _framework density 20.228389
#
# number of rings (size 3 to 8) (size 9 to 14) (size 15 to 20)
#    0.000    1.667    3.333    2.000    7.000    0.333 
#    0.000    5.000    0.000    2.500    0.000    0.000 
#    0.000    0.000    0.000    0.000    0.000    0.000 
#
# Total GULP energy -297517.808265 kJ/mol
# GULP energy per Si atom -12396.575344 kJ/mol
# Density = 2.018235 g / cm^3
# Si number density = 20.228389 Si / 1000 Ang^3
#
#
#
# Elastic Constant Matrix: (Units=GPa)
#
#
# Indices 1 2 3 4 5 6 
#
# 1 50.9408 24.6099 22.6888 0.0000 0.0000 0.0000
# 2 24.6099 122.2371 60.6651 0.0000 0.0000 0.0000
# 3 22.6888 60.6651 112.2403 0.0000 0.0000 0.0000
# 4 0.0000 0.0000 0.0000 45.9812 0.0000 0.0000
# 5 0.0000 0.0000 0.0000 0.0000 -10.6195 0.0000
# 6 0.0000 0.0000 0.0000 0.0000 0.0000 19.5743
#
#
#
# Elastic Compliance Matrix: (Units=1/GPa)
#
#
# Indices 1 2 3 4 5 6 
#
# 1 0.022396 -0.003091 -0.002856 0.000000 0.000000 0.000000
# 2 -0.003091 0.011606 -0.005648 0.000000 0.000000 0.000000
# 3 -0.002856 -0.005648 0.012540 0.000000 0.000000 0.000000
# 4 0.000000 0.000000 0.000000 0.021748 0.000000 0.000000
# 5 0.000000 0.000000 0.000000 0.000000 -0.094166 0.000000
# 6 0.000000 0.000000 0.000000 0.000000 0.000000 0.051087
#
#
# Mechanical properties :
#
#
# Convention : Reuss Voigt Hill
#
# Bulk Modulus (GPa) = 42.82610 55.70511 49.26560
# Shear Modulus (GPa) = 88.98787 22.81748 55.90268
#
# Velocity S-wave (km/s) = 6.63981 3.36220 5.26267
# Velocity P-wave (km/s) = 8.94427 6.53226 7.83168
#
# Compressibility (1/GPa) = 0.02335025
#
# Stress axis : x y z
#
# Youngs Moduli (GPa) = 44.65015 86.15940 79.74663
#
# Poissons Ratio (x) = 0.26635 0.22779
# Poissons Ratio (y) = 0.13803 0.45043
# Poissons Ratio (z) = 0.12754 0.48665
#
# Static dielectric constant tensor:
#      x y z
#    x 3.556440 0.000000 0.000000 
#    y 0.000000 3.759300 0.000000 
#    z 0.000000 0.000000 3.572910 
# 
# 
# High freq. dielectric constant tensor:
#      x y z
#    x 1.764070 0.000000 0.000000 
#    y 0.000000 1.780960 0.000000 
#    z 0.000000 0.000000 1.795480 
# 
# From -- ./inp_files/25181.got.cif
#   From: 2010.03.12/outbox.cif.g09.slc.cpg/sg21_13_cif.got.tgz:25181.got - 2010.04.14 01:59:26.
