data_PCOD8160883
_publ_section_title
;
Structure prediction by ZEFSAII (Michael W. Deem and Ramdas Pophale) SiO2 
 PCOD8160883
Probable space group: C 2 2 2
;
_chemical_formula_sum "Si O2"
_cell_formula_units_Z 46
_cell_length_a 31.164357
_cell_length_b 8.631237
_cell_length_c 8.904032
_cell_angle_alpha 90.000000
_cell_angle_beta 90.000000
_cell_angle_gamma 90.000000
_cell_volume 2395.068421
_symmetry_space_group_name_H-M "C 2 2 2"
_symmetry_group_IT_number 21
_symmetry_cell_setting 'orthorhombic'
loop_
_space_group_symop_operation_xyz
x,y,z
-x,-y,z
x,-y,-z
-x,y,-z
1/2+x,1/2+y,z
1/2-x,1/2-y,z
1/2+x,1/2-y,-z
1/2-x,1/2+y,-z
loop_
_atom_site_type_symbol
_atom_site_label
_atom_site_fract_x
_atom_site_fract_y
_atom_site_fract_z
Si Si1 0.570752 0.695952 0.850111
Si Si2 0.816089 0.000000 0.500000
Si Si3 0.380679 0.237232 0.575968
Si Si4 0.205338 0.813591 0.773323
Si Si5 0.635766 0.918461 0.287594
Si Si6 0.145063 0.000000 0.000000
Si Si7 0.000000 0.000000 0.000000
Si Si8 0.411508 0.000000 0.000000
O O1 0.576828 0.711409 0.669387
O O2 0.614672 0.619232 0.910792
O O3 0.528961 0.597544 0.886402
O O4 0.561133 0.866436 0.918666
O O5 0.846777 0.874476 0.576706
O O6 0.786402 0.925672 0.370168
O O7 0.393427 0.179515 0.407898
O O8 0.358237 0.095586 0.664280
O O9 0.250000 0.750000 0.842251
O O10 0.182029 0.659973 0.713930
O O11 0.176190 0.901792 0.893495
O O12 0.616174 0.907191 0.122424
#
# Coordination Sequence:
#
# PCOD8160883 Si02
#       8
#     8   4   8   8   8   4   2   4
#     4  10  20  38  62  86 122 153 205 244 315 371
#     4  10  20  36  58  81 108 162 206 246 311 356
#     4   9  18  34  59  81 112 154 201 247 295 381
#     4  11  23  37  54  84 120 155 205 263 307 367
#     4   9  19  34  55  87 112 154 208 240 303 364
#     4  11  20  40  56  84 115 169 198 257 305 383
#     4  10  24  34  60 100 120 150 198 270 300 384
#     4  10  18  34  66  85 115 159 195 250 293 381
#
# _framework density 19.206130999999999
#
# number of rings (size 3 to 8) (size 9 to 14) (size 15 to 20)
#    0.000    2.087    3.478    0.000    0.000    3.826 
#    0.000    0.870    0.000    4.696    0.000    9.739 
#    0.000    0.000    0.000    0.000    0.000    0.000 
#
# Total GULP energy -285038.752366 kJ/mol
# GULP energy per Si atom -12392.989233 kJ/mol
# Density = 1.916242 g / cm^3
# Si number density = 19.206131 Si / 1000 Ang^3
#
#
#
# Elastic Constant Matrix: (Units=GPa)
#
#
# Indices 1 2 3 4 5 6 
#
# 1 100.9191 48.8865 51.0314 0.0000 0.0000 0.0000
# 2 48.8865 101.9294 33.6526 0.0000 0.0000 0.0000
# 3 51.0314 33.6526 114.9634 0.0000 0.0000 0.0000
# 4 0.0000 0.0000 0.0000 32.6041 0.0000 0.0000
# 5 0.0000 0.0000 0.0000 0.0000 21.1899 0.0000
# 6 0.0000 0.0000 0.0000 0.0000 0.0000 22.4812
#
#
#
# Elastic Compliance Matrix: (Units=1/GPa)
#
#
# Indices 1 2 3 4 5 6 
#
# 1 0.015209 -0.005607 -0.005110 0.000000 0.000000 0.000000
# 2 -0.005607 0.012928 -0.001295 0.000000 0.000000 0.000000
# 3 -0.005110 -0.001295 0.011346 0.000000 0.000000 0.000000
# 4 0.000000 0.000000 0.000000 0.030671 0.000000 0.000000
# 5 0.000000 0.000000 0.000000 0.000000 0.047192 0.000000
# 6 0.000000 0.000000 0.000000 0.000000 0.000000 0.044482
#
#
# Mechanical properties :
#
#
# Convention : Reuss Voigt Hill
#
# Bulk Modulus (GPa) = 64.69223 64.99477 64.84350
# Shear Modulus (GPa) = 26.17739 27.53782 26.85760
#
# Velocity S-wave (km/s) = 3.69585 3.79067 3.74356
# Velocity P-wave (km/s) = 7.20893 7.28512 7.24712
#
# Compressibility (1/GPa) = 0.01545781
#
# Stress axis : x y z
#
# Youngs Moduli (GPa) = 65.75027 77.35333 88.13886
#
# Poissons Ratio (x) = 0.43375 0.45037
# Poissons Ratio (y) = 0.36869 0.11415
# Poissons Ratio (z) = 0.33597 0.10019
#
# Static dielectric constant tensor:
#      x y z
#    x 3.037680 0.000000 0.000000 
#    y 0.000000 3.798290 0.000000 
#    z 0.000000 0.000000 3.819920 
# 
# 
# High freq. dielectric constant tensor:
#      x y z
#    x 1.694720 0.000000 0.000000 
#    y 0.000000 1.773410 0.000000 
#    z 0.000000 0.000000 1.758120 
# 
# From -- ./inp_files/11469.got.cif
#   From: 2010.03.12/outbox.cif.g09.slc.cpg/sg21_6_cif.got.tgz:11469.got - 2010.04.14 01:59:26.
