data_PCOD8160720
_publ_section_title
;
Structure prediction by ZEFSAII (Michael W. Deem and Ramdas Pophale) SiO2 
 PCOD8160720
Probable space group: C 2 2 21
;
_chemical_formula_sum "Si O2"
_cell_formula_units_Z 36
_cell_length_a 26.407398
_cell_length_b 9.915294
_cell_length_c 6.796536
_cell_angle_alpha 90.000000
_cell_angle_beta 90.000000
_cell_angle_gamma 90.000000
_cell_volume 1779.585378
_symmetry_space_group_name_H-M "C 2 2 21"
_symmetry_group_IT_number 20
_symmetry_cell_setting 'orthorhombic'
loop_
_space_group_symop_operation_xyz
x,y,z
-x,-y,1/2+z
x,-y,-z
-x,y,1/2-z
1/2+x,1/2+y,z
1/2-x,1/2-y,1/2+z
1/2+x,1/2-y,-z
1/2-x,1/2+y,1/2-z
loop_
_atom_site_type_symbol
_atom_site_label
_atom_site_fract_x
_atom_site_fract_y
_atom_site_fract_z
Si Si1 0.553768 0.623271 0.659394
Si Si2 0.810132 0.181694 0.283012
Si Si3 0.130254 0.345362 0.532255
Si Si4 0.115163 0.000000 0.000000
Si Si5 0.706512 0.127324 0.118440
O O1 0.550616 0.500000 0.500000
O O2 0.500000 0.665574 0.750000
O O3 0.580558 0.751044 0.553819
O O4 0.582369 0.595126 0.862497
O O5 0.763287 0.098112 0.193394
O O6 0.787651 0.244992 0.479186
O O7 0.852934 0.076600 0.335945
O O8 0.834676 0.296808 0.147113
O O9 0.112662 0.500000 0.500000
O O10 0.165414 0.333513 0.721326
O O11 0.685678 0.000000 0.000000
#
# Coordination Sequence:
#
# PCOD8160720 Si02
#       5
#     8   8   8   4   8
#     4  12  26  48  75 104 133 176 239 301 358 416
#     4  12  26  40  65 102 142 188 231 281 343 419
#     4  12  26  46  67 102 146 186 227 285 356 428
#     4  12  26  42  70 104 136 176 238 294 348 412
#     4  12  26  40  62  99 145 189 232 278 341 419
#
# _framework density 20.229431000000002
#
# number of rings (size 3 to 8) (size 9 to 14) (size 15 to 20)
#    0.000    0.000   10.000    0.000    7.778    0.000 
#    0.000    4.444    0.000    0.000    0.000    0.000 
#    0.000    0.000    0.000    0.000    0.000    0.000 
#
# Total GULP energy -223149.228391 kJ/mol
# GULP energy per Si atom -12397.179355 kJ/mol
# Density = 2.018339 g / cm^3
# Si number density = 20.229431 Si / 1000 Ang^3
#
#
#
# Elastic Constant Matrix: (Units=GPa)
#
#
# Indices 1 2 3 4 5 6 
#
# 1 133.1053 44.4766 44.8642 0.0000 0.0000 0.0000
# 2 44.4766 99.3574 34.2867 0.0000 0.0000 0.0000
# 3 44.8642 34.2867 102.1902 0.0000 0.0000 0.0000
# 4 0.0000 0.0000 0.0000 43.5789 0.0000 0.0000
# 5 0.0000 0.0000 0.0000 0.0000 32.5624 0.0000
# 6 0.0000 0.0000 0.0000 0.0000 0.0000 28.1807
#
#
#
# Elastic Compliance Matrix: (Units=1/GPa)
#
#
# Indices 1 2 3 4 5 6 
#
# 1 0.009657 -0.003234 -0.003154 0.000000 0.000000 0.000000
# 2 -0.003234 0.012466 -0.002763 0.000000 0.000000 0.000000
# 3 -0.003154 -0.002763 0.012097 0.000000 0.000000 0.000000
# 4 0.000000 0.000000 0.000000 0.022947 0.000000 0.000000
# 5 0.000000 0.000000 0.000000 0.000000 0.030710 0.000000
# 6 0.000000 0.000000 0.000000 0.000000 0.000000 0.035485
#
#
# Mechanical properties :
#
#
# Convention : Reuss Voigt Hill
#
# Bulk Modulus (GPa) = 62.82393 64.65643 63.74018
# Shear Modulus (GPa) = 34.02036 34.93276 34.47656
#
# Velocity S-wave (km/s) = 4.10533 4.16002 4.13277
# Velocity P-wave (km/s) = 7.32085 7.42330 7.37225
#
# Compressibility (1/GPa) = 0.01591750
#
# Stress axis : x y z
#
# Youngs Moduli (GPa) = 103.55410 80.21955 82.66202
#
# Poissons Ratio (x) = 0.25945 0.26075
# Poissons Ratio (y) = 0.33492 0.22836
# Poissons Ratio (z) = 0.32666 0.22161
#
# Static dielectric constant tensor:
#      x y z
#    x 3.656220 0.000000 0.000000 
#    y 0.000000 3.617400 0.000000 
#    z 0.000000 0.000000 3.899860 
# 
# 
# High freq. dielectric constant tensor:
#      x y z
#    x 1.788140 0.000000 0.000000 
#    y 0.000000 1.785890 0.000000 
#    z 0.000000 0.000000 1.814140 
# 
# From -- ./inp_files/1214.got.cif
#   From: 2010.03.12/outbox.cif.g09.slc.cpg/sg20_1_cif.got.tgz:1214.got - 2010.04.14 01:38:04.
