data_PCOD8160809
_publ_section_title
;
Structure prediction by ZEFSAII (Michael W. Deem and Ramdas Pophale) SiO2 
 PCOD8160809
Probable space group: C 2 2 2
;
_chemical_formula_sum "Si O2"
_cell_formula_units_Z 38
_cell_length_a 13.823896
_cell_length_b 15.692893
_cell_length_c 10.464786
_cell_angle_alpha 90.000000
_cell_angle_beta 90.000000
_cell_angle_gamma 90.000000
_cell_volume 2270.198451
_symmetry_space_group_name_H-M "C 2 2 2"
_symmetry_group_IT_number 21
_symmetry_cell_setting 'orthorhombic'
loop_
_space_group_symop_operation_xyz
x,y,z
-x,-y,z
x,-y,-z
-x,y,-z
1/2+x,1/2+y,z
1/2-x,1/2-y,z
1/2+x,1/2-y,-z
1/2-x,1/2+y,-z
loop_
_atom_site_type_symbol
_atom_site_label
_atom_site_fract_x
_atom_site_fract_y
_atom_site_fract_z
Si Si1 0.056392 0.920364 0.755758
Si Si2 0.750000 0.750000 0.575444
Si Si3 0.463763 0.256755 0.645316
Si Si4 0.738164 0.419628 0.586637
Si Si5 0.956360 0.582917 0.357631
Si Si6 0.000000 0.000000 0.000000
O O1 0.163458 0.911337 0.701930
O O2 0.993633 0.835923 0.732110
O O3 0.000000 0.000000 0.689504
O O4 0.065077 0.939003 0.908395
O O5 0.651933 0.757881 0.657661
O O6 0.735601 0.666840 0.491361
O O7 0.500000 0.272999 0.500000
O O8 0.514428 0.172678 0.706246
O O9 0.709833 0.500000 0.500000
O O10 0.842713 0.431755 0.646862
O O11 0.000000 0.500000 0.285454
O O12 0.000000 0.586600 0.500000
#
# Coordination Sequence:
#
# PCOD8160809 Si02
#       6
#     8   4   8   8   8   2
#     4  10  22  36  54  74 105 144 189 241 268 310
#     4  12  20  28  46  86 122 136 172 200 282 372
#     4  11  19  31  50  81 118 141 167 215 283 344
#     4  12  19  28  53  83 112 143 173 211 281 349
#     4  10  17  31  45  78 122 148 159 197 263 352
#     4   8  24  44  50  72 104 148 208 242 264 292
#
# _framework density 16.738624999999999
#
# number of rings (size 3 to 8) (size 9 to 14) (size 15 to 20)
#    0.632    0.632    8.421    1.263    0.000    0.000 
#    0.000    0.000    0.000    3.789    0.000    0.000 
#    0.000    0.000    0.000    0.000    0.000    0.000 
#
# Total GULP energy -235463.158776 kJ/mol
# GULP energy per Si atom -12392.797830 kJ/mol
# Density = 1.670053 g / cm^3
# Si number density = 16.738625 Si / 1000 Ang^3
#
#
#
# Elastic Constant Matrix: (Units=GPa)
#
#
# Indices 1 2 3 4 5 6 
#
# 1 135.5139 29.3942 42.3724 0.0000 0.0000 0.0000
# 2 29.3942 154.7323 43.2656 0.0000 0.0000 0.0000
# 3 42.3724 43.2656 60.9966 0.0000 0.0000 0.0000
# 4 0.0000 0.0000 0.0000 8.5248 0.0000 0.0000
# 5 0.0000 0.0000 0.0000 0.0000 10.2335 0.0000
# 6 0.0000 0.0000 0.0000 0.0000 0.0000 31.2627
#
#
#
# Elastic Compliance Matrix: (Units=1/GPa)
#
#
# Indices 1 2 3 4 5 6 
#
# 1 0.009427 0.000050 -0.006584 0.000000 0.000000 0.000000
# 2 0.000050 0.008062 -0.005753 0.000000 0.000000 0.000000
# 3 -0.006584 -0.005753 0.025049 0.000000 0.000000 0.000000
# 4 0.000000 0.000000 0.000000 0.117304 0.000000 0.000000
# 5 0.000000 0.000000 0.000000 0.000000 0.097718 0.000000
# 6 0.000000 0.000000 0.000000 0.000000 0.000000 0.031987
#
#
# Mechanical properties :
#
#
# Convention : Reuss Voigt Hill
#
# Bulk Modulus (GPa) = 55.66878 64.58968 60.12923
# Shear Modulus (GPa) = 15.61957 25.75157 20.68557
#
# Velocity S-wave (km/s) = 3.05806 3.92657 3.51921
# Velocity P-wave (km/s) = 6.76748 7.69599 7.24662
#
# Compressibility (1/GPa) = 0.01796339
#
# Stress axis : x y z
#
# Youngs Moduli (GPa) = 106.07572 124.03937 39.92135
#
# Poissons Ratio (x) = -0.00623 0.26286
# Poissons Ratio (y) = -0.00533 0.22968
# Poissons Ratio (z) = 0.69845 0.71364
#
# Static dielectric constant tensor:
#      x y z
#    x 3.595490 0.000000 0.000000 
#    y 0.000000 3.793590 0.000000 
#    z 0.000000 0.000000 2.509420 
# 
# 
# High freq. dielectric constant tensor:
#      x y z
#    x 1.660390 0.000000 0.000000 
#    y 0.000000 1.677530 0.000000 
#    z 0.000000 0.000000 1.562760 
# 
# From -- ./inp_files/25093.got.cif
#   From: 2010.03.12/outbox.cif.g09.slc.cpg/sg21_13_cif.got.tgz:25093.got - 2010.04.14 01:59:26.
