data_PCOD8160371
_publ_section_title
;
Structure prediction by ZEFSAII (Michael W. Deem and Ramdas Pophale) SiO2 
 PCOD8160371
Probable space group: C 2 2 21
;
_chemical_formula_sum "Si O2"
_cell_formula_units_Z 48
_cell_length_a 21.892570
_cell_length_b 20.438094
_cell_length_c 5.212430
_cell_angle_alpha 90.000000
_cell_angle_beta 90.000000
_cell_angle_gamma 90.000000
_cell_volume 2332.262208
_symmetry_space_group_name_H-M "C 2 2 21"
_symmetry_group_IT_number 20
_symmetry_cell_setting 'orthorhombic'
loop_
_space_group_symop_operation_xyz
x,y,z
-x,-y,1/2+z
x,-y,-z
-x,y,1/2-z
1/2+x,1/2+y,z
1/2-x,1/2-y,1/2+z
1/2+x,1/2-y,-z
1/2-x,1/2+y,1/2-z
loop_
_atom_site_type_symbol
_atom_site_label
_atom_site_fract_x
_atom_site_fract_y
_atom_site_fract_z
Si Si1 0.766040 0.157310 0.561851
Si Si2 0.261059 0.459530 0.756423
Si Si3 0.961832 0.701644 0.008906
Si Si4 0.330819 0.114345 0.535400
Si Si5 0.163582 0.736726 0.307256
Si Si6 0.436706 0.062360 0.863834
O O1 0.791175 0.111019 0.327426
O O2 0.724759 0.114784 0.758684
O O3 0.824636 0.190437 0.696832
O O4 0.723402 0.216496 0.465674
O O5 0.263618 0.500000 0.500000
O O6 0.290712 0.500000 0.000000
O O7 0.191326 0.438249 0.822319
O O8 0.948328 0.624375 0.049102
O O9 0.000000 0.715933 0.750000
O O10 0.896180 0.738563 0.009339
O O11 0.000000 0.727948 0.250000
O O12 0.346445 0.185411 0.423454
O O13 0.393508 0.087301 0.639855
O O14 0.500000 0.036426 0.750000
O O15 0.405908 0.000000 0.000000
#
# Coordination Sequence:
#
# PCOD8160371 Si02
#       6
#     8   8   8   8   8   8
#     4  11  22  38  63  95 121 168 215 279 343 406
#     4  11  24  41  58  87 123 166 208 258 328 403
#     4  11  24  42  62  85 121 172 219 272 334 379
#     4  11  23  39  61  86 119 168 216 278 333 384
#     4  11  22  39  62  92 128 161 223 278 339 403
#     4  11  24  40  55  83 117 171 235 284 312 362
#
# _framework density 20.580877000000001
#
# number of rings (size 3 to 8) (size 9 to 14) (size 15 to 20)
#    0.000    1.000    5.000    2.500    2.333    0.667 
#    0.000    0.000    0.000    0.000    0.000    0.000 
#    0.000    0.000    5.667    0.500    0.667    0.333 
#
# Total GULP energy -297416.774866 kJ/mol
# GULP energy per Si atom -12392.365619 kJ/mol
# Density = 2.053403 g / cm^3
# Si number density = 20.580877 Si / 1000 Ang^3
#
#
#
# Elastic Constant Matrix: (Units=GPa)
#
#
# Indices 1 2 3 4 5 6 
#
# 1 80.1568 48.2812 41.5488 0.0000 0.0000 0.0000
# 2 48.2812 64.9019 41.5692 0.0000 0.0000 0.0000
# 3 41.5488 41.5692 118.0342 0.0000 0.0000 0.0000
# 4 0.0000 0.0000 0.0000 35.9882 0.0000 0.0000
# 5 0.0000 0.0000 0.0000 0.0000 33.4489 0.0000
# 6 0.0000 0.0000 0.0000 0.0000 0.0000 20.0600
#
#
#
# Elastic Compliance Matrix: (Units=1/GPa)
#
#
# Indices 1 2 3 4 5 6 
#
# 1 0.023253 -0.015567 -0.002703 0.000000 0.000000 0.000000
# 2 -0.015567 0.030317 -0.005197 0.000000 0.000000 0.000000
# 3 -0.002703 -0.005197 0.011254 0.000000 0.000000 0.000000
# 4 0.000000 0.000000 0.000000 0.027787 0.000000 0.000000
# 5 0.000000 0.000000 0.000000 0.000000 0.029896 0.000000
# 6 0.000000 0.000000 0.000000 0.000000 0.000000 0.049851
#
#
# Mechanical properties :
#
#
# Convention : Reuss Voigt Hill
#
# Bulk Modulus (GPa) = 55.89809 58.43237 57.16523
# Shear Modulus (GPa) = 22.19697 26.67900 24.43799
#
# Velocity S-wave (km/s) = 3.28765 3.60432 3.44962
# Velocity P-wave (km/s) = 6.45219 6.76570 6.61080
#
# Compressibility (1/GPa) = 0.01788970
#
# Stress axis : x y z
#
# Youngs Moduli (GPa) = 43.00495 32.98454 88.85768
#
# Poissons Ratio (x) = 0.51347 0.24017
# Poissons Ratio (y) = 0.66946 0.46183
# Poissons Ratio (z) = 0.11624 0.17143
#
# Static dielectric constant tensor:
#      x y z
#    x 3.494340 0.000000 0.000000 
#    y 0.000000 3.826630 0.000000 
#    z 0.000000 0.000000 4.087550 
# 
# 
# High freq. dielectric constant tensor:
#      x y z
#    x 1.753820 0.000000 0.000000 
#    y 0.000000 1.788530 0.000000 
#    z 0.000000 0.000000 1.826650 
# 
# From -- ./inp_files/3187.got.cif
#   From: 2010.03.12/outbox.cif.g09.slc.cpg/sg20_2_cif.got.tgz:3187.got - 2010.04.14 01:38:04.
