data_PCOD8160874
_publ_section_title
;
Structure prediction by ZEFSAII (Michael W. Deem and Ramdas Pophale) SiO2 
 PCOD8160874
Probable space group: C 2 2 2
;
_chemical_formula_sum "Si O2"
_cell_formula_units_Z 36
_cell_length_a 20.117792
_cell_length_b 14.143446
_cell_length_c 5.540395
_cell_angle_alpha 90.000000
_cell_angle_beta 90.000000
_cell_angle_gamma 90.000000
_cell_volume 1576.435764
_symmetry_space_group_name_H-M "C 2 2 2"
_symmetry_group_IT_number 21
_symmetry_cell_setting 'orthorhombic'
loop_
_space_group_symop_operation_xyz
x,y,z
-x,-y,z
x,-y,-z
-x,y,-z
1/2+x,1/2+y,z
1/2-x,1/2-y,z
1/2+x,1/2-y,-z
1/2-x,1/2+y,-z
loop_
_atom_site_type_symbol
_atom_site_label
_atom_site_fract_x
_atom_site_fract_y
_atom_site_fract_z
Si Si1 0.000000 0.618763 0.500000
Si Si2 0.567095 0.246147 0.116259
Si Si3 0.114717 0.578903 0.806165
Si Si4 0.201482 0.158889 0.862408
Si Si5 0.749504 0.863332 0.367734
O O1 0.950610 0.685859 0.648707
O O2 0.952925 0.551431 0.335674
O O3 0.622756 0.323335 0.175107
O O4 0.500000 0.291386 0.000000
O O5 0.602746 0.179944 0.923433
O O6 0.176020 0.592437 0.626380
O O7 0.131492 0.500000 0.000000
O O8 0.250000 0.250000 0.868945
O O9 0.219193 0.097945 0.620712
O O10 0.213106 0.104380 0.118413
O O11 0.750000 0.750000 0.380711
#
# Coordination Sequence:
#
# PCOD8160874 Si02
#       5
#     4   8   8   8   8
#     4  10  22  37  52  70 120 160 199 242 286 349
#     4  10  21  34  53  84 112 156 199 245 294 364
#     4  11  23  37  54  82 116 166 213 242 291 361
#     4  10  18  33  58  77 104 146 199 240 306 334
#     4  10  19  35  59  77 104 149 205 250 300 330
#
# _framework density 22.836324999999999
#
# number of rings (size 3 to 8) (size 9 to 14) (size 15 to 20)
#    0.000    1.778    4.444    2.667    3.111    5.778 
#    0.000    0.000    0.000    0.000    0.000    0.000 
#    0.000    0.889    1.333    0.333    0.000    0.000 
#
# Total GULP energy -223078.849782 kJ/mol
# GULP energy per Si atom -12393.269432 kJ/mol
# Density = 2.278435 g / cm^3
# Si number density = 22.836325 Si / 1000 Ang^3
#
#
#
# Elastic Constant Matrix: (Units=GPa)
#
#
# Indices 1 2 3 4 5 6 
#
# 1 181.7197 30.4899 58.2403 0.0000 0.0000 0.0000
# 2 30.4899 9.7028 16.7661 0.0000 0.0000 0.0000
# 3 58.2403 16.7661 187.6063 0.0000 0.0000 0.0000
# 4 0.0000 0.0000 0.0000 27.4516 0.0000 0.0000
# 5 0.0000 0.0000 0.0000 0.0000 97.6712 0.0000
# 6 0.0000 0.0000 0.0000 0.0000 0.0000 24.8965
#
#
#
# Elastic Compliance Matrix: (Units=1/GPa)
#
#
# Indices 1 2 3 4 5 6 
#
# 1 0.011667 -0.035956 -0.000409 0.000000 0.000000 0.000000
# 2 -0.035956 0.232697 -0.009634 0.000000 0.000000 0.000000
# 3 -0.000409 -0.009634 0.006318 0.000000 0.000000 0.000000
# 4 0.000000 0.000000 0.000000 0.036428 0.000000 0.000000
# 5 0.000000 0.000000 0.000000 0.000000 0.010238 0.000000
# 6 0.000000 0.000000 0.000000 0.000000 0.000000 0.040166
#
#
# Mechanical properties :
#
#
# Convention : Reuss Voigt Hill
#
# Bulk Modulus (GPa) = 6.30175 65.55794 35.92985
# Shear Modulus (GPa) = 10.36473 48.23935 29.30204
#
# Velocity S-wave (km/s) = 2.13273 4.60107 3.58597
# Velocity P-wave (km/s) = 2.97158 7.54960 5.73702
#
# Compressibility (1/GPa) = 0.15868598
#
# Stress axis : x y z
#
# Youngs Moduli (GPa) = 85.71391 4.29744 158.27585
#
# Poissons Ratio (x) = 0.15452 0.06466
# Poissons Ratio (y) = 3.08189 1.52479
# Poissons Ratio (z) = 0.03502 0.04140
#
# Static dielectric constant tensor:
#      x y z
#    x 4.365990 0.000000 0.000000 
#    y 0.000000 3.373340 0.000000 
#    z 0.000000 0.000000 5.216820 
# 
# 
# High freq. dielectric constant tensor:
#      x y z
#    x 1.908300 0.000000 0.000000 
#    y 0.000000 1.831210 0.000000 
#    z 0.000000 0.000000 1.936120 
# 
# From -- ./inp_files/4956.got.cif
#   From: 2010.03.12/outbox.cif.g09.slc.cpg/sg21_3_cif.got.tgz:4956.got - 2010.04.14 01:59:26.
