data_PCOD8160640
_publ_section_title
;
Structure prediction by ZEFSAII (Michael W. Deem and Ramdas Pophale) SiO2 
 PCOD8160640
Probable space group: C 2 2 21
;
_chemical_formula_sum "Si O2"
_cell_formula_units_Z 56
_cell_length_a 14.095574
_cell_length_b 14.320991
_cell_length_c 12.171858
_cell_angle_alpha 90.000000
_cell_angle_beta 90.000000
_cell_angle_gamma 90.000000
_cell_volume 2457.042761
_symmetry_space_group_name_H-M "C 2 2 21"
_symmetry_group_IT_number 20
_symmetry_cell_setting 'orthorhombic'
loop_
_space_group_symop_operation_xyz
x,y,z
-x,-y,1/2+z
x,-y,-z
-x,y,1/2-z
1/2+x,1/2+y,z
1/2-x,1/2-y,1/2+z
1/2+x,1/2-y,-z
1/2-x,1/2+y,1/2-z
loop_
_atom_site_type_symbol
_atom_site_label
_atom_site_fract_x
_atom_site_fract_y
_atom_site_fract_z
Si Si1 0.298871 0.500000 0.500000
Si Si2 0.200739 0.514213 0.267374
Si Si3 0.202354 0.269303 0.743256
Si Si4 0.152580 0.057129 0.397579
Si Si5 0.897302 0.329174 0.205044
Si Si6 0.000000 0.005547 0.250000
Si Si7 0.885961 0.232665 0.990133
Si Si8 0.419267 0.353809 0.407789
O O1 0.238515 0.500694 0.389460
O O2 0.357519 0.402260 0.504026
O O3 0.178933 0.621590 0.239718
O O4 0.272414 0.491716 0.166691
O O5 0.117010 0.437687 0.257784
O O6 0.312413 0.236906 0.747961
O O7 0.168093 0.251872 0.620520
O O8 0.140701 0.219161 0.836346
O O9 0.180851 0.159705 0.440822
O O10 0.112974 0.000000 0.500000
O O11 0.066301 0.076073 0.315568
O O12 0.000000 0.296663 0.250000
O O13 0.897418 0.321770 0.070962
O O14 0.059528 0.940147 0.170631
O O15 0.989583 0.193045 0.961679
#
# Coordination Sequence:
#
# PCOD8160640 Si02
#       8
#     4   8   8   8   8   4   8   8
#     4  12  24  44  78 112 152 190 250 324 400 444
#     4  12  27  48  76 103 151 205 256 311 381 461
#     4  12  26  50  77 106 155 208 258 311 389 473
#     4  12  23  41  72 108 149 184 243 314 387 447
#     4  12  29  51  73 111 155 202 258 318 380 459
#     4  12  20  38  66 108 140 178 230 306 376 444
#     4  12  26  44  77 114 151 194 259 318 389 461
#     4  12  23  43  73 113 149 192 249 320 388 460
#
# _framework density 22.791626000000001
#
# number of rings (size 3 to 8) (size 9 to 14) (size 15 to 20)
#    0.000    0.000    7.143    2.571    3.000    1.143 
#    2.571    0.000    0.000    0.000    0.000    0.000 
#    0.000    0.000    0.000    0.000    0.000    0.000 
#
# Total GULP energy -346909.707453 kJ/mol
# GULP energy per Si atom -12389.632409 kJ/mol
# Density = 2.273975 g / cm^3
# Si number density = 22.791626 Si / 1000 Ang^3
#
#
#
# Elastic Constant Matrix: (Units=GPa)
#
#
# Indices 1 2 3 4 5 6 
#
# 1 90.2670 20.8369 46.9454 0.0000 0.0000 0.0000
# 2 20.8369 109.9696 39.0997 0.0000 0.0000 0.0000
# 3 46.9454 39.0997 116.4102 0.0000 0.0000 0.0000
# 4 0.0000 0.0000 0.0000 48.6042 0.0000 0.0000
# 5 0.0000 0.0000 0.0000 0.0000 13.3193 0.0000
# 6 0.0000 0.0000 0.0000 0.0000 0.0000 18.0258
#
#
#
# Elastic Compliance Matrix: (Units=1/GPa)
#
#
# Indices 1 2 3 4 5 6 
#
# 1 0.014071 -0.000737 -0.005427 0.000000 0.000000 0.000000
# 2 -0.000737 0.010365 -0.003184 0.000000 0.000000 0.000000
# 3 -0.005427 -0.003184 0.011848 0.000000 0.000000 0.000000
# 4 0.000000 0.000000 0.000000 0.020574 0.000000 0.000000
# 5 0.000000 0.000000 0.000000 0.000000 0.075079 0.000000
# 6 0.000000 0.000000 0.000000 0.000000 0.000000 0.055476
#
#
# Mechanical properties :
#
#
# Convention : Reuss Voigt Hill
#
# Bulk Modulus (GPa) = 56.85542 58.93455 57.89499
# Shear Modulus (GPa) = 23.58797 29.97419 26.78108
#
# Velocity S-wave (km/s) = 3.22054 3.63042 3.43161
# Velocity P-wave (km/s) = 6.23130 6.59450 6.41547
#
# Compressibility (1/GPa) = 0.01758847
#
# Stress axis : x y z
#
# Youngs Moduli (GPa) = 71.06977 96.47660 84.39915
#
# Poissons Ratio (x) = 0.07106 0.45803
# Poissons Ratio (y) = 0.05235 0.26876
# Poissons Ratio (z) = 0.38569 0.30722
#
# Static dielectric constant tensor:
#      x y z
#    x 4.013250 0.000000 0.000000 
#    y 0.000000 4.526050 0.000000 
#    z 0.000000 0.000000 4.289360 
# 
# 
# High freq. dielectric constant tensor:
#      x y z
#    x 1.883830 0.000000 0.000000 
#    y 0.000000 1.903460 0.000000 
#    z 0.000000 0.000000 1.923080 
# 
# From -- ./inp_files/15171.got.cif
#   From: 2010.03.12/outbox.cif.g09.slc.cpg/sg20_8_cif.got.tgz:15171.got - 2010.04.14 01:38:04.
