data_PCOD8160593
_publ_section_title
;
Structure prediction by ZEFSAII (Michael W. Deem and Ramdas Pophale) SiO2 
 PCOD8160593
Probable space group: C 2 2 21
;
_chemical_formula_sum "Si O2"
_cell_formula_units_Z 60
_cell_length_a 6.860173
_cell_length_b 21.683613
_cell_length_c 19.129697
_cell_angle_alpha 90.000000
_cell_angle_beta 90.000000
_cell_angle_gamma 90.000000
_cell_volume 2845.606254
_symmetry_space_group_name_H-M "C 2 2 21"
_symmetry_group_IT_number 20
_symmetry_cell_setting 'orthorhombic'
loop_
_space_group_symop_operation_xyz
x,y,z
-x,-y,1/2+z
x,-y,-z
-x,y,1/2-z
1/2+x,1/2+y,z
1/2-x,1/2-y,1/2+z
1/2+x,1/2-y,-z
1/2-x,1/2+y,1/2-z
loop_
_atom_site_type_symbol
_atom_site_label
_atom_site_fract_x
_atom_site_fract_y
_atom_site_fract_z
Si Si1 0.194054 0.196828 0.347825
Si Si2 0.553444 0.482512 0.331138
Si Si3 0.764441 0.537817 0.068250
Si Si4 0.500000 0.791256 0.250000
Si Si5 0.405144 0.927864 0.676018
Si Si6 0.983194 0.245285 0.930338
Si Si7 0.355547 0.347088 0.185269
Si Si8 0.128571 0.832276 0.947061
O O1 0.156293 0.248991 0.290244
O O2 0.324017 0.141690 0.316003
O O3 0.305717 0.226836 0.413308
O O4 0.982461 0.173434 0.372920
O O5 0.500000 0.488448 0.250000
O O6 0.370370 0.497226 0.380713
O O7 0.729120 0.528433 0.346316
O O8 0.623389 0.413750 0.350592
O O9 0.646702 0.595539 0.036574
O O10 0.941745 0.565391 0.113254
O O11 0.836645 0.500000 0.000000
O O12 0.628030 0.837612 0.203389
O O13 0.500000 0.947278 0.750000
O O14 0.905011 0.208057 0.865298
O O15 0.839595 0.301524 0.945566
O O16 0.994757 0.199432 0.995106
O O17 0.500000 0.343344 0.250000
#
# Coordination Sequence:
#
# PCOD8160593 Si02
#       8
#     8   8   8   4   8   8   8   8
#     4  12  26  42  70 105 141 176 231 290 353 420
#     4  11  25  47  73 100 139 188 239 296 352 420
#     4  12  27  49  72 104 141 189 243 297 360 430
#     4  12  26  40  72 106 138 180 226 290 358 424
#     4  12  27  45  74 106 142 185 242 296 357 428
#     4  12  24  45  67 101 135 181 225 285 352 421
#     4  11  25  43  67  99 137 176 229 284 348 415
#     4  12  25  45  70  98 138 182 231 284 354 421
#
# _framework density 21.085139000000002
#
# number of rings (size 3 to 8) (size 9 to 14) (size 15 to 20)
#    0.000    0.267    8.000    0.800    5.600    0.533 
#    7.200    0.000    0.000    0.000    0.000    0.000 
#    0.000    0.000    0.000    0.000    0.000    0.000 
#
# Total GULP energy -372084.778791 kJ/mol
# GULP energy per Si atom -12402.825960 kJ/mol
# Density = 2.103715 g / cm^3
# Si number density = 21.085139 Si / 1000 Ang^3
#
#
#
# Elastic Constant Matrix: (Units=GPa)
#
#
# Indices 1 2 3 4 5 6 
#
# 1 101.9323 32.4065 24.4938 0.0000 0.0000 0.0000
# 2 32.4065 115.2257 21.5250 0.0000 0.0000 0.0000
# 3 24.4938 21.5250 78.6485 0.0000 0.0000 0.0000
# 4 0.0000 0.0000 0.0000 22.6531 0.0000 0.0000
# 5 0.0000 0.0000 0.0000 0.0000 39.7583 0.0000
# 6 0.0000 0.0000 0.0000 0.0000 0.0000 42.1886
#
#
#
# Elastic Compliance Matrix: (Units=1/GPa)
#
#
# Indices 1 2 3 4 5 6 
#
# 1 0.011330 -0.002663 -0.002800 0.000000 0.000000 0.000000
# 2 -0.002663 0.009772 -0.001845 0.000000 0.000000 0.000000
# 3 -0.002800 -0.001845 0.014092 0.000000 0.000000 0.000000
# 4 0.000000 0.000000 0.000000 0.044144 0.000000 0.000000
# 5 0.000000 0.000000 0.000000 0.000000 0.025152 0.000000
# 6 0.000000 0.000000 0.000000 0.000000 0.000000 0.023703
#
#
# Mechanical properties :
#
#
# Convention : Reuss Voigt Hill
#
# Bulk Modulus (GPa) = 48.59625 50.29524 49.44574
# Shear Modulus (GPa) = 33.40714 35.41207 34.40960
#
# Velocity S-wave (km/s) = 3.98476 4.10259 4.04411
# Velocity P-wave (km/s) = 6.65348 6.80785 6.73111
#
# Compressibility (1/GPa) = 0.02057772
#
# Stress axis : x y z
#
# Youngs Moduli (GPa) = 88.26175 102.32920 70.96407
#
# Poissons Ratio (x) = 0.27255 0.19867
# Poissons Ratio (y) = 0.23508 0.13093
# Poissons Ratio (z) = 0.24709 0.18880
#
# Static dielectric constant tensor:
#      x y z
#    x 3.723720 0.000000 0.000000 
#    y 0.000000 3.989180 0.000000 
#    z 0.000000 0.000000 3.681080 
# 
# 
# High freq. dielectric constant tensor:
#      x y z
#    x 1.836700 0.000000 0.000000 
#    y 0.000000 1.838810 0.000000 
#    z 0.000000 0.000000 1.821540 
# 
# From -- ./inp_files/26221.got.cif
#   From: 2010.03.12/outbox.cif.g09.slc.cpg/sg20_14_cif.got.tgz:26221.got - 2010.04.14 01:38:04.
