data_PCOD8160728
_publ_section_title
;
Structure prediction by ZEFSAII (Michael W. Deem and Ramdas Pophale) SiO2 
 PCOD8160728
Probable space group: C 2 2 21
;
_chemical_formula_sum "Si O2"
_cell_formula_units_Z 32
_cell_length_a 5.020692
_cell_length_b 8.027779
_cell_length_c 27.949181
_cell_angle_alpha 90.000000
_cell_angle_beta 90.000000
_cell_angle_gamma 90.000000
_cell_volume 1126.491902
_symmetry_space_group_name_H-M "C 2 2 21"
_symmetry_group_IT_number 20
_symmetry_cell_setting 'orthorhombic'
loop_
_space_group_symop_operation_xyz
x,y,z
-x,-y,1/2+z
x,-y,-z
-x,y,1/2-z
1/2+x,1/2+y,z
1/2-x,1/2-y,1/2+z
1/2+x,1/2-y,-z
1/2-x,1/2+y,1/2-z
loop_
_atom_site_type_symbol
_atom_site_label
_atom_site_fract_x
_atom_site_fract_y
_atom_site_fract_z
Si Si1 0.579736 0.232230 0.435192
Si Si2 0.874193 0.000000 0.500000
Si Si3 0.500000 0.795598 0.750000
Si Si4 0.371404 0.503619 0.309985
Si Si5 0.922718 0.276267 0.126386
O O1 0.567985 0.355710 0.480762
O O2 0.784469 0.302476 0.395669
O O3 0.285876 0.213402 0.413314
O O4 0.688468 0.057021 0.455481
O O5 0.508974 0.677658 0.796829
O O6 0.252391 0.918631 0.760906
O O7 0.578170 0.633663 0.332313
O O8 0.151745 0.456440 0.350684
#
# Coordination Sequence:
#
# PCOD8160728 Si02
#       5
#     8   4   4   8   8
#     4  12  30  52  80 115 155 204 257 317 384 456
#     4  12  30  52  80 114 156 204 256 318 384 456
#     4  12  26  48  76 112 152 200 252 312 380 452
#     4  12  27  48  78 113 154 202 254 315 380 454
#     4  12  29  51  80 115 155 204 257 317 382 455
#
# _framework density 28.406770999999999
#
# number of rings (size 3 to 8) (size 9 to 14) (size 15 to 20)
#    0.000    0.000    0.000    7.500    0.000   27.000 
#    0.000    0.000    0.000    0.000    0.000    0.000 
#    0.000    0.000    0.000    0.000    0.000    0.000 
#
# Total GULP energy -198547.739012 kJ/mol
# GULP energy per Si atom -12409.233688 kJ/mol
# Density = 2.834212 g / cm^3
# Si number density = 28.406771 Si / 1000 Ang^3
#
#
#
# Elastic Constant Matrix: (Units=GPa)
#
#
# Indices 1 2 3 4 5 6 
#
# 1 80.8784 14.4143 -0.5554 0.0000 0.0000 0.0000
# 2 14.4143 97.0421 -1.8410 0.0000 0.0000 0.0000
# 3 -0.5554 -1.8410 85.7726 0.0000 0.0000 0.0000
# 4 0.0000 0.0000 0.0000 45.7538 0.0000 0.0000
# 5 0.0000 0.0000 0.0000 0.0000 39.8004 0.0000
# 6 0.0000 0.0000 0.0000 0.0000 0.0000 37.0617
#
#
#
# Elastic Compliance Matrix: (Units=1/GPa)
#
#
# Indices 1 2 3 4 5 6 
#
# 1 0.012701 -0.001886 0.000042 0.000000 0.000000 0.000000
# 2 -0.001886 0.010589 0.000215 0.000000 0.000000 0.000000
# 3 0.000042 0.000215 0.011664 0.000000 0.000000 0.000000
# 4 0.000000 0.000000 0.000000 0.021856 0.000000 0.000000
# 5 0.000000 0.000000 0.000000 0.000000 0.025125 0.000000
# 6 0.000000 0.000000 0.000000 0.000000 0.000000 0.026982
#
#
# Mechanical properties :
#
#
# Convention : Reuss Voigt Hill
#
# Bulk Modulus (GPa) = 31.55024 31.96985 31.76005
# Shear Modulus (GPa) = 40.73665 41.30154 41.01910
#
# Velocity S-wave (km/s) = 3.79099 3.81718 3.80411
# Velocity P-wave (km/s) = 5.50389 5.54135 5.52266
#
# Compressibility (1/GPa) = 0.03169548
#
# Stress axis : x y z
#
# Youngs Moduli (GPa) = 78.73639 94.43773 85.73669
#
# Poissons Ratio (x) = 0.17808 -0.00358
# Poissons Ratio (y) = 0.14847 -0.01844
# Poissons Ratio (z) = -0.00329 -0.02031
#
# Static dielectric constant tensor:
#      x y z
#    x 4.831370 0.000000 0.000000 
#    y 0.000000 5.024970 0.000000 
#    z 0.000000 0.000000 5.229630 
# 
# 
# High freq. dielectric constant tensor:
#      x y z
#    x 2.141600 0.000000 0.000000 
#    y 0.000000 2.159800 0.000000 
#    z 0.000000 0.000000 2.172660 
# 
# From -- ./inp_files/30627.got.cif
#   From: 2010.03.12/outbox.cif.g09.slc.cpg/sg20_16_cif.got.tgz:30627.got - 2010.04.14 01:38:04.
