data_PCOD8160545
_publ_section_title
;
Structure prediction by ZEFSAII (Michael W. Deem and Ramdas Pophale) SiO2 
 PCOD8160545
Probable space group: C 2 2 21
;
_chemical_formula_sum "Si O2"
_cell_formula_units_Z 44
_cell_length_a 16.109442
_cell_length_b 14.476665
_cell_length_c 8.191012
_cell_angle_alpha 90.000000
_cell_angle_beta 90.000000
_cell_angle_gamma 90.000000
_cell_volume 1910.234060
_symmetry_space_group_name_H-M "C 2 2 21"
_symmetry_group_IT_number 20
_symmetry_cell_setting 'orthorhombic'
loop_
_space_group_symop_operation_xyz
x,y,z
-x,-y,1/2+z
x,-y,-z
-x,y,1/2-z
1/2+x,1/2+y,z
1/2-x,1/2-y,1/2+z
1/2+x,1/2-y,-z
1/2-x,1/2+y,1/2-z
loop_
_atom_site_type_symbol
_atom_site_label
_atom_site_fract_x
_atom_site_fract_y
_atom_site_fract_z
Si Si1 0.246458 0.334699 0.332116
Si Si2 0.624548 0.564497 0.348954
Si Si3 0.837862 0.000000 0.500000
Si Si4 0.526504 0.093301 0.074659
Si Si5 0.935809 0.731902 0.884390
Si Si6 0.213834 0.356950 0.962867
O O1 0.279699 0.415772 0.446745
O O2 0.149835 0.320441 0.360192
O O3 0.259346 0.353556 0.139923
O O4 0.297195 0.244155 0.385237
O O5 0.596129 0.500000 0.500000
O O6 0.606516 0.526474 0.162931
O O7 0.573815 0.658272 0.381058
O O8 0.723993 0.581696 0.352702
O O9 0.500000 0.068810 0.250000
O O10 0.478933 0.190571 0.043927
O O11 0.624293 0.097712 0.034472
O O12 0.489798 0.000000 0.000000
O O13 0.000000 0.697001 0.750000
#
# Coordination Sequence:
#
# PCOD8160545 Si02
#       6
#     8   8   4   8   8   8
#     4  11  24  42  73 100 142 185 242 296 355 425
#     4  11  25  48  74 104 143 188 247 297 352 431
#     4  12  26  42  76 108 138 192 248 294 356 424
#     4  12  29  44  70 105 144 189 236 297 373 432
#     4  11  25  48  67 101 147 185 235 302 359 427
#     4  11  24  46  70 102 141 188 237 298 358 428
#
# _framework density 23.033826000000001
#
# number of rings (size 3 to 8) (size 9 to 14) (size 15 to 20)
#    0.000    0.727    3.636    3.273    8.909    0.000 
#    1.636    0.000    0.000    0.000    0.000    0.000 
#    0.000    0.000    0.000    0.000    0.000    0.000 
#
# Total GULP energy -272617.690260 kJ/mol
# GULP energy per Si atom -12391.713194 kJ/mol
# Density = 2.298140 g / cm^3
# Si number density = 23.033826 Si / 1000 Ang^3
#
#
#
# Elastic Constant Matrix: (Units=GPa)
#
#
# Indices 1 2 3 4 5 6 
#
# 1 52.4242 26.3467 16.2406 0.0000 0.0000 0.0000
# 2 26.3467 131.0618 63.5349 0.0000 0.0000 0.0000
# 3 16.2406 63.5349 172.9135 0.0000 0.0000 0.0000
# 4 0.0000 0.0000 0.0000 48.7993 0.0000 0.0000
# 5 0.0000 0.0000 0.0000 0.0000 19.4276 0.0000
# 6 0.0000 0.0000 0.0000 0.0000 0.0000 37.0942
#
#
#
# Elastic Compliance Matrix: (Units=1/GPa)
#
#
# Indices 1 2 3 4 5 6 
#
# 1 0.021257 -0.004022 -0.000519 0.000000 0.000000 0.000000
# 2 -0.004022 0.010044 -0.003313 0.000000 0.000000 0.000000
# 3 -0.000519 -0.003313 0.007049 0.000000 0.000000 0.000000
# 4 0.000000 0.000000 0.000000 0.020492 0.000000 0.000000
# 5 0.000000 0.000000 0.000000 0.000000 0.051473 0.000000
# 6 0.000000 0.000000 0.000000 0.000000 0.000000 0.026958
#
#
# Mechanical properties :
#
#
# Convention : Reuss Voigt Hill
#
# Bulk Modulus (GPa) = 44.16216 63.18268 53.67242
# Shear Modulus (GPa) = 31.14696 37.74937 34.44817
#
# Velocity S-wave (km/s) = 3.68125 4.05268 3.87143
# Velocity P-wave (km/s) = 6.10600 7.02773 6.58301
#
# Compressibility (1/GPa) = 0.02264382
#
# Stress axis : x y z
#
# Youngs Moduli (GPa) = 47.04325 99.55703 141.85838
#
# Poissons Ratio (x) = 0.40039 0.07360
# Poissons Ratio (y) = 0.18919 0.46998
# Poissons Ratio (z) = 0.02441 0.32983
#
# Static dielectric constant tensor:
#      x y z
#    x 3.858880 0.000000 0.000000 
#    y 0.000000 4.322060 0.000000 
#    z 0.000000 0.000000 4.388230 
# 
# 
# High freq. dielectric constant tensor:
#      x y z
#    x 1.896100 0.000000 0.000000 
#    y 0.000000 1.928880 0.000000 
#    z 0.000000 0.000000 1.921760 
# 
# From -- ./inp_files/9273.got.cif
#   From: 2010.03.12/outbox.cif.g09.slc.cpg/sg20_5_cif.got.tgz:9273.got - 2010.04.14 01:38:04.
