data_PCOD8160089
_publ_section_title
;
Structure prediction by ZEFSAII (Michael W. Deem and Ramdas Pophale) SiO2 
 PCOD8160089
Probable space group: C 2 2 21
;
_chemical_formula_sum "Si O2"
_cell_formula_units_Z 60
_cell_length_a 10.992173
_cell_length_b 19.252079
_cell_length_c 12.990081
_cell_angle_alpha 90.000000
_cell_angle_beta 90.000000
_cell_angle_gamma 90.000000
_cell_volume 2748.989298
_symmetry_space_group_name_H-M "C 2 2 21"
_symmetry_group_IT_number 20
_symmetry_cell_setting 'orthorhombic'
loop_
_space_group_symop_operation_xyz
x,y,z
-x,-y,1/2+z
x,-y,-z
-x,y,1/2-z
1/2+x,1/2+y,z
1/2-x,1/2-y,1/2+z
1/2+x,1/2-y,-z
1/2-x,1/2+y,1/2-z
loop_
_atom_site_type_symbol
_atom_site_label
_atom_site_fract_x
_atom_site_fract_y
_atom_site_fract_z
Si Si1 0.500000 0.687642 0.250000
Si Si2 0.213588 0.842293 0.100314
Si Si3 0.684567 0.896886 0.047268
Si Si4 0.172415 0.758585 0.914031
Si Si5 0.143769 0.277518 0.750911
Si Si6 0.585421 0.059049 0.577711
Si Si7 0.740900 0.455621 0.244662
Si Si8 0.211885 0.900180 0.668424
O O1 0.425430 0.738077 0.323763
O O2 0.412758 0.642061 0.177516
O O3 0.216524 0.777253 0.177716
O O4 0.348963 0.865536 0.060765
O O5 0.159548 0.910271 0.161721
O O6 0.141910 0.818627 0.997927
O O7 0.665158 0.815134 0.029927
O O8 0.557456 0.936032 0.059794
O O9 0.760724 0.911793 0.149948
O O10 0.757710 0.924985 0.947740
O O11 0.306631 0.769085 0.865398
O O12 0.174101 0.355140 0.790280
O O13 0.000000 0.264283 0.750000
O O14 0.622871 0.037032 0.695037
O O15 0.636768 0.000000 0.500000
O O16 0.689252 0.532109 0.261562
#
# Coordination Sequence:
#
# PCOD8160089 Si02
#       8
#     4   8   8   8   8   8   8   8
#     4  10  28  46  74  96 150 194 240 294 360 428
#     4  10  24  44  66  99 137 186 229 283 361 429
#     4  12  23  39  72 105 143 178 235 300 357 434
#     4  11  24  44  70 103 139 184 242 290 358 430
#     4  11  25  43  68 102 136 180 229 301 348 422
#     4  10  24  39  69 100 139 186 229 290 363 427
#     4  10  24  43  66  97 148 177 236 291 359 427
#     4  11  25  46  68 105 137 191 242 298 357 439
#
# _framework density 21.826204000000001
#
# number of rings (size 3 to 8) (size 9 to 14) (size 15 to 20)
#    0.800    0.533    2.667    1.600   11.200    2.133 
#    1.200    1.333    0.000    0.000    0.000    0.000 
#    0.000    0.000    0.000    0.000    0.000    0.000 
#
# Total GULP energy -371720.305168 kJ/mol
# GULP energy per Si atom -12390.676839 kJ/mol
# Density = 2.177653 g / cm^3
# Si number density = 21.826204 Si / 1000 Ang^3
#
#
#
# Elastic Constant Matrix: (Units=GPa)
#
#
# Indices 1 2 3 4 5 6 
#
# 1 65.9606 14.3037 15.7661 0.0000 0.0000 0.0000
# 2 14.3037 118.2075 40.6042 0.0000 0.0000 0.0000
# 3 15.7661 40.6042 114.7443 0.0000 0.0000 0.0000
# 4 0.0000 0.0000 0.0000 49.7741 0.0000 0.0000
# 5 0.0000 0.0000 0.0000 0.0000 24.8262 0.0000
# 6 0.0000 0.0000 0.0000 0.0000 0.0000 24.9638
#
#
#
# Elastic Compliance Matrix: (Units=1/GPa)
#
#
# Indices 1 2 3 4 5 6 
#
# 1 0.015858 -0.001332 -0.001707 0.000000 0.000000 0.000000
# 2 -0.001332 0.009742 -0.003264 0.000000 0.000000 0.000000
# 3 -0.001707 -0.003264 0.010105 0.000000 0.000000 0.000000
# 4 0.000000 0.000000 0.000000 0.020091 0.000000 0.000000
# 5 0.000000 0.000000 0.000000 0.000000 0.040280 0.000000
# 6 0.000000 0.000000 0.000000 0.000000 0.000000 0.040058
#
#
# Mechanical properties :
#
#
# Convention : Reuss Voigt Hill
#
# Bulk Modulus (GPa) = 43.29689 48.91784 46.10736
# Shear Modulus (GPa) = 31.96105 35.12872 33.54488
#
# Velocity S-wave (km/s) = 3.83082 4.01618 3.92460
# Velocity P-wave (km/s) = 6.28070 6.63079 6.45811
#
# Compressibility (1/GPa) = 0.02309635
#
# Stress axis : x y z
#
# Youngs Moduli (GPa) = 63.06122 102.64585 98.96305
#
# Poissons Ratio (x) = 0.13676 0.16897
# Poissons Ratio (y) = 0.08402 0.32305
# Poissons Ratio (z) = 0.10767 0.33508
#
# Static dielectric constant tensor:
#      x y z
#    x 3.466830 0.000000 0.000000 
#    y 0.000000 3.936170 0.000000 
#    z 0.000000 0.000000 4.075760 
# 
# 
# High freq. dielectric constant tensor:
#      x y z
#    x 1.815460 0.000000 0.000000 
#    y 0.000000 1.867630 0.000000 
#    z 0.000000 0.000000 1.870650 
# 
# From -- ./inp_files/20236.got.cif
#   From: 2010.03.12/outbox.cif.g09.slc.cpg/sg20_11_cif.got.tgz:20236.got - 2010.04.14 01:38:04.
