data_PCOD8160047
_publ_section_title
;
Structure prediction by ZEFSAII (Michael W. Deem and Ramdas Pophale) SiO2 
 PCOD8160047
Probable space group: C 2 2 21
;
_chemical_formula_sum "Si O2"
_cell_formula_units_Z 52
_cell_length_a 11.519008
_cell_length_b 25.220744
_cell_length_c 7.949515
_cell_angle_alpha 90.000000
_cell_angle_beta 90.000000
_cell_angle_gamma 90.000000
_cell_volume 2309.476816
_symmetry_space_group_name_H-M "C 2 2 21"
_symmetry_group_IT_number 20
_symmetry_cell_setting 'orthorhombic'
loop_
_space_group_symop_operation_xyz
x,y,z
-x,-y,1/2+z
x,-y,-z
-x,y,1/2-z
1/2+x,1/2+y,z
1/2-x,1/2-y,1/2+z
1/2+x,1/2-y,-z
1/2-x,1/2+y,1/2-z
loop_
_atom_site_type_symbol
_atom_site_label
_atom_site_fract_x
_atom_site_fract_y
_atom_site_fract_z
Si Si1 0.749314 0.097824 0.186138
Si Si2 0.150024 0.000000 0.500000
Si Si3 0.000000 0.065339 0.750000
Si Si4 0.683398 0.629665 0.958034
Si Si5 0.121633 0.769540 0.172577
Si Si6 0.415224 0.186638 0.905182
Si Si7 0.000000 0.358224 0.750000
Si Si8 0.202153 0.203615 0.478008
O O1 0.768129 0.041000 0.100103
O O2 0.809449 0.097413 0.369357
O O3 0.610910 0.105287 0.202336
O O4 0.820699 0.143537 0.082839
O O5 0.060899 0.970526 0.383768
O O6 0.104668 0.099461 0.825360
O O7 0.619597 0.687329 0.979114
O O8 0.811615 0.643681 0.887809
O O9 0.204140 0.793900 0.320165
O O10 0.168939 0.714539 0.097612
O O11 0.000000 0.757601 0.250000
O O12 0.500000 0.175266 0.750000
O O13 0.377415 0.248849 0.902733
O O14 0.471394 0.178367 0.088637
#
# Coordination Sequence:
#
# PCOD8160047 Si02
#       8
#     8   4   4   8   8   8   4   8
#     4  11  26  49  71 105 139 191 245 310 363 439
#     4  12  28  48  76 102 136 184 252 310 380 426
#     4  12  24  48  73 104 140 184 233 314 364 438
#     4  10  23  45  70 106 143 183 237 287 370 442
#     4  11  23  40  63 103 146 194 228 288 348 441
#     4  10  24  43  70 112 149 199 238 292 355 455
#     4  10  24  48  77 104 154 192 245 302 370 444
#     4  11  25  39  64 102 146 188 244 279 359 428
#
# _framework density 22.515922
#
# number of rings (size 3 to 8) (size 9 to 14) (size 15 to 20)
#    0.000    1.231    0.769    4.615   10.769    1.231 
#    1.385    3.077    0.000    0.000    0.000    0.000 
#    0.000    0.000    0.000    0.000    0.000    0.000 
#
# Total GULP energy -322164.198682 kJ/mol
# GULP energy per Si atom -12390.930719 kJ/mol
# Density = 2.246468 g / cm^3
# Si number density = 22.515922 Si / 1000 Ang^3
#
#
#
# Elastic Constant Matrix: (Units=GPa)
#
#
# Indices 1 2 3 4 5 6 
#
# 1 127.5584 55.4902 65.5252 0.0000 0.0000 0.0000
# 2 55.4902 128.7245 56.9894 0.0000 0.0000 0.0000
# 3 65.5252 56.9894 126.8734 0.0000 0.0000 0.0000
# 4 0.0000 0.0000 0.0000 46.2741 0.0000 0.0000
# 5 0.0000 0.0000 0.0000 0.0000 36.9006 0.0000
# 6 0.0000 0.0000 0.0000 0.0000 0.0000 59.1166
#
#
#
# Elastic Compliance Matrix: (Units=1/GPa)
#
#
# Indices 1 2 3 4 5 6 
#
# 1 0.011477 -0.002900 -0.004625 0.000000 0.000000 0.000000
# 2 -0.002900 0.010430 -0.003187 0.000000 0.000000 0.000000
# 3 -0.004625 -0.003187 0.011702 0.000000 0.000000 0.000000
# 4 0.000000 0.000000 0.000000 0.021610 0.000000 0.000000
# 5 0.000000 0.000000 0.000000 0.000000 0.027100 0.000000
# 6 0.000000 0.000000 0.000000 0.000000 0.000000 0.016916
#
#
# Mechanical properties :
#
#
# Convention : Reuss Voigt Hill
#
# Bulk Modulus (GPa) = 82.06908 82.12955 82.09932
# Shear Modulus (GPa) = 40.09003 42.13501 41.11252
#
# Velocity S-wave (km/s) = 4.22420 4.33059 4.27773
# Velocity P-wave (km/s) = 7.76661 7.84607 7.80644
#
# Compressibility (1/GPa) = 0.01218486
#
# Stress axis : x y z
#
# Youngs Moduli (GPa) = 87.13305 95.88078 85.45580
#
# Poissons Ratio (x) = 0.27804 0.39521
# Poissons Ratio (y) = 0.25268 0.27236
# Poissons Ratio (z) = 0.40296 0.30558
#
# Static dielectric constant tensor:
#      x y z
#    x 4.596320 0.000000 0.000000 
#    y 0.000000 4.040640 0.000000 
#    z 0.000000 0.000000 3.866180 
# 
# 
# High freq. dielectric constant tensor:
#      x y z
#    x 1.903770 0.000000 0.000000 
#    y 0.000000 1.870150 0.000000 
#    z 0.000000 0.000000 1.902870 
# 
# From -- ./inp_files/7541.got.cif
#   From: 2010.03.12/outbox.cif.g09.slc.cpg/sg20_4_cif.got.tgz:7541.got - 2010.04.14 01:38:04.
