data_PCOD8160444
_publ_section_title
;
Structure prediction by ZEFSAII (Michael W. Deem and Ramdas Pophale) SiO2 
 PCOD8160444
Probable space group: C 2 2 21
;
_chemical_formula_sum "Si O2"
_cell_formula_units_Z 64
_cell_length_a 13.043066
_cell_length_b 13.667247
_cell_length_c 16.873729
_cell_angle_alpha 90.000000
_cell_angle_beta 90.000000
_cell_angle_gamma 90.000000
_cell_volume 3007.958257
_symmetry_space_group_name_H-M "C 2 2 21"
_symmetry_group_IT_number 20
_symmetry_cell_setting 'orthorhombic'
loop_
_space_group_symop_operation_xyz
x,y,z
-x,-y,1/2+z
x,-y,-z
-x,y,1/2-z
1/2+x,1/2+y,z
1/2-x,1/2-y,1/2+z
1/2+x,1/2-y,-z
1/2-x,1/2+y,1/2-z
loop_
_atom_site_type_symbol
_atom_site_label
_atom_site_fract_x
_atom_site_fract_y
_atom_site_fract_z
Si Si1 0.387874 0.016910 0.217803
Si Si2 0.408156 0.163045 0.542361
Si Si3 0.625529 0.913920 0.447215
Si Si4 0.440727 0.326362 0.672479
Si Si5 0.250524 0.412324 0.157399
Si Si6 0.409676 0.454077 0.918313
Si Si7 0.273492 0.203353 0.232185
Si Si8 0.247366 0.220517 0.418271
O O1 0.500000 0.000277 0.250000
O O2 0.367241 0.133024 0.206414
O O3 0.381801 0.951538 0.141051
O O4 0.301533 0.977883 0.276403
O O5 0.512436 0.108815 0.517160
O O6 0.441681 0.243599 0.606129
O O7 0.326989 0.090013 0.582975
O O8 0.355026 0.206708 0.463879
O O9 0.698783 0.820388 0.450699
O O10 0.675029 0.000000 0.500000
O O11 0.500000 0.285639 0.750000
O O12 0.493981 0.421366 0.634883
O O13 0.327825 0.353754 0.702415
O O14 0.355147 0.462471 0.132179
O O15 0.281824 0.305063 0.186488
O O16 0.332293 0.365586 0.937441
O O17 0.451178 0.500000 0.000000
O O18 0.271607 0.223971 0.325518
#
# Coordination Sequence:
#
# PCOD8160444 Si02
#       8
#     8   8   8   8   8   8   8   8
#     4  12  25  44  71 106 136 181 236 292 354 417
#     4  11  25  41  71 103 135 181 233 292 349 417
#     4  12  28  43  67 103 144 182 229 289 361 418
#     4  11  22  46  74  97 133 186 238 280 343 427
#     4  11  23  42  73 101 133 186 235 289 343 422
#     4  12  24  43  72 104 138 183 240 287 353 422
#     4  11  25  45  73 101 138 180 238 296 345 413
#     4  12  24  47  70 100 143 184 237 288 349 426
#
# _framework density 21.276890000000002
#
# number of rings (size 3 to 8) (size 9 to 14) (size 15 to 20)
#    0.000    0.500    7.500    0.000    8.750    0.000 
#    2.250    1.875    0.000    0.000    0.000    0.000 
#    0.000    0.000    0.000    0.000    0.000    0.000 
#
# Total GULP energy -396915.054700 kJ/mol
# GULP energy per Si atom -12403.595459 kJ/mol
# Density = 2.122846 g / cm^3
# Si number density = 21.276890 Si / 1000 Ang^3
#
#
#
# Elastic Constant Matrix: (Units=GPa)
#
#
# Indices 1 2 3 4 5 6 
#
# 1 71.6145 46.4227 60.8812 0.0000 0.0000 0.0000
# 2 46.4227 118.9671 39.0964 0.0000 0.0000 0.0000
# 3 60.8812 39.0964 98.7130 0.0000 0.0000 0.0000
# 4 0.0000 0.0000 0.0000 34.9894 0.0000 0.0000
# 5 0.0000 0.0000 0.0000 0.0000 26.8168 0.0000
# 6 0.0000 0.0000 0.0000 0.0000 0.0000 23.3396
#
#
#
# Elastic Compliance Matrix: (Units=1/GPa)
#
#
# Indices 1 2 3 4 5 6 
#
# 1 0.034181 -0.007369 -0.018162 0.000000 0.000000 0.000000
# 2 -0.007369 0.011252 0.000088 0.000000 0.000000 0.000000
# 3 -0.018162 0.000088 0.021297 0.000000 0.000000 0.000000
# 4 0.000000 0.000000 0.000000 0.028580 0.000000 0.000000
# 5 0.000000 0.000000 0.000000 0.000000 0.037290 0.000000
# 6 0.000000 0.000000 0.000000 0.000000 0.000000 0.042846
#
#
# Mechanical properties :
#
#
# Convention : Reuss Voigt Hill
#
# Bulk Modulus (GPa) = 63.11647 64.67724 63.89685
# Shear Modulus (GPa) = 21.58773 26.55546 24.07160
#
# Velocity S-wave (km/s) = 3.18875 3.53666 3.36720
# Velocity P-wave (km/s) = 6.57923 6.86594 6.72411
#
# Compressibility (1/GPa) = 0.01584373
#
# Stress axis : x y z
#
# Youngs Moduli (GPa) = 29.25627 88.87163 46.95496
#
# Poissons Ratio (x) = 0.65490 0.85281
# Poissons Ratio (y) = 0.21559 -0.00415
# Poissons Ratio (z) = 0.53136 -0.00785
#
# Static dielectric constant tensor:
#      x y z
#    x 3.846500 0.000000 0.000000 
#    y 0.000000 3.999260 0.000000 
#    z 0.000000 0.000000 4.217320 
# 
# 
# High freq. dielectric constant tensor:
#      x y z
#    x 1.825640 0.000000 0.000000 
#    y 0.000000 1.841110 0.000000 
#    z 0.000000 0.000000 1.847550 
# 
# From -- ./inp_files/24440.got.cif
#   From: 2010.03.12/outbox.cif.g09.slc.cpg/sg20_13_cif.got.tgz:24440.got - 2010.04.14 01:38:04.
