data_PCOD8160908
_publ_section_title
;
Structure prediction by ZEFSAII (Michael W. Deem and Ramdas Pophale) SiO2 
 PCOD8160908
Probable space group: C 2 2 2
;
_chemical_formula_sum "Si O2"
_cell_formula_units_Z 64
_cell_length_a 21.685698
_cell_length_b 27.618726
_cell_length_c 5.055702
_cell_angle_alpha 90.000000
_cell_angle_beta 90.000000
_cell_angle_gamma 90.000000
_cell_volume 3028.018430
_symmetry_space_group_name_H-M "C 2 2 2"
_symmetry_group_IT_number 21
_symmetry_cell_setting 'orthorhombic'
loop_
_space_group_symop_operation_xyz
x,y,z
-x,-y,z
x,-y,-z
-x,y,-z
1/2+x,1/2+y,z
1/2-x,1/2-y,z
1/2+x,1/2-y,-z
1/2-x,1/2+y,-z
loop_
_atom_site_type_symbol
_atom_site_label
_atom_site_fract_x
_atom_site_fract_y
_atom_site_fract_z
Si Si1 0.717941 0.086162 0.053718
Si Si2 0.350176 0.053565 0.450922
Si Si3 0.365327 0.719490 0.909796
Si Si4 0.432487 0.604512 0.464761
Si Si5 0.146384 0.108691 0.046405
Si Si6 0.072552 0.353302 0.456359
Si Si7 0.357049 0.820267 0.048881
Si Si8 0.063262 0.784453 0.418015
O O1 0.704361 0.064944 0.342162
O O2 0.790384 0.080397 0.002052
O O3 0.699534 0.142670 0.042587
O O4 0.678985 0.056232 0.840022
O O5 0.406060 0.090958 0.490758
O O6 0.376962 0.000000 0.500000
O O7 0.335523 0.666278 0.940001
O O8 0.326397 0.766676 0.006049
O O9 0.424911 0.720236 0.106251
O O10 0.382006 0.733913 0.608924
O O11 0.500000 0.578706 0.500000
O O12 0.402861 0.595387 0.179327
O O13 0.443505 0.660648 0.514898
O O14 0.383677 0.587597 0.686882
O O15 0.106654 0.319933 0.673122
O O16 0.000000 0.351409 0.500000
O O17 0.091612 0.333736 0.169799
O O18 0.000000 0.756922 0.500000
#
# Coordination Sequence:
#
# PCOD8160908 Si02
#       8
#     8   8   8   8   8   8   8   8
#     4  10  21  37  55  78 107 135 169 216 266 317
#     4  10  21  39  61  82 106 134 169 222 280 332
#     4  10  19  29  44  67  95 139 184 212 253 299
#     4   9  17  30  47  71 103 134 169 212 253 292
#     4  10  19  32  51  74 105 142 178 218 259 305
#     4  10  21  36  54  78 107 140 179 223 274 323
#     4  10  21  34  48  71 105 142 180 220 257 303
#     4   9  17  27  40  61  90 126 173 221 252 284
#
# _framework density 21.135935
#
# number of rings (size 3 to 8) (size 9 to 14) (size 15 to 20)
#    0.000    2.250    0.000    3.000    0.000    6.750 
#    0.000    0.000    0.000   13.500    0.000    0.000 
#    0.000   35.000    0.000    0.000    0.000    0.000 
#
# Total GULP energy -396562.967319 kJ/mol
# GULP energy per Si atom -12392.592729 kJ/mol
# Density = 2.108783 g / cm^3
# Si number density = 21.135935 Si / 1000 Ang^3
#
#
#
# Elastic Constant Matrix: (Units=GPa)
#
#
# Indices 1 2 3 4 5 6 
#
# 1 68.4618 -10.9177 6.0116 0.0000 0.0000 0.0000
# 2 -10.9177 29.5643 -4.3582 0.0000 0.0000 0.0000
# 3 6.0116 -4.3582 99.7157 0.0000 0.0000 0.0000
# 4 0.0000 0.0000 0.0000 13.9727 0.0000 0.0000
# 5 0.0000 0.0000 0.0000 0.0000 23.3648 0.0000
# 6 0.0000 0.0000 0.0000 0.0000 0.0000 4.5704
#
#
#
# Elastic Compliance Matrix: (Units=1/GPa)
#
#
# Indices 1 2 3 4 5 6 
#
# 1 0.015568 0.005647 -0.000692 0.000000 0.000000 0.000000
# 2 0.005647 0.036092 0.001237 0.000000 0.000000 0.000000
# 3 -0.000692 0.001237 0.010124 0.000000 0.000000 0.000000
# 4 0.000000 0.000000 0.000000 0.071568 0.000000 0.000000
# 5 0.000000 0.000000 0.000000 0.000000 0.042800 0.000000
# 6 0.000000 0.000000 0.000000 0.000000 0.000000 0.218797
#
#
# Mechanical properties :
#
#
# Convention : Reuss Voigt Hill
#
# Bulk Modulus (GPa) = 13.48265 19.91257 16.69761
# Shear Modulus (GPa) = 12.27633 22.18199 17.22916
#
# Velocity S-wave (km/s) = 2.41265 3.24310 2.85820
# Velocity P-wave (km/s) = 3.76219 4.84409 4.33701
#
# Compressibility (1/GPa) = 0.07416939
#
# Stress axis : x y z
#
# Youngs Moduli (GPa) = 64.23440 27.70668 98.77249
#
# Poissons Ratio (x) = -0.15646 0.06833
# Poissons Ratio (y) = -0.36274 -0.12218
# Poissons Ratio (z) = 0.04443 -0.03427
#
# Static dielectric constant tensor:
#      x y z
#    x 3.466220 0.000000 0.000000 
#    y 0.000000 3.639590 0.000000 
#    z 0.000000 0.000000 3.979380 
# 
# 
# High freq. dielectric constant tensor:
#      x y z
#    x 1.799260 0.000000 0.000000 
#    y 0.000000 1.803940 0.000000 
#    z 0.000000 0.000000 1.847320 
# 
# From -- ./inp_files/5409.got.cif
#   From: 2010.03.12/outbox.cif.g09.slc.cpg/sg21_3_cif.got.tgz:5409.got - 2010.04.14 01:59:26.
