data_PCOD8160893
_publ_section_title
;
Structure prediction by ZEFSAII (Michael W. Deem and Ramdas Pophale) SiO2 
 PCOD8160893
Probable space group: C 2 2 2
;
_chemical_formula_sum "Si O2"
_cell_formula_units_Z 52
_cell_length_a 17.835598
_cell_length_b 15.199021
_cell_length_c 10.261905
_cell_angle_alpha 90.000000
_cell_angle_beta 90.000000
_cell_angle_gamma 90.000000
_cell_volume 2781.834443
_symmetry_space_group_name_H-M "C 2 2 2"
_symmetry_group_IT_number 21
_symmetry_cell_setting 'orthorhombic'
loop_
_space_group_symop_operation_xyz
x,y,z
-x,-y,z
x,-y,-z
-x,y,-z
1/2+x,1/2+y,z
1/2-x,1/2-y,z
1/2+x,1/2-y,-z
1/2-x,1/2+y,-z
loop_
_atom_site_type_symbol
_atom_site_label
_atom_site_fract_x
_atom_site_fract_y
_atom_site_fract_z
Si Si1 0.291341 0.497321 0.349215
Si Si2 0.513029 0.228641 0.647323
Si Si3 0.467772 0.905513 0.133622
Si Si4 0.704973 0.934233 0.888322
Si Si5 0.250000 0.250000 0.836807
Si Si6 0.674450 0.698669 0.365700
Si Si7 0.631502 0.327801 0.344574
O O1 0.263343 0.500000 0.500000
O O2 0.223999 0.526703 0.254502
O O3 0.320996 0.400791 0.310905
O O4 0.357710 0.567730 0.322955
O O5 0.500000 0.193192 0.500000
O O6 0.486449 0.153845 0.743954
O O7 0.598154 0.255007 0.685538
O O8 0.457728 0.312585 0.662983
O O9 0.381691 0.918816 0.107410
O O10 0.500000 0.000000 0.165768
O O11 0.500000 0.864008 0.000000
O O12 0.742340 0.839315 0.919869
O O13 0.733476 0.000000 0.000000
O O14 0.325928 0.262989 0.754116
O O15 0.750000 0.750000 0.321585
O O16 0.668971 0.698617 0.519937
#
# Coordination Sequence:
#
# PCOD8160893 Si02
#       7
#     8   8   8   8   4   8   8
#     4   9  21  37  60  88 117 154 187 246 299 342
#     4  10  22  37  60  87 113 154 201 237 284 356
#     4  11  23  41  57  78 117 157 189 240 298 349
#     4  11  22  41  61  87 115 154 204 241 293 356
#     4  10  18  36  66  80 112 158 196 242 284 354
#     4  10  20  33  54  90 125 146 187 252 293 335
#     4   9  17  36  59  83 113 155 201 232 289 348
#
# _framework density 18.692701
#
# number of rings (size 3 to 8) (size 9 to 14) (size 15 to 20)
#    0.000    2.000    3.846    0.000    2.154    0.923 
#    4.154    3.077    0.000    0.000    0.000    2.154 
#    0.000    0.000    0.000    0.000    0.000    0.000 
#
# Total GULP energy -322233.469214 kJ/mol
# GULP energy per Si atom -12393.594970 kJ/mol
# Density = 1.865016 g / cm^3
# Si number density = 18.692701 Si / 1000 Ang^3
#
#
#
# Elastic Constant Matrix: (Units=GPa)
#
#
# Indices 1 2 3 4 5 6 
#
# 1 109.2292 33.6094 30.9944 0.0000 0.0000 0.0000
# 2 33.6094 126.0283 52.3188 0.0000 0.0000 0.0000
# 3 30.9944 52.3188 88.2475 0.0000 0.0000 0.0000
# 4 0.0000 0.0000 0.0000 30.0330 0.0000 0.0000
# 5 0.0000 0.0000 0.0000 0.0000 25.0583 0.0000
# 6 0.0000 0.0000 0.0000 0.0000 0.0000 22.8498
#
#
#
# Elastic Compliance Matrix: (Units=1/GPa)
#
#
# Indices 1 2 3 4 5 6 
#
# 1 0.010427 -0.001672 -0.002671 0.000000 0.000000 0.000000
# 2 -0.001672 0.010793 -0.005812 0.000000 0.000000 0.000000
# 3 -0.002671 -0.005812 0.015715 0.000000 0.000000 0.000000
# 4 0.000000 0.000000 0.000000 0.033297 0.000000 0.000000
# 5 0.000000 0.000000 0.000000 0.000000 0.039907 0.000000
# 6 0.000000 0.000000 0.000000 0.000000 0.000000 0.043764
#
#
# Mechanical properties :
#
#
# Convention : Reuss Voigt Hill
#
# Bulk Modulus (GPa) = 60.14439 61.92780 61.03610
# Shear Modulus (GPa) = 27.81552 29.36036 28.58794
#
# Velocity S-wave (km/s) = 3.86170 3.96749 3.91495
# Velocity P-wave (km/s) = 7.22003 7.36134 7.29102
#
# Compressibility (1/GPa) = 0.01662665
#
# Stress axis : x y z
#
# Youngs Moduli (GPa) = 95.90067 92.65052 63.63156
#
# Poissons Ratio (x) = 0.15491 0.16997
# Poissons Ratio (y) = 0.16034 0.36981
# Poissons Ratio (z) = 0.25616 0.53846
#
# Static dielectric constant tensor:
#      x y z
#    x 3.492000 0.000000 0.000000 
#    y 0.000000 3.584950 0.000000 
#    z 0.000000 0.000000 3.371650 
# 
# 
# High freq. dielectric constant tensor:
#      x y z
#    x 1.725230 0.000000 0.000000 
#    y 0.000000 1.733390 0.000000 
#    z 0.000000 0.000000 1.708420 
# 
# From -- ./inp_files/26177.got.cif
#   From: 2010.03.12/outbox.cif.g09.slc.cpg/sg21_14_cif.got.tgz:26177.got - 2010.04.14 01:59:26.
