data_PCOD8160520
_publ_section_title
;
Structure prediction by ZEFSAII (Michael W. Deem and Ramdas Pophale) SiO2 
 PCOD8160520
Probable space group: C 2 2 21
;
_chemical_formula_sum "Si O2"
_cell_formula_units_Z 40
_cell_length_a 8.474041
_cell_length_b 17.587121
_cell_length_c 11.156066
_cell_angle_alpha 90.000000
_cell_angle_beta 90.000000
_cell_angle_gamma 90.000000
_cell_volume 1662.632966
_symmetry_space_group_name_H-M "C 2 2 21"
_symmetry_group_IT_number 20
_symmetry_cell_setting 'orthorhombic'
loop_
_space_group_symop_operation_xyz
x,y,z
-x,-y,1/2+z
x,-y,-z
-x,y,1/2-z
1/2+x,1/2+y,z
1/2-x,1/2-y,1/2+z
1/2+x,1/2-y,-z
1/2-x,1/2+y,1/2-z
loop_
_atom_site_type_symbol
_atom_site_label
_atom_site_fract_x
_atom_site_fract_y
_atom_site_fract_z
Si Si1 0.600389 0.792693 0.132723
Si Si2 0.476794 0.961486 0.618571
Si Si3 0.133814 0.930135 0.080971
Si Si4 0.647272 0.182581 0.448900
Si Si5 0.711488 0.557221 0.643704
O O1 0.500000 0.778073 0.250000
O O2 0.483087 0.771162 0.024178
O O3 0.652780 0.880202 0.115878
O O4 0.756445 0.739792 0.136615
O O5 0.500000 0.001995 0.750000
O O6 0.547601 0.877164 0.631152
O O7 0.559383 0.000000 0.500000
O O8 0.285896 0.974729 0.602357
O O9 0.224597 0.855247 0.037556
O O10 0.179447 0.948504 0.215794
O O11 0.945052 0.920214 0.071324
O O12 0.187667 0.000000 0.000000
#
# Coordination Sequence:
#
# PCOD8160520 Si02
#       5
#     8   8   8   8   8
#     4  12  26  49  74 104 153 204 252 311 394 464
#     4  12  24  45  78 108 144 195 251 315 381 447
#     4  11  24  44  73 112 142 189 258 317 383 454
#     4  12  26  46  74 106 151 192 255 315 379 461
#     4  11  23  46  77 102 147 200 244 317 388 459
#
# _framework density 24.058226000000001
#
# number of rings (size 3 to 8) (size 9 to 14) (size 15 to 20)
#    0.000    0.400    4.000    5.400    0.000    1.600 
#   14.400    0.000    0.000    0.000    0.000    0.000 
#    0.000    0.000    0.000    0.000    0.000    0.000 
#
# Total GULP energy -247810.155285 kJ/mol
# GULP energy per Si atom -12390.507764 kJ/mol
# Density = 2.400347 g / cm^3
# Si number density = 24.058226 Si / 1000 Ang^3
#
#
#
# Elastic Constant Matrix: (Units=GPa)
#
#
# Indices 1 2 3 4 5 6 
#
# 1 173.2972 58.8503 32.4518 0.0000 0.0000 0.0000
# 2 58.8503 95.8501 13.8071 0.0000 0.0000 0.0000
# 3 32.4518 13.8071 77.1791 0.0000 0.0000 0.0000
# 4 0.0000 0.0000 0.0000 23.2422 0.0000 0.0000
# 5 0.0000 0.0000 0.0000 0.0000 31.8193 0.0000
# 6 0.0000 0.0000 0.0000 0.0000 0.0000 59.6753
#
#
#
# Elastic Compliance Matrix: (Units=1/GPa)
#
#
# Indices 1 2 3 4 5 6 
#
# 1 0.007721 -0.004386 -0.002462 0.000000 0.000000 0.000000
# 2 -0.004386 0.013200 -0.000517 0.000000 0.000000 0.000000
# 3 -0.002462 -0.000517 0.014085 0.000000 0.000000 0.000000
# 4 0.000000 0.000000 0.000000 0.043025 0.000000 0.000000
# 5 0.000000 0.000000 0.000000 0.000000 0.031427 0.000000
# 6 0.000000 0.000000 0.000000 0.000000 0.000000 0.016757
#
#
# Mechanical properties :
#
#
# Convention : Reuss Voigt Hill
#
# Bulk Modulus (GPa) = 49.32014 61.83831 55.57923
# Shear Modulus (GPa) = 33.85143 39.02851 36.43997
#
# Velocity S-wave (km/s) = 3.75515 4.03209 3.89608
# Velocity P-wave (km/s) = 6.27267 6.88741 6.58721
#
# Compressibility (1/GPa) = 0.02027569
#
# Stress axis : x y z
#
# Youngs Moduli (GPa) = 129.51988 75.75583 70.99976
#
# Poissons Ratio (x) = 0.33225 0.17479
# Poissons Ratio (y) = 0.56805 0.03673
# Poissons Ratio (z) = 0.31885 0.03919
#
# Static dielectric constant tensor:
#      x y z
#    x 4.783140 0.000000 0.000000 
#    y 0.000000 3.958340 0.000000 
#    z 0.000000 0.000000 4.463640 
# 
# 
# High freq. dielectric constant tensor:
#      x y z
#    x 1.986970 0.000000 0.000000 
#    y 0.000000 1.918640 0.000000 
#    z 0.000000 0.000000 1.967970 
# 
# From -- ./inp_files/12729.got.cif
#   From: 2010.03.12/outbox.cif.g09.slc.cpg/sg20_7_cif.got.tgz:12729.got - 2010.04.14 01:38:04.
