data_PCOD8160187
_publ_section_title
;
Structure prediction by ZEFSAII (Michael W. Deem and Ramdas Pophale) SiO2 
 PCOD8160187
Probable space group: C 2 2 21
;
_chemical_formula_sum "Si O2"
_cell_formula_units_Z 36
_cell_length_a 8.235536
_cell_length_b 21.613065
_cell_length_c 8.975673
_cell_angle_alpha 90.000000
_cell_angle_beta 90.000000
_cell_angle_gamma 90.000000
_cell_volume 1597.626485
_symmetry_space_group_name_H-M "C 2 2 21"
_symmetry_group_IT_number 20
_symmetry_cell_setting 'orthorhombic'
loop_
_space_group_symop_operation_xyz
x,y,z
-x,-y,1/2+z
x,-y,-z
-x,y,1/2-z
1/2+x,1/2+y,z
1/2-x,1/2-y,1/2+z
1/2+x,1/2-y,-z
1/2-x,1/2+y,1/2-z
loop_
_atom_site_type_symbol
_atom_site_label
_atom_site_fract_x
_atom_site_fract_y
_atom_site_fract_z
Si Si1 0.817777 0.816588 0.268926
Si Si2 0.621284 0.000000 0.000000
Si Si3 0.111065 0.608940 0.511051
Si Si4 0.313987 0.421185 0.773805
Si Si5 0.678808 0.190163 0.054496
O O1 0.713848 0.870169 0.346834
O O2 0.818665 0.756154 0.369781
O O3 0.000000 0.841959 0.250000
O O4 0.736020 0.800426 0.113496
O O5 0.511866 0.944420 0.063610
O O6 0.732313 0.976900 0.864510
O O7 0.228897 0.582847 0.385271
O O8 0.006157 0.665365 0.441685
O O9 0.500000 0.438110 0.750000
O O10 0.300259 0.356518 0.861934
#
# Coordination Sequence:
#
# PCOD8160187 Si02
#       5
#     8   4   8   8   8
#     4  12  24  40  67 102 137 174 222 274 326 392
#     4  10  24  46  70  96 130 176 220 268 334 392
#     4  11  25  46  69  95 134 179 219 269 333 396
#     4  11  24  45  71  99 131 171 223 278 325 387
#     4  11  23  41  67  99 138 177 217 267 336 396
#
# _framework density 22.533425999999999
#
# number of rings (size 3 to 8) (size 9 to 14) (size 15 to 20)
#    0.000    0.889    0.000    8.667    0.000    9.778 
#    0.000    5.556    0.000    0.000    0.000    0.000 
#    0.000    0.000    0.000    0.000    0.000    0.000 
#
# Total GULP energy -223354.240867 kJ/mol
# GULP energy per Si atom -12408.568937 kJ/mol
# Density = 2.248214 g / cm^3
# Si number density = 22.533426 Si / 1000 Ang^3
#
#
#
# Elastic Constant Matrix: (Units=GPa)
#
#
# Indices 1 2 3 4 5 6 
#
# 1 186.9737 73.4485 66.3804 0.0000 0.0000 0.0000
# 2 73.4485 104.1854 43.7658 0.0000 0.0000 0.0000
# 3 66.3804 43.7658 114.7600 0.0000 0.0000 0.0000
# 4 0.0000 0.0000 0.0000 30.5905 0.0000 0.0000
# 5 0.0000 0.0000 0.0000 0.0000 19.7759 0.0000
# 6 0.0000 0.0000 0.0000 0.0000 0.0000 24.4804
#
#
#
# Elastic Compliance Matrix: (Units=1/GPa)
#
#
# Indices 1 2 3 4 5 6 
#
# 1 0.008190 -0.004506 -0.003019 0.000000 0.000000 0.000000
# 2 -0.004506 0.013908 -0.002698 0.000000 0.000000 0.000000
# 3 -0.003019 -0.002698 0.011489 0.000000 0.000000 0.000000
# 4 0.000000 0.000000 0.000000 0.032690 0.000000 0.000000
# 5 0.000000 0.000000 0.000000 0.000000 0.050567 0.000000
# 6 0.000000 0.000000 0.000000 0.000000 0.000000 0.040849
#
#
# Mechanical properties :
#
#
# Convention : Reuss Voigt Hill
#
# Bulk Modulus (GPa) = 76.09223 85.90098 80.99660
# Shear Modulus (GPa) = 27.39450 29.79099 28.59274
#
# Velocity S-wave (km/s) = 3.49051 3.63999 3.56603
# Velocity P-wave (km/s) = 7.07720 7.47465 7.27864
#
# Compressibility (1/GPa) = 0.01314195
#
# Stress axis : x y z
#
# Youngs Moduli (GPa) = 122.09801 71.90125 87.03935
#
# Poissons Ratio (x) = 0.32396 0.26278
# Poissons Ratio (y) = 0.55013 0.23482
# Poissons Ratio (z) = 0.36863 0.19398
#
# Static dielectric constant tensor:
#      x y z
#    x 4.300600 0.000000 0.000000 
#    y 0.000000 4.168950 0.000000 
#    z 0.000000 0.000000 4.166050 
# 
# 
# High freq. dielectric constant tensor:
#      x y z
#    x 1.898660 0.000000 0.000000 
#    y 0.000000 1.890720 0.000000 
#    z 0.000000 0.000000 1.903430 
# 
# From -- ./inp_files/5918.got.cif
#   From: 2010.03.12/outbox.cif.g09.slc.cpg/sg20_3_cif.got.tgz:5918.got - 2010.04.14 01:38:04.
