data_PCOD8160536
_publ_section_title
;
Structure prediction by ZEFSAII (Michael W. Deem and Ramdas Pophale) SiO2 
 PCOD8160536
Probable space group: C 2 2 21
;
_chemical_formula_sum "Si O2"
_cell_formula_units_Z 48
_cell_length_a 14.580240
_cell_length_b 27.277534
_cell_length_c 5.169960
_cell_angle_alpha 90.000000
_cell_angle_beta 90.000000
_cell_angle_gamma 90.000000
_cell_volume 2056.160262
_symmetry_space_group_name_H-M "C 2 2 21"
_symmetry_group_IT_number 20
_symmetry_cell_setting 'orthorhombic'
loop_
_space_group_symop_operation_xyz
x,y,z
-x,-y,1/2+z
x,-y,-z
-x,y,1/2-z
1/2+x,1/2+y,z
1/2-x,1/2-y,1/2+z
1/2+x,1/2-y,-z
1/2-x,1/2+y,1/2-z
loop_
_atom_site_type_symbol
_atom_site_label
_atom_site_fract_x
_atom_site_fract_y
_atom_site_fract_z
Si Si1 0.555066 0.500000 0.000000
Si Si2 0.650152 0.345645 0.649845
Si Si3 0.500000 0.733004 0.250000
Si Si4 0.000000 0.295449 0.750000
Si Si5 0.351624 0.861308 0.619467
Si Si6 0.340831 0.942791 0.997188
Si Si7 0.500000 0.897120 0.250000
Si Si8 0.160677 0.905125 0.165023
O O1 0.500000 0.519420 0.250000
O O2 0.616618 0.456692 0.105694
O O3 0.586935 0.298082 0.649907
O O4 0.755800 0.332649 0.570874
O O5 0.616523 0.383668 0.427711
O O6 0.641145 0.367926 0.933539
O O7 0.470766 0.764228 0.499436
O O8 0.088318 0.329687 0.672442
O O9 0.325855 0.916381 0.719063
O O10 0.422069 0.863361 0.379168
O O11 0.447149 0.934342 0.060773
O O12 0.270651 0.915031 0.195907
O O13 0.317154 0.000000 0.000000
#
# Coordination Sequence:
#
# PCOD8160536 Si02
#       8
#     4   8   4   4   8   8   4   8
#     4  12  26  42  68 108 138 204 248 306 370 428
#     4  11  26  47  73 104 141 196 237 306 377 431
#     4  12  29  48  76 107 133 184 252 316 367 448
#     4  12  26  47  76 107 143 176 242 313 374 446
#     4  11  25  44  72 102 149 192 231 300 379 440
#     4  11  24  41  66 107 147 196 238 286 348 447
#     4  12  21  41  66 104 142 200 234 287 359 432
#     4  11  24  46  69 101 153 185 244 299 355 443
#
# _framework density 23.344484999999999
#
# number of rings (size 3 to 8) (size 9 to 14) (size 15 to 20)
#    0.000    0.667    4.167    2.500    5.833    1.333 
#    0.000    0.000    0.000    0.000    0.000    0.000 
#    0.000    0.000    0.000    0.000    0.000    0.000 
#
# Total GULP energy -297487.700481 kJ/mol
# GULP energy per Si atom -12395.320853 kJ/mol
# Density = 2.329135 g / cm^3
# Si number density = 23.344485 Si / 1000 Ang^3
#
#
#
# Elastic Constant Matrix: (Units=GPa)
#
#
# Indices 1 2 3 4 5 6 
#
# 1 113.0133 45.4459 33.6430 0.0000 0.0000 0.0000
# 2 45.4459 118.8779 32.6265 0.0000 0.0000 0.0000
# 3 33.6430 32.6265 106.0603 0.0000 0.0000 0.0000
# 4 0.0000 0.0000 0.0000 40.9960 0.0000 0.0000
# 5 0.0000 0.0000 0.0000 0.0000 31.5298 0.0000
# 6 0.0000 0.0000 0.0000 0.0000 0.0000 28.4706
#
#
#
# Elastic Compliance Matrix: (Units=1/GPa)
#
#
# Indices 1 2 3 4 5 6 
#
# 1 0.010986 -0.003543 -0.002395 0.000000 0.000000 0.000000
# 2 -0.003543 0.010330 -0.002054 0.000000 0.000000 0.000000
# 3 -0.002395 -0.002054 0.010820 0.000000 0.000000 0.000000
# 4 0.000000 0.000000 0.000000 0.024393 0.000000 0.000000
# 5 0.000000 0.000000 0.000000 0.000000 0.031716 0.000000
# 6 0.000000 0.000000 0.000000 0.000000 0.000000 0.035124
#
#
# Mechanical properties :
#
#
# Convention : Reuss Voigt Hill
#
# Bulk Modulus (GPa) = 61.90809 62.37582 62.14196
# Shear Modulus (GPa) = 34.54553 35.28168 34.91361
#
# Velocity S-wave (km/s) = 3.85101 3.89183 3.87147
# Velocity P-wave (km/s) = 6.80813 6.85367 6.83094
#
# Compressibility (1/GPa) = 0.01615298
#
# Stress axis : x y z
#
# Youngs Moduli (GPa) = 91.02446 96.80545 92.41973
#
# Poissons Ratio (x) = 0.34294 0.22135
# Poissons Ratio (y) = 0.32246 0.18983
# Poissons Ratio (z) = 0.21801 0.19884
#
# Static dielectric constant tensor:
#      x y z
#    x 4.598450 0.000000 0.000000 
#    y 0.000000 4.098250 0.000000 
#    z 0.000000 0.000000 -6.409760 
# 
# 
# High freq. dielectric constant tensor:
#      x y z
#    x 1.938960 0.000000 0.000000 
#    y 0.000000 1.910470 0.000000 
#    z 0.000000 0.000000 1.926810 
# 
# From -- ./inp_files/2114.got.cif
#   From: 2010.03.12/outbox.cif.g09.slc.cpg/sg20_2_cif.got.tgz:2114.got - 2010.04.14 01:38:04.
