data_PCOD8160612
_publ_section_title
;
Structure prediction by ZEFSAII (Michael W. Deem and Ramdas Pophale) SiO2 
 PCOD8160612
Probable space group: C 2 2 21
;
_chemical_formula_sum "Si O2"
_cell_formula_units_Z 40
_cell_length_a 20.266563
_cell_length_b 10.408278
_cell_length_c 8.014487
_cell_angle_alpha 90.000000
_cell_angle_beta 90.000000
_cell_angle_gamma 90.000000
_cell_volume 1690.576063
_symmetry_space_group_name_H-M "C 2 2 21"
_symmetry_group_IT_number 20
_symmetry_cell_setting 'orthorhombic'
loop_
_space_group_symop_operation_xyz
x,y,z
-x,-y,1/2+z
x,-y,-z
-x,y,1/2-z
1/2+x,1/2+y,z
1/2-x,1/2-y,1/2+z
1/2+x,1/2-y,-z
1/2-x,1/2+y,1/2-z
loop_
_atom_site_type_symbol
_atom_site_label
_atom_site_fract_x
_atom_site_fract_y
_atom_site_fract_z
Si Si1 0.996422 0.752167 0.051056
Si Si2 0.860771 0.797320 0.556461
Si Si3 0.589737 0.000000 0.500000
Si Si4 0.424998 0.500000 0.000000
Si Si5 0.673864 0.546415 0.765947
Si Si6 0.679417 0.953972 0.182496
O O1 0.954982 0.626834 0.000865
O O2 0.000000 0.777015 0.250000
O O3 0.970708 0.878938 0.950277
O O4 0.069552 0.730734 0.981672
O O5 0.821399 0.828019 0.384201
O O6 0.819699 0.700633 0.673494
O O7 0.866913 0.930885 0.650722
O O8 0.633897 0.004638 0.332700
O O9 0.375398 0.579246 0.881393
O O10 0.746187 0.498653 0.713970
O O11 0.654176 0.000000 0.000000
#
# Coordination Sequence:
#
# PCOD8160612 Si02
#       6
#     8   8   4   4   8   8
#     4  12  27  48  77 112 159 199 262 320 388 474
#     4  11  26  47  74 109 149 199 252 319 386 458
#     4  12  30  50  78 116 156 212 254 316 402 468
#     4  12  24  44  76 108 144 202 256 316 382 458
#     4  11  25  47  76 108 146 201 258 315 390 457
#     4  12  28  49  78 110 158 201 257 321 389 471
#
# _framework density 23.660572999999999
#
# number of rings (size 3 to 8) (size 9 to 14) (size 15 to 20)
#    0.000    0.400    3.000    4.800    7.000    3.200 
#    0.000    0.000    0.000    0.000    0.000    0.000 
#    0.000    0.000    0.000    0.000    0.000    0.000 
#
# Total GULP energy -247862.243303 kJ/mol
# GULP energy per Si atom -12393.112165 kJ/mol
# Density = 2.360672 g / cm^3
# Si number density = 23.660573 Si / 1000 Ang^3
#
#
#
# Elastic Constant Matrix: (Units=GPa)
#
#
# Indices 1 2 3 4 5 6 
#
# 1 121.8395 50.1215 46.3140 0.0000 0.0000 0.0000
# 2 50.1215 126.1194 19.5832 0.0000 0.0000 0.0000
# 3 46.3140 19.5832 104.5790 0.0000 0.0000 0.0000
# 4 0.0000 0.0000 0.0000 39.7519 0.0000 0.0000
# 5 0.0000 0.0000 0.0000 0.0000 33.8643 0.0000
# 6 0.0000 0.0000 0.0000 0.0000 0.0000 36.8117
#
#
#
# Elastic Compliance Matrix: (Units=1/GPa)
#
#
# Indices 1 2 3 4 5 6 
#
# 1 0.011455 -0.003877 -0.004347 0.000000 0.000000 0.000000
# 2 -0.003877 0.009479 -0.000058 0.000000 0.000000 0.000000
# 3 -0.004347 -0.000058 0.011498 0.000000 0.000000 0.000000
# 4 0.000000 0.000000 0.000000 0.025156 0.000000 0.000000
# 5 0.000000 0.000000 0.000000 0.000000 0.029530 0.000000
# 6 0.000000 0.000000 0.000000 0.000000 0.000000 0.027165
#
#
# Mechanical properties :
#
#
# Convention : Reuss Voigt Hill
#
# Bulk Modulus (GPa) = 63.02130 64.95282 63.98706
# Shear Modulus (GPa) = 36.72794 37.85354 37.29074
#
# Velocity S-wave (km/s) = 3.94418 4.00416 3.97428
# Velocity P-wave (km/s) = 6.88734 6.99209 6.93991
#
# Compressibility (1/GPa) = 0.01586765
#
# Stress axis : x y z
#
# Youngs Moduli (GPa) = 87.29885 105.49758 86.97136
#
# Poissons Ratio (x) = 0.40905 0.37805
# Poissons Ratio (y) = 0.33849 0.00503
# Poissons Ratio (z) = 0.37948 0.00610
#
# Static dielectric constant tensor:
#      x y z
#    x 4.152640 0.000000 0.000000 
#    y 0.000000 4.283090 0.000000 
#    z 0.000000 0.000000 4.828860 
# 
# 
# High freq. dielectric constant tensor:
#      x y z
#    x 1.946280 0.000000 0.000000 
#    y 0.000000 1.942110 0.000000 
#    z 0.000000 0.000000 1.940650 
# 
# From -- ./inp_files/9167.got.cif
#   From: 2010.03.12/outbox.cif.g09.slc.cpg/sg20_5_cif.got.tgz:9167.got - 2010.04.14 01:38:04.
