data_PCOD8160493
_publ_section_title
;
Structure prediction by ZEFSAII (Michael W. Deem and Ramdas Pophale) SiO2 
 PCOD8160493
Probable space group: C 2 2 21
;
_chemical_formula_sum "Si O2"
_cell_formula_units_Z 52
_cell_length_a 19.131408
_cell_length_b 8.850524
_cell_length_c 14.606282
_cell_angle_alpha 90.000000
_cell_angle_beta 90.000000
_cell_angle_gamma 90.000000
_cell_volume 2473.179278
_symmetry_space_group_name_H-M "C 2 2 21"
_symmetry_group_IT_number 20
_symmetry_cell_setting 'orthorhombic'
loop_
_space_group_symop_operation_xyz
x,y,z
-x,-y,1/2+z
x,-y,-z
-x,y,1/2-z
1/2+x,1/2+y,z
1/2-x,1/2-y,1/2+z
1/2+x,1/2-y,-z
1/2-x,1/2+y,1/2-z
loop_
_atom_site_type_symbol
_atom_site_label
_atom_site_fract_x
_atom_site_fract_y
_atom_site_fract_z
Si Si1 0.702623 0.501881 0.182043
Si Si2 0.797919 0.640806 0.669902
Si Si3 0.580028 0.674625 0.732618
Si Si4 0.261493 0.000000 0.000000
Si Si5 0.939639 0.489413 0.682738
Si Si6 0.019615 0.500000 0.500000
Si Si7 0.215111 0.000000 0.500000
Si Si8 0.627808 0.763056 0.532027
O O1 0.764751 0.434673 0.241739
O O2 0.710950 0.681050 0.174580
O O3 0.627746 0.453367 0.221565
O O4 0.712048 0.431596 0.079841
O O5 0.880590 0.613972 0.670625
O O6 0.762886 0.563808 0.581169
O O7 0.500000 0.626002 0.750000
O O8 0.599189 0.689423 0.625763
O O9 0.594472 0.835838 0.779439
O O10 0.309347 0.121421 0.053067
O O11 0.000000 0.550620 0.750000
O O12 0.972962 0.454777 0.585135
O O13 0.067000 0.352172 0.477761
O O14 0.161845 0.866714 0.532294
#
# Coordination Sequence:
#
# PCOD8160493 Si02
#       8
#     8   8   8   4   8   4   4   8
#     4  12  26  44  72 103 143 185 240 298 358 419
#     4  12  27  44  70 106 137 187 238 295 358 429
#     4  11  23  49  72 101 143 187 237 300 355 420
#     4  11  24  40  70 104 137 182 238 288 353 428
#     4  11  24  43  70 101 144 190 236 294 352 426
#     4  11  23  44  72 100 144 190 236 288 364 430
#     4  12  25  46  70 106 143 178 242 304 357 416
#     4  11  23  45  70 103 138 189 235 291 363 422
#
# _framework density 21.025569000000001
#
# number of rings (size 3 to 8) (size 9 to 14) (size 15 to 20)
#    0.000    0.615    6.154    2.308    6.462    1.846 
#    2.769    0.000    0.000    0.000    0.000    0.000 
#    0.000    0.000    0.000    0.000    0.000    0.000 
#
# Total GULP energy -322318.946484 kJ/mol
# GULP energy per Si atom -12396.882557 kJ/mol
# Density = 2.097771 g / cm^3
# Si number density = 21.025569 Si / 1000 Ang^3
#
#
#
# Elastic Constant Matrix: (Units=GPa)
#
#
# Indices 1 2 3 4 5 6 
#
# 1 126.9229 61.5303 38.8111 0.0000 0.0000 0.0000
# 2 61.5303 93.4723 40.4529 0.0000 0.0000 0.0000
# 3 38.8111 40.4529 106.8420 0.0000 0.0000 0.0000
# 4 0.0000 0.0000 0.0000 29.7293 0.0000 0.0000
# 5 0.0000 0.0000 0.0000 0.0000 33.9413 0.0000
# 6 0.0000 0.0000 0.0000 0.0000 0.0000 56.3024
#
#
#
# Elastic Compliance Matrix: (Units=1/GPa)
#
#
# Indices 1 2 3 4 5 6 
#
# 1 0.011798 -0.007070 -0.001609 0.000000 0.000000 0.000000
# 2 -0.007070 0.017032 -0.003880 0.000000 0.000000 0.000000
# 3 -0.001609 -0.003880 0.011413 0.000000 0.000000 0.000000
# 4 0.000000 0.000000 0.000000 0.033637 0.000000 0.000000
# 5 0.000000 0.000000 0.000000 0.000000 0.029463 0.000000
# 6 0.000000 0.000000 0.000000 0.000000 0.000000 0.017761
#
#
# Mechanical properties :
#
#
# Convention : Reuss Voigt Hill
#
# Bulk Modulus (GPa) = 66.11785 67.64731 66.88258
# Shear Modulus (GPa) = 33.05470 36.42412 34.73941
#
# Velocity S-wave (km/s) = 3.96930 4.16669 4.06919
# Velocity P-wave (km/s) = 7.24719 7.44259 7.34554
#
# Compressibility (1/GPa) = 0.01512451
#
# Stress axis : x y z
#
# Youngs Moduli (GPa) = 84.75791 58.71362 87.61755
#
# Poissons Ratio (x) = 0.41512 0.14097
# Poissons Ratio (y) = 0.59926 0.33999
# Poissons Ratio (z) = 0.13636 0.22783
#
# Static dielectric constant tensor:
#      x y z
#    x 4.062730 0.000000 0.000000 
#    y 0.000000 3.918570 0.000000 
#    z 0.000000 0.000000 3.566060 
# 
# 
# High freq. dielectric constant tensor:
#      x y z
#    x 1.836810 0.000000 0.000000 
#    y 0.000000 1.820430 0.000000 
#    z 0.000000 0.000000 1.824990 
# 
# From -- ./inp_files/21744.got.cif
#   From: 2010.03.12/outbox.cif.g09.slc.cpg/sg20_11_cif.got.tgz:21744.got - 2010.04.14 01:38:04.
