data_PCOD8160265
_publ_section_title
;
Structure prediction by ZEFSAII (Michael W. Deem and Ramdas Pophale) SiO2 
 PCOD8160265
Probable space group: C 2 2 21
;
_chemical_formula_sum "Si O2"
_cell_formula_units_Z 48
_cell_length_a 14.127827
_cell_length_b 5.319321
_cell_length_c 26.065796
_cell_angle_alpha 90.000000
_cell_angle_beta 90.000000
_cell_angle_gamma 90.000000
_cell_volume 1958.856217
_symmetry_space_group_name_H-M "C 2 2 21"
_symmetry_group_IT_number 20
_symmetry_cell_setting 'orthorhombic'
loop_
_space_group_symop_operation_xyz
x,y,z
-x,-y,1/2+z
x,-y,-z
-x,y,1/2-z
1/2+x,1/2+y,z
1/2-x,1/2-y,1/2+z
1/2+x,1/2-y,-z
1/2-x,1/2+y,1/2-z
loop_
_atom_site_type_symbol
_atom_site_label
_atom_site_fract_x
_atom_site_fract_y
_atom_site_fract_z
Si Si1 0.130237 0.684568 0.047883
Si Si2 0.166697 0.261790 0.470454
Si Si3 0.266980 0.864217 0.780485
Si Si4 0.471802 0.799505 0.804206
Si Si5 0.124104 0.623288 0.856556
Si Si6 0.514961 0.520882 0.403924
O O1 0.224950 0.850794 0.039587
O O2 0.163037 0.579320 0.103592
O O3 0.028658 0.828881 0.053414
O O4 0.114074 0.500000 0.000000
O O5 0.119718 0.500000 0.500000
O O6 0.169300 0.000000 0.500000
O O7 0.103032 0.193860 0.421032
O O8 0.275720 0.621881 0.742665
O O9 0.371501 0.939428 0.799056
O O10 0.205252 0.779463 0.828709
O O11 0.500000 0.666043 0.750000
O O12 0.458551 0.603401 0.849907
O O13 0.553203 0.004519 0.814761
O O14 0.072914 0.802343 0.896024
#
# Coordination Sequence:
#
# PCOD8160265 Si02
#       6
#     8   8   8   8   8   8
#     4  10  26  49  73 110 153 203 256 325 385 468
#     4  11  28  48  75 112 151 199 256 320 389 458
#     4  12  27  48  78 111 158 205 256 322 389 464
#     4  11  24  48  73 112 154 204 253 323 380 465
#     4  11  26  44  75 115 146 206 260 313 396 463
#     4  11  27  44  79 108 156 198 264 317 390 467
#
# _framework density 24.504095
#
# number of rings (size 3 to 8) (size 9 to 14) (size 15 to 20)
#    0.000    1.000    1.667    2.000   16.333    2.000 
#    0.000    0.000    0.000    0.000    0.000    0.000 
#    0.000    0.000    0.000    0.000    0.000    0.000 
#
# Total GULP energy -297353.317688 kJ/mol
# GULP energy per Si atom -12389.721570 kJ/mol
# Density = 2.444832 g / cm^3
# Si number density = 24.504095 Si / 1000 Ang^3
#
#
#
# Elastic Constant Matrix: (Units=GPa)
#
#
# Indices 1 2 3 4 5 6 
#
# 1 107.6525 11.4117 57.1902 0.0000 0.0000 0.0000
# 2 11.4117 83.5708 36.2985 0.0000 0.0000 0.0000
# 3 57.1902 36.2985 134.2136 0.0000 0.0000 0.0000
# 4 0.0000 0.0000 0.0000 -2.9833 0.0000 0.0000
# 5 0.0000 0.0000 0.0000 0.0000 55.7197 0.0000
# 6 0.0000 0.0000 0.0000 0.0000 0.0000 -5.2655
#
#
#
# Elastic Compliance Matrix: (Units=1/GPa)
#
#
# Indices 1 2 3 4 5 6 
#
# 1 0.012039 0.000662 -0.005309 0.000000 0.000000 0.000000
# 2 0.000662 0.013595 -0.003959 0.000000 0.000000 0.000000
# 3 -0.005309 -0.003959 0.010784 0.000000 0.000000 0.000000
# 4 0.000000 0.000000 0.000000 -0.335198 0.000000 0.000000
# 5 0.000000 0.000000 0.000000 0.000000 0.017947 0.000000
# 6 0.000000 0.000000 0.000000 0.000000 0.000000 -0.189917
#
#
# Mechanical properties :
#
#
# Convention : Reuss Voigt Hill
#
# Bulk Modulus (GPa) = 52.06673 59.47085 55.76879
# Shear Modulus (GPa) = -11.18230 24.19663 6.50716
#
# Velocity S-wave (km/s) = -2.13854 3.14578 1.63135
# Velocity P-wave (km/s) = 3.89827 6.12512 5.13389
#
# Compressibility (1/GPa) = 0.01920612
#
# Stress axis : x y z
#
# Youngs Moduli (GPa) = 83.06003 73.55622 92.73130
#
# Poissons Ratio (x) = -0.04870 0.49233
# Poissons Ratio (y) = -0.05499 0.36712
# Poissons Ratio (z) = 0.44098 0.29120
#
# Static dielectric constant tensor:
#      x y z
#    x 4.670160 0.000000 0.000000 
#    y 0.000000 4.242400 0.000000 
#    z 0.000000 0.000000 4.282290 
# 
# 
# High freq. dielectric constant tensor:
#      x y z
#    x 1.988670 0.000000 0.000000 
#    y 0.000000 1.964550 0.000000 
#    z 0.000000 0.000000 1.986400 
# 
# From -- ./inp_files/30413.got.cif
#   From: 2010.03.12/outbox.cif.g09.slc.cpg/sg20_16_cif.got.tgz:30413.got - 2010.04.14 01:38:04.
