data_PCOD8160579
_publ_section_title
;
Structure prediction by ZEFSAII (Michael W. Deem and Ramdas Pophale) SiO2 
 PCOD8160579
Probable space group: C 2 2 21
;
_chemical_formula_sum "Si O2"
_cell_formula_units_Z 48
_cell_length_a 17.407194
_cell_length_b 8.473149
_cell_length_c 14.696170
_cell_angle_alpha 90.000000
_cell_angle_beta 90.000000
_cell_angle_gamma 90.000000
_cell_volume 2167.593201
_symmetry_space_group_name_H-M "C 2 2 21"
_symmetry_group_IT_number 20
_symmetry_cell_setting 'orthorhombic'
loop_
_space_group_symop_operation_xyz
x,y,z
-x,-y,1/2+z
x,-y,-z
-x,y,1/2-z
1/2+x,1/2+y,z
1/2-x,1/2-y,1/2+z
1/2+x,1/2-y,-z
1/2-x,1/2+y,1/2-z
loop_
_atom_site_type_symbol
_atom_site_label
_atom_site_fract_x
_atom_site_fract_y
_atom_site_fract_z
Si Si1 0.779478 0.829368 0.786287
Si Si2 0.088140 0.680580 0.004401
Si Si3 0.749104 0.677794 0.969754
Si Si4 0.187266 0.159455 0.643317
Si Si5 0.062308 0.160041 0.179911
Si Si6 0.990922 0.175159 0.847897
O O1 0.785470 0.705317 0.869834
O O2 0.707731 0.790239 0.719899
O O3 0.854201 0.827507 0.723628
O O4 0.766338 0.001740 0.829132
O O5 0.158500 0.789358 0.036033
O O6 0.018315 0.704132 0.075071
O O7 0.113806 0.500000 0.000000
O O8 0.057153 0.729304 0.906745
O O9 0.765118 0.500000 0.000000
O O10 0.786786 0.793511 0.042893
O O11 0.097032 0.124974 0.637870
O O12 0.000000 0.226138 0.250000
O O13 0.043557 0.981180 0.150945
O O14 0.000000 0.259648 0.750000
#
# Coordination Sequence:
#
# PCOD8160579 Si02
#       6
#     8   8   8   8   8   8
#     4  12  25  46  75 108 148 187 252 307 363 442
#     4  12  27  48  72 107 150 194 243 310 372 438
#     4  12  27  47  71 105 150 197 246 309 374 434
#     4  12  25  46  75 112 144 194 247 304 365 442
#     4  11  24  48  75 104 143 200 238 295 372 450
#     4  11  24  47  76 103 145 195 244 289 373 445
#
# _framework density 22.144378
#
# number of rings (size 3 to 8) (size 9 to 14) (size 15 to 20)
#    0.000    0.333    5.000    5.000    2.333    2.667 
#    6.000    0.000    0.000    0.000    0.000    0.000 
#    0.000    0.000    0.000    0.000    0.000    0.000 
#
# Total GULP energy -297736.845928 kJ/mol
# GULP energy per Si atom -12405.701914 kJ/mol
# Density = 2.209398 g / cm^3
# Si number density = 22.144378 Si / 1000 Ang^3
#
#
#
# Elastic Constant Matrix: (Units=GPa)
#
#
# Indices 1 2 3 4 5 6 
#
# 1 91.5704 37.0043 45.3285 0.0000 0.0000 0.0000
# 2 37.0043 83.0998 38.4017 0.0000 0.0000 0.0000
# 3 45.3285 38.4017 155.9066 0.0000 0.0000 0.0000
# 4 0.0000 0.0000 0.0000 34.4009 0.0000 0.0000
# 5 0.0000 0.0000 0.0000 0.0000 44.8395 0.0000
# 6 0.0000 0.0000 0.0000 0.0000 0.0000 29.9457
#
#
#
# Elastic Compliance Matrix: (Units=1/GPa)
#
#
# Indices 1 2 3 4 5 6 
#
# 1 0.014425 -0.005061 -0.002947 0.000000 0.000000 0.000000
# 2 -0.005061 0.015355 -0.002311 0.000000 0.000000 0.000000
# 3 -0.002947 -0.002311 0.007840 0.000000 0.000000 0.000000
# 4 0.000000 0.000000 0.000000 0.029069 0.000000 0.000000
# 5 0.000000 0.000000 0.000000 0.000000 0.022302 0.000000
# 6 0.000000 0.000000 0.000000 0.000000 0.000000 0.033394
#
#
# Mechanical properties :
#
#
# Convention : Reuss Voigt Hill
#
# Bulk Modulus (GPa) = 58.88675 63.56065 61.22370
# Shear Modulus (GPa) = 33.62838 35.82671 34.72755
#
# Velocity S-wave (km/s) = 3.90115 4.02664 3.96439
# Velocity P-wave (km/s) = 6.85141 7.09814 6.97587
#
# Compressibility (1/GPa) = 0.01698175
#
# Stress axis : x y z
#
# Youngs Moduli (GPa) = 69.32496 65.12386 127.54918
#
# Poissons Ratio (x) = 0.32962 0.37591
# Poissons Ratio (y) = 0.35088 0.29472
# Poissons Ratio (z) = 0.20431 0.15048
#
# Static dielectric constant tensor:
#      x y z
#    x 3.958230 0.000000 0.000000 
#    y 0.000000 3.876040 0.000000 
#    z 0.000000 0.000000 4.386510 
# 
# 
# High freq. dielectric constant tensor:
#      x y z
#    x 1.870600 0.000000 0.000000 
#    y 0.000000 1.862000 0.000000 
#    z 0.000000 0.000000 1.898530 
# 
# From -- ./inp_files/21261.got.cif
#   From: 2010.03.12/outbox.cif.g09.slc.cpg/sg20_11_cif.got.tgz:21261.got - 2010.04.14 01:38:04.
