data_PCOD8160661
_publ_section_title
;
Structure prediction by ZEFSAII (Michael W. Deem and Ramdas Pophale) SiO2 
 PCOD8160661
Probable space group: C 2 2 21
;
_chemical_formula_sum "Si O2"
_cell_formula_units_Z 48
_cell_length_a 6.704869
_cell_length_b 25.956237
_cell_length_c 13.132292
_cell_angle_alpha 90.000000
_cell_angle_beta 90.000000
_cell_angle_gamma 90.000000
_cell_volume 2285.454391
_symmetry_space_group_name_H-M "C 2 2 21"
_symmetry_group_IT_number 20
_symmetry_cell_setting 'orthorhombic'
loop_
_space_group_symop_operation_xyz
x,y,z
-x,-y,1/2+z
x,-y,-z
-x,y,1/2-z
1/2+x,1/2+y,z
1/2-x,1/2-y,1/2+z
1/2+x,1/2-y,-z
1/2-x,1/2+y,1/2-z
loop_
_atom_site_type_symbol
_atom_site_label
_atom_site_fract_x
_atom_site_fract_y
_atom_site_fract_z
Si Si1 0.402281 0.341884 0.148229
Si Si2 0.000000 0.475059 0.750000
Si Si3 0.748583 0.818941 0.498155
Si Si4 0.073450 0.425428 0.537468
Si Si5 0.561163 0.238126 0.866133
Si Si6 0.254447 0.453805 0.131861
Si Si7 0.920505 0.000000 0.500000
O O1 0.500000 0.318824 0.250000
O O2 0.567567 0.344234 0.061175
O O3 0.218662 0.306953 0.115823
O O4 0.318022 0.398253 0.171740
O O5 0.988563 0.438610 0.847834
O O6 0.818423 0.514681 0.730744
O O7 0.593776 0.863765 0.529120
O O8 0.635305 0.776013 0.430983
O O9 0.840028 0.791503 0.597458
O O10 0.288613 0.450024 0.520638
O O11 0.914473 0.448171 0.456700
O O12 0.500000 0.245075 0.750000
O O13 0.441680 0.486641 0.095147
#
# Coordination Sequence:
#
# PCOD8160661 Si02
#       7
#     8   4   8   8   8   8   4
#     4  12  26  42  75 108 131 187 244 286 358 419
#     4  12  26  46  66 104 146 182 230 300 340 416
#     4  12  26  48  72 102 146 185 233 305 356 426
#     4  12  26  48  68 101 142 185 235 290 353 420
#     4  12  26  48  74 104 141 184 243 300 362 428
#     4  12  26  44  69 103 141 179 235 295 339 412
#     4  12  22  46  68  94 142 184 226 280 350 406
#
# _framework density 21.002388
#
# number of rings (size 3 to 8) (size 9 to 14) (size 15 to 20)
#    0.000    0.000   10.000    0.000    5.833    0.000 
#   10.500    0.000    0.000    0.000    0.000    0.000 
#    0.000    0.000    0.000    0.000    0.000    0.000 
#
# Total GULP energy -297649.958455 kJ/mol
# GULP energy per Si atom -12402.081602 kJ/mol
# Density = 2.095459 g / cm^3
# Si number density = 21.002388 Si / 1000 Ang^3
#
#
#
# Elastic Constant Matrix: (Units=GPa)
#
#
# Indices 1 2 3 4 5 6 
#
# 1 94.2751 23.8376 25.2303 0.0000 0.0000 0.0000
# 2 23.8376 96.7695 30.4463 0.0000 0.0000 0.0000
# 3 25.2303 30.4463 88.6688 0.0000 0.0000 0.0000
# 4 0.0000 0.0000 0.0000 36.1260 0.0000 0.0000
# 5 0.0000 0.0000 0.0000 0.0000 34.7738 0.0000
# 6 0.0000 0.0000 0.0000 0.0000 0.0000 41.7446
#
#
#
# Elastic Compliance Matrix: (Units=1/GPa)
#
#
# Indices 1 2 3 4 5 6 
#
# 1 0.011844 -0.002082 -0.002655 0.000000 0.000000 0.000000
# 2 -0.002082 0.011952 -0.003511 0.000000 0.000000 0.000000
# 3 -0.002655 -0.003511 0.013239 0.000000 0.000000 0.000000
# 4 0.000000 0.000000 0.000000 0.027681 0.000000 0.000000
# 5 0.000000 0.000000 0.000000 0.000000 0.028757 0.000000
# 6 0.000000 0.000000 0.000000 0.000000 0.000000 0.023955
#
#
# Mechanical properties :
#
#
# Convention : Reuss Voigt Hill
#
# Bulk Modulus (GPa) = 48.69174 48.74910 48.72042
# Shear Modulus (GPa) = 35.51846 35.87549 35.69698
#
# Velocity S-wave (km/s) = 4.11684 4.13748 4.12717
# Velocity P-wave (km/s) = 6.76994 6.78871 6.77933
#
# Compressibility (1/GPa) = 0.02053737
#
# Stress axis : x y z
#
# Youngs Moduli (GPa) = 84.42827 83.67143 75.53355
#
# Poissons Ratio (x) = 0.17422 0.20056
# Poissons Ratio (y) = 0.17580 0.26522
# Poissons Ratio (z) = 0.22418 0.29380
#
# Static dielectric constant tensor:
#      x y z
#    x 3.960950 0.000000 0.000000 
#    y 0.000000 3.797660 0.000000 
#    z 0.000000 0.000000 3.721130 
# 
# 
# High freq. dielectric constant tensor:
#      x y z
#    x 1.839540 0.000000 0.000000 
#    y 0.000000 1.825280 0.000000 
#    z 0.000000 0.000000 1.820230 
# 
# From -- ./inp_files/17819.got.cif
#   From: 2010.03.12/outbox.cif.g09.slc.cpg/sg20_9_cif.got.tgz:17819.got - 2010.04.14 01:38:04.
