data_PCOD8160040
_publ_section_title
;
Structure prediction by ZEFSAII (Michael W. Deem and Ramdas Pophale) SiO2 
 PCOD8160040
Probable space group: C 2 2 21
;
_chemical_formula_sum "Si O2"
_cell_formula_units_Z 56
_cell_length_a 19.025937
_cell_length_b 8.290337
_cell_length_c 16.259089
_cell_angle_alpha 90.000000
_cell_angle_beta 90.000000
_cell_angle_gamma 90.000000
_cell_volume 2564.569350
_symmetry_space_group_name_H-M "C 2 2 21"
_symmetry_group_IT_number 20
_symmetry_cell_setting 'orthorhombic'
loop_
_space_group_symop_operation_xyz
x,y,z
-x,-y,1/2+z
x,-y,-z
-x,y,1/2-z
1/2+x,1/2+y,z
1/2-x,1/2-y,1/2+z
1/2+x,1/2-y,-z
1/2-x,1/2+y,1/2-z
loop_
_atom_site_type_symbol
_atom_site_label
_atom_site_fract_x
_atom_site_fract_y
_atom_site_fract_z
Si Si1 0.609014 0.110583 0.893845
Si Si2 0.923001 0.765675 0.769036
Si Si3 0.776390 0.816270 0.509399
Si Si4 0.675854 0.447265 0.281070
Si Si5 0.143441 0.847958 0.451663
Si Si6 0.546164 0.847552 0.448828
Si Si7 0.799529 0.340771 0.654728
O O1 0.595489 0.130889 0.797101
O O2 0.666341 0.226218 0.934976
O O3 0.537516 0.136970 0.944220
O O4 0.634325 0.924189 0.892746
O O5 0.918250 0.681279 0.859001
O O6 0.000000 0.837151 0.750000
O O7 0.867465 0.903706 0.745678
O O8 0.700488 0.796867 0.552071
O O9 0.760265 0.749517 0.418396
O O10 0.800272 0.000000 0.500000
O O11 0.628492 0.393527 0.358102
O O12 0.752986 0.514861 0.305696
O O13 0.679841 0.295303 0.220568
O O14 0.069656 0.803527 0.495156
O O15 0.177196 0.000000 0.500000
O O16 0.576540 0.000000 0.500000
#
# Coordination Sequence:
#
# PCOD8160040 Si02
#       7
#     8   8   8   8   8   8   8
#     4  11  24  47  69  99 140 179 235 291 346 412
#     4  10  23  45  65  97 140 181 229 293 345 420
#     4  12  24  43  70 101 136 182 233 288 348 415
#     4  12  25  43  70 103 138 182 228 285 354 412
#     4  12  23  44  68  98 139 179 230 287 343 410
#     4  11  24  43  70  96 137 186 232 283 354 414
#     4  12  25  42  71 100 140 180 231 292 346 414
#
# _framework density 21.836024999999999
#
# number of rings (size 3 to 8) (size 9 to 14) (size 15 to 20)
#    0.000    0.571    4.286    3.429    4.000    0.571 
#    5.143    0.000    0.000    0.000    0.000    0.000 
#    0.000    0.000    0.000    0.000    0.000    0.000 
#
# Total GULP energy -347003.371957 kJ/mol
# GULP energy per Si atom -12392.977570 kJ/mol
# Density = 2.178632 g / cm^3
# Si number density = 21.836025 Si / 1000 Ang^3
#
#
#
# Elastic Constant Matrix: (Units=GPa)
#
#
# Indices 1 2 3 4 5 6 
#
# 1 98.3129 36.7387 25.5607 0.0000 0.0000 0.0000
# 2 36.7387 116.4733 38.9814 0.0000 0.0000 0.0000
# 3 25.5607 38.9814 88.5974 0.0000 0.0000 0.0000
# 4 0.0000 0.0000 0.0000 52.1640 0.0000 0.0000
# 5 0.0000 0.0000 0.0000 0.0000 28.0674 0.0000
# 6 0.0000 0.0000 0.0000 0.0000 0.0000 30.5045
#
#
#
# Elastic Compliance Matrix: (Units=1/GPa)
#
#
# Indices 1 2 3 4 5 6 
#
# 1 0.011849 -0.003041 -0.002080 0.000000 0.000000 0.000000
# 2 -0.003041 0.010849 -0.003896 0.000000 0.000000 0.000000
# 3 -0.002080 -0.003896 0.013601 0.000000 0.000000 0.000000
# 4 0.000000 0.000000 0.000000 0.019170 0.000000 0.000000
# 5 0.000000 0.000000 0.000000 0.000000 0.035629 0.000000
# 6 0.000000 0.000000 0.000000 0.000000 0.000000 0.032782
#
#
# Mechanical properties :
#
#
# Convention : Reuss Voigt Hill
#
# Bulk Modulus (GPa) = 54.75210 56.21611 55.48410
# Shear Modulus (GPa) = 33.78310 35.62070 34.70190
#
# Velocity S-wave (km/s) = 3.93762 4.04329 3.99081
# Velocity P-wave (km/s) = 6.76770 6.89914 6.83374
#
# Compressibility (1/GPa) = 0.01826414
#
# Stress axis : x y z
#
# Youngs Moduli (GPa) = 84.39553 92.17598 73.52211
#
# Poissons Ratio (x) = 0.28033 0.15296
# Poissons Ratio (y) = 0.25666 0.28643
# Poissons Ratio (z) = 0.17558 0.35911
#
# Static dielectric constant tensor:
#      x y z
#    x 3.862660 0.000000 0.000000 
#    y 0.000000 4.044690 0.000000 
#    z 0.000000 0.000000 4.157490 
# 
# 
# High freq. dielectric constant tensor:
#      x y z
#    x 1.851470 0.000000 0.000000 
#    y 0.000000 1.856260 0.000000 
#    z 0.000000 0.000000 1.877740 
# 
# From -- ./inp_files/21770.got.cif
#   From: 2010.03.12/outbox.cif.g09.slc.cpg/sg20_11_cif.got.tgz:21770.got - 2010.04.14 01:38:04.
