data_PCOD8160003
_publ_section_title
;
Structure prediction by ZEFSAII (Michael W. Deem and Ramdas Pophale) SiO2 
 PCOD8160003
Probable space group: C 2 2 21
;
_chemical_formula_sum "Si O2"
_cell_formula_units_Z 48
_cell_length_a 13.674829
_cell_length_b 11.379109
_cell_length_c 13.582344
_cell_angle_alpha 90.000000
_cell_angle_beta 90.000000
_cell_angle_gamma 90.000000
_cell_volume 2113.512825
_symmetry_space_group_name_H-M "C 2 2 21"
_symmetry_group_IT_number 20
_symmetry_cell_setting 'orthorhombic'
loop_
_space_group_symop_operation_xyz
x,y,z
-x,-y,1/2+z
x,-y,-z
-x,y,1/2-z
1/2+x,1/2+y,z
1/2-x,1/2-y,1/2+z
1/2+x,1/2-y,-z
1/2-x,1/2+y,1/2-z
loop_
_atom_site_type_symbol
_atom_site_label
_atom_site_fract_x
_atom_site_fract_y
_atom_site_fract_z
Si Si1 0.535623 0.833637 0.141993
Si Si2 0.790415 0.497766 0.312666
Si Si3 0.343895 0.058371 0.898339
Si Si4 0.095401 0.126122 0.690098
Si Si5 0.530828 0.360974 0.013874
Si Si6 0.694337 0.253956 0.140645
O O1 0.500000 0.803757 0.250000
O O2 0.460968 0.927407 0.093321
O O3 0.643431 0.892646 0.142228
O O4 0.529789 0.708836 0.087758
O O5 0.814705 0.520394 0.196873
O O6 0.674686 0.476351 0.325443
O O7 0.808278 0.614892 0.376908
O O8 0.300935 0.188975 0.875058
O O9 0.305060 0.000000 0.000000
O O10 0.151301 0.228265 0.749433
O O11 0.000000 0.078784 0.750000
O O12 0.060195 0.176045 0.584342
O O13 0.631232 0.325824 0.063790
O O14 0.527932 0.500000 0.000000
#
# Coordination Sequence:
#
# PCOD8160003 Si02
#       6
#     8   8   8   8   8   8
#     4  10  25  44  67 102 139 183 235 299 353 415
#     4  10  23  46  69 103 143 179 231 301 359 421
#     4  10  23  43  69 102 136 186 236 288 354 432
#     4   9  22  45  68 102 134 181 225 285 359 425
#     4  11  25  43  67  99 137 189 239 291 354 431
#     4  10  23  44  68 102 135 181 229 292 362 421
#
# _framework density 22.711006000000001
#
# number of rings (size 3 to 8) (size 9 to 14) (size 15 to 20)
#    0.000    2.000    0.000    0.500    7.000    8.000 
#   27.000    0.000    0.000    0.000    0.000    0.000 
#    0.000    0.000    0.000    0.000    0.000    0.000 
#
# Total GULP energy -297469.894898 kJ/mol
# GULP energy per Si atom -12394.578954 kJ/mol
# Density = 2.265931 g / cm^3
# Si number density = 22.711006 Si / 1000 Ang^3
#
#
#
# Elastic Constant Matrix: (Units=GPa)
#
#
# Indices 1 2 3 4 5 6 
#
# 1 136.6947 44.2535 32.6701 0.0000 0.0000 0.0000
# 2 44.2535 117.7628 56.6261 0.0000 0.0000 0.0000
# 3 32.6701 56.6261 108.6155 0.0000 0.0000 0.0000
# 4 0.0000 0.0000 0.0000 25.8331 0.0000 0.0000
# 5 0.0000 0.0000 0.0000 0.0000 19.7286 0.0000
# 6 0.0000 0.0000 0.0000 0.0000 0.0000 10.8251
#
#
#
# Elastic Compliance Matrix: (Units=1/GPa)
#
#
# Indices 1 2 3 4 5 6 
#
# 1 0.008441 -0.002604 -0.001181 0.000000 0.000000 0.000000
# 2 -0.002604 0.012136 -0.005544 0.000000 0.000000 0.000000
# 3 -0.001181 -0.005544 0.012452 0.000000 0.000000 0.000000
# 4 0.000000 0.000000 0.000000 0.038710 0.000000 0.000000
# 5 0.000000 0.000000 0.000000 0.000000 0.050688 0.000000
# 6 0.000000 0.000000 0.000000 0.000000 0.000000 0.092378
#
#
# Mechanical properties :
#
#
# Convention : Reuss Voigt Hill
#
# Bulk Modulus (GPa) = 69.58435 70.01914 69.80175
# Shear Modulus (GPa) = 20.98606 26.57891 23.78249
#
# Velocity S-wave (km/s) = 3.04311 3.42469 3.23953
# Velocity P-wave (km/s) = 6.56147 6.82169 6.69285
#
# Compressibility (1/GPa) = 0.01437105
#
# Stress axis : x y z
#
# Youngs Moduli (GPa) = 118.47062 82.40051 80.30622
#
# Poissons Ratio (x) = 0.21456 0.09487
# Poissons Ratio (y) = 0.30849 0.44520
# Poissons Ratio (z) = 0.13996 0.45681
#
# Static dielectric constant tensor:
#      x y z
#    x 4.248660 0.000000 0.000000 
#    y 0.000000 3.726090 0.000000 
#    z 0.000000 0.000000 4.250580 
# 
# 
# High freq. dielectric constant tensor:
#      x y z
#    x 1.908770 0.000000 0.000000 
#    y 0.000000 1.871110 0.000000 
#    z 0.000000 0.000000 1.899710 
# 
# From -- ./inp_files/20644.got.cif
#   From: 2010.03.12/outbox.cif.g09.slc.cpg/sg20_11_cif.got.tgz:20644.got - 2010.04.14 01:38:04.
