data_PCOD8160733
_publ_section_title
;
Structure prediction by ZEFSAII (Michael W. Deem and Ramdas Pophale) SiO2 
 PCOD8160733
Probable space group: C 2 2 21
;
_chemical_formula_sum "Si O2"
_cell_formula_units_Z 40
_cell_length_a 24.063704
_cell_length_b 8.179843
_cell_length_c 8.569471
_cell_angle_alpha 90.000000
_cell_angle_beta 90.000000
_cell_angle_gamma 90.000000
_cell_volume 1686.791712
_symmetry_space_group_name_H-M "C 2 2 21"
_symmetry_group_IT_number 20
_symmetry_cell_setting 'orthorhombic'
loop_
_space_group_symop_operation_xyz
x,y,z
-x,-y,1/2+z
x,-y,-z
-x,y,1/2-z
1/2+x,1/2+y,z
1/2-x,1/2-y,1/2+z
1/2+x,1/2-y,-z
1/2-x,1/2+y,1/2-z
loop_
_atom_site_type_symbol
_atom_site_label
_atom_site_fract_x
_atom_site_fract_y
_atom_site_fract_z
Si Si1 0.609737 0.821166 0.574178
Si Si2 0.391371 0.824900 0.552357
Si Si3 0.788038 0.124403 0.882321
Si Si4 0.499211 0.675511 0.435693
Si Si5 0.199510 0.883312 0.877514
O O1 0.610451 0.819417 0.761237
O O2 0.665533 0.726791 0.523111
O O3 0.558415 0.721918 0.505995
O O4 0.609760 0.000000 0.500000
O O5 0.454594 0.806232 0.495731
O O6 0.354093 0.689327 0.465528
O O7 0.368700 0.000000 0.500000
O O8 0.741375 0.245138 0.811386
O O9 0.818975 0.009436 0.756593
O O10 0.757073 0.000000 0.000000
O O11 0.481090 0.500000 0.500000
O O12 0.500000 0.675978 0.250000
O O13 0.232282 0.000000 0.000000
#
# Coordination Sequence:
#
# PCOD8160733 Si02
#       5
#     8   8   8   8   8
#     4  12  27  49  76 111 154 204 259 317 386 460
#     4  12  27  47  78 110 155 204 258 320 386 457
#     4  12  28  45  78 110 156 203 262 318 386 461
#     4  12  27  48  78 113 154 200 256 317 387 463
#     4  12  26  50  75 113 155 207 259 321 389 456
#
# _framework density 23.713657000000001
#
# number of rings (size 3 to 8) (size 9 to 14) (size 15 to 20)
#    0.000    0.000    2.000    7.200   11.200    0.000 
#    0.000    0.000    0.000    0.000    0.000    0.000 
#    0.000    0.000    0.000    0.000    0.000    0.000 
#
# Total GULP energy -247978.306568 kJ/mol
# GULP energy per Si atom -12398.915328 kJ/mol
# Density = 2.365968 g / cm^3
# Si number density = 23.713657 Si / 1000 Ang^3
#
#
#
# Elastic Constant Matrix: (Units=GPa)
#
#
# Indices 1 2 3 4 5 6 
#
# 1 113.8924 29.9820 19.9440 0.0000 0.0000 0.0000
# 2 29.9820 121.8695 38.8419 0.0000 0.0000 0.0000
# 3 19.9440 38.8419 103.1296 0.0000 0.0000 0.0000
# 4 0.0000 0.0000 0.0000 53.9972 0.0000 0.0000
# 5 0.0000 0.0000 0.0000 0.0000 34.4136 0.0000
# 6 0.0000 0.0000 0.0000 0.0000 0.0000 34.7872
#
#
#
# Elastic Compliance Matrix: (Units=1/GPa)
#
#
# Indices 1 2 3 4 5 6 
#
# 1 0.009494 -0.001989 -0.001087 0.000000 0.000000 0.000000
# 2 -0.001989 0.009742 -0.003284 0.000000 0.000000 0.000000
# 3 -0.001087 -0.003284 0.011144 0.000000 0.000000 0.000000
# 4 0.000000 0.000000 0.000000 0.018519 0.000000 0.000000
# 5 0.000000 0.000000 0.000000 0.000000 0.029058 0.000000
# 6 0.000000 0.000000 0.000000 0.000000 0.000000 0.028746
#
#
# Mechanical properties :
#
#
# Convention : Reuss Voigt Hill
#
# Bulk Modulus (GPa) = 56.62950 57.38080 57.00515
# Shear Modulus (GPa) = 39.90083 41.31452 40.60768
#
# Velocity S-wave (km/s) = 4.10641 4.17853 4.14263
# Velocity P-wave (km/s) = 6.81292 6.89420 6.85368
#
# Compressibility (1/GPa) = 0.01765864
#
# Stress axis : x y z
#
# Youngs Moduli (GPa) = 105.32712 102.65173 89.73690
#
# Poissons Ratio (x) = 0.20421 0.09753
# Poissons Ratio (y) = 0.20953 0.29472
# Poissons Ratio (z) = 0.11447 0.33714
#
# Static dielectric constant tensor:
#      x y z
#    x 4.134730 0.000000 0.000000 
#    y 0.000000 4.551280 0.000000 
#    z 0.000000 0.000000 4.442300 
# 
# 
# High freq. dielectric constant tensor:
#      x y z
#    x 1.936060 0.000000 0.000000 
#    y 0.000000 1.967850 0.000000 
#    z 0.000000 0.000000 1.952390 
# 
# From -- ./inp_files/10974.got.cif
#   From: 2010.03.12/outbox.cif.g09.slc.cpg/sg20_6_cif.got.tgz:10974.got - 2010.04.14 01:38:04.
