data_PCOD8160176
_publ_section_title
;
Structure prediction by ZEFSAII (Michael W. Deem and Ramdas Pophale) SiO2 
 PCOD8160176
Probable space group: C 2 2 21
;
_chemical_formula_sum "Si O2"
_cell_formula_units_Z 32
_cell_length_a 11.451570
_cell_length_b 21.756230
_cell_length_c 5.138511
_cell_angle_alpha 90.000000
_cell_angle_beta 90.000000
_cell_angle_gamma 90.000000
_cell_volume 1280.223999
_symmetry_space_group_name_H-M "C 2 2 21"
_symmetry_group_IT_number 20
_symmetry_cell_setting 'orthorhombic'
loop_
_space_group_symop_operation_xyz
x,y,z
-x,-y,1/2+z
x,-y,-z
-x,y,1/2-z
1/2+x,1/2+y,z
1/2-x,1/2-y,1/2+z
1/2+x,1/2-y,-z
1/2-x,1/2+y,1/2-z
loop_
_atom_site_type_symbol
_atom_site_label
_atom_site_fract_x
_atom_site_fract_y
_atom_site_fract_z
Si Si1 0.635206 0.031993 0.754289
Si Si2 0.574724 0.570535 0.003500
Si Si3 0.242258 0.344277 0.300143
Si Si4 0.918263 0.763946 0.000518
O O1 0.500000 0.016800 0.750000
O O2 0.653856 0.104352 0.806346
O O3 0.692216 0.000000 0.500000
O O4 0.697592 0.000000 0.000000
O O5 0.500000 0.587251 0.250000
O O6 0.616984 0.500000 0.000000
O O7 0.500000 0.585699 0.750000
O O8 0.681645 0.618261 0.011668
O O9 0.163838 0.293822 0.441496
O O10 0.326693 0.317733 0.073843
O O11 0.000000 0.749242 0.250000
O O12 0.000000 0.780392 0.750000
#
# Coordination Sequence:
#
# PCOD8160176 Si02
#       4
#     8   8   8   8
#     4  10  24  45  73 109 144 182 235 298 360 432
#     4  10  24  45  71 106 143 182 236 299 361 434
#     4  12  27  49  78 103 146 198 242 296 370 436
#     4  12  30  51  73 110 150 194 253 309 360 430
#
# _framework density 24.995626000000001
#
# number of rings (size 3 to 8) (size 9 to 14) (size 15 to 20)
#    0.000    1.000    0.000    3.750    0.000   24.000 
#    0.000    2.500    0.000    0.000    0.000    0.000 
#    0.000    0.000    0.000    0.000    0.000    0.000 
#
# Total GULP energy -198267.981011 kJ/mol
# GULP energy per Si atom -12391.748813 kJ/mol
# Density = 2.493873 g / cm^3
# Si number density = 24.995626 Si / 1000 Ang^3
#
#
#
# Elastic Constant Matrix: (Units=GPa)
#
#
# Indices 1 2 3 4 5 6 
#
# 1 84.3515 24.5506 54.4029 0.0000 0.0000 0.0000
# 2 24.5506 162.0894 51.4307 0.0000 0.0000 0.0000
# 3 54.4029 51.4307 194.6878 0.0000 0.0000 0.0000
# 4 0.0000 0.0000 0.0000 45.7805 0.0000 0.0000
# 5 0.0000 0.0000 0.0000 0.0000 45.1265 0.0000
# 6 0.0000 0.0000 0.0000 0.0000 0.0000 56.4720
#
#
#
# Elastic Compliance Matrix: (Units=1/GPa)
#
#
# Indices 1 2 3 4 5 6 
#
# 1 0.014609 -0.001001 -0.003818 0.000000 0.000000 0.000000
# 2 -0.001001 0.006803 -0.001517 0.000000 0.000000 0.000000
# 3 -0.003818 -0.001517 0.006604 0.000000 0.000000 0.000000
# 4 0.000000 0.000000 0.000000 0.021843 0.000000 0.000000
# 5 0.000000 0.000000 0.000000 0.000000 0.022160 0.000000
# 6 0.000000 0.000000 0.000000 0.000000 0.000000 0.017708
#
#
# Mechanical properties :
#
#
# Convention : Reuss Voigt Hill
#
# Bulk Modulus (GPa) = 65.17695 77.98858 71.58276
# Shear Modulus (GPa) = 46.50582 50.19210 48.34896
#
# Velocity S-wave (km/s) = 4.31810 4.48597 4.40284
# Velocity P-wave (km/s) = 7.14096 7.62237 7.38559
#
# Compressibility (1/GPa) = 0.01534285
#
# Stress axis : x y z
#
# Youngs Moduli (GPa) = 68.45165 147.00456 151.42239
#
# Poissons Ratio (x) = 0.14720 0.57809
# Poissons Ratio (y) = 0.06854 0.22974
# Poissons Ratio (z) = 0.26133 0.22304
#
# Static dielectric constant tensor:
#      x y z
#    x 4.746260 0.000000 0.000000 
#    y 0.000000 4.511850 0.000000 
#    z 0.000000 0.000000 4.910460 
# 
# 
# High freq. dielectric constant tensor:
#      x y z
#    x 2.017990 0.000000 0.000000 
#    y 0.000000 2.013200 0.000000 
#    z 0.000000 0.000000 1.994860 
# 
# From -- ./inp_files/1007.got.cif
#   From: 2010.03.12/outbox.cif.g09.slc.cpg/sg20_1_cif.got.tgz:1007.got - 2010.04.14 01:38:04.
