data_PCOD8160852
_publ_section_title
;
Structure prediction by ZEFSAII (Michael W. Deem and Ramdas Pophale) SiO2 
 PCOD8160852
Probable space group: C 2 2 2
;
_chemical_formula_sum "Si O2"
_cell_formula_units_Z 64
_cell_length_a 29.620163
_cell_length_b 14.967437
_cell_length_c 7.408075
_cell_angle_alpha 90.000000
_cell_angle_beta 90.000000
_cell_angle_gamma 90.000000
_cell_volume 3284.280589
_symmetry_space_group_name_H-M "C 2 2 2"
_symmetry_group_IT_number 21
_symmetry_cell_setting 'orthorhombic'
loop_
_space_group_symop_operation_xyz
x,y,z
-x,-y,z
x,-y,-z
-x,y,-z
1/2+x,1/2+y,z
1/2-x,1/2-y,z
1/2+x,1/2-y,-z
1/2-x,1/2+y,-z
loop_
_atom_site_type_symbol
_atom_site_label
_atom_site_fract_x
_atom_site_fract_y
_atom_site_fract_z
Si Si1 0.880135 0.173362 0.310667
Si Si2 0.676739 0.505729 0.714128
Si Si3 0.646283 0.132037 0.323085
Si Si4 0.123790 0.832594 0.726586
Si Si5 0.949492 0.787502 0.987172
Si Si6 0.653543 0.861258 0.263559
Si Si7 0.223646 0.498409 0.711055
Si Si8 0.079481 0.595248 0.025372
O O1 0.851447 0.092472 0.227023
O O2 0.849393 0.261807 0.287417
O O3 0.892528 0.157756 0.519826
O O4 0.926748 0.182030 0.200327
O O5 0.679103 0.500000 0.500000
O O6 0.652253 0.417846 0.791798
O O7 0.726941 0.512494 0.800751
O O8 0.639220 0.110211 0.533869
O O9 0.601978 0.096083 0.222970
O O10 0.690925 0.084844 0.241196
O O11 0.156018 0.746088 0.753805
O O12 0.078846 0.824951 0.845063
O O13 0.953393 0.679544 0.997305
O O14 0.000000 0.826793 0.000000
O O15 0.701771 0.907744 0.222047
O O16 0.617998 0.901229 0.125917
O O17 0.231697 0.500000 0.500000
O O18 0.053704 0.500000 0.000000
#
# Coordination Sequence:
#
# PCOD8160852 Si02
#       8
#     8   8   8   8   8   8   8   8
#     4   9  19  36  55  74 105 140 167 209 263 305
#     4   9  18  33  53  78 104 137 179 215 251 293
#     4   9  17  30  49  75 106 142 173 201 244 296
#     4   9  19  36  55  74 105 140 167 209 263 305
#     4  10  22  38  56  79 100 126 171 216 261 318
#     4   9  17  30  49  75 106 142 173 201 244 296
#     4   9  16  27  49  79 107 138 179 211 235 290
#     4  10  18  31  53  76 104 135 165 203 253 307
#
# _framework density 19.486764999999998
#
# number of rings (size 3 to 8) (size 9 to 14) (size 15 to 20)
#    0.000    2.750    1.250    0.000    0.000    2.250 
#    0.000    8.750    0.000    6.750    0.000    7.000 
#    0.000    0.000    0.000    0.000    0.000    0.000 
#
# Total GULP energy -396621.190029 kJ/mol
# GULP energy per Si atom -12394.412188 kJ/mol
# Density = 1.944241 g / cm^3
# Si number density = 19.486765 Si / 1000 Ang^3
#
#
#
# Elastic Constant Matrix: (Units=GPa)
#
#
# Indices 1 2 3 4 5 6 
#
# 1 115.1491 28.8255 19.2336 0.0000 0.0000 0.0000
# 2 28.8255 88.9538 2.1810 0.0000 0.0000 0.0000
# 3 19.2336 2.1810 61.3937 0.0000 0.0000 0.0000
# 4 0.0000 0.0000 0.0000 15.2328 0.0000 0.0000
# 5 0.0000 0.0000 0.0000 0.0000 8.0645 0.0000
# 6 0.0000 0.0000 0.0000 0.0000 0.0000 16.8083
#
#
#
# Elastic Compliance Matrix: (Units=1/GPa)
#
#
# Indices 1 2 3 4 5 6 
#
# 1 0.009979 -0.003160 -0.003014 0.000000 0.000000 0.000000
# 2 -0.003160 0.012252 0.000555 0.000000 0.000000 0.000000
# 3 -0.003014 0.000555 0.017213 0.000000 0.000000 0.000000
# 4 0.000000 0.000000 0.000000 0.065648 0.000000 0.000000
# 5 0.000000 0.000000 0.000000 0.000000 0.124000 0.000000
# 6 0.000000 0.000000 0.000000 0.000000 0.000000 0.059495
#
#
# Mechanical properties :
#
#
# Convention : Reuss Voigt Hill
#
# Bulk Modulus (GPa) = 35.45387 40.66409 38.05898
# Shear Modulus (GPa) = 16.16941 22.37155 19.27048
#
# Velocity S-wave (km/s) = 2.88369 3.39195 3.14809
# Velocity P-wave (km/s) = 5.41487 6.02107 5.72600
#
# Compressibility (1/GPa) = 0.02820566
#
# Stress axis : x y z
#
# Youngs Moduli (GPa) = 100.21243 81.61867 58.09616
#
# Poissons Ratio (x) = 0.25789 0.17510
# Poissons Ratio (y) = 0.31664 -0.03222
# Poissons Ratio (z) = 0.30203 -0.04527
#
# Static dielectric constant tensor:
#      x y z
#    x 3.284810 0.000000 0.000000 
#    y 0.000000 3.829580 0.000000 
#    z 0.000000 0.000000 3.542920 
# 
# 
# High freq. dielectric constant tensor:
#      x y z
#    x 1.722150 0.000000 0.000000 
#    y 0.000000 1.767710 0.000000 
#    z 0.000000 0.000000 1.761010 
# 
# From -- ./inp_files/19860.got.cif
#   From: 2010.03.12/outbox.cif.g09.slc.cpg/sg21_10_cif.got.tgz:19860.got - 2010.04.14 01:59:26.
