data_PCOD8160840
_publ_section_title
;
Structure prediction by ZEFSAII (Michael W. Deem and Ramdas Pophale) SiO2 
 PCOD8160840
Probable space group: C 2 2 2
;
_chemical_formula_sum "Si O2"
_cell_formula_units_Z 48
_cell_length_a 8.759351
_cell_length_b 19.139031
_cell_length_c 15.702344
_cell_angle_alpha 90.000000
_cell_angle_beta 90.000000
_cell_angle_gamma 90.000000
_cell_volume 2632.427159
_symmetry_space_group_name_H-M "C 2 2 2"
_symmetry_group_IT_number 21
_symmetry_cell_setting 'orthorhombic'
loop_
_space_group_symop_operation_xyz
x,y,z
-x,-y,z
x,-y,-z
-x,y,-z
1/2+x,1/2+y,z
1/2-x,1/2-y,z
1/2+x,1/2-y,-z
1/2-x,1/2+y,-z
loop_
_atom_site_type_symbol
_atom_site_label
_atom_site_fract_x
_atom_site_fract_y
_atom_site_fract_z
Si Si1 0.172340 0.417002 0.000000
Si Si2 0.681596 0.326438 0.671228
Si Si3 0.817789 0.327284 0.500000
Si Si4 0.318404 0.326438 0.671229
Si Si5 0.320208 0.420905 0.171655
Si Si6 0.179792 0.920905 0.171655
O O1 0.251881 0.387868 0.914779
O O2 0.186791 0.500000 0.000000
O O3 0.251880 0.387868 0.085221
O O4 0.000000 0.390389 0.000000
O O5 0.750000 0.250000 0.686623
O O6 0.752624 0.362622 0.586136
O O7 0.500000 0.321534 0.662079
O O8 0.734223 0.374514 0.749299
O O9 0.750000 0.250000 0.499999
O O10 0.752625 0.362622 0.413863
O O11 0.000000 0.327447 0.500000
O O12 0.250000 0.250000 0.686624
O O13 0.265777 0.374514 0.749299
O O14 0.500000 0.419734 0.162051
O O15 0.260977 0.500000 0.186391
#
# Coordination Sequence:
#
# PCOD8160840 Si02
#       6
#     8   8   8   8   8   8
#     4   9  17  29  48  73  98 125 157 195 238 283
#     4  10  19  32  51  73  97 125 159 198 238 281
#     4  10  18  30  49  70  95 127 161 195 233 282
#     4  10  19  32  51  73  97 125 159 198 238 281
#     4   9  18  33  52  72  95 126 162 197 234 280
#     4   9  18  33  52  72  95 126 162 197 234 280
#
# _framework density 18.234123
#
# number of rings (size 3 to 8) (size 9 to 14) (size 15 to 20)
#    0.000    2.500    0.000    5.000    0.000    4.667 
#    0.000    1.667    0.000    5.000    0.000    0.000 
#    0.000    0.000    0.000    0.000    0.000    0.000 
#
# Total GULP energy -297519.602281 kJ/mol
# GULP energy per Si atom -12396.650095 kJ/mol
# Density = 1.819262 g / cm^3
# Si number density = 18.234123 Si / 1000 Ang^3
#
#
#
# Elastic Constant Matrix: (Units=GPa)
#
#
# Indices 1 2 3 4 5 6 
#
# 1 79.5505 26.3337 67.8148 0.0000 0.0000 0.0000
# 2 26.3337 51.5370 64.7954 0.0000 0.0000 0.0000
# 3 67.8148 64.7954 223.1397 0.0000 0.0000 0.0000
# 4 0.0000 0.0000 0.0000 32.0436 0.0000 0.0000
# 5 0.0000 0.0000 0.0000 0.0000 34.2254 0.0000
# 6 0.0000 0.0000 0.0000 0.0000 0.0000 18.7668
#
#
#
# Elastic Compliance Matrix: (Units=1/GPa)
#
#
# Indices 1 2 3 4 5 6 
#
# 1 0.017363 -0.003524 -0.004254 0.000000 0.000000 0.000000
# 2 -0.003524 0.031276 -0.008011 0.000000 0.000000 0.000000
# 3 -0.004254 -0.008011 0.008100 0.000000 0.000000 0.000000
# 4 0.000000 0.000000 0.000000 0.031207 0.000000 0.000000
# 5 0.000000 0.000000 0.000000 0.000000 0.029218 0.000000
# 6 0.000000 0.000000 0.000000 0.000000 0.000000 0.053286
#
#
# Mechanical properties :
#
#
# Convention : Reuss Voigt Hill
#
# Bulk Modulus (GPa) = 39.74187 74.67944 57.21066
# Shear Modulus (GPa) = 23.76247 30.02605 26.89426
#
# Velocity S-wave (km/s) = 3.61388 4.06235 3.84466
# Velocity P-wave (km/s) = 6.26548 7.94030 7.15208
#
# Compressibility (1/GPa) = 0.02516238
#
# Stress axis : x y z
#
# Youngs Moduli (GPa) = 57.59270 31.97328 123.45071
#
# Poissons Ratio (x) = 0.11268 0.52510
# Poissons Ratio (y) = 0.20297 0.98895
# Poissons Ratio (z) = 0.24497 0.25613
#
# Static dielectric constant tensor:
#      x y z
#    x 3.363980 0.000000 0.000000 
#    y 0.000000 3.056530 0.000000 
#    z 0.000000 0.000000 4.082190 
# 
# 
# High freq. dielectric constant tensor:
#      x y z
#    x 1.714200 0.000000 0.000000 
#    y 0.000000 1.655980 0.000000 
#    z 0.000000 0.000000 1.732470 
# 
# From -- ./inp_files/30624.got.cif
#   From: 2010.03.12/outbox.cif.g09.slc.cpg/sg21_16_cif.got.tgz:30624.got - 2010.04.14 01:59:26.
