data_PCOD8160957
_publ_section_title
;
Structure prediction by ZEFSAII (Michael W. Deem and Ramdas Pophale) SiO2 
 PCOD8160957
Probable space group: C 2 2 2
;
_chemical_formula_sum "Si O2"
_cell_formula_units_Z 64
_cell_length_a 15.561547
_cell_length_b 8.657443
_cell_length_c 23.906754
_cell_angle_alpha 90.000000
_cell_angle_beta 90.000000
_cell_angle_gamma 90.000000
_cell_volume 3220.794547
_symmetry_space_group_name_H-M "C 2 2 2"
_symmetry_group_IT_number 21
_symmetry_cell_setting 'orthorhombic'
loop_
_space_group_symop_operation_xyz
x,y,z
-x,-y,z
x,-y,-z
-x,y,-z
1/2+x,1/2+y,z
1/2-x,1/2-y,z
1/2+x,1/2-y,-z
1/2-x,1/2+y,-z
loop_
_atom_site_type_symbol
_atom_site_label
_atom_site_fract_x
_atom_site_fract_y
_atom_site_fract_z
Si Si1 0.349673 0.931159 0.441667
Si Si2 0.590291 0.433786 0.939213
Si Si3 0.909709 0.433785 0.939213
Si Si4 0.588110 0.067284 0.670663
Si Si5 0.750000 0.433304 0.866134
Si Si6 0.911890 0.932716 0.329337
Si Si7 0.650327 0.568841 0.558333
Si Si8 0.250000 0.434063 0.259523
O O1 0.366596 0.750000 0.440721
O O2 0.250000 0.972944 0.433310
O O3 0.383448 0.000000 0.500000
O O4 0.402818 0.010884 0.392732
O O5 0.500000 0.500000 0.916677
O O6 0.585057 0.250000 0.942703
O O7 0.664757 0.492054 0.897666
O O8 0.611802 0.500000 0.000000
O O9 0.835243 0.492054 0.897666
O O10 0.000000 0.500000 0.916677
O O11 0.888198 0.500000 0.000000
O O12 0.585287 0.250000 0.671942
O O13 0.666001 0.003021 0.708478
O O14 0.500000 0.000000 0.696025
O O15 0.750000 0.250000 0.864716
O O16 0.750000 0.500790 0.803374
O O17 0.833999 0.996978 0.291522
O O18 0.902818 0.989116 0.392732
O O19 0.000000 0.000000 0.303975
O O20 0.616552 0.500000 0.500000
O O21 0.250000 0.250000 0.259127
#
# Coordination Sequence:
#
# PCOD8160957 Si02
#       8
#     8   8   8   8   8   8   8   8
#     4  10  20  35  58  86 116 146 181 227 279 337
#     4  10  19  33  55  82 115 148 184 226 275 329
#     4  10  19  33  55  82 115 148 184 226 275 329
#     4  11  22  38  60  84 111 147 188 230 281 336
#     4   9  19  35  56  81 109 148 189 229 276 329
#     4  11  22  38  60  84 111 147 188 230 281 336
#     4  10  20  35  58  86 116 146 181 227 279 337
#     4   9  20  39  59  79 110 148 188 231 280 333
#
# _framework density 19.870873
#
# number of rings (size 3 to 8) (size 9 to 14) (size 15 to 20)
#    0.000    2.000    1.250    3.375    0.000    2.500 
#    0.000    4.375    0.000   10.500    0.000    0.000 
#    0.000    0.000    0.000    0.000    0.000    0.000 
#
# Total GULP energy -396902.044502 kJ/mol
# GULP energy per Si atom -12403.188891 kJ/mol
# Density = 1.982565 g / cm^3
# Si number density = 19.870873 Si / 1000 Ang^3
#
#
#
# Elastic Constant Matrix: (Units=GPa)
#
#
# Indices 1 2 3 4 5 6 
#
# 1 174.6635 40.2073 96.3666 0.0000 0.0000 0.0000
# 2 40.2073 69.1001 28.3667 0.0000 0.0000 0.0000
# 3 96.3666 28.3667 145.1763 0.0000 0.0000 0.0000
# 4 0.0000 0.0000 0.0000 19.6191 0.0000 0.0000
# 5 0.0000 0.0000 0.0000 0.0000 16.3478 0.0000
# 6 0.0000 0.0000 0.0000 0.0000 0.0000 29.0250
#
#
#
# Elastic Compliance Matrix: (Units=1/GPa)
#
#
# Indices 1 2 3 4 5 6 
#
# 1 0.009661 -0.003250 -0.005778 0.000000 0.000000 0.000000
# 2 -0.003250 0.016827 -0.001131 0.000000 0.000000 0.000000
# 3 -0.005778 -0.001131 0.010945 0.000000 0.000000 0.000000
# 4 0.000000 0.000000 0.000000 0.050971 0.000000 0.000000
# 5 0.000000 0.000000 0.000000 0.000000 0.061170 0.000000
# 6 0.000000 0.000000 0.000000 0.000000 0.000000 0.034453
#
#
# Mechanical properties :
#
#
# Convention : Reuss Voigt Hill
#
# Bulk Modulus (GPa) = 58.42612 79.86900 69.14756
# Shear Modulus (GPa) = 23.80395 27.93167 25.86781
#
# Velocity S-wave (km/s) = 3.46487 3.75328 3.61195
# Velocity P-wave (km/s) = 6.74343 7.68532 7.22973
#
# Compressibility (1/GPa) = 0.01711563
#
# Stress axis : x y z
#
# Youngs Moduli (GPa) = 103.50593 59.42887 91.36945
#
# Poissons Ratio (x) = 0.19312 0.52794
# Poissons Ratio (y) = 0.33635 0.10332
# Poissons Ratio (z) = 0.59807 0.06720
#
# Static dielectric constant tensor:
#      x y z
#    x 3.862350 0.000000 0.000000 
#    y 0.000000 3.401600 0.000000 
#    z 0.000000 0.000000 3.753390 
# 
# 
# High freq. dielectric constant tensor:
#      x y z
#    x 1.787130 0.000000 0.000000 
#    y 0.000000 1.760780 0.000000 
#    z 0.000000 0.000000 1.770590 
# 
# From -- ./inp_files/38748.got.cif
#   From: 2010.03.12/outbox.cif.g09.slc.cpg/sg21_20_cif.got.tgz:38748.got - 2010.04.14 01:59:26.
