data_PCOD8160537
_publ_section_title
;
Structure prediction by ZEFSAII (Michael W. Deem and Ramdas Pophale) SiO2 
 PCOD8160537
Probable space group: C 2 2 21
;
_chemical_formula_sum "Si O2"
_cell_formula_units_Z 36
_cell_length_a 17.755096
_cell_length_b 8.949293
_cell_length_c 10.550783
_cell_angle_alpha 90.000000
_cell_angle_beta 90.000000
_cell_angle_gamma 90.000000
_cell_volume 1676.472535
_symmetry_space_group_name_H-M "C 2 2 21"
_symmetry_group_IT_number 20
_symmetry_cell_setting 'orthorhombic'
loop_
_space_group_symop_operation_xyz
x,y,z
-x,-y,1/2+z
x,-y,-z
-x,y,1/2-z
1/2+x,1/2+y,z
1/2-x,1/2-y,1/2+z
1/2+x,1/2-y,-z
1/2-x,1/2+y,1/2-z
loop_
_atom_site_type_symbol
_atom_site_label
_atom_site_fract_x
_atom_site_fract_y
_atom_site_fract_z
Si Si1 0.913316 0.116533 0.757616
Si Si2 0.067029 0.000000 0.000000
Si Si3 0.216196 0.670574 0.341111
Si Si4 0.697147 0.827408 0.377037
Si Si5 0.452796 0.319368 0.870807
O O1 0.862175 0.250325 0.805416
O O2 0.000000 0.170202 0.750000
O O3 0.883418 0.050167 0.621098
O O4 0.908206 0.975884 0.850966
O O5 0.014734 0.147626 0.021638
O O6 0.278257 0.720905 0.238690
O O7 0.207352 0.494204 0.327326
O O8 0.239229 0.706340 0.488125
O O9 0.608318 0.804817 0.407388
O O10 0.500000 0.265520 0.750000
#
# Coordination Sequence:
#
# PCOD8160537 Si02
#       5
#     8   4   8   8   8
#     4   9  18  34  59  88 116 151 190 233 285 343
#     4   8  16  32  60  88 114 148 192 236 282 342
#     4  11  25  40  60  85 118 154 196 243 290 345
#     4  11  24  42  59  85 117 155 197 242 291 343
#     4   9  18  34  58  84 116 152 189 233 284 342
#
# _framework density 21.473659000000001
#
# number of rings (size 3 to 8) (size 9 to 14) (size 15 to 20)
#    0.000    2.667    0.000    4.000    0.000    8.889 
#    0.000    0.000    0.000    0.000    0.000    0.000 
#    0.000    0.000    0.000    0.000    0.000    0.000 
#
# Total GULP energy -222996.716401 kJ/mol
# GULP energy per Si atom -12388.706467 kJ/mol
# Density = 2.142478 g / cm^3
# Si number density = 21.473659 Si / 1000 Ang^3
#
#
#
# Elastic Constant Matrix: (Units=GPa)
#
#
# Indices 1 2 3 4 5 6 
#
# 1 41.1400 27.0769 10.4640 0.0000 0.0000 0.0000
# 2 27.0769 95.7982 51.4152 0.0000 0.0000 0.0000
# 3 10.4640 51.4152 140.5584 0.0000 0.0000 0.0000
# 4 0.0000 0.0000 0.0000 25.9638 0.0000 0.0000
# 5 0.0000 0.0000 0.0000 0.0000 14.8173 0.0000
# 6 0.0000 0.0000 0.0000 0.0000 0.0000 23.7684
#
#
#
# Elastic Compliance Matrix: (Units=1/GPa)
#
#
# Indices 1 2 3 4 5 6 
#
# 1 0.029994 -0.009057 0.001080 0.000000 0.000000 0.000000
# 2 -0.009057 0.015724 -0.005077 0.000000 0.000000 0.000000
# 3 0.001080 -0.005077 0.008891 0.000000 0.000000 0.000000
# 4 0.000000 0.000000 0.000000 0.038515 0.000000 0.000000
# 5 0.000000 0.000000 0.000000 0.000000 0.067489 0.000000
# 6 0.000000 0.000000 0.000000 0.000000 0.000000 0.042073
#
#
# Mechanical properties :
#
#
# Convention : Reuss Voigt Hill
#
# Bulk Modulus (GPa) = 35.08798 50.60099 42.84448
# Shear Modulus (GPa) = 20.98247 25.47925 23.23086
#
# Velocity S-wave (km/s) = 3.12929 3.44835 3.29269
# Velocity P-wave (km/s) = 5.42514 6.28253 5.86951
#
# Compressibility (1/GPa) = 0.02849979
#
# Stress axis : x y z
#
# Youngs Moduli (GPa) = 33.34028 63.59855 112.46939
#
# Poissons Ratio (x) = 0.57603 -0.12149
# Poissons Ratio (y) = 0.30197 0.57104
# Poissons Ratio (z) = -0.03601 0.32291
#
# Static dielectric constant tensor:
#      x y z
#    x 3.710570 0.000000 0.000000 
#    y 0.000000 3.578180 0.000000 
#    z 0.000000 0.000000 4.450200 
# 
# 
# High freq. dielectric constant tensor:
#      x y z
#    x 1.832330 0.000000 0.000000 
#    y 0.000000 1.809580 0.000000 
#    z 0.000000 0.000000 1.869160 
# 
# From -- ./inp_files/16123.got.cif
#   From: 2010.03.12/outbox.cif.g09.slc.cpg/sg20_9_cif.got.tgz:16123.got - 2010.04.14 01:38:04.
