data_PCOD8160267
_publ_section_title
;
Structure prediction by ZEFSAII (Michael W. Deem and Ramdas Pophale) SiO2 
 PCOD8160267
Probable space group: C 2 2 21
;
_chemical_formula_sum "Si O2"
_cell_formula_units_Z 52
_cell_length_a 14.213632
_cell_length_b 8.633406
_cell_length_c 18.323536
_cell_angle_alpha 90.000000
_cell_angle_beta 90.000000
_cell_angle_gamma 90.000000
_cell_volume 2248.518772
_symmetry_space_group_name_H-M "C 2 2 21"
_symmetry_group_IT_number 20
_symmetry_cell_setting 'orthorhombic'
loop_
_space_group_symop_operation_xyz
x,y,z
-x,-y,1/2+z
x,-y,-z
-x,y,1/2-z
1/2+x,1/2+y,z
1/2-x,1/2-y,1/2+z
1/2+x,1/2-y,-z
1/2-x,1/2+y,1/2-z
loop_
_atom_site_type_symbol
_atom_site_label
_atom_site_fract_x
_atom_site_fract_y
_atom_site_fract_z
Si Si1 0.809398 0.744613 0.366695
Si Si2 0.109903 0.500000 0.500000
Si Si3 0.025937 0.545103 0.127490
Si Si4 0.872842 0.262228 0.796559
Si Si5 0.260499 0.588542 0.402137
Si Si6 0.926815 0.219883 0.337647
Si Si7 0.121441 0.909817 0.680744
O O1 0.886596 0.638801 0.410286
O O2 0.860610 0.758235 0.289003
O O3 0.708648 0.664893 0.360895
O O4 0.792432 0.909196 0.404534
O O5 0.185205 0.627453 0.467447
O O6 0.041963 0.539334 0.567644
O O7 0.066575 0.404052 0.176021
O O8 0.971054 0.659262 0.181631
O O9 0.788893 0.370693 0.825497
O O10 0.869492 0.092306 0.831334
O O11 0.355810 0.689366 0.405798
O O12 0.884664 0.140365 0.265293
O O13 0.026797 0.147072 0.359139
#
# Coordination Sequence:
#
# PCOD8160267 Si02
#       7
#     8   4   8   8   8   8   8
#     4  12  22  38  65 103 132 175 216 282 350 408
#     4  10  26  50  66  96 128 192 246 278 328 402
#     4  11  26  41  70  94 143 180 231 277 336 404
#     4  11  21  39  62 101 139 172 215 278 344 413
#     4  11  23  43  70  95 138 180 230 280 331 407
#     4  11  23  39  62 101 133 178 213 277 340 408
#     4  11  23  36  62 102 147 163 214 264 356 424
#
# _framework density 23.126335000000001
#
# number of rings (size 3 to 8) (size 9 to 14) (size 15 to 20)
#    0.000    0.923    3.077    4.154    8.615    1.231 
#    0.000    0.000    0.000   10.154    0.000    0.000 
#    0.000    0.000    0.000    0.000    0.000    0.000 
#
# Total GULP energy -322105.683422 kJ/mol
# GULP energy per Si atom -12388.680132 kJ/mol
# Density = 2.307370 g / cm^3
# Si number density = 23.126335 Si / 1000 Ang^3
#
#
#
# Elastic Constant Matrix: (Units=GPa)
#
#
# Indices 1 2 3 4 5 6 
#
# 1 168.6048 38.0436 12.3659 0.0000 0.0000 0.0000
# 2 38.0436 121.6019 2.1307 0.0000 0.0000 0.0000
# 3 12.3659 2.1307 43.5241 0.0000 0.0000 0.0000
# 4 0.0000 0.0000 0.0000 11.2407 0.0000 0.0000
# 5 0.0000 0.0000 0.0000 0.0000 37.6519 0.0000
# 6 0.0000 0.0000 0.0000 0.0000 0.0000 40.4804
#
#
#
# Elastic Compliance Matrix: (Units=1/GPa)
#
#
# Indices 1 2 3 4 5 6 
#
# 1 0.006512 -0.002007 -0.001752 0.000000 0.000000 0.000000
# 2 -0.002007 0.008849 0.000137 0.000000 0.000000 0.000000
# 3 -0.001752 0.000137 0.023467 0.000000 0.000000 0.000000
# 4 0.000000 0.000000 0.000000 0.088962 0.000000 0.000000
# 5 0.000000 0.000000 0.000000 0.000000 0.026559 0.000000
# 6 0.000000 0.000000 0.000000 0.000000 0.000000 0.024703
#
#
# Mechanical properties :
#
#
# Convention : Reuss Voigt Hill
#
# Bulk Modulus (GPa) = 31.66101 48.75678 40.20890
# Shear Modulus (GPa) = 25.40333 36.62064 31.01198
#
# Velocity S-wave (km/s) = 3.31790 3.98364 3.66591
# Velocity P-wave (km/s) = 5.32899 6.50291 5.94499
#
# Compressibility (1/GPa) = 0.03158458
#
# Stress axis : x y z
#
# Youngs Moduli (GPa) = 153.55521 113.00758 42.61331
#
# Poissons Ratio (x) = 0.22677 0.07466
# Poissons Ratio (y) = 0.30814 -0.00584
# Poissons Ratio (z) = 0.26903 -0.01548
#
# Static dielectric constant tensor:
#      x y z
#    x 4.876410 0.000000 0.000000 
#    y 0.000000 4.138610 0.000000 
#    z 0.000000 0.000000 3.820050 
# 
# 
# High freq. dielectric constant tensor:
#      x y z
#    x 1.953070 0.000000 0.000000 
#    y 0.000000 1.904360 0.000000 
#    z 0.000000 0.000000 1.870450 
# 
# From -- ./inp_files/27504.got.cif
#   From: 2010.03.12/outbox.cif.g09.slc.cpg/sg20_14_cif.got.tgz:27504.got - 2010.04.14 01:38:04.
