data_PCOD8160020
_publ_section_title
;
Structure prediction by ZEFSAII (Michael W. Deem and Ramdas Pophale) SiO2 
 PCOD8160020
Probable space group: C 2 2 21
;
_chemical_formula_sum "Si O2"
_cell_formula_units_Z 64
_cell_length_a 23.577517
_cell_length_b 15.403192
_cell_length_c 8.589268
_cell_angle_alpha 90.000000
_cell_angle_beta 90.000000
_cell_angle_gamma 90.000000
_cell_volume 3119.356053
_symmetry_space_group_name_H-M "C 2 2 21"
_symmetry_group_IT_number 20
_symmetry_cell_setting 'orthorhombic'
loop_
_space_group_symop_operation_xyz
x,y,z
-x,-y,1/2+z
x,-y,-z
-x,y,1/2-z
1/2+x,1/2+y,z
1/2-x,1/2-y,1/2+z
1/2+x,1/2-y,-z
1/2-x,1/2+y,1/2-z
loop_
_atom_site_type_symbol
_atom_site_label
_atom_site_fract_x
_atom_site_fract_y
_atom_site_fract_z
Si Si1 0.362013 0.910937 0.433851
Si Si2 0.130919 0.090067 0.567055
Si Si3 0.747649 0.654058 0.433794
Si Si4 0.434163 0.253862 0.930558
Si Si5 0.747650 0.345944 0.933794
Si Si6 0.362014 0.089063 0.933853
Si Si7 0.065838 0.753861 0.930557
Si Si8 0.869080 0.090066 0.567055
O O1 0.299063 0.902003 0.500629
O O2 0.359445 0.915646 0.249999
O O3 0.400779 0.830995 0.489578
O O4 0.388701 0.000000 0.500000
O O5 0.189837 0.108442 0.482040
O O6 0.085313 0.164429 0.531522
O O7 0.141114 0.083576 0.750000
O O8 0.106254 0.000000 0.500000
O O9 0.751850 0.658973 0.250000
O O10 0.749999 0.750002 0.499998
O O11 0.400779 0.169005 0.989579
O O12 0.500000 0.236697 0.959653
O O13 0.420707 0.272718 0.750001
O O14 0.799064 0.402006 0.999365
O O15 0.689838 0.391559 0.982042
O O16 0.388703 0.000000 0.000000
O O17 0.085314 0.835570 0.031521
O O18 0.893746 0.000000 0.500000
#
# Coordination Sequence:
#
# PCOD8160020 Si02
#       8
#     8   8   8   8   8   8   8   8
#     4  11  23  40  64  94 130 168 210 259 312 373
#     4  12  25  42  66  95 128 167 210 260 315 377
#     4  12  23  39  64  95 130 166 206 255 314 380
#     4  10  23  44  67  91 124 167 215 266 316 370
#     4  12  23  39  64  95 130 166 206 255 314 380
#     4  11  23  40  64  94 130 168 210 259 312 373
#     4  10  23  44  67  91 124 167 215 266 316 370
#     4  12  25  42  66  95 128 167 210 260 315 377
#
# _framework density 20.517056
#
# number of rings (size 3 to 8) (size 9 to 14) (size 15 to 20)
#    0.000    0.750    2.500    6.000    0.000    2.500 
#    0.000    0.000    0.000    0.000    0.000    0.000 
#    0.000    0.000    0.000    0.000    0.000    0.000 
#
# Total GULP energy -397041.366300 kJ/mol
# GULP energy per Si atom -12407.542697 kJ/mol
# Density = 2.047036 g / cm^3
# Si number density = 20.517056 Si / 1000 Ang^3
#
#
#
# Elastic Constant Matrix: (Units=GPa)
#
#
# Indices 1 2 3 4 5 6 
#
# 1 79.7231 30.0642 3.7203 0.0000 0.0000 0.0000
# 2 30.0642 159.6578 43.2647 0.0000 0.0000 0.0000
# 3 3.7203 43.2647 78.5726 0.0000 0.0000 0.0000
# 4 0.0000 0.0000 0.0000 40.8602 0.0000 0.0000
# 5 0.0000 0.0000 0.0000 0.0000 27.7783 0.0000
# 6 0.0000 0.0000 0.0000 0.0000 0.0000 12.3728
#
#
#
# Elastic Compliance Matrix: (Units=1/GPa)
#
#
# Indices 1 2 3 4 5 6 
#
# 1 0.013556 -0.002796 0.000898 0.000000 0.000000 0.000000
# 2 -0.002796 0.007939 -0.004239 0.000000 0.000000 0.000000
# 3 0.000898 -0.004239 0.015019 0.000000 0.000000 0.000000
# 4 0.000000 0.000000 0.000000 0.024474 0.000000 0.000000
# 5 0.000000 0.000000 0.000000 0.000000 0.035999 0.000000
# 6 0.000000 0.000000 0.000000 0.000000 0.000000 0.080822
#
#
# Mechanical properties :
#
#
# Convention : Reuss Voigt Hill
#
# Bulk Modulus (GPa) = 41.25598 52.45020 46.85309
# Shear Modulus (GPa) = 25.23186 32.26256 28.74721
#
# Velocity S-wave (km/s) = 3.51065 3.96975 3.74724
# Velocity P-wave (km/s) = 6.04853 6.82873 6.45044
#
# Compressibility (1/GPa) = 0.02423891
#
# Stress axis : x y z
#
# Youngs Moduli (GPa) = 73.76874 125.96793 66.58402
#
# Poissons Ratio (x) = 0.35219 -0.05977
# Poissons Ratio (y) = 0.20625 0.28224
# Poissons Ratio (z) = -0.06622 0.53396
#
# Static dielectric constant tensor:
#      x y z
#    x 3.697390 0.000000 0.000000 
#    y 0.000000 4.152680 0.000000 
#    z 0.000000 0.000000 3.769350 
# 
# 
# High freq. dielectric constant tensor:
#      x y z
#    x 1.795800 0.000000 0.000000 
#    y 0.000000 1.823140 0.000000 
#    z 0.000000 0.000000 1.811890 
# 
# From -- ./inp_files/10806.got.cif
#   From: 2010.03.12/outbox.cif.g09.slc.cpg/sg20_6_cif.got.tgz:10806.got - 2010.04.14 01:38:04.
