data_PCOD8160149
_publ_section_title
;
Structure prediction by ZEFSAII (Michael W. Deem and Ramdas Pophale) SiO2 
 PCOD8160149
Probable space group: C 2 2 21
;
_chemical_formula_sum "Si O2"
_cell_formula_units_Z 40
_cell_length_a 18.970055
_cell_length_b 4.938098
_cell_length_c 18.054876
_cell_angle_alpha 90.000000
_cell_angle_beta 90.000000
_cell_angle_gamma 90.000000
_cell_volume 1691.308395
_symmetry_space_group_name_H-M "C 2 2 21"
_symmetry_group_IT_number 20
_symmetry_cell_setting 'orthorhombic'
loop_
_space_group_symop_operation_xyz
x,y,z
-x,-y,1/2+z
x,-y,-z
-x,y,1/2-z
1/2+x,1/2+y,z
1/2-x,1/2-y,1/2+z
1/2+x,1/2-y,-z
1/2-x,1/2+y,1/2-z
loop_
_atom_site_type_symbol
_atom_site_label
_atom_site_fract_x
_atom_site_fract_y
_atom_site_fract_z
Si Si1 0.833919 0.638888 0.921389
Si Si2 0.679545 0.680085 0.928603
Si Si3 0.882883 0.680015 0.637496
Si Si4 0.202818 0.469617 0.732759
Si Si5 0.516993 0.740578 0.448022
O O1 0.759590 0.796950 0.923008
O O2 0.828101 0.437115 0.850582
O O3 0.904550 0.821785 0.914417
O O4 0.840804 0.500000 0.000000
O O5 0.661961 0.459803 0.864456
O O6 0.635632 0.956834 0.925987
O O7 0.662107 0.500000 0.000000
O O8 0.864776 0.545323 0.716263
O O9 0.965513 0.738559 0.623246
O O10 0.235678 0.192940 0.761972
O O11 0.490053 0.500000 0.500000
O O12 0.518254 0.000000 0.500000
#
# Coordination Sequence:
#
# PCOD8160149 Si02
#       5
#     8   8   8   8   8
#     4  10  24  44  68  98 136 179 224 276 339 409
#     4  11  22  38  66  99 129 175 227 271 333 398
#     4  12  22  41  67  96 133 176 219 287 332 396
#     4  12  24  44  66 100 134 171 227 287 337 397
#     4  11  25  43  65  98 137 173 219 270 329 400
#
# _framework density 23.650331000000001
#
# number of rings (size 3 to 8) (size 9 to 14) (size 15 to 20)
#    0.000    0.800    4.000    3.600    0.000    8.800 
#    0.000    0.000    0.000    9.600    0.000    0.000 
#    0.000    0.000    0.000    0.000    0.000    0.000 
#
# Total GULP energy -247773.532961 kJ/mol
# GULP energy per Si atom -12388.676648 kJ/mol
# Density = 2.359650 g / cm^3
# Si number density = 23.650331 Si / 1000 Ang^3
#
#
#
# Elastic Constant Matrix: (Units=GPa)
#
#
# Indices 1 2 3 4 5 6 
#
# 1 140.8452 27.3037 40.5604 0.0000 0.0000 0.0000
# 2 27.3037 96.3895 1.2952 0.0000 0.0000 0.0000
# 3 40.5604 1.2952 134.3276 0.0000 0.0000 0.0000
# 4 0.0000 0.0000 0.0000 30.1831 0.0000 0.0000
# 5 0.0000 0.0000 0.0000 0.0000 9.7027 0.0000
# 6 0.0000 0.0000 0.0000 0.0000 0.0000 18.4326
#
#
#
# Elastic Compliance Matrix: (Units=1/GPa)
#
#
# Indices 1 2 3 4 5 6 
#
# 1 0.008259 -0.002306 -0.002472 0.000000 0.000000 0.000000
# 2 -0.002306 0.011020 0.000590 0.000000 0.000000 0.000000
# 3 -0.002472 0.000590 0.008185 0.000000 0.000000 0.000000
# 4 0.000000 0.000000 0.000000 0.033131 0.000000 0.000000
# 5 0.000000 0.000000 0.000000 0.000000 0.103064 0.000000
# 6 0.000000 0.000000 0.000000 0.000000 0.000000 0.054252
#
#
# Mechanical properties :
#
#
# Convention : Reuss Voigt Hill
#
# Bulk Modulus (GPa) = 52.38746 56.65345 54.52046
# Shear Modulus (GPa) = 21.49161 31.82388 26.65774
#
# Velocity S-wave (km/s) = 3.01777 3.67222 3.36096
# Velocity P-wave (km/s) = 5.86017 6.47973 6.17772
#
# Compressibility (1/GPa) = 0.01908854
#
# Stress axis : x y z
#
# Youngs Moduli (GPa) = 121.08277 90.74482 122.17360
#
# Poissons Ratio (x) = 0.20928 0.30195
# Poissons Ratio (y) = 0.27924 -0.07210
# Poissons Ratio (z) = 0.29926 -0.05355
#
# Static dielectric constant tensor:
#      x y z
#    x 4.987670 0.000000 0.000000 
#    y 0.000000 4.137290 0.000000 
#    z 0.000000 0.000000 4.354550 
# 
# 
# High freq. dielectric constant tensor:
#      x y z
#    x 1.940700 0.000000 0.000000 
#    y 0.000000 1.920840 0.000000 
#    z 0.000000 0.000000 1.936780 
# 
# From -- ./inp_files/25094.got.cif
#   From: 2010.03.12/outbox.cif.g09.slc.cpg/sg20_13_cif.got.tgz:25094.got - 2010.04.14 01:38:04.
