data_PCOD8160843
_publ_section_title
;
Structure prediction by ZEFSAII (Michael W. Deem and Ramdas Pophale) SiO2 
 PCOD8160843
Probable space group: C 2 2 2
;
_chemical_formula_sum "Si O2"
_cell_formula_units_Z 64
_cell_length_a 17.912352
_cell_length_b 17.131660
_cell_length_c 11.951692
_cell_angle_alpha 90.000000
_cell_angle_beta 90.000000
_cell_angle_gamma 90.000000
_cell_volume 3667.595696
_symmetry_space_group_name_H-M "C 2 2 2"
_symmetry_group_IT_number 21
_symmetry_cell_setting 'orthorhombic'
loop_
_space_group_symop_operation_xyz
x,y,z
-x,-y,z
x,-y,-z
-x,y,-z
1/2+x,1/2+y,z
1/2-x,1/2-y,z
1/2+x,1/2-y,-z
1/2-x,1/2+y,-z
loop_
_atom_site_type_symbol
_atom_site_label
_atom_site_fract_x
_atom_site_fract_y
_atom_site_fract_z
Si Si1 0.585085 0.213330 0.761373
Si Si2 0.811594 0.183055 0.625726
Si Si3 0.585033 0.213064 0.237950
Si Si4 0.082245 0.785601 0.999859
Si Si5 0.811574 0.183053 0.373072
Si Si6 0.792772 0.590273 0.770633
Si Si7 0.735386 0.657405 0.000040
Si Si8 0.707325 0.909318 0.230184
O O1 0.615387 0.287857 0.692100
O O2 0.499984 0.197864 0.725409
O O3 0.592236 0.230112 0.892854
O O4 0.632835 0.136468 0.732010
O O5 0.750000 0.250000 0.629803
O O6 0.834271 0.161170 0.499394
O O7 0.776070 0.107599 0.685811
O O8 0.615481 0.287778 0.306638
O O9 0.632837 0.136224 0.267265
O O10 0.591810 0.229502 0.106326
O O11 0.145152 0.853071 0.000298
O O12 0.000000 0.825299 0.000000
O O13 0.750000 0.250000 0.369140
O O14 0.776160 0.107618 0.312828
O O15 0.812247 0.499791 0.766934
O O16 0.770112 0.615700 0.894175
O O17 0.750000 0.750000 0.998797
O O18 0.769634 0.617043 0.107247
#
# Coordination Sequence:
#
# PCOD8160843 Si02
#       8
#     8   8   8   8   8   8   8   8
#     4  10  19  33  54  79 106 139 176 215 258 309
#     4   9  18  34  54  74  97 134 185 226 252 294
#     4  10  19  33  54  79 106 139 176 215 258 309
#     4  10  18  30  54  78 101 131 170 220 261 294
#     4   9  18  34  54  74  97 134 185 226 252 294
#     4  11  21  32  51  81 112 141 171 211 267 322
#     4  12  17  34  55  74 105 141 186 221 249 300
#     4  11  21  32  51  81 112 141 171 211 267 322
#
# _framework density 17.450123999999999
#
# number of rings (size 3 to 8) (size 9 to 14) (size 15 to 20)
#    0.000    1.750    5.000    1.125    0.000    1.500 
#    0.000    0.000    0.000    7.500    0.000    8.750 
#    0.000    0.000    0.000    0.000    0.000    0.000 
#
# Total GULP energy -396775.617951 kJ/mol
# GULP energy per Si atom -12399.238061 kJ/mol
# Density = 1.741041 g / cm^3
# Si number density = 17.450124 Si / 1000 Ang^3
#
#
#
# Elastic Constant Matrix: (Units=GPa)
#
#
# Indices 1 2 3 4 5 6 
#
# 1 136.3343 49.6226 35.3109 0.0000 0.0000 0.0000
# 2 49.6226 66.2020 29.8326 0.0000 0.0000 0.0000
# 3 35.3109 29.8326 117.7591 0.0000 0.0000 0.0000
# 4 0.0000 0.0000 0.0000 9.1495 0.0000 0.0000
# 5 0.0000 0.0000 0.0000 0.0000 11.3086 0.0000
# 6 0.0000 0.0000 0.0000 0.0000 0.0000 17.5797
#
#
#
# Elastic Compliance Matrix: (Units=1/GPa)
#
#
# Indices 1 2 3 4 5 6 
#
# 1 0.010253 -0.007112 -0.001273 0.000000 0.000000 0.000000
# 2 -0.007112 0.021985 -0.003437 0.000000 0.000000 0.000000
# 3 -0.001273 -0.003437 0.009744 0.000000 0.000000 0.000000
# 4 0.000000 0.000000 0.000000 0.109296 0.000000 0.000000
# 5 0.000000 0.000000 0.000000 0.000000 0.088428 0.000000
# 6 0.000000 0.000000 0.000000 0.000000 0.000000 0.056884
#
#
# Mechanical properties :
#
#
# Convention : Reuss Voigt Hill
#
# Bulk Modulus (GPa) = 54.52856 61.09196 57.81026
# Shear Modulus (GPa) = 15.32114 21.30951 18.31532
#
# Velocity S-wave (km/s) = 2.96631 3.49831 3.24324
# Velocity P-wave (km/s) = 6.56111 7.16959 6.87209
#
# Compressibility (1/GPa) = 0.01833901
#
# Stress axis : x y z
#
# Youngs Moduli (GPa) = 97.53151 45.48593 102.62425
#
# Poissons Ratio (x) = 0.32349 0.13062
# Poissons Ratio (y) = 0.69362 0.35272
# Poissons Ratio (z) = 0.12414 0.15634
#
# Static dielectric constant tensor:
#      x y z
#    x 3.524170 0.000000 0.000000 
#    y 0.000000 2.930160 0.000000 
#    z 0.000000 0.000000 3.449830 
# 
# 
# High freq. dielectric constant tensor:
#      x y z
#    x 1.677800 0.000000 0.000000 
#    y 0.000000 1.633430 0.000000 
#    z 0.000000 0.000000 1.682850 
# 
# From -- ./inp_files/26240.got.cif
#   From: 2010.03.12/outbox.cif.g09.slc.cpg/sg21_14_cif.got.tgz:26240.got - 2010.04.14 01:59:26.
