data_PCOD8160338
_publ_section_title
;
Structure prediction by ZEFSAII (Michael W. Deem and Ramdas Pophale) SiO2 
 PCOD8160338
Probable space group: C 2 2 21
;
_chemical_formula_sum "Si O2"
_cell_formula_units_Z 64
_cell_length_a 11.847835
_cell_length_b 7.763555
_cell_length_c 26.649641
_cell_angle_alpha 90.000000
_cell_angle_beta 90.000000
_cell_angle_gamma 90.000000
_cell_volume 2451.269121
_symmetry_space_group_name_H-M "C 2 2 21"
_symmetry_group_IT_number 20
_symmetry_cell_setting 'orthorhombic'
loop_
_space_group_symop_operation_xyz
x,y,z
-x,-y,1/2+z
x,-y,-z
-x,y,1/2-z
1/2+x,1/2+y,z
1/2-x,1/2-y,1/2+z
1/2+x,1/2-y,-z
1/2-x,1/2+y,1/2-z
loop_
_atom_site_type_symbol
_atom_site_label
_atom_site_fract_x
_atom_site_fract_y
_atom_site_fract_z
Si Si1 0.239212 0.132682 0.947599
Si Si2 0.492474 0.536777 0.941378
Si Si3 0.263351 0.344355 0.039262
Si Si4 0.734312 0.697898 0.299211
Si Si5 0.511065 0.709886 0.353277
Si Si6 0.914289 0.429852 0.888974
Si Si7 0.154518 0.575206 0.109806
Si Si8 0.229972 0.903433 0.813198
O O1 0.120350 0.070189 0.926404
O O2 0.339944 0.000793 0.935320
O O3 0.254791 0.309954 0.916163
O O4 0.231754 0.169948 0.008151
O O5 0.388661 0.681901 0.934155
O O6 0.457812 0.378832 0.906238
O O7 0.483127 0.500000 0.000000
O O8 0.169295 0.386481 0.082021
O O9 0.267593 0.500000 0.000000
O O10 0.604128 0.656690 0.311655
O O11 0.816082 0.569506 0.331086
O O12 0.768713 0.890231 0.315223
O O13 0.759723 0.668244 0.241298
O O14 0.516282 0.914510 0.361242
O O15 0.390247 0.661850 0.331215
O O16 0.830625 0.335734 0.849762
O O17 0.032161 0.331750 0.903585
#
# Coordination Sequence:
#
# PCOD8160338 Si02
#       8
#     8   8   8   8   8   8   8   8
#     4  11  22  45  62  97 147 170 229 287 333 410
#     4  11  21  39  69  96 131 182 225 276 340 407
#     4   9  20  37  65  91 124 182 221 264 340 406
#     4  11  24  47  71 101 137 180 231 290 348 417
#     4  11  21  46  72  93 138 183 221 280 349 408
#     4  11  24  43  71  95 141 176 223 288 347 402
#     4  11  22  44  67  94 133 183 221 278 349 404
#     4  11  25  47  71 103 136 178 231 288 346 413
#
# _framework density 26.108923000000001
#
# number of rings (size 3 to 8) (size 9 to 14) (size 15 to 20)
#    0.000    1.250    5.000    1.875    5.250    0.500 
#   11.250    0.000    0.000    0.000    0.000    0.000 
#    0.000    0.000    0.000    0.000    0.000    0.000 
#
# Total GULP energy -396665.927730 kJ/mol
# GULP energy per Si atom -12395.810242 kJ/mol
# Density = 2.604950 g / cm^3
# Si number density = 26.108923 Si / 1000 Ang^3
#
#
#
# Elastic Constant Matrix: (Units=GPa)
#
#
# Indices 1 2 3 4 5 6 
#
# 1 202.4484 30.4925 42.3866 0.0000 0.0000 0.0000
# 2 30.4925 34.5388 16.2755 0.0000 0.0000 0.0000
# 3 42.3866 16.2755 124.7530 0.0000 0.0000 0.0000
# 4 0.0000 0.0000 0.0000 42.0092 0.0000 0.0000
# 5 0.0000 0.0000 0.0000 0.0000 43.1093 0.0000
# 6 0.0000 0.0000 0.0000 0.0000 0.0000 45.3054
#
#
#
# Elastic Compliance Matrix: (Units=1/GPa)
#
#
# Indices 1 2 3 4 5 6 
#
# 1 0.005923 -0.004561 -0.001417 0.000000 0.000000 0.000000
# 2 -0.004561 0.034362 -0.002933 0.000000 0.000000 0.000000
# 3 -0.001417 -0.002933 0.008880 0.000000 0.000000 0.000000
# 4 0.000000 0.000000 0.000000 0.023804 0.000000 0.000000
# 5 0.000000 0.000000 0.000000 0.000000 0.023197 0.000000
# 6 0.000000 0.000000 0.000000 0.000000 0.000000 0.022072
#
#
# Mechanical properties :
#
#
# Convention : Reuss Voigt Hill
#
# Bulk Modulus (GPa) = 31.90650 60.00548 45.95599
# Shear Modulus (GPa) = 34.12724 44.25716 39.19220
#
# Velocity S-wave (km/s) = 3.61932 4.12162 3.87861
# Velocity P-wave (km/s) = 5.45097 6.75892 6.13987
#
# Compressibility (1/GPa) = 0.03134158
#
# Stress axis : x y z
#
# Youngs Moduli (GPa) = 168.82352 29.10172 112.61140
#
# Poissons Ratio (x) = 0.13275 0.15962
# Poissons Ratio (y) = 0.77009 0.33030
# Poissons Ratio (z) = 0.23930 0.08536
#
# Static dielectric constant tensor:
#      x y z
#    x 5.196230 0.000000 0.000000 
#    y 0.000000 5.025670 0.000000 
#    z 0.000000 0.000000 4.895890 
# 
# 
# High freq. dielectric constant tensor:
#      x y z
#    x 2.075600 0.000000 0.000000 
#    y 0.000000 2.060190 0.000000 
#    z 0.000000 0.000000 2.045500 
# 
# From -- ./inp_files/31206.got.cif
#   From: 2010.03.12/outbox.cif.g09.slc.cpg/sg20_16_cif.got.tgz:31206.got - 2010.04.14 01:38:04.
