data_PCOD8160115
_publ_section_title
;
Structure prediction by ZEFSAII (Michael W. Deem and Ramdas Pophale) SiO2 
 PCOD8160115
Probable space group: C 2 2 21
;
_chemical_formula_sum "Si O2"
_cell_formula_units_Z 56
_cell_length_a 12.735645
_cell_length_b 23.087268
_cell_length_c 8.915885
_cell_angle_alpha 90.000000
_cell_angle_beta 90.000000
_cell_angle_gamma 90.000000
_cell_volume 2621.548805
_symmetry_space_group_name_H-M "C 2 2 21"
_symmetry_group_IT_number 20
_symmetry_cell_setting 'orthorhombic'
loop_
_space_group_symop_operation_xyz
x,y,z
-x,-y,1/2+z
x,-y,-z
-x,y,1/2-z
1/2+x,1/2+y,z
1/2-x,1/2-y,1/2+z
1/2+x,1/2-y,-z
1/2-x,1/2+y,1/2-z
loop_
_atom_site_type_symbol
_atom_site_label
_atom_site_fract_x
_atom_site_fract_y
_atom_site_fract_z
Si Si1 0.143467 0.000000 0.000000
Si Si2 0.299204 0.921590 0.130648
Si Si3 0.105773 0.270641 0.671720
Si Si4 0.318137 0.857838 0.610926
Si Si5 0.888635 0.481252 0.671538
Si Si6 0.000000 0.047817 0.750000
Si Si7 0.523658 0.838570 0.418364
Si Si8 0.838853 0.139720 0.853344
O O1 0.221087 0.056537 0.002426
O O2 0.069651 0.005445 0.853657
O O3 0.412250 0.899579 0.071910
O O4 0.246092 0.869663 0.222570
O O5 0.311585 0.974509 0.245843
O O6 0.194176 0.307069 0.763249
O O7 0.096974 0.290318 0.498165
O O8 0.115684 0.202469 0.683679
O O9 0.000000 0.291958 0.750000
O O10 0.336472 0.918620 0.692476
O O11 0.412314 0.846882 0.495242
O O12 0.210330 0.859864 0.518604
O O13 0.899636 0.500000 0.500000
O O14 0.000000 0.481581 0.750000
O O15 0.927569 0.089927 0.851324
O O16 0.500000 0.818509 0.250000
#
# Coordination Sequence:
#
# PCOD8160115 Si02
#       8
#     4   8   8   8   8   4   8   8
#     4  10  26  44  72  96 126 188 218 286 324 406
#     4  11  24  39  67 101 135 174 218 266 349 404
#     4  10  24  42  67  92 135 174 227 284 326 397
#     4  11  24  38  64 104 131 175 221 273 340 400
#     4  12  23  38  62  98 143 174 204 264 333 410
#     4  10  24  50  72  92 138 176 240 284 330 388
#     4  11  21  43  64 101 139 170 212 277 339 412
#     4  11  22  44  68  94 131 184 224 276 346 381
#
# _framework density 21.361418
#
# number of rings (size 3 to 8) (size 9 to 14) (size 15 to 20)
#    0.000    1.143    3.571    2.571    7.000    2.286 
#    0.000    0.000    4.714    0.000    0.000    0.000 
#    0.000    0.000    0.000    0.000    0.000    0.000 
#
# Total GULP energy -347151.025353 kJ/mol
# GULP energy per Si atom -12398.250905 kJ/mol
# Density = 2.131280 g / cm^3
# Si number density = 21.361418 Si / 1000 Ang^3
#
#
#
# Elastic Constant Matrix: (Units=GPa)
#
#
# Indices 1 2 3 4 5 6 
#
# 1 81.2290 21.1444 52.0175 0.0000 0.0000 0.0000
# 2 21.1444 110.4521 61.1450 0.0000 0.0000 0.0000
# 3 52.0175 61.1450 120.3412 0.0000 0.0000 0.0000
# 4 0.0000 0.0000 0.0000 31.0074 0.0000 0.0000
# 5 0.0000 0.0000 0.0000 0.0000 42.3287 0.0000
# 6 0.0000 0.0000 0.0000 0.0000 0.0000 33.7229
#
#
#
# Elastic Compliance Matrix: (Units=1/GPa)
#
#
# Indices 1 2 3 4 5 6 
#
# 1 0.017125 0.001140 -0.007982 0.000000 0.000000 0.000000
# 2 0.001140 0.012673 -0.006932 0.000000 0.000000 0.000000
# 3 -0.007982 -0.006932 0.015282 0.000000 0.000000 0.000000
# 4 0.000000 0.000000 0.000000 0.032250 0.000000 0.000000
# 5 0.000000 0.000000 0.000000 0.000000 0.023625 0.000000
# 6 0.000000 0.000000 0.000000 0.000000 0.000000 0.029653
#
#
# Mechanical properties :
#
#
# Convention : Reuss Voigt Hill
#
# Bulk Modulus (GPa) = 57.03447 64.51510 60.77478
# Shear Modulus (GPa) = 30.48777 33.25948 31.87363
#
# Velocity S-wave (km/s) = 3.78198 3.95015 3.86698
# Velocity P-wave (km/s) = 6.76970 7.14648 6.96064
#
# Compressibility (1/GPa) = 0.01753326
#
# Stress axis : x y z
#
# Youngs Moduli (GPa) = 58.39250 78.90897 65.43675
#
# Poissons Ratio (x) = -0.08998 0.52231
# Poissons Ratio (y) = -0.06658 0.45360
# Poissons Ratio (z) = 0.46608 0.54699
#
# Static dielectric constant tensor:
#      x y z
#    x 3.947490 0.000000 0.000000 
#    y 0.000000 3.860830 0.000000 
#    z 0.000000 0.000000 3.963660 
# 
# 
# High freq. dielectric constant tensor:
#      x y z
#    x 1.835350 0.000000 0.000000 
#    y 0.000000 1.833820 0.000000 
#    z 0.000000 0.000000 1.838450 
# 
# From -- ./inp_files/8767.got.cif
#   From: 2010.03.12/outbox.cif.g09.slc.cpg/sg20_5_cif.got.tgz:8767.got - 2010.04.14 01:38:04.
