data_PCOD8160782
_publ_section_title
;
Structure prediction by ZEFSAII (Michael W. Deem and Ramdas Pophale) SiO2 
 PCOD8160782
Probable space group: C 2 2 2
;
_chemical_formula_sum "Si O2"
_cell_formula_units_Z 48
_cell_length_a 25.713360
_cell_length_b 18.045559
_cell_length_c 5.145085
_cell_angle_alpha 90.000000
_cell_angle_beta 90.000000
_cell_angle_gamma 90.000000
_cell_volume 2387.380949
_symmetry_space_group_name_H-M "C 2 2 2"
_symmetry_group_IT_number 21
_symmetry_cell_setting 'orthorhombic'
loop_
_space_group_symop_operation_xyz
x,y,z
-x,-y,z
x,-y,-z
-x,y,-z
1/2+x,1/2+y,z
1/2-x,1/2-y,z
1/2+x,1/2-y,-z
1/2-x,1/2+y,-z
loop_
_atom_site_type_symbol
_atom_site_label
_atom_site_fract_x
_atom_site_fract_y
_atom_site_fract_z
Si Si1 0.219583 0.825900 0.020260
Si Si2 0.466964 0.194876 0.756725
Si Si3 0.899976 0.829084 0.976535
Si Si4 0.941265 0.467347 0.254104
Si Si5 0.099563 0.080386 0.466394
Si Si6 0.219096 0.918736 0.539742
O O1 0.250000 0.750000 0.042772
O O2 0.159269 0.805170 0.971090
O O3 0.227219 0.870915 0.283597
O O4 0.243454 0.874496 0.783872
O O5 0.500000 0.219533 0.500000
O O6 0.431277 0.259354 0.869593
O O7 0.435107 0.120547 0.698552
O O8 0.500000 0.168010 0.000000
O O9 0.904425 0.888822 0.753308
O O10 0.924812 0.865393 0.241791
O O11 0.910573 0.500000 0.500000
O O12 0.000000 0.500000 0.254580
O O13 0.912632 0.500000 0.000000
O O14 0.159082 0.068889 0.382192
O O15 0.071924 0.000000 0.500000
O O16 0.244930 0.000000 0.500000
#
# Coordination Sequence:
#
# PCOD8160782 Si02
#       6
#     8   8   8   8   8   8
#     4  10  19  33  53  77 109 141 170 217 274 324
#     4  12  21  33  53  76 106 136 168 226 265 306
#     4  10  21  33  51  82 105 132 177 218 268 320
#     4  10  16  30  49  73  93 124 177 213 244 288
#     4   9  17  33  54  75 103 131 173 222 254 307
#     4   9  17  30  52  80  99 133 182 223 254 299
#
# _framework density 20.105715
#
# number of rings (size 3 to 8) (size 9 to 14) (size 15 to 20)
#    0.000    2.000    3.333    2.500    0.000    4.000 
#    0.000    0.000    0.000   10.500    0.000    0.000 
#    0.000    0.000    0.000    0.000    0.000    0.000 
#
# Total GULP energy -297322.766499 kJ/mol
# GULP energy per Si atom -12388.448604 kJ/mol
# Density = 2.005995 g / cm^3
# Si number density = 20.105715 Si / 1000 Ang^3
#
#
#
# Elastic Constant Matrix: (Units=GPa)
#
#
# Indices 1 2 3 4 5 6 
#
# 1 21.1843 36.1127 23.5372 0.0000 0.0000 0.0000
# 2 36.1127 169.0755 54.7290 0.0000 0.0000 0.0000
# 3 23.5372 54.7290 165.5966 0.0000 0.0000 0.0000
# 4 0.0000 0.0000 0.0000 41.2142 0.0000 0.0000
# 5 0.0000 0.0000 0.0000 0.0000 8.3621 0.0000
# 6 0.0000 0.0000 0.0000 0.0000 0.0000 13.4146
#
#
#
# Elastic Compliance Matrix: (Units=1/GPa)
#
#
# Indices 1 2 3 4 5 6 
#
# 1 0.079860 -0.014986 -0.006398 0.000000 0.000000 0.000000
# 2 -0.014986 0.009435 -0.000988 0.000000 0.000000 0.000000
# 3 -0.006398 -0.000988 0.007275 0.000000 0.000000 0.000000
# 4 0.000000 0.000000 0.000000 0.024263 0.000000 0.000000
# 5 0.000000 0.000000 0.000000 0.000000 0.119587 0.000000
# 6 0.000000 0.000000 0.000000 0.000000 0.000000 0.074545
#
#
# Mechanical properties :
#
#
# Convention : Reuss Voigt Hill
#
# Bulk Modulus (GPa) = 19.29564 64.95713 42.12638
# Shear Modulus (GPa) = 13.26308 28.69670 20.97989
#
# Velocity S-wave (km/s) = 2.57119 3.78205 3.23380
# Velocity P-wave (km/s) = 4.29332 7.17285 5.91111
#
# Compressibility (1/GPa) = 0.05182519
#
# Stress axis : x y z
#
# Youngs Moduli (GPa) = 12.52187 105.98492 137.46112
#
# Poissons Ratio (x) = 1.58831 0.87949
# Poissons Ratio (y) = 0.18766 0.13585
# Poissons Ratio (z) = 0.08012 0.10474
#
# Static dielectric constant tensor:
#      x y z
#    x 3.022910 0.000000 0.000000 
#    y 0.000000 3.826590 0.000000 
#    z 0.000000 0.000000 6.038470 
# 
# 
# High freq. dielectric constant tensor:
#      x y z
#    x 1.704010 0.000000 0.000000 
#    y 0.000000 1.804430 0.000000 
#    z 0.000000 0.000000 1.818160 
# 
# From -- ./inp_files/7332.got.cif
#   From: 2010.03.12/outbox.cif.g09.slc.cpg/sg21_4_cif.got.tgz:7332.got - 2010.04.14 01:59:26.
