data_PCOD8160686
_publ_section_title
;
Structure prediction by ZEFSAII (Michael W. Deem and Ramdas Pophale) SiO2 
 PCOD8160686
Probable space group: C 2 2 21
;
_chemical_formula_sum "Si O2"
_cell_formula_units_Z 40
_cell_length_a 14.282359
_cell_length_b 19.408863
_cell_length_c 6.917281
_cell_angle_alpha 90.000000
_cell_angle_beta 90.000000
_cell_angle_gamma 90.000000
_cell_volume 1917.500377
_symmetry_space_group_name_H-M "C 2 2 21"
_symmetry_group_IT_number 20
_symmetry_cell_setting 'orthorhombic'
loop_
_space_group_symop_operation_xyz
x,y,z
-x,-y,1/2+z
x,-y,-z
-x,y,1/2-z
1/2+x,1/2+y,z
1/2-x,1/2-y,1/2+z
1/2+x,1/2-y,-z
1/2-x,1/2+y,1/2-z
loop_
_atom_site_type_symbol
_atom_site_label
_atom_site_fract_x
_atom_site_fract_y
_atom_site_fract_z
Si Si1 0.262640 0.922683 0.757154
Si Si2 0.323388 0.330157 0.414612
Si Si3 0.000000 0.389998 0.250000
Si Si4 0.594237 0.000000 0.500000
Si Si5 0.617377 0.500000 0.500000
Si Si6 0.820895 0.321853 0.423477
Si Si7 0.000000 0.102836 0.750000
O O1 0.307162 0.868762 0.610183
O O2 0.343357 0.975848 0.818945
O O3 0.180074 0.967044 0.666345
O O4 0.223235 0.885456 0.945227
O O5 0.266911 0.331848 0.215706
O O6 0.324400 0.256778 0.514960
O O7 0.429930 0.348960 0.368982
O O8 0.029897 0.437025 0.430788
O O9 0.083982 0.340542 0.186178
O O10 0.552918 0.557660 0.592603
#
# Coordination Sequence:
#
# PCOD8160686 Si02
#       7
#     8   8   4   4   4   8   4
#     4  12  24  46  76  98 148 192 224 288 358 410
#     4  12  26  48  73 102 143 188 235 292 349 411
#     4  12  26  44  72 110 138 184 236 288 348 416
#     4  12  24  44  72 108 146 180 234 286 350 426
#     4  12  24  44  72 108 146 180 234 286 350 426
#     4  12  26  48  73 102 143 188 235 292 349 411
#     4  12  26  44  72 110 138 184 236 288 348 416
#
# _framework density 20.860492000000001
#
# number of rings (size 3 to 8) (size 9 to 14) (size 15 to 20)
#    0.000    0.000    6.000    4.800    0.000    4.800 
#    0.000    0.000    0.000    0.000    0.000    0.000 
#    0.000    0.000    0.000    0.000    0.000    0.000 
#
# Total GULP energy -248196.032793 kJ/mol
# GULP energy per Si atom -12409.801640 kJ/mol
# Density = 2.081301 g / cm^3
# Si number density = 20.860492 Si / 1000 Ang^3
#
#
#
# Elastic Constant Matrix: (Units=GPa)
#
#
# Indices 1 2 3 4 5 6 
#
# 1 99.0901 27.6794 20.5086 0.0000 0.0000 0.0000
# 2 27.6794 84.1037 28.8649 0.0000 0.0000 0.0000
# 3 20.5086 28.8649 84.8134 0.0000 0.0000 0.0000
# 4 0.0000 0.0000 0.0000 59.1481 0.0000 0.0000
# 5 0.0000 0.0000 0.0000 0.0000 44.2277 0.0000
# 6 0.0000 0.0000 0.0000 0.0000 0.0000 61.2230
#
#
#
# Elastic Compliance Matrix: (Units=1/GPa)
#
#
# Indices 1 2 3 4 5 6 
#
# 1 0.011317 -0.003154 -0.001663 0.000000 0.000000 0.000000
# 2 -0.003154 0.014341 -0.004118 0.000000 0.000000 0.000000
# 3 -0.001663 -0.004118 0.013594 0.000000 0.000000 0.000000
# 4 0.000000 0.000000 0.000000 0.016907 0.000000 0.000000
# 5 0.000000 0.000000 0.000000 0.000000 0.022610 0.000000
# 6 0.000000 0.000000 0.000000 0.000000 0.000000 0.016334
#
#
# Mechanical properties :
#
#
# Convention : Reuss Voigt Hill
#
# Bulk Modulus (GPa) = 46.76756 46.90144 46.83450
# Shear Modulus (GPa) = 41.63148 45.65005 43.64076
#
# Velocity S-wave (km/s) = 4.47218 4.68305 4.57883
# Velocity P-wave (km/s) = 7.00964 7.19538 7.10312
#
# Compressibility (1/GPa) = 0.02138234
#
# Stress axis : x y z
#
# Youngs Moduli (GPa) = 88.36251 69.72808 73.55990
#
# Poissons Ratio (x) = 0.21990 0.12235
# Poissons Ratio (y) = 0.27867 0.30294
# Poissons Ratio (z) = 0.14697 0.28716
#
# Static dielectric constant tensor:
#      x y z
#    x 3.851390 0.000000 0.000000 
#    y 0.000000 3.951600 0.000000 
#    z 0.000000 0.000000 3.814060 
# 
# 
# High freq. dielectric constant tensor:
#      x y z
#    x 1.832650 0.000000 0.000000 
#    y 0.000000 1.832440 0.000000 
#    z 0.000000 0.000000 1.833100 
# 
# From -- ./inp_files/7146.got.cif
#   From: 2010.03.12/outbox.cif.g09.slc.cpg/sg20_4_cif.got.tgz:7146.got - 2010.04.14 01:38:04.
