data_PCOD8160283
_publ_section_title
;
Structure prediction by ZEFSAII (Michael W. Deem and Ramdas Pophale) SiO2 
 PCOD8160283
Probable space group: C 2 2 21
;
_chemical_formula_sum "Si O2"
_cell_formula_units_Z 60
_cell_length_a 12.041560
_cell_length_b 19.506258
_cell_length_c 13.175271
_cell_angle_alpha 90.000000
_cell_angle_beta 90.000000
_cell_angle_gamma 90.000000
_cell_volume 3094.683754
_symmetry_space_group_name_H-M "C 2 2 21"
_symmetry_group_IT_number 20
_symmetry_cell_setting 'orthorhombic'
loop_
_space_group_symop_operation_xyz
x,y,z
-x,-y,1/2+z
x,-y,-z
-x,y,1/2-z
1/2+x,1/2+y,z
1/2-x,1/2-y,1/2+z
1/2+x,1/2-y,-z
1/2-x,1/2+y,1/2-z
loop_
_atom_site_type_symbol
_atom_site_label
_atom_site_fract_x
_atom_site_fract_y
_atom_site_fract_z
Si Si1 0.073248 0.672127 0.387109
Si Si2 0.873938 0.435476 0.287084
Si Si3 0.790902 0.226782 0.482623
Si Si4 0.375579 0.683333 0.285458
Si Si5 0.265230 0.311222 0.292898
Si Si6 0.500000 0.720022 0.750000
Si Si7 0.202627 0.416907 0.775049
Si Si8 0.625389 0.878159 0.994112
O O1 0.169614 0.714999 0.438192
O O2 0.114977 0.624301 0.294649
O O3 0.986051 0.729245 0.346766
O O4 0.006391 0.629575 0.471763
O O5 0.816984 0.372269 0.231239
O O6 0.808262 0.502858 0.250472
O O7 0.865538 0.427883 0.408987
O O8 0.000000 0.439667 0.250000
O O9 0.878435 0.189381 0.407538
O O10 0.795705 0.189751 0.589477
O O11 0.813613 0.307382 0.480315
O O12 0.500000 0.694403 0.250000
O O13 0.292056 0.740230 0.239550
O O14 0.327160 0.609566 0.250630
O O15 0.385563 0.322689 0.238719
O O16 0.181416 0.409629 0.894632
#
# Coordination Sequence:
#
# PCOD8160283 Si02
#       8
#     8   8   8   8   8   4   8   8
#     4  11  19  36  61  91 122 160 204 254 311 376
#     4  12  26  41  61  95 132 164 208 268 319 373
#     4  11  22  35  63  96 121 158 209 254 319 364
#     4  11  23  42  67  93 128 164 210 266 313 367
#     4  12  23  40  61  97 126 162 209 262 310 372
#     4  12  18  38  64  82 124 164 206 248 304 368
#     4  11  23  43  62  89 128 170 207 251 320 388
#     4  12  20  36  63  93 122 160 212 259 313 374
#
# _framework density 19.388089000000001
#
# number of rings (size 3 to 8) (size 9 to 14) (size 15 to 20)
#    0.000    0.533    8.000    2.400    1.867    0.000 
#    3.600    5.333    0.000    0.000    0.000    0.000 
#    0.000    0.000    0.000    0.000    0.000    0.000 
#
# Total GULP energy -371908.806671 kJ/mol
# GULP energy per Si atom -12396.960222 kJ/mol
# Density = 1.934396 g / cm^3
# Si number density = 19.388089 Si / 1000 Ang^3
#
#
#
# Elastic Constant Matrix: (Units=GPa)
#
#
# Indices 1 2 3 4 5 6 
#
# 1 104.1024 32.2292 27.3807 0.0000 0.0000 0.0000
# 2 32.2292 92.2017 33.3148 0.0000 0.0000 0.0000
# 3 27.3807 33.3148 113.4880 0.0000 0.0000 0.0000
# 4 0.0000 0.0000 0.0000 25.0057 0.0000 0.0000
# 5 0.0000 0.0000 0.0000 0.0000 26.4495 0.0000
# 6 0.0000 0.0000 0.0000 0.0000 0.0000 24.8331
#
#
#
# Elastic Compliance Matrix: (Units=1/GPa)
#
#
# Indices 1 2 3 4 5 6 
#
# 1 0.011062 -0.003247 -0.001716 0.000000 0.000000 0.000000
# 2 -0.003247 0.013086 -0.003058 0.000000 0.000000 0.000000
# 3 -0.001716 -0.003058 0.010123 0.000000 0.000000 0.000000
# 4 0.000000 0.000000 0.000000 0.039991 0.000000 0.000000
# 5 0.000000 0.000000 0.000000 0.000000 0.037808 0.000000
# 6 0.000000 0.000000 0.000000 0.000000 0.000000 0.040269
#
#
# Mechanical properties :
#
#
# Convention : Reuss Voigt Hill
#
# Bulk Modulus (GPa) = 54.85521 55.07128 54.96325
# Shear Modulus (GPa) = 28.66035 29.71547 29.18791
#
# Velocity S-wave (km/s) = 3.84897 3.91918 3.88423
# Velocity P-wave (km/s) = 6.93595 6.99616 6.96612
#
# Compressibility (1/GPa) = 0.01822981
#
# Stress axis : x y z
#
# Youngs Moduli (GPa) = 90.39598 76.41947 98.78341
#
# Poissons Ratio (x) = 0.24813 0.16950
# Poissons Ratio (y) = 0.29351 0.30208
# Poissons Ratio (z) = 0.15510 0.23369
#
# Static dielectric constant tensor:
#      x y z
#    x 3.530920 0.000000 0.000000 
#    y 0.000000 3.432940 0.000000 
#    z 0.000000 0.000000 4.230450 
# 
# 
# High freq. dielectric constant tensor:
#      x y z
#    x 1.755340 0.000000 0.000000 
#    y 0.000000 1.732140 0.000000 
#    z 0.000000 0.000000 1.772270 
# 
# From -- ./inp_files/14365.got.cif
#   From: 2010.03.12/outbox.cif.g09.slc.cpg/sg20_8_cif.got.tgz:14365.got - 2010.04.14 01:38:04.
