data_PCOD8160734
_publ_section_title
;
Structure prediction by ZEFSAII (Michael W. Deem and Ramdas Pophale) SiO2 
 PCOD8160734
Probable space group: C 2 2 21
;
_chemical_formula_sum "Si O2"
_cell_formula_units_Z 40
_cell_length_a 12.635872
_cell_length_b 16.822889
_cell_length_c 7.522088
_cell_angle_alpha 90.000000
_cell_angle_beta 90.000000
_cell_angle_gamma 90.000000
_cell_volume 1598.984328
_symmetry_space_group_name_H-M "C 2 2 21"
_symmetry_group_IT_number 20
_symmetry_cell_setting 'orthorhombic'
loop_
_space_group_symop_operation_xyz
x,y,z
-x,-y,1/2+z
x,-y,-z
-x,y,1/2-z
1/2+x,1/2+y,z
1/2-x,1/2-y,1/2+z
1/2+x,1/2-y,-z
1/2-x,1/2+y,1/2-z
loop_
_atom_site_type_symbol
_atom_site_label
_atom_site_fract_x
_atom_site_fract_y
_atom_site_fract_z
Si Si1 0.100261 0.272932 0.438408
Si Si2 0.709080 0.669952 0.150149
Si Si3 0.015792 0.871680 0.052835
Si Si4 0.000000 0.416489 0.250000
Si Si5 0.635730 0.500000 0.500000
Si Si6 0.295501 0.989421 0.786575
O O1 0.209287 0.275955 0.544151
O O2 0.129982 0.227861 0.255984
O O3 0.017285 0.220716 0.547541
O O4 0.045695 0.358990 0.405780
O O5 0.778933 0.604890 0.258717
O O6 0.636518 0.620055 0.011459
O O7 0.000000 0.905536 0.250000
O O8 0.937357 0.926167 0.933340
O O9 0.904113 0.476063 0.297771
O O10 0.703760 0.531175 0.669937
O O11 0.290261 0.000000 0.000000
#
# Coordination Sequence:
#
# PCOD8160734 Si02
#       6
#     8   8   8   4   4   8
#     4  12  26  50  77 111 155 203 258 325 385 464
#     4  12  26  50  76 110 156 200 260 318 392 464
#     4  12  27  46  77 116 150 203 254 321 395 464
#     4  12  28  50  78 114 156 204 264 324 390 468
#     4  12  30  46  80 114 156 202 264 320 386 470
#     4  12  28  52  76 113 157 207 257 323 389 468
#
# _framework density 25.015879000000002
#
# number of rings (size 3 to 8) (size 9 to 14) (size 15 to 20)
#    0.000    0.000    6.000    2.400    8.400    0.000 
#    9.000    0.000    0.000    0.000    0.000    0.000 
#    0.000    0.000    0.000    0.000    0.000    0.000 
#
# Total GULP energy -247903.643904 kJ/mol
# GULP energy per Si atom -12395.182195 kJ/mol
# Density = 2.495894 g / cm^3
# Si number density = 25.015879 Si / 1000 Ang^3
#
#
#
# Elastic Constant Matrix: (Units=GPa)
#
#
# Indices 1 2 3 4 5 6 
#
# 1 138.3640 68.6832 18.5712 0.0000 0.0000 0.0000
# 2 68.6832 116.0615 16.2266 0.0000 0.0000 0.0000
# 3 18.5712 16.2266 68.7773 0.0000 0.0000 0.0000
# 4 0.0000 0.0000 0.0000 25.7312 0.0000 0.0000
# 5 0.0000 0.0000 0.0000 0.0000 28.0776 0.0000
# 6 0.0000 0.0000 0.0000 0.0000 0.0000 57.0784
#
#
#
# Elastic Compliance Matrix: (Units=1/GPa)
#
#
# Indices 1 2 3 4 5 6 
#
# 1 0.010362 -0.005937 -0.001397 0.000000 0.000000 0.000000
# 2 -0.005937 0.012311 -0.001302 0.000000 0.000000 0.000000
# 3 -0.001397 -0.001302 0.015224 0.000000 0.000000 0.000000
# 4 0.000000 0.000000 0.000000 0.038863 0.000000 0.000000
# 5 0.000000 0.000000 0.000000 0.000000 0.035616 0.000000
# 6 0.000000 0.000000 0.000000 0.000000 0.000000 0.017520
#
#
# Mechanical properties :
#
#
# Convention : Reuss Voigt Hill
#
# Bulk Modulus (GPa) = 48.48200 58.90721 53.69461
# Shear Modulus (GPa) = 32.45872 36.82558 34.64215
#
# Velocity S-wave (km/s) = 3.60602 3.84094 3.72534
# Velocity P-wave (km/s) = 6.06304 6.57796 6.32574
#
# Compressibility (1/GPa) = 0.02062621
#
# Stress axis : x y z
#
# Youngs Moduli (GPa) = 96.50908 81.22659 65.68548
#
# Poissons Ratio (x) = 0.48220 0.09178
# Poissons Ratio (y) = 0.57293 0.08550
# Poissons Ratio (z) = 0.13485 0.10573
#
# Static dielectric constant tensor:
#      x y z
#    x 4.639470 0.000000 0.000000 
#    y 0.000000 4.567240 0.000000 
#    z 0.000000 0.000000 4.263700 
# 
# 
# High freq. dielectric constant tensor:
#      x y z
#    x 2.013310 0.000000 0.000000 
#    y 0.000000 2.001690 0.000000 
#    z 0.000000 0.000000 1.977760 
# 
# From -- ./inp_files/7109.got.cif
#   From: 2010.03.12/outbox.cif.g09.slc.cpg/sg20_4_cif.got.tgz:7109.got - 2010.04.14 01:38:04.
