data_PCOD8160753
_publ_section_title
;
Structure prediction by ZEFSAII (Michael W. Deem and Ramdas Pophale) SiO2 
 PCOD8160753
Probable space group: C 2 2 21
;
_chemical_formula_sum "Si O2"
_cell_formula_units_Z 16
_cell_length_a 13.549614
_cell_length_b 4.802521
_cell_length_c 9.672388
_cell_angle_alpha 90.000000
_cell_angle_beta 90.000000
_cell_angle_gamma 90.000000
_cell_volume 629.404590
_symmetry_space_group_name_H-M "C 2 2 21"
_symmetry_group_IT_number 20
_symmetry_cell_setting 'orthorhombic'
loop_
_space_group_symop_operation_xyz
x,y,z
-x,-y,1/2+z
x,-y,-z
-x,y,1/2-z
1/2+x,1/2+y,z
1/2-x,1/2-y,1/2+z
1/2+x,1/2-y,-z
1/2-x,1/2+y,1/2-z
loop_
_atom_site_type_symbol
_atom_site_label
_atom_site_fract_x
_atom_site_fract_y
_atom_site_fract_z
Si Si1 0.311360 0.143890 0.711103
Si Si2 0.411561 0.500000 0.500000
Si Si3 0.500000 0.177732 0.250000
O O1 0.271355 0.403209 0.802097
O O2 0.341409 0.256057 0.559424
O O3 0.407009 0.016912 0.787762
O O4 0.479461 0.372621 0.380957
#
# Coordination Sequence:
#
# PCOD8160753 Si02
#       3
#     8   4   4
#     4  12  28  56  83 123 170 224 279 346 417 505
#     4  12  28  60  86 128 168 230 276 350 436 490
#     4  12  28  58  86 130 174 216 288 350 426 504
#
# _framework density 25.420847999999999
#
# number of rings (size 3 to 8) (size 9 to 14) (size 15 to 20)
#    0.000    0.000    5.000    3.000    0.000    0.000 
#   27.000    0.000    0.000    0.000    0.000    0.000 
#    0.000    0.000    0.000    0.000    0.000    0.000 
#
# Total GULP energy -99215.323560 kJ/mol
# GULP energy per Si atom -12401.915445 kJ/mol
# Density = 2.536299 g / cm^3
# Si number density = 25.420848 Si / 1000 Ang^3
#
#
#
# Elastic Constant Matrix: (Units=GPa)
#
#
# Indices 1 2 3 4 5 6 
#
# 1 140.3997 98.6448 103.2411 0.0000 0.0000 0.0000
# 2 98.6448 229.2528 103.9592 0.0000 0.0000 0.0000
# 3 103.2411 103.9592 165.6112 0.0000 0.0000 0.0000
# 4 0.0000 0.0000 0.0000 43.9400 0.0000 0.0000
# 5 0.0000 0.0000 0.0000 0.0000 45.4938 0.0000
# 6 0.0000 0.0000 0.0000 0.0000 0.0000 60.1786
#
#
#
# Elastic Compliance Matrix: (Units=1/GPa)
#
#
# Indices 1 2 3 4 5 6 
#
# 1 0.014481 -0.002988 -0.007152 0.000000 0.000000 0.000000
# 2 -0.002988 0.006714 -0.002352 0.000000 0.000000 0.000000
# 3 -0.007152 -0.002352 0.011973 0.000000 0.000000 0.000000
# 4 0.000000 0.000000 0.000000 0.022758 0.000000 0.000000
# 5 0.000000 0.000000 0.000000 0.000000 0.021981 0.000000
# 6 0.000000 0.000000 0.000000 0.000000 0.000000 0.016617
#
#
# Mechanical properties :
#
#
# Convention : Reuss Voigt Hill
#
# Bulk Modulus (GPa) = 122.17826 127.43934 124.80880
# Shear Modulus (GPa) = 40.90458 45.21704 43.06081
#
# Velocity S-wave (km/s) = 4.01571 4.22208 4.12019
# Velocity P-wave (km/s) = 8.34672 8.60283 8.47574
#
# Compressibility (1/GPa) = 0.00818476
#
# Stress axis : x y z
#
# Youngs Moduli (GPa) = 69.05811 148.93707 83.52115
#
# Poissons Ratio (x) = 0.44499 0.59731
# Poissons Ratio (y) = 0.20633 0.19646
# Poissons Ratio (z) = 0.49387 0.35032
#
# Static dielectric constant tensor:
#      x y z
#    x 4.890970 0.000000 0.000000 
#    y 0.000000 5.264800 0.000000 
#    z 0.000000 0.000000 4.438190 
# 
# 
# High freq. dielectric constant tensor:
#      x y z
#    x 2.021610 0.000000 0.000000 
#    y 0.000000 2.057620 0.000000 
#    z 0.000000 0.000000 1.988020 
# 
# From -- ./inp_files/4867.got.cif
#   From: 2010.03.12/outbox.cif.g09.slc.cpg/sg20_3_cif.got.tgz:4867.got - 2010.04.14 01:38:04.
