data_PCOD8160792
_publ_section_title
;
Structure prediction by ZEFSAII (Michael W. Deem and Ramdas Pophale) SiO2 
 PCOD8160792
Probable space group: C 2 2 2
;
_chemical_formula_sum "Si O2"
_cell_formula_units_Z 54
_cell_length_a 8.034723
_cell_length_b 21.289812
_cell_length_c 17.186286
_cell_angle_alpha 90.000000
_cell_angle_beta 90.000000
_cell_angle_gamma 90.000000
_cell_volume 2939.847279
_symmetry_space_group_name_H-M "C 2 2 2"
_symmetry_group_IT_number 21
_symmetry_cell_setting 'orthorhombic'
loop_
_space_group_symop_operation_xyz
x,y,z
-x,-y,z
x,-y,-z
-x,y,-z
1/2+x,1/2+y,z
1/2-x,1/2-y,z
1/2+x,1/2-y,-z
1/2-x,1/2+y,-z
loop_
_atom_site_type_symbol
_atom_site_label
_atom_site_fract_x
_atom_site_fract_y
_atom_site_fract_z
Si Si1 0.147602 0.306487 0.445323
Si Si2 0.266176 0.475523 0.871104
Si Si3 0.000000 0.000000 0.000000
Si Si4 0.449609 0.091222 0.089188
Si Si5 0.063661 0.241207 0.683957
Si Si6 0.633296 0.808283 0.200841
Si Si7 0.500000 0.500000 0.266638
Si Si8 0.148387 0.125124 0.325149
O O1 0.250000 0.250000 0.489625
O O2 0.266453 0.361905 0.410680
O O3 0.000000 0.334290 0.500000
O O4 0.070469 0.271576 0.372317
O O5 0.389079 0.455968 0.942346
O O6 0.204507 0.545501 0.893401
O O7 0.357940 0.471138 0.788586
O O8 0.111172 0.429428 0.862018
O O9 0.403586 0.160505 0.117769
O O10 0.500000 0.090109 0.000000
O O11 0.250000 0.250000 0.654012
O O12 0.038170 0.279534 0.764339
O O13 0.015646 0.167916 0.688466
O O14 0.750000 0.750000 0.184682
O O15 0.717676 0.860213 0.257513
O O16 0.583961 0.553366 0.321043
#
# Coordination Sequence:
#
# PCOD8160792 Si02
#       8
#     8   8   2   8   8   8   4   8
#     4   9  17  32  57  88 116 140 178 220 270 319
#     4  10  20  30  54  76 105 140 187 238 283 331
#     4  10  16  34  44  80 100 132 180 238 290 308
#     4  11  19  35  52  76 103 145 193 240 288 333
#     4   9  18  32  54  81 110 137 179 226 272 319
#     4   9  19  36  52  69 110 147 176 230 288 330
#     4  11  20  33  54  82 115 147 184 224 291 330
#     4   9  19  34  52  84 116 144 176 231 270 329
#
# _framework density 18.368300999999999
#
# number of rings (size 3 to 8) (size 9 to 14) (size 15 to 20)
#    0.000    2.370    2.963    2.667    2.074    0.000 
#    0.000    0.741    1.630    0.000    0.000   28.000 
#    0.000    0.000    0.000    0.000    0.000    0.000 
#
# Total GULP energy -334587.997045 kJ/mol
# GULP energy per Si atom -12392.148039 kJ/mol
# Density = 1.832649 g / cm^3
# Si number density = 18.368301 Si / 1000 Ang^3
#
#
#
# Elastic Constant Matrix: (Units=GPa)
#
#
# Indices 1 2 3 4 5 6 
#
# 1 94.3317 32.3054 24.7792 0.0000 0.0000 0.0000
# 2 32.3054 99.6695 37.5706 0.0000 0.0000 0.0000
# 3 24.7792 37.5706 59.1245 0.0000 0.0000 0.0000
# 4 0.0000 0.0000 0.0000 16.2630 0.0000 0.0000
# 5 0.0000 0.0000 0.0000 0.0000 29.4034 0.0000
# 6 0.0000 0.0000 0.0000 0.0000 0.0000 18.1427
#
#
#
# Elastic Compliance Matrix: (Units=1/GPa)
#
#
# Indices 1 2 3 4 5 6 
#
# 1 0.012449 -0.002720 -0.003489 0.000000 0.000000 0.000000
# 2 -0.002720 0.013788 -0.007621 0.000000 0.000000 0.000000
# 3 -0.003489 -0.007621 0.023219 0.000000 0.000000 0.000000
# 4 0.000000 0.000000 0.000000 0.061489 0.000000 0.000000
# 5 0.000000 0.000000 0.000000 0.000000 0.034010 0.000000
# 6 0.000000 0.000000 0.000000 0.000000 0.000000 0.055119
#
#
# Mechanical properties :
#
#
# Convention : Reuss Voigt Hill
#
# Bulk Modulus (GPa) = 45.88283 49.15957 47.52120
# Shear Modulus (GPa) = 21.27676 23.32652 22.30164
#
# Velocity S-wave (km/s) = 3.40713 3.56748 3.48823
# Velocity P-wave (km/s) = 6.36488 6.61744 6.49239
#
# Compressibility (1/GPa) = 0.02179464
#
# Stress axis : x y z
#
# Youngs Moduli (GPa) = 80.32877 72.52882 43.06860
#
# Poissons Ratio (x) = 0.19726 0.15027
# Poissons Ratio (y) = 0.21848 0.32825
# Poissons Ratio (z) = 0.28027 0.55278
#
# Static dielectric constant tensor:
#      x y z
#    x 3.775530 0.000000 0.000000 
#    y 0.000000 3.157730 0.000000 
#    z 0.000000 0.000000 3.214650 
# 
# 
# High freq. dielectric constant tensor:
#      x y z
#    x 1.725160 0.000000 0.000000 
#    y 0.000000 1.676610 0.000000 
#    z 0.000000 0.000000 1.694100 
# 
# From -- ./inp_files/35882.got.cif
#   From: 2010.03.12/outbox.cif.g09.slc.cpg/sg21_18_cif.got.tgz:35882.got - 2010.04.14 01:59:26.
