data_PCOD8160180
_publ_section_title
;
Structure prediction by ZEFSAII (Michael W. Deem and Ramdas Pophale) SiO2 
 PCOD8160180
Probable space group: C 2 2 21
;
_chemical_formula_sum "Si O2"
_cell_formula_units_Z 48
_cell_length_a 7.763884
_cell_length_b 15.404931
_cell_length_c 18.577368
_cell_angle_alpha 90.000000
_cell_angle_beta 90.000000
_cell_angle_gamma 90.000000
_cell_volume 2221.892175
_symmetry_space_group_name_H-M "C 2 2 21"
_symmetry_group_IT_number 20
_symmetry_cell_setting 'orthorhombic'
loop_
_space_group_symop_operation_xyz
x,y,z
-x,-y,1/2+z
x,-y,-z
-x,y,1/2-z
1/2+x,1/2+y,z
1/2-x,1/2-y,1/2+z
1/2+x,1/2-y,-z
1/2-x,1/2+y,1/2-z
loop_
_atom_site_type_symbol
_atom_site_label
_atom_site_fract_x
_atom_site_fract_y
_atom_site_fract_z
Si Si1 0.510305 0.671054 0.956460
Si Si2 0.630563 0.797863 0.076174
Si Si3 0.082567 0.539197 0.631250
Si Si4 0.000000 0.422112 0.750000
Si Si5 0.210591 0.000000 0.000000
Si Si6 0.345178 0.347249 0.303529
Si Si7 0.323133 0.698469 0.279823
O O1 0.306803 0.656908 0.948616
O O2 0.587247 0.693770 0.878200
O O3 0.542385 0.752673 0.007919
O O4 0.592003 0.583817 0.988719
O O5 0.505948 0.873538 0.103255
O O6 0.661420 0.725089 0.136880
O O7 0.955607 0.480710 0.679728
O O8 0.161306 0.482761 0.566598
O O9 0.244641 0.563627 0.682166
O O10 0.165025 0.365893 0.730461
O O11 0.500000 0.368092 0.250000
O O12 0.208847 0.282746 0.268387
O O13 0.500000 0.655734 0.250000
#
# Coordination Sequence:
#
# PCOD8160180 Si02
#       7
#     8   8   8   4   4   8   8
#     4  11  24  42  71 100 135 180 234 288 347 416
#     4  12  24  45  71  98 132 190 232 280 344 428
#     4  11  25  45  69  96 144 181 228 280 358 421
#     4  12  26  44  68 106 142 176 222 302 354 406
#     4  10  24  46  62 104 138 178 226 294 346 418
#     4  11  21  43  75 100 131 178 235 285 344 422
#     4  12  24  44  72 107 134 174 236 291 348 416
#
# _framework density 21.603207000000001
#
# number of rings (size 3 to 8) (size 9 to 14) (size 15 to 20)
#    0.000    0.667    4.167    4.000    0.000    2.667 
#    6.000    0.000    0.000    0.000    0.000    0.000 
#    0.000    0.000    0.000    0.000    0.000    0.000 
#
# Total GULP energy -297676.450658 kJ/mol
# GULP energy per Si atom -12403.185444 kJ/mol
# Density = 2.155404 g / cm^3
# Si number density = 21.603207 Si / 1000 Ang^3
#
#
#
# Elastic Constant Matrix: (Units=GPa)
#
#
# Indices 1 2 3 4 5 6 
#
# 1 123.8207 27.1731 53.6144 0.0000 0.0000 0.0000
# 2 27.1731 52.3691 49.3418 0.0000 0.0000 0.0000
# 3 53.6144 49.3418 155.2847 0.0000 0.0000 0.0000
# 4 0.0000 0.0000 0.0000 42.4795 0.0000 0.0000
# 5 0.0000 0.0000 0.0000 0.0000 44.2991 0.0000
# 6 0.0000 0.0000 0.0000 0.0000 0.0000 10.9897
#
#
#
# Elastic Compliance Matrix: (Units=1/GPa)
#
#
# Indices 1 2 3 4 5 6 
#
# 1 0.009755 -0.002695 -0.002512 0.000000 0.000000 0.000000
# 2 -0.002695 0.028000 -0.007966 0.000000 0.000000 0.000000
# 3 -0.002512 -0.007966 0.009838 0.000000 0.000000 0.000000
# 4 0.000000 0.000000 0.000000 0.023541 0.000000 0.000000
# 5 0.000000 0.000000 0.000000 0.000000 0.022574 0.000000
# 6 0.000000 0.000000 0.000000 0.000000 0.000000 0.090994
#
#
# Mechanical properties :
#
#
# Convention : Reuss Voigt Hill
#
# Bulk Modulus (GPa) = 47.06646 65.74812 56.40729
# Shear Modulus (GPa) = 22.92203 32.97667 27.94935
#
# Velocity S-wave (km/s) = 3.26091 3.91125 3.60079
# Velocity P-wave (km/s) = 6.00101 7.13426 6.59203
#
# Compressibility (1/GPa) = 0.02124655
#
# Stress axis : x y z
#
# Youngs Moduli (GPa) = 102.50877 35.71492 101.64364
#
# Poissons Ratio (x) = 0.09626 0.25530
# Poissons Ratio (y) = 0.27628 0.80972
# Poissons Ratio (z) = 0.25748 0.28452
#
# Static dielectric constant tensor:
#      x y z
#    x 4.080220 0.000000 0.000000 
#    y 0.000000 3.733020 0.000000 
#    z 0.000000 0.000000 4.259310 
# 
# 
# High freq. dielectric constant tensor:
#      x y z
#    x 1.860530 0.000000 0.000000 
#    y 0.000000 1.835940 0.000000 
#    z 0.000000 0.000000 1.870630 
# 
# From -- ./inp_files/23508.got.cif
#   From: 2010.03.12/outbox.cif.g09.slc.cpg/sg20_12_cif.got.tgz:23508.got - 2010.04.14 01:38:04.
