data_PCOD8160231
_publ_section_title
;
Structure prediction by ZEFSAII (Michael W. Deem and Ramdas Pophale) SiO2 
 PCOD8160231
Probable space group: C 2 2 21
;
_chemical_formula_sum "Si O2"
_cell_formula_units_Z 40
_cell_length_a 18.663995
_cell_length_b 17.036066
_cell_length_c 5.775447
_cell_angle_alpha 90.000000
_cell_angle_beta 90.000000
_cell_angle_gamma 90.000000
_cell_volume 1836.367196
_symmetry_space_group_name_H-M "C 2 2 21"
_symmetry_group_IT_number 20
_symmetry_cell_setting 'orthorhombic'
loop_
_space_group_symop_operation_xyz
x,y,z
-x,-y,1/2+z
x,-y,-z
-x,y,1/2-z
1/2+x,1/2+y,z
1/2-x,1/2-y,1/2+z
1/2+x,1/2-y,-z
1/2-x,1/2+y,1/2-z
loop_
_atom_site_type_symbol
_atom_site_label
_atom_site_fract_x
_atom_site_fract_y
_atom_site_fract_z
Si Si1 0.676398 0.179457 0.879707
Si Si2 0.925462 0.079392 0.375958
Si Si3 0.577296 0.729303 0.802111
Si Si4 0.582712 0.957846 0.252110
Si Si5 0.177360 0.169816 0.413999
O O1 0.633442 0.118059 0.723023
O O2 0.700002 0.258728 0.751331
O O3 0.624540 0.201652 0.090654
O O4 0.750886 0.139810 0.960471
O O5 0.935768 0.154058 0.538352
O O6 0.857056 0.095395 0.213566
O O7 0.000000 0.063433 0.250000
O O8 0.902812 0.000000 0.500000
O O9 0.500000 0.767415 0.750000
O O10 0.614152 0.701486 0.571097
O O11 0.500000 0.932188 0.250000
O O12 0.598510 0.000000 0.500000
O O13 0.600274 0.000000 0.000000
#
# Coordination Sequence:
#
# PCOD8160231 Si02
#       5
#     8   8   8   8   8
#     4  11  25  43  70  98 137 180 224 305 351 420
#     4  11  24  42  68  99 139 184 228 286 341 424
#     4  11  23  41  69 101 131 180 235 282 347 419
#     4  10  25  47  72 104 138 182 240 295 358 432
#     4  11  24  44  66 101 138 177 235 282 355 418
#
# _framework density 21.782136999999999
#
# number of rings (size 3 to 8) (size 9 to 14) (size 15 to 20)
#    0.000    1.200    4.000    0.600    5.600    0.800 
#    3.600    0.000    0.000    0.000    0.000    0.000 
#    0.000    0.000    0.000    0.000    0.000    0.000 
#
# Total GULP energy -247919.544105 kJ/mol
# GULP energy per Si atom -12395.977205 kJ/mol
# Density = 2.173256 g / cm^3
# Si number density = 21.782137 Si / 1000 Ang^3
#
#
#
# Elastic Constant Matrix: (Units=GPa)
#
#
# Indices 1 2 3 4 5 6 
#
# 1 166.4552 53.0192 48.7012 0.0000 0.0000 0.0000
# 2 53.0192 88.4879 30.1967 0.0000 0.0000 0.0000
# 3 48.7012 30.1967 108.7334 0.0000 0.0000 0.0000
# 4 0.0000 0.0000 0.0000 34.3972 0.0000 0.0000
# 5 0.0000 0.0000 0.0000 0.0000 46.0136 0.0000
# 6 0.0000 0.0000 0.0000 0.0000 0.0000 29.6171
#
#
#
# Elastic Compliance Matrix: (Units=1/GPa)
#
#
# Indices 1 2 3 4 5 6 
#
# 1 0.007989 -0.003939 -0.002484 0.000000 0.000000 0.000000
# 2 -0.003939 0.014426 -0.002242 0.000000 0.000000 0.000000
# 3 -0.002484 -0.002242 0.010932 0.000000 0.000000 0.000000
# 4 0.000000 0.000000 0.000000 0.029072 0.000000 0.000000
# 5 0.000000 0.000000 0.000000 0.000000 0.021733 0.000000
# 6 0.000000 0.000000 0.000000 0.000000 0.000000 0.033764
#
#
# Mechanical properties :
#
#
# Convention : Reuss Voigt Hill
#
# Bulk Modulus (GPa) = 62.43527 69.72341 66.07934
# Shear Modulus (GPa) = 35.56525 37.45621 36.51073
#
# Velocity S-wave (km/s) = 4.04514 4.15129 4.09856
# Velocity P-wave (km/s) = 7.10938 7.42001 7.26635
#
# Compressibility (1/GPa) = 0.01601659
#
# Stress axis : x y z
#
# Youngs Moduli (GPa) = 125.16953 69.31801 91.47286
#
# Poissons Ratio (x) = 0.27305 0.22725
# Poissons Ratio (y) = 0.49305 0.20509
# Poissons Ratio (z) = 0.31097 0.15542
#
# Static dielectric constant tensor:
#      x y z
#    x 3.934040 0.000000 0.000000 
#    y 0.000000 3.679070 0.000000 
#    z 0.000000 0.000000 4.118360 
# 
# 
# High freq. dielectric constant tensor:
#      x y z
#    x 1.871880 0.000000 0.000000 
#    y 0.000000 1.839790 0.000000 
#    z 0.000000 0.000000 1.867140 
# 
# From -- ./inp_files/2471.got.cif
#   From: 2010.03.12/outbox.cif.g09.slc.cpg/sg20_2_cif.got.tgz:2471.got - 2010.04.14 01:38:04.
