data_PCOD8160654
_publ_section_title
;
Structure prediction by ZEFSAII (Michael W. Deem and Ramdas Pophale) SiO2 
 PCOD8160654
Probable space group: C 2 2 21
;
_chemical_formula_sum "Si O2"
_cell_formula_units_Z 32
_cell_length_a 4.863314
_cell_length_b 22.568277
_cell_length_c 12.695015
_cell_angle_alpha 90.000000
_cell_angle_beta 90.000000
_cell_angle_gamma 90.000000
_cell_volume 1393.361905
_symmetry_space_group_name_H-M "C 2 2 21"
_symmetry_group_IT_number 20
_symmetry_cell_setting 'orthorhombic'
loop_
_space_group_symop_operation_xyz
x,y,z
-x,-y,1/2+z
x,-y,-z
-x,y,1/2-z
1/2+x,1/2+y,z
1/2-x,1/2-y,1/2+z
1/2+x,1/2-y,-z
1/2-x,1/2+y,1/2-z
loop_
_atom_site_type_symbol
_atom_site_label
_atom_site_fract_x
_atom_site_fract_y
_atom_site_fract_z
Si Si1 0.763349 0.255700 0.932182
Si Si2 0.133887 0.383956 0.638668
Si Si3 0.252493 0.858097 0.318559
Si Si4 0.359136 0.430964 0.982682
O O1 0.854084 0.312655 0.864752
O O2 0.623542 0.202844 0.865933
O O3 0.530823 0.274710 0.015334
O O4 0.436971 0.408906 0.610969
O O5 0.000000 0.403415 0.750000
O O6 0.947395 0.412476 0.548876
O O7 0.500000 0.888008 0.250000
O O8 0.112090 0.902154 0.402556
O O9 0.000000 0.836654 0.250000
O O10 0.396156 0.500000 0.000000
#
# Coordination Sequence:
#
# PCOD8160654 Si02
#       4
#     8   8   8   8
#     4  12  22  43  72 102 145 181 222 295 364 423
#     4  12  25  46  74 105 138 187 234 295 361 425
#     4  12  25  43  71 102 139 184 231 284 356 424
#     4  12  27  48  70 101 145 188 241 296 346 416
#
# _framework density 22.966037
#
# number of rings (size 3 to 8) (size 9 to 14) (size 15 to 20)
#    0.000    0.000    5.000    5.250    0.000    5.000 
#    0.000    0.000    0.000    0.000    0.000    0.000 
#    0.000    0.000    0.000    0.000    0.000    0.000 
#
# Total GULP energy -198380.844131 kJ/mol
# GULP energy per Si atom -12398.802758 kJ/mol
# Density = 2.291377 g / cm^3
# Si number density = 22.966037 Si / 1000 Ang^3
#
#
#
# Elastic Constant Matrix: (Units=GPa)
#
#
# Indices 1 2 3 4 5 6 
#
# 1 107.6624 12.8284 26.3090 0.0000 0.0000 0.0000
# 2 12.8284 136.9750 51.3366 0.0000 0.0000 0.0000
# 3 26.3090 51.3366 89.8343 0.0000 0.0000 0.0000
# 4 0.0000 0.0000 0.0000 14.0523 0.0000 0.0000
# 5 0.0000 0.0000 0.0000 0.0000 50.5199 0.0000
# 6 0.0000 0.0000 0.0000 0.0000 0.0000 20.7245
#
#
#
# Elastic Compliance Matrix: (Units=1/GPa)
#
#
# Indices 1 2 3 4 5 6 
#
# 1 0.010009 0.000205 -0.003048 0.000000 0.000000 0.000000
# 2 0.000205 0.009295 -0.005372 0.000000 0.000000 0.000000
# 3 -0.003048 -0.005372 0.015094 0.000000 0.000000 0.000000
# 4 0.000000 0.000000 0.000000 0.071163 0.000000 0.000000
# 5 0.000000 0.000000 0.000000 0.000000 0.019794 0.000000
# 6 0.000000 0.000000 0.000000 0.000000 0.000000 0.048252
#
#
# Mechanical properties :
#
#
# Convention : Reuss Voigt Hill
#
# Bulk Modulus (GPa) = 55.65544 57.26887 56.46216
# Shear Modulus (GPa) = 25.50688 33.32584 29.41636
#
# Velocity S-wave (km/s) = 3.33623 3.81345 3.58280
# Velocity P-wave (km/s) = 6.25516 6.66186 6.46171
#
# Compressibility (1/GPa) = 0.01796769
#
# Stress axis : x y z
#
# Youngs Moduli (GPa) = 99.91230 107.58957 66.25154
#
# Poissons Ratio (x) = -0.02207 0.20196
# Poissons Ratio (y) = -0.02050 0.35587
# Poissons Ratio (z) = 0.30457 0.57792
#
# Static dielectric constant tensor:
#      x y z
#    x 4.210800 0.000000 0.000000 
#    y 0.000000 3.836100 0.000000 
#    z 0.000000 0.000000 4.626770 
# 
# 
# High freq. dielectric constant tensor:
#      x y z
#    x 1.922500 0.000000 0.000000 
#    y 0.000000 1.896550 0.000000 
#    z 0.000000 0.000000 1.911390 
# 
# From -- ./inp_files/11887.got.cif
#   From: 2010.03.12/outbox.cif.g09.slc.cpg/sg20_6_cif.got.tgz:11887.got - 2010.04.14 01:38:04.
