data_PCOD8160502
_publ_section_title
;
Structure prediction by ZEFSAII (Michael W. Deem and Ramdas Pophale) SiO2 
 PCOD8160502
Probable space group: C 2 2 21
;
_chemical_formula_sum "Si O2"
_cell_formula_units_Z 56
_cell_length_a 10.956748
_cell_length_b 10.963498
_cell_length_c 20.665262
_cell_angle_alpha 90.000000
_cell_angle_beta 90.000000
_cell_angle_gamma 90.000000
_cell_volume 2482.399818
_symmetry_space_group_name_H-M "C 2 2 21"
_symmetry_group_IT_number 20
_symmetry_cell_setting 'orthorhombic'
loop_
_space_group_symop_operation_xyz
x,y,z
-x,-y,1/2+z
x,-y,-z
-x,y,1/2-z
1/2+x,1/2+y,z
1/2-x,1/2-y,1/2+z
1/2+x,1/2-y,-z
1/2-x,1/2+y,1/2-z
loop_
_atom_site_type_symbol
_atom_site_label
_atom_site_fract_x
_atom_site_fract_y
_atom_site_fract_z
Si Si1 0.395553 0.110323 0.547120
Si Si2 0.712885 0.411965 0.346485
Si Si3 0.378561 0.799971 0.116669
Si Si4 0.233116 0.359934 0.642876
Si Si5 0.289118 0.641193 0.496042
Si Si6 0.498853 0.571652 0.174044
Si Si7 0.633475 0.043166 0.729290
O O1 0.270452 0.066479 0.582386
O O2 0.500482 0.121058 0.601031
O O3 0.386394 0.247387 0.514949
O O4 0.431953 0.000000 0.500000
O O5 0.741107 0.273520 0.327517
O O6 0.568423 0.442894 0.342096
O O7 0.780022 0.487592 0.289821
O O8 0.415366 0.661606 0.131004
O O9 0.315819 0.850328 0.182221
O O10 0.284597 0.816080 0.058399
O O11 0.199129 0.358764 0.566622
O O12 0.363138 0.429957 0.648928
O O13 0.128006 0.423762 0.684048
O O14 0.342386 0.500000 0.500000
O O15 0.500000 0.603613 0.250000
O O16 0.500000 0.082929 0.750000
#
# Coordination Sequence:
#
# PCOD8160502 Si02
#       7
#     8   8   8   8   8   8   8
#     4  11  24  45  66 101 143 184 246 298 359 451
#     4  11  24  44  72 101 139 185 238 291 371 441
#     4  12  23  41  72  95 138 192 230 292 386 416
#     4  11  24  47  64 102 147 179 238 304 359 440
#     4  11  23  45  66  98 139 186 240 298 364 440
#     4  12  23  44  73 103 143 187 236 308 369 438
#     4  12  23  41  69 100 136 184 234 292 364 441
#
# _framework density 22.558816
#
# number of rings (size 3 to 8) (size 9 to 14) (size 15 to 20)
#    0.000    0.571    7.143    2.571    0.000    0.571 
#    5.143    0.000    0.000    0.000    0.000    0.000 
#    0.000    0.000    0.000    0.000    0.000    0.000 
#
# Total GULP energy -346930.646623 kJ/mol
# GULP energy per Si atom -12390.380237 kJ/mol
# Density = 2.250747 g / cm^3
# Si number density = 22.558816 Si / 1000 Ang^3
#
#
#
# Elastic Constant Matrix: (Units=GPa)
#
#
# Indices 1 2 3 4 5 6 
#
# 1 66.2310 21.1078 18.4157 0.0000 0.0000 0.0000
# 2 21.1078 93.0606 19.4530 0.0000 0.0000 0.0000
# 3 18.4157 19.4530 95.0621 0.0000 0.0000 0.0000
# 4 0.0000 0.0000 0.0000 34.4353 0.0000 0.0000
# 5 0.0000 0.0000 0.0000 0.0000 32.0153 0.0000
# 6 0.0000 0.0000 0.0000 0.0000 0.0000 32.0279
#
#
#
# Elastic Compliance Matrix: (Units=1/GPa)
#
#
# Indices 1 2 3 4 5 6 
#
# 1 0.016867 -0.003283 -0.002596 0.000000 0.000000 0.000000
# 2 -0.003283 0.011865 -0.001792 0.000000 0.000000 0.000000
# 3 -0.002596 -0.001792 0.011389 0.000000 0.000000 0.000000
# 4 0.000000 0.000000 0.000000 0.029040 0.000000 0.000000
# 5 0.000000 0.000000 0.000000 0.000000 0.031235 0.000000
# 6 0.000000 0.000000 0.000000 0.000000 0.000000 0.031223
#
#
# Mechanical properties :
#
#
# Convention : Reuss Voigt Hill
#
# Bulk Modulus (GPa) = 40.35635 41.36739 40.86187
# Shear Modulus (GPa) = 32.21244 32.72085 32.46665
#
# Velocity S-wave (km/s) = 3.78290 3.81263 3.79779
# Velocity P-wave (km/s) = 6.08347 6.14483 6.11423
#
# Compressibility (1/GPa) = 0.02477925
#
# Stress axis : x y z
#
# Youngs Moduli (GPa) = 59.28836 84.28196 87.80427
#
# Poissons Ratio (x) = 0.27671 0.22791
# Poissons Ratio (y) = 0.19465 0.15734
# Poissons Ratio (z) = 0.15389 0.15103
#
# Static dielectric constant tensor:
#      x y z
#    x 3.880150 0.000000 0.000000 
#    y 0.000000 4.184460 0.000000 
#    z 0.000000 0.000000 4.270850 
# 
# 
# High freq. dielectric constant tensor:
#      x y z
#    x 1.858080 0.000000 0.000000 
#    y 0.000000 1.890100 0.000000 
#    z 0.000000 0.000000 1.910860 
# 
# From -- ./inp_files/27203.got.cif
#   From: 2010.03.12/outbox.cif.g09.slc.cpg/sg20_14_cif.got.tgz:27203.got - 2010.04.14 01:38:04.
