data_PCOD8160002
_publ_section_title
;
Structure prediction by ZEFSAII (Michael W. Deem and Ramdas Pophale) SiO2 
 PCOD8160002
Probable space group: C 2 2 21
;
_chemical_formula_sum "Si O2"
_cell_formula_units_Z 28
_cell_length_a 7.225462
_cell_length_b 17.270961
_cell_length_c 10.187059
_cell_angle_alpha 90.000000
_cell_angle_beta 90.000000
_cell_angle_gamma 90.000000
_cell_volume 1271.249942
_symmetry_space_group_name_H-M "C 2 2 21"
_symmetry_group_IT_number 20
_symmetry_cell_setting 'orthorhombic'
loop_
_space_group_symop_operation_xyz
x,y,z
-x,-y,1/2+z
x,-y,-z
-x,y,1/2-z
1/2+x,1/2+y,z
1/2-x,1/2-y,1/2+z
1/2+x,1/2-y,-z
1/2-x,1/2+y,1/2-z
loop_
_atom_site_type_symbol
_atom_site_label
_atom_site_fract_x
_atom_site_fract_y
_atom_site_fract_z
Si Si1 0.081527 0.921334 0.883487
Si Si2 0.798766 0.164150 0.938443
Si Si3 0.063345 0.331554 0.602730
Si Si4 0.500000 0.571824 0.750000
O O1 0.298157 0.903591 0.900117
O O2 0.000000 0.883575 0.750000
O O3 0.062050 0.015450 0.872600
O O4 0.967693 0.880061 0.995729
O O5 0.823398 0.126494 0.791793
O O6 0.828122 0.255696 0.945588
O O7 0.603359 0.145545 0.005235
O O8 0.000000 0.315644 0.750000
#
# Coordination Sequence:
#
# PCOD8160002 Si02
#       4
#     8   8   8   4
#     4  10  23  43  68  99 145 184 227 305 352 423
#     4  12  23  42  73 103 139 192 240 292 356 427
#     4  12  23  41  72 106 139 184 243 292 352 429
#     4  10  24  46  70  96 150 186 234 292 372 416
#
# _framework density 22.025566000000001
#
# number of rings (size 3 to 8) (size 9 to 14) (size 15 to 20)
#    0.857    0.000    7.143    0.857    0.000    0.000 
#    0.000   18.571    0.000    0.000    0.000    0.000 
#    0.000    0.000    0.000    0.000    0.000    0.000 
#
# Total GULP energy -173509.950594 kJ/mol
# GULP energy per Si atom -12393.567900 kJ/mol
# Density = 2.197544 g / cm^3
# Si number density = 22.025566 Si / 1000 Ang^3
#
#
#
# Elastic Constant Matrix: (Units=GPa)
#
#
# Indices 1 2 3 4 5 6 
#
# 1 151.2620 38.4667 29.7817 0.0000 0.0000 0.0000
# 2 38.4667 106.4667 16.2447 0.0000 0.0000 0.0000
# 3 29.7817 16.2447 24.8721 0.0000 0.0000 0.0000
# 4 0.0000 0.0000 0.0000 30.0245 0.0000 0.0000
# 5 0.0000 0.0000 0.0000 0.0000 49.2038 0.0000
# 6 0.0000 0.0000 0.0000 0.0000 0.0000 21.6610
#
#
#
# Elastic Compliance Matrix: (Units=1/GPa)
#
#
# Indices 1 2 3 4 5 6 
#
# 1 0.008942 -0.001774 -0.009549 0.000000 0.000000 0.000000
# 2 -0.001774 0.010784 -0.004919 0.000000 0.000000 0.000000
# 3 -0.009549 -0.004919 0.054852 0.000000 0.000000 0.000000
# 4 0.000000 0.000000 0.000000 0.033306 0.000000 0.000000
# 5 0.000000 0.000000 0.000000 0.000000 0.020324 0.000000
# 6 0.000000 0.000000 0.000000 0.000000 0.000000 0.046166
#
#
# Mechanical properties :
#
#
# Convention : Reuss Voigt Hill
#
# Bulk Modulus (GPa) = 23.75605 50.17634 36.96620
# Shear Modulus (GPa) = 22.63573 33.38504 28.01039
#
# Velocity S-wave (km/s) = 3.20926 3.89747 3.56999
# Velocity P-wave (km/s) = 4.95394 6.56385 5.81488
#
# Compressibility (1/GPa) = 0.04209453
#
# Stress axis : x y z
#
# Youngs Moduli (GPa) = 111.82939 92.72901 18.23082
#
# Poissons Ratio (x) = 0.16449 0.17408
# Poissons Ratio (y) = 0.19837 0.08968
# Poissons Ratio (z) = 1.06783 0.45617
#
# Static dielectric constant tensor:
#      x y z
#    x 3.938430 0.000000 0.000000 
#    y 0.000000 4.032700 0.000000 
#    z 0.000000 0.000000 4.425490 
# 
# 
# High freq. dielectric constant tensor:
#      x y z
#    x 1.848270 0.000000 0.000000 
#    y 0.000000 1.873730 0.000000 
#    z 0.000000 0.000000 1.885930 
# 
# From -- ./inp_files/11830.got.cif
#   From: 2010.03.12/outbox.cif.g09.slc.cpg/sg20_6_cif.got.tgz:11830.got - 2010.04.14 01:38:04.
