data_PCOD8160705
_publ_section_title
;
Structure prediction by ZEFSAII (Michael W. Deem and Ramdas Pophale) SiO2 
 PCOD8160705
Probable space group: C 2 2 21
;
_chemical_formula_sum "Si O2"
_cell_formula_units_Z 36
_cell_length_a 5.119462
_cell_length_b 23.914423
_cell_length_c 11.381989
_cell_angle_alpha 90.000000
_cell_angle_beta 90.000000
_cell_angle_gamma 90.000000
_cell_volume 1393.485301
_symmetry_space_group_name_H-M "C 2 2 21"
_symmetry_group_IT_number 20
_symmetry_cell_setting 'orthorhombic'
loop_
_space_group_symop_operation_xyz
x,y,z
-x,-y,1/2+z
x,-y,-z
-x,y,1/2-z
1/2+x,1/2+y,z
1/2-x,1/2-y,1/2+z
1/2+x,1/2-y,-z
1/2-x,1/2+y,1/2-z
loop_
_atom_site_type_symbol
_atom_site_label
_atom_site_fract_x
_atom_site_fract_y
_atom_site_fract_z
Si Si1 0.500000 0.425123 0.750000
Si Si2 0.794031 0.124711 0.554814
Si Si3 0.308868 0.856301 0.581165
Si Si4 0.832567 0.491232 0.132109
Si Si5 0.250930 0.761746 0.175409
O O1 0.729481 0.384940 0.703547
O O2 0.407196 0.464780 0.641432
O O3 0.591903 0.116753 0.446242
O O4 0.770790 0.072362 0.643010
O O5 0.678143 0.181436 0.609382
O O6 0.094237 0.129738 0.517972
O O7 0.323773 0.789154 0.589810
O O8 0.000000 0.503289 0.250000
O O9 0.960079 0.500000 0.000000
O O10 0.500000 0.742255 0.250000
O O11 0.000000 0.777088 0.250000
#
# Coordination Sequence:
#
# PCOD8160705 Si02
#       5
#     4   8   8   8   8
#     4  12  28  46  82 108 162 216 272 330 414 494
#     4  12  27  48  77 115 156 210 268 340 411 476
#     4  12  26  49  76 112 158 208 271 331 410 498
#     4  12  28  50  80 117 166 217 276 342 408 495
#     4  12  25  45  77 113 157 207 262 335 409 484
#
# _framework density 25.834506000000001
#
# number of rings (size 3 to 8) (size 9 to 14) (size 15 to 20)
#    0.000    0.000    3.333    6.000    4.667    0.889 
#    0.000    0.000    0.000    0.000    0.000    0.000 
#    0.000    0.000    0.000    0.000    0.000    0.000 
#
# Total GULP energy -223201.758428 kJ/mol
# GULP energy per Si atom -12400.097690 kJ/mol
# Density = 2.577571 g / cm^3
# Si number density = 25.834506 Si / 1000 Ang^3
#
#
#
# Elastic Constant Matrix: (Units=GPa)
#
#
# Indices 1 2 3 4 5 6 
#
# 1 74.5347 -1.5155 20.8184 0.0000 0.0000 0.0000
# 2 -1.5155 175.0408 21.5123 0.0000 0.0000 0.0000
# 3 20.8184 21.5123 112.3254 0.0000 0.0000 0.0000
# 4 0.0000 0.0000 0.0000 52.1557 0.0000 0.0000
# 5 0.0000 0.0000 0.0000 0.0000 38.7918 0.0000
# 6 0.0000 0.0000 0.0000 0.0000 0.0000 26.6785
#
#
#
# Elastic Compliance Matrix: (Units=1/GPa)
#
#
# Indices 1 2 3 4 5 6 
#
# 1 0.014185 0.000457 -0.002716 0.000000 0.000000 0.000000
# 2 0.000457 0.005865 -0.001208 0.000000 0.000000 0.000000
# 3 -0.002716 -0.001208 0.009638 0.000000 0.000000 0.000000
# 4 0.000000 0.000000 0.000000 0.019173 0.000000 0.000000
# 5 0.000000 0.000000 0.000000 0.000000 0.025779 0.000000
# 6 0.000000 0.000000 0.000000 0.000000 0.000000 0.037483
#
#
# Mechanical properties :
#
#
# Convention : Reuss Voigt Hill
#
# Bulk Modulus (GPa) = 43.95217 49.28126 46.61672
# Shear Modulus (GPa) = 39.48130 44.93093 42.20611
#
# Velocity S-wave (km/s) = 3.91351 4.17488 4.04630
# Velocity P-wave (km/s) = 6.12133 6.50820 6.31772
#
# Compressibility (1/GPa) = 0.02275200
#
# Stress axis : x y z
#
# Youngs Moduli (GPa) = 70.49902 170.49241 103.76116
#
# Poissons Ratio (x) = -0.07786 0.28186
# Poissons Ratio (y) = -0.03219 0.12534
# Poissons Ratio (z) = 0.19151 0.20595
#
# Static dielectric constant tensor:
#      x y z
#    x 4.454270 0.000000 0.000000 
#    y 0.000000 4.969370 0.000000 
#    z 0.000000 0.000000 4.457830 
# 
# 
# High freq. dielectric constant tensor:
#      x y z
#    x 2.026550 0.000000 0.000000 
#    y 0.000000 2.070090 0.000000 
#    z 0.000000 0.000000 2.023650 
# 
# From -- ./inp_files/12053.got.cif
#   From: 2010.03.12/outbox.cif.g09.slc.cpg/sg20_7_cif.got.tgz:12053.got - 2010.04.14 01:38:04.
