data_PCOD8160683
_publ_section_title
;
Structure prediction by ZEFSAII (Michael W. Deem and Ramdas Pophale) SiO2 
 PCOD8160683
Probable space group: C 2 2 21
;
_chemical_formula_sum "Si O2"
_cell_formula_units_Z 48
_cell_length_a 5.657876
_cell_length_b 16.349146
_cell_length_c 22.784837
_cell_angle_alpha 90.000000
_cell_angle_beta 90.000000
_cell_angle_gamma 90.000000
_cell_volume 2107.630250
_symmetry_space_group_name_H-M "C 2 2 21"
_symmetry_group_IT_number 20
_symmetry_cell_setting 'orthorhombic'
loop_
_space_group_symop_operation_xyz
x,y,z
-x,-y,1/2+z
x,-y,-z
-x,y,1/2-z
1/2+x,1/2+y,z
1/2-x,1/2-y,1/2+z
1/2+x,1/2-y,-z
1/2-x,1/2+y,1/2-z
loop_
_atom_site_type_symbol
_atom_site_label
_atom_site_fract_x
_atom_site_fract_y
_atom_site_fract_z
Si Si1 0.000000 0.919057 0.750000
Si Si2 0.705551 0.000000 0.500000
Si Si3 0.599494 0.429082 0.432747
Si Si4 0.325698 0.699201 0.157645
Si Si5 0.648122 0.149744 0.830430
Si Si6 0.815288 0.404281 0.549795
Si Si7 0.500000 0.015947 0.750000
Si Si8 0.500000 0.266838 0.250000
O O1 0.999944 0.863730 0.690979
O O2 0.248896 0.967813 0.752585
O O3 0.574507 0.917605 0.522540
O O4 0.840611 0.967355 0.441543
O O5 0.646022 0.368345 0.378570
O O6 0.646097 0.383714 0.494859
O O7 0.769798 0.506368 0.422265
O O8 0.466721 0.782908 0.144556
O O9 0.218661 0.666617 0.096872
O O10 0.094302 0.710647 0.197611
O O11 0.505126 0.069634 0.809830
O O12 0.780448 0.179263 0.771689
#
# Coordination Sequence:
#
# PCOD8160683 Si02
#       8
#     4   4   8   8   8   8   4   4
#     4  12  26  48  77 111 148 196 256 298 368 444
#     4   8  18  44  72 110 140 168 262 302 360 428
#     4   9  21  44  72 105 134 186 241 299 365 425
#     4  12  25  47  69 104 151 190 240 304 369 442
#     4  12  25  47  69 104 151 190 240 304 369 442
#     4   9  21  44  72 105 134 186 241 299 365 425
#     4  12  26  48  77 111 148 196 256 298 368 444
#     4  12  24  44  68  96 160 194 234 300 370 438
#
# _framework density 22.774393
#
# number of rings (size 3 to 8) (size 9 to 14) (size 15 to 20)
#    0.000    1.667    3.333    2.000    0.000    5.333 
#   24.000    0.000    0.000    0.000    0.000    0.000 
#    0.000    0.000    0.000    0.000    0.000    0.000 
#
# Total GULP energy -297342.835976 kJ/mol
# GULP energy per Si atom -12389.284832 kJ/mol
# Density = 2.272256 g / cm^3
# Si number density = 22.774393 Si / 1000 Ang^3
#
#
#
# Elastic Constant Matrix: (Units=GPa)
#
#
# Indices 1 2 3 4 5 6 
#
# 1 111.5673 35.3433 10.8497 0.0000 0.0000 0.0000
# 2 35.3433 86.6930 31.2984 0.0000 0.0000 0.0000
# 3 10.8497 31.2984 86.5333 0.0000 0.0000 0.0000
# 4 0.0000 0.0000 0.0000 40.1450 0.0000 0.0000
# 5 0.0000 0.0000 0.0000 0.0000 21.7936 0.0000
# 6 0.0000 0.0000 0.0000 0.0000 0.0000 32.2985
#
#
#
# Elastic Compliance Matrix: (Units=1/GPa)
#
#
# Indices 1 2 3 4 5 6 
#
# 1 0.010298 -0.004293 0.000261 0.000000 0.000000 0.000000
# 2 -0.004293 0.015057 -0.004908 0.000000 0.000000 0.000000
# 3 0.000261 -0.004908 0.013299 0.000000 0.000000 0.000000
# 4 0.000000 0.000000 0.000000 0.024910 0.000000 0.000000
# 5 0.000000 0.000000 0.000000 0.000000 0.045885 0.000000
# 6 0.000000 0.000000 0.000000 0.000000 0.000000 0.030961
#
#
# Mechanical properties :
#
#
# Convention : Reuss Voigt Hill
#
# Bulk Modulus (GPa) = 48.13408 48.86404 48.49906
# Shear Modulus (GPa) = 30.26423 32.66757 31.46590
#
# Velocity S-wave (km/s) = 3.64932 3.79145 3.72107
# Velocity P-wave (km/s) = 6.24002 6.37723 6.30900
#
# Compressibility (1/GPa) = 0.02077530
#
# Stress axis : x y z
#
# Youngs Moduli (GPa) = 97.10994 66.41534 75.19625
#
# Poissons Ratio (x) = 0.28509 -0.01966
# Poissons Ratio (y) = 0.41685 0.36904
# Poissons Ratio (z) = -0.02539 0.32595
#
# Static dielectric constant tensor:
#      x y z
#    x 4.252400 0.000000 0.000000 
#    y 0.000000 4.012650 0.000000 
#    z 0.000000 0.000000 4.028750 
# 
# 
# High freq. dielectric constant tensor:
#      x y z
#    x 1.906780 0.000000 0.000000 
#    y 0.000000 1.882670 0.000000 
#    z 0.000000 0.000000 1.894660 
# 
# From -- ./inp_files/28380.got.cif
#   From: 2010.03.12/outbox.cif.g09.slc.cpg/sg20_15_cif.got.tgz:28380.got - 2010.04.14 01:38:04.
