data_PCOD8160098
_publ_section_title
;
Structure prediction by ZEFSAII (Michael W. Deem and Ramdas Pophale) SiO2 
 PCOD8160098
Probable space group: C 2 2 21
;
_chemical_formula_sum "Si O2"
_cell_formula_units_Z 48
_cell_length_a 12.257066
_cell_length_b 12.480460
_cell_length_c 15.334291
_cell_angle_alpha 90.000000
_cell_angle_beta 90.000000
_cell_angle_gamma 90.000000
_cell_volume 2345.745101
_symmetry_space_group_name_H-M "C 2 2 21"
_symmetry_group_IT_number 20
_symmetry_cell_setting 'orthorhombic'
loop_
_space_group_symop_operation_xyz
x,y,z
-x,-y,1/2+z
x,-y,-z
-x,y,1/2-z
1/2+x,1/2+y,z
1/2-x,1/2-y,1/2+z
1/2+x,1/2-y,-z
1/2-x,1/2+y,1/2-z
loop_
_atom_site_type_symbol
_atom_site_label
_atom_site_fract_x
_atom_site_fract_y
_atom_site_fract_z
Si Si1 0.326867 0.945157 0.171487
Si Si2 0.500000 0.914105 0.750000
Si Si3 0.186845 0.201304 0.357227
Si Si4 0.430174 0.809808 0.579978
Si Si5 0.047288 0.500000 0.500000
Si Si6 0.496223 0.618991 0.465509
Si Si7 0.888659 0.945484 0.705286
O O1 0.344493 0.819143 0.175164
O O2 0.394268 0.007130 0.247218
O O3 0.196579 0.961209 0.181766
O O4 0.371687 0.990468 0.080845
O O5 0.497586 0.835107 0.667526
O O6 0.304169 0.184280 0.398037
O O7 0.173160 0.131866 0.271095
O O8 0.110962 0.166585 0.436654
O O9 0.451622 0.690660 0.544583
O O10 0.467399 0.897166 0.507914
O O11 0.513452 0.500000 0.500000
O O12 0.414913 0.620017 0.382785
O O13 0.000000 0.991533 0.750000
#
# Coordination Sequence:
#
# PCOD8160098 Si02
#       7
#     8   4   8   8   4   8   8
#     4  11  22  44  68  96 135 180 226 282 335 407
#     4  10  24  42  70 100 138 178 230 282 342 404
#     4  11  24  44  69 100 133 182 224 279 349 395
#     4  11  23  45  66 104 137 178 229 285 337 407
#     4  10  24  40  72  98 132 178 234 278 336 400
#     4  11  25  45  68  98 138 178 229 280 342 408
#     4  10  24  44  65  99 135 180 228 275 345 405
#
# _framework density 20.462582999999999
#
# number of rings (size 3 to 8) (size 9 to 14) (size 15 to 20)
#    0.000    1.333    3.333    1.000    8.167    0.000 
#   12.000    0.000    0.000    0.000    0.000    0.000 
#    0.000    0.000    0.000    0.000    0.000    0.000 
#
# Total GULP energy -297591.516750 kJ/mol
# GULP energy per Si atom -12399.646531 kJ/mol
# Density = 2.041601 g / cm^3
# Si number density = 20.462583 Si / 1000 Ang^3
#
#
#
# Elastic Constant Matrix: (Units=GPa)
#
#
# Indices 1 2 3 4 5 6 
#
# 1 138.0215 61.7069 50.9348 0.0000 0.0000 0.0000
# 2 61.7069 120.7677 49.8180 0.0000 0.0000 0.0000
# 3 50.9348 49.8180 106.8760 0.0000 0.0000 0.0000
# 4 0.0000 0.0000 0.0000 31.7294 0.0000 0.0000
# 5 0.0000 0.0000 0.0000 0.0000 26.1423 0.0000
# 6 0.0000 0.0000 0.0000 0.0000 0.0000 31.3556
#
#
#
# Elastic Compliance Matrix: (Units=1/GPa)
#
#
# Indices 1 2 3 4 5 6 
#
# 1 0.010104 -0.003932 -0.002982 0.000000 0.000000 0.000000
# 2 -0.003932 0.011782 -0.003618 0.000000 0.000000 0.000000
# 3 -0.002982 -0.003618 0.012464 0.000000 0.000000 0.000000
# 4 0.000000 0.000000 0.000000 0.031516 0.000000 0.000000
# 5 0.000000 0.000000 0.000000 0.000000 0.038252 0.000000
# 6 0.000000 0.000000 0.000000 0.000000 0.000000 0.031892
#
#
# Mechanical properties :
#
#
# Convention : Reuss Voigt Hill
#
# Bulk Modulus (GPa) = 75.27195 76.73163 76.00179
# Shear Modulus (GPa) = 30.95886 31.39252 31.17569
#
# Velocity S-wave (km/s) = 3.89389 3.92106 3.90750
# Velocity P-wave (km/s) = 7.55523 7.62099 7.58818
#
# Compressibility (1/GPa) = 0.01328516
#
# Stress axis : x y z
#
# Youngs Moduli (GPa) = 98.97135 84.87486 80.22903
#
# Poissons Ratio (x) = 0.33376 0.23927
# Poissons Ratio (y) = 0.38920 0.29026
# Poissons Ratio (z) = 0.29516 0.30706
#
# Static dielectric constant tensor:
#      x y z
#    x 3.869620 0.000000 0.000000 
#    y 0.000000 3.728190 0.000000 
#    z 0.000000 0.000000 3.972280 
# 
# 
# High freq. dielectric constant tensor:
#      x y z
#    x 1.809520 0.000000 0.000000 
#    y 0.000000 1.799110 0.000000 
#    z 0.000000 0.000000 1.807350 
# 
# From -- ./inp_files/24278.got.cif
#   From: 2010.03.12/outbox.cif.g09.slc.cpg/sg20_13_cif.got.tgz:24278.got - 2010.04.14 01:38:04.
