data_PCOD8160802
_publ_section_title
;
Structure prediction by ZEFSAII (Michael W. Deem and Ramdas Pophale) SiO2 
 PCOD8160802
Probable space group: C 2 2 2
;
_chemical_formula_sum "Si O2"
_cell_formula_units_Z 34
_cell_length_a 19.351620
_cell_length_b 16.777662
_cell_length_c 5.181159
_cell_angle_alpha 90.000000
_cell_angle_beta 90.000000
_cell_angle_gamma 90.000000
_cell_volume 1682.192485
_symmetry_space_group_name_H-M "C 2 2 2"
_symmetry_group_IT_number 21
_symmetry_cell_setting 'orthorhombic'
loop_
_space_group_symop_operation_xyz
x,y,z
-x,-y,z
x,-y,-z
-x,y,-z
1/2+x,1/2+y,z
1/2-x,1/2-y,z
1/2+x,1/2-y,-z
1/2-x,1/2+y,-z
loop_
_atom_site_type_symbol
_atom_site_label
_atom_site_fract_x
_atom_site_fract_y
_atom_site_fract_z
Si Si1 0.076762 0.300559 0.409820
Si Si2 0.000000 0.000000 0.500000
Si Si3 0.113566 0.883277 0.613000
Si Si4 0.306518 0.362554 0.898518
Si Si5 0.156026 0.321645 0.905476
O O1 0.083984 0.205721 0.388981
O O2 0.123751 0.339563 0.628721
O O3 0.000000 0.322856 0.500000
O O4 0.101357 0.339419 0.137441
O O5 0.049246 0.941987 0.663830
O O6 0.156946 0.900671 0.352507
O O7 0.163597 0.903687 0.848149
O O8 0.224134 0.376997 0.912539
O O9 0.321805 0.269524 0.916969
#
# Coordination Sequence:
#
# PCOD8160802 Si02
#       5
#     8   2   8   8   8
#     4  10  17  29  44  72  96 128 151 200 237 303
#     4  12  24  38  48  74  96 150 166 218 224 276
#     4  10  21  32  48  62  96 126 176 198 238 265
#     4   9  18  33  46  67  82 125 165 212 231 291
#     4   9  17  28  49  64  92 118 162 195 254 283
#
# _framework density 20.211718000000001
#
# number of rings (size 3 to 8) (size 9 to 14) (size 15 to 20)
#    0.000    2.353    1.176    2.118    0.000    8.471 
#    0.000    0.000    0.000    0.000    0.000    0.000 
#    0.000    0.000    0.000   74.118    0.000    0.000 
#
# Total GULP energy -210672.924072 kJ/mol
# GULP energy per Si atom -12392.524945 kJ/mol
# Density = 2.016572 g / cm^3
# Si number density = 20.211718 Si / 1000 Ang^3
#
#
#
# Elastic Constant Matrix: (Units=GPa)
#
#
# Indices 1 2 3 4 5 6 
#
# 1 146.4435 31.4298 50.2162 0.0000 0.0000 0.0000
# 2 31.4298 22.5844 23.0020 0.0000 0.0000 0.0000
# 3 50.2162 23.0020 149.3132 0.0000 0.0000 0.0000
# 4 0.0000 0.0000 0.0000 1.8337 0.0000 0.0000
# 5 0.0000 0.0000 0.0000 0.0000 26.0986 0.0000
# 6 0.0000 0.0000 0.0000 0.0000 0.0000 29.0063
#
#
#
# Elastic Compliance Matrix: (Units=1/GPa)
#
#
# Indices 1 2 3 4 5 6 
#
# 1 0.009993 -0.012435 -0.001445 0.000000 0.000000 0.000000
# 2 -0.012435 0.067992 -0.006292 0.000000 0.000000 0.000000
# 3 -0.001445 -0.006292 0.008153 0.000000 0.000000 0.000000
# 4 0.000000 0.000000 0.000000 0.545353 0.000000 0.000000
# 5 0.000000 0.000000 0.000000 0.000000 0.038316 0.000000
# 6 0.000000 0.000000 0.000000 0.000000 0.000000 0.034475
#
#
# Mechanical properties :
#
#
# Convention : Reuss Voigt Hill
#
# Bulk Modulus (GPa) = 21.83740 58.62635 40.23187
# Shear Modulus (GPa) = 6.57989 25.63391 16.10690
#
# Velocity S-wave (km/s) = 1.80625 3.56514 2.82602
# Velocity P-wave (km/s) = 3.89588 6.78351 5.53145
#
# Compressibility (1/GPa) = 0.04579300
#
# Stress axis : x y z
#
# Youngs Moduli (GPa) = 100.07110 14.70763 122.65882
#
# Poissons Ratio (x) = 0.18289 0.17726
# Poissons Ratio (y) = 1.24437 0.77180
# Poissons Ratio (z) = 0.14462 0.09254
#
# Static dielectric constant tensor:
#      x y z
#    x 3.938270 0.000000 0.000000 
#    y 0.000000 3.093130 0.000000 
#    z 0.000000 0.000000 3.845600 
# 
# 
# High freq. dielectric constant tensor:
#      x y z
#    x 1.803250 0.000000 0.000000 
#    y 0.000000 1.720690 0.000000 
#    z 0.000000 0.000000 1.800120 
# 
# From -- ./inp_files/4770.got.cif
#   From: 2010.03.12/outbox.cif.g09.slc.cpg/sg21_3_cif.got.tgz:4770.got - 2010.04.14 01:59:26.
