data_PCOD8160041
_publ_section_title
;
Structure prediction by ZEFSAII (Michael W. Deem and Ramdas Pophale) SiO2 
 PCOD8160041
Probable space group: C 2 2 21
;
_chemical_formula_sum "Si O2"
_cell_formula_units_Z 32
_cell_length_a 11.515212
_cell_length_b 18.741464
_cell_length_c 7.121740
_cell_angle_alpha 90.000000
_cell_angle_beta 90.000000
_cell_angle_gamma 90.000000
_cell_volume 1536.956463
_symmetry_space_group_name_H-M "C 2 2 21"
_symmetry_group_IT_number 20
_symmetry_cell_setting 'orthorhombic'
loop_
_space_group_symop_operation_xyz
x,y,z
-x,-y,1/2+z
x,-y,-z
-x,y,1/2-z
1/2+x,1/2+y,z
1/2-x,1/2-y,1/2+z
1/2+x,1/2-y,-z
1/2-x,1/2+y,1/2-z
loop_
_atom_site_type_symbol
_atom_site_label
_atom_site_fract_x
_atom_site_fract_y
_atom_site_fract_z
Si Si1 0.864192 0.815979 0.274625
Si Si2 0.231204 0.416957 0.007024
Si Si3 0.973979 0.420568 0.965888
Si Si4 0.228108 0.332306 0.628318
O O1 0.816809 0.882383 0.156510
O O2 0.801371 0.745031 0.205569
O O3 0.840815 0.827003 0.496053
O O4 0.000000 0.808107 0.250000
O O5 0.095788 0.406894 0.075610
O O6 0.261207 0.500000 0.000000
O O7 0.254018 0.384843 0.800865
O O8 0.874321 0.362664 0.009501
O O9 0.000000 0.409810 0.750000
O O10 0.925417 0.500000 0.000000
#
# Coordination Sequence:
#
# PCOD8160041 Si02
#       4
#     8   8   8   8
#     4  12  26  45  66  97 132 176 223 263 331 401
#     4  10  23  45  66 101 133 166 219 272 326 393
#     4   9  20  37  66  99 127 156 214 272 331 378
#     4  11  24  43  69  95 132 169 219 277 327 386
#
# _framework density 20.820367000000001
#
# number of rings (size 3 to 8) (size 9 to 14) (size 15 to 20)
#    0.000    1.500    2.500    2.250   10.500    1.000 
#    4.500    0.000    0.000    0.000    0.000    0.000 
#    0.000    0.000    0.000    0.000    0.000    0.000 
#
# Total GULP energy -198402.224849 kJ/mol
# GULP energy per Si atom -12400.139053 kJ/mol
# Density = 2.077298 g / cm^3
# Si number density = 20.820367 Si / 1000 Ang^3
#
#
#
# Elastic Constant Matrix: (Units=GPa)
#
#
# Indices 1 2 3 4 5 6 
#
# 1 65.2244 24.4072 45.8351 0.0000 0.0000 0.0000
# 2 24.4072 127.5590 46.4866 0.0000 0.0000 0.0000
# 3 45.8351 46.4866 63.2146 0.0000 0.0000 0.0000
# 4 0.0000 0.0000 0.0000 37.1554 0.0000 0.0000
# 5 0.0000 0.0000 0.0000 0.0000 36.6977 0.0000
# 6 0.0000 0.0000 0.0000 0.0000 0.0000 21.0905
#
#
#
# Elastic Compliance Matrix: (Units=1/GPa)
#
#
# Indices 1 2 3 4 5 6 
#
# 1 0.032191 0.003206 -0.025698 0.000000 0.000000 0.000000
# 2 0.003206 0.011029 -0.010435 0.000000 0.000000 0.000000
# 3 -0.025698 -0.010435 0.042126 0.000000 0.000000 0.000000
# 4 0.000000 0.000000 0.000000 0.026914 0.000000 0.000000
# 5 0.000000 0.000000 0.000000 0.000000 0.027250 0.000000
# 6 0.000000 0.000000 0.000000 0.000000 0.000000 0.047415
#
#
# Mechanical properties :
#
#
# Convention : Reuss Voigt Hill
#
# Bulk Modulus (GPa) = 51.30556 54.38398 52.84477
# Shear Modulus (GPa) = 19.28451 28.27333 23.77892
#
# Velocity S-wave (km/s) = 3.04671 3.68906 3.38316
# Velocity P-wave (km/s) = 6.08869 6.65754 6.37945
#
# Compressibility (1/GPa) = 0.01949107
#
# Stress axis : x y z
#
# Youngs Moduli (GPa) = 31.06466 90.67086 23.73849
#
# Poissons Ratio (x) = -0.29068 0.61004
# Poissons Ratio (y) = -0.09959 0.24771
# Poissons Ratio (z) = 0.79831 0.94614
#
# Static dielectric constant tensor:
#      x y z
#    x 4.080640 0.000000 0.000000 
#    y 0.000000 3.811250 0.000000 
#    z 0.000000 0.000000 3.929730 
# 
# 
# High freq. dielectric constant tensor:
#      x y z
#    x 1.797710 0.000000 0.000000 
#    y 0.000000 1.826450 0.000000 
#    z 0.000000 0.000000 1.821010 
# 
# From -- ./inp_files/1712.got.cif
#   From: 2010.03.12/outbox.cif.g09.slc.cpg/sg20_1_cif.got.tgz:1712.got - 2010.04.14 01:38:04.
