data_PCOD8160952
_publ_section_title
;
Structure prediction by ZEFSAII (Michael W. Deem and Ramdas Pophale) SiO2 
 PCOD8160952
Probable space group: C 2 2 2
;
_chemical_formula_sum "Si O2"
_cell_formula_units_Z 64
_cell_length_a 16.745640
_cell_length_b 8.686241
_cell_length_c 22.173837
_cell_angle_alpha 90.000000
_cell_angle_beta 90.000000
_cell_angle_gamma 90.000000
_cell_volume 3225.332374
_symmetry_space_group_name_H-M "C 2 2 2"
_symmetry_group_IT_number 21
_symmetry_cell_setting 'orthorhombic'
loop_
_space_group_symop_operation_xyz
x,y,z
-x,-y,z
x,-y,-z
-x,y,-z
1/2+x,1/2+y,z
1/2-x,1/2-y,z
1/2+x,1/2-y,-z
1/2-x,1/2+y,-z
loop_
_atom_site_type_symbol
_atom_site_label
_atom_site_fract_x
_atom_site_fract_y
_atom_site_fract_z
Si Si1 0.988253 0.173953 0.929336
Si Si2 0.338151 0.201985 0.134179
Si Si3 0.161667 0.319865 0.630183
Si Si4 0.900492 0.841358 0.253529
Si Si5 0.421835 0.097090 0.846434
Si Si6 0.835472 0.678610 0.499287
Si Si7 0.338375 0.816006 0.630516
Si Si8 0.414534 0.685480 0.256437
O O1 0.898297 0.215089 0.911323
O O2 0.052995 0.285679 0.898950
O O3 0.000000 0.000000 0.906814
O O4 0.000000 0.191266 0.000000
O O5 0.250000 0.250000 0.113143
O O6 0.350475 0.250701 0.203665
O O7 0.353226 0.018244 0.129485
O O8 0.250000 0.250000 0.639248
O O9 0.124727 0.276140 0.563612
O O10 0.164958 0.501851 0.641307
O O11 0.099334 0.247603 0.676551
O O12 0.890313 0.766597 0.319025
O O13 0.993290 0.830044 0.238747
O O14 0.872180 0.019166 0.251885
O O15 0.380872 0.191888 0.791782
O O16 0.500000 0.000000 0.824708
O O17 0.820202 0.500000 0.500000
O O18 0.750000 0.750000 0.497358
O O19 0.878809 0.722371 0.435754
O O20 0.250000 0.750000 0.634061
#
# Coordination Sequence:
#
# PCOD8160952 Si02
#       8
#     8   8   8   8   8   8   8   8
#     4  10  21  42  68  93 127 176 209 239 296 366
#     4  11  23  39  63  96 128 158 209 261 300 347
#     4  10  20  33  53  79 108 139 193 248 294 361
#     4  11  22  37  56  81 117 154 197 244 303 365
#     4  10  20  37  63  88 119 162 202 241 303 357
#     4   8  16  31  49  72 100 141 185 235 298 361
#     4  10  19  33  54  76 108 146 186 239 305 358
#     4  11  22  36  56  81 113 156 200 239 300 375
#
# _framework density 19.842917
#
# number of rings (size 3 to 8) (size 9 to 14) (size 15 to 20)
#    0.000    1.875    2.500    2.625    0.000    4.250 
#    0.000    5.000    0.000    3.750    0.000    0.000 
#    0.000    0.000    0.000    0.000    0.000    0.000 
#
# Total GULP energy -396585.029733 kJ/mol
# GULP energy per Si atom -12393.282179 kJ/mol
# Density = 1.979775 g / cm^3
# Si number density = 19.842917 Si / 1000 Ang^3
#
#
#
# Elastic Constant Matrix: (Units=GPa)
#
#
# Indices 1 2 3 4 5 6 
#
# 1 68.1274 36.2660 32.3932 0.0000 0.0000 0.0000
# 2 36.2660 139.1652 59.4597 0.0000 0.0000 0.0000
# 3 32.3932 59.4597 119.1559 0.0000 0.0000 0.0000
# 4 0.0000 0.0000 0.0000 34.0303 0.0000 0.0000
# 5 0.0000 0.0000 0.0000 0.0000 20.8386 0.0000
# 6 0.0000 0.0000 0.0000 0.0000 0.0000 27.7937
#
#
#
# Elastic Compliance Matrix: (Units=1/GPa)
#
#
# Indices 1 2 3 4 5 6 
#
# 1 0.017976 -0.003300 -0.003240 0.000000 0.000000 0.000000
# 2 -0.003300 0.009739 -0.003963 0.000000 0.000000 0.000000
# 3 -0.003240 -0.003963 0.011251 0.000000 0.000000 0.000000
# 4 0.000000 0.000000 0.000000 0.029386 0.000000 0.000000
# 5 0.000000 0.000000 0.000000 0.000000 0.047988 0.000000
# 6 0.000000 0.000000 0.000000 0.000000 0.000000 0.035979
#
#
# Mechanical properties :
#
#
# Convention : Reuss Voigt Hill
#
# Bulk Modulus (GPa) = 55.68045 64.74291 60.21168
# Shear Modulus (GPa) = 27.88474 29.75450 28.81962
#
# Velocity S-wave (km/s) = 3.75277 3.87654 3.81516
# Velocity P-wave (km/s) = 6.84830 7.26191 7.05813
#
# Compressibility (1/GPa) = 0.01795962
#
# Stress axis : x y z
#
# Youngs Moduli (GPa) = 55.63076 102.68277 88.88471
#
# Poissons Ratio (x) = 0.33886 0.28799
# Poissons Ratio (y) = 0.18359 0.35221
# Poissons Ratio (z) = 0.18024 0.40689
#
# Static dielectric constant tensor:
#      x y z
#    x 3.200440 0.000000 0.000000 
#    y 0.000000 4.054660 0.000000 
#    z 0.000000 0.000000 3.913330 
# 
# 
# High freq. dielectric constant tensor:
#      x y z
#    x 1.730100 0.000000 0.000000 
#    y 0.000000 1.793810 0.000000 
#    z 0.000000 0.000000 1.786040 
# 
# From -- ./inp_files/37719.got.cif
#   From: 2010.03.12/outbox.cif.g09.slc.cpg/sg21_19_cif.got.tgz:37719.got - 2010.04.14 01:59:26.
