data_PCOD8160684
_publ_section_title
;
Structure prediction by ZEFSAII (Michael W. Deem and Ramdas Pophale) SiO2 
 PCOD8160684
Probable space group: C 2 2 21
;
_chemical_formula_sum "Si O2"
_cell_formula_units_Z 32
_cell_length_a 27.173521
_cell_length_b 10.283101
_cell_length_c 4.941478
_cell_angle_alpha 90.000000
_cell_angle_beta 90.000000
_cell_angle_gamma 90.000000
_cell_volume 1380.787616
_symmetry_space_group_name_H-M "C 2 2 21"
_symmetry_group_IT_number 20
_symmetry_cell_setting 'orthorhombic'
loop_
_space_group_symop_operation_xyz
x,y,z
-x,-y,1/2+z
x,-y,-z
-x,y,1/2-z
1/2+x,1/2+y,z
1/2-x,1/2-y,1/2+z
1/2+x,1/2-y,-z
1/2-x,1/2+y,1/2-z
loop_
_atom_site_type_symbol
_atom_site_label
_atom_site_fract_x
_atom_site_fract_y
_atom_site_fract_z
Si Si1 0.500000 0.078279 0.250000
Si Si2 0.715386 0.500000 0.000000
Si Si3 0.087632 0.249672 0.534315
Si Si4 0.467489 0.500000 0.000000
Si Si5 0.217682 0.500000 0.000000
Si Si6 0.153127 0.254202 0.038989
O O1 0.456823 0.154255 0.098075
O O2 0.475219 0.000000 0.500000
O O3 0.749080 0.543017 0.751198
O O4 0.684206 0.375627 0.901501
O O5 0.125434 0.304557 0.310151
O O6 0.065978 0.118865 0.402395
O O7 0.114630 0.214638 0.810350
O O8 0.500000 0.450571 0.250000
O O9 0.185299 0.626099 0.072284
#
# Coordination Sequence:
#
# PCOD8160684 Si02
#       6
#     4   4   8   4   4   8
#     4  12  28  46  70 100 148 200 236 292 352 426
#     4  12  24  49  72 102 140 182 228 290 373 430
#     4  12  26  46  69 104 140 185 239 289 351 416
#     4  12  24  44  68  98 134 186 240 290 348 404
#     4  12  26  45  72 104 138 182 230 294 363 432
#     4  12  26  44  73 104 139 182 234 296 347 431
#
# _framework density 23.175179
#
# number of rings (size 3 to 8) (size 9 to 14) (size 15 to 20)
#    0.000    0.000    1.250    9.000    7.000    0.000 
#    0.000    0.000    0.000    0.000    0.000    0.000 
#    0.000    0.000    0.000    0.000    0.000    0.000 
#
# Total GULP energy -198508.590569 kJ/mol
# GULP energy per Si atom -12406.786911 kJ/mol
# Density = 2.312243 g / cm^3
# Si number density = 23.175179 Si / 1000 Ang^3
#
#
#
# Elastic Constant Matrix: (Units=GPa)
#
#
# Indices 1 2 3 4 5 6 
#
# 1 111.5281 44.9294 44.0976 0.0000 0.0000 0.0000
# 2 44.9294 125.0293 12.9433 0.0000 0.0000 0.0000
# 3 44.0976 12.9433 139.1044 0.0000 0.0000 0.0000
# 4 0.0000 0.0000 0.0000 35.0004 0.0000 0.0000
# 5 0.0000 0.0000 0.0000 0.0000 18.7600 0.0000
# 6 0.0000 0.0000 0.0000 0.0000 0.0000 75.3186
#
#
#
# Elastic Compliance Matrix: (Units=1/GPa)
#
#
# Indices 1 2 3 4 5 6 
#
# 1 0.011892 -0.003921 -0.003405 0.000000 0.000000 0.000000
# 2 -0.003921 0.009369 0.000371 0.000000 0.000000 0.000000
# 3 -0.003405 0.000371 0.008234 0.000000 0.000000 0.000000
# 4 0.000000 0.000000 0.000000 0.028571 0.000000 0.000000
# 5 0.000000 0.000000 0.000000 0.000000 0.053305 0.000000
# 6 0.000000 0.000000 0.000000 0.000000 0.000000 0.013277
#
#
# Mechanical properties :
#
#
# Convention : Reuss Voigt Hill
#
# Bulk Modulus (GPa) = 64.16421 64.40026 64.28224
# Shear Modulus (GPa) = 34.78203 44.06192 39.42197
#
# Velocity S-wave (km/s) = 3.87826 4.36507 4.12884
# Velocity P-wave (km/s) = 6.91384 7.29753 7.10827
#
# Compressibility (1/GPa) = 0.01558501
#
# Stress axis : x y z
#
# Youngs Moduli (GPa) = 84.08791 106.73831 121.45106
#
# Poissons Ratio (x) = 0.41852 0.41356
# Poissons Ratio (y) = 0.32971 -0.04509
# Poissons Ratio (z) = 0.28633 -0.03963
#
# Static dielectric constant tensor:
#      x y z
#    x 4.305350 0.000000 0.000000 
#    y 0.000000 4.173430 0.000000 
#    z 0.000000 0.000000 3.539670 
# 
# 
# High freq. dielectric constant tensor:
#      x y z
#    x 1.929150 0.000000 0.000000 
#    y 0.000000 1.920190 0.000000 
#    z 0.000000 0.000000 1.929860 
# 
# From -- ./inp_files/1173.got.cif
#   From: 2010.03.12/outbox.cif.g09.slc.cpg/sg20_1_cif.got.tgz:1173.got - 2010.04.14 01:38:04.
