data_PCOD8160745
_publ_section_title
;
Structure prediction by ZEFSAII (Michael W. Deem and Ramdas Pophale) SiO2 
 PCOD8160745
Probable space group: C 2 2 21
;
_chemical_formula_sum "Si O2"
_cell_formula_units_Z 28
_cell_length_a 8.288871
_cell_length_b 4.721602
_cell_length_c 24.165838
_cell_angle_alpha 90.000000
_cell_angle_beta 90.000000
_cell_angle_gamma 90.000000
_cell_volume 945.772358
_symmetry_space_group_name_H-M "C 2 2 21"
_symmetry_group_IT_number 20
_symmetry_cell_setting 'orthorhombic'
loop_
_space_group_symop_operation_xyz
x,y,z
-x,-y,1/2+z
x,-y,-z
-x,y,1/2-z
1/2+x,1/2+y,z
1/2-x,1/2-y,1/2+z
1/2+x,1/2-y,-z
1/2-x,1/2+y,1/2-z
loop_
_atom_site_type_symbol
_atom_site_label
_atom_site_fract_x
_atom_site_fract_y
_atom_site_fract_z
Si Si1 0.786603 0.589780 0.214370
Si Si2 0.583741 0.891674 0.429305
Si Si3 0.519637 0.605586 0.860079
Si Si4 0.618708 0.500000 0.000000
O O1 0.823128 0.316244 0.252022
O O2 0.698059 0.498464 0.157149
O O3 0.950578 0.745536 0.195501
O O4 0.583226 0.668689 0.378375
O O5 0.495459 0.764230 0.483848
O O6 0.488070 0.175768 0.411465
O O7 0.770308 0.947058 0.445711
#
# Coordination Sequence:
#
# PCOD8160745 Si02
#       4
#     8   8   8   4
#     4  12  27  50  78 113 154 201 254 314 381 454
#     4  12  29  52  79 115 156 203 257 316 383 454
#     4  12  28  50  78 113 154 201 254 316 380 454
#     4  12  30  52  80 114 156 204 256 318 382 456
#
# _framework density 29.605435
#
# number of rings (size 3 to 8) (size 9 to 14) (size 15 to 20)
#    0.000    0.000    0.000    7.714    0.000   21.714 
#    0.000    0.000    0.000    0.000    0.000    0.000 
#    0.000    0.000    0.000    0.000    0.000    0.000 
#
# Total GULP energy -173738.599395 kJ/mol
# GULP energy per Si atom -12409.899957 kJ/mol
# Density = 2.953805 g / cm^3
# Si number density = 29.605435 Si / 1000 Ang^3
#
#
#
# Elastic Constant Matrix: (Units=GPa)
#
#
# Indices 1 2 3 4 5 6 
#
# 1 51.4573 21.6828 -31.5827 0.0000 0.0000 0.0000
# 2 21.6828 88.9233 -40.3544 0.0000 0.0000 0.0000
# 3 -31.5827 -40.3544 72.5804 0.0000 0.0000 0.0000
# 4 0.0000 0.0000 0.0000 67.2221 0.0000 0.0000
# 5 0.0000 0.0000 0.0000 0.0000 11.6689 0.0000
# 6 0.0000 0.0000 0.0000 0.0000 0.0000 37.7690
#
#
#
# Elastic Compliance Matrix: (Units=1/GPa)
#
#
# Indices 1 2 3 4 5 6 
#
# 1 0.026696 -0.001655 0.010696 0.000000 0.000000 0.000000
# 2 -0.001655 0.015143 0.007699 0.000000 0.000000 0.000000
# 3 0.010696 0.007699 0.022713 0.000000 0.000000 0.000000
# 4 0.000000 0.000000 0.000000 0.014876 0.000000 0.000000
# 5 0.000000 0.000000 0.000000 0.000000 0.085698 0.000000
# 6 0.000000 0.000000 0.000000 0.000000 0.000000 0.026477
#
#
# Mechanical properties :
#
#
# Convention : Reuss Voigt Hill
#
# Bulk Modulus (GPa) = 10.20074 12.49470 11.34772
# Shear Modulus (GPa) = 26.20538 40.87969 33.54253
#
# Velocity S-wave (km/s) = 2.97838 3.71997 3.36964
# Velocity P-wave (km/s) = 3.90906 4.76240 4.35667
#
# Compressibility (1/GPa) = 0.09803211
#
# Stress axis : x y z
#
# Youngs Moduli (GPa) = 37.45876 66.03564 44.02781
#
# Poissons Ratio (x) = 0.10932 -0.47093
# Poissons Ratio (y) = 0.06201 -0.33898
# Poissons Ratio (z) = -0.40066 -0.50843
#
# Static dielectric constant tensor:
#      x y z
#    x 4.780950 0.000000 0.000000 
#    y 0.000000 5.676240 0.000000 
#    z 0.000000 0.000000 5.522110 
# 
# 
# High freq. dielectric constant tensor:
#      x y z
#    x 2.196610 0.000000 0.000000 
#    y 0.000000 2.225920 0.000000 
#    z 0.000000 0.000000 2.256150 
# 
# From -- ./inp_files/30014.got.cif
#   From: 2010.03.12/outbox.cif.g09.slc.cpg/sg20_16_cif.got.tgz:30014.got - 2010.04.14 01:38:04.
