data_PCOD8160876
_publ_section_title
;
Structure prediction by ZEFSAII (Michael W. Deem and Ramdas Pophale) SiO2 
 PCOD8160876
Probable space group: C 2 2 2
;
_chemical_formula_sum "Si O2"
_cell_formula_units_Z 64
_cell_length_a 15.608389
_cell_length_b 17.262182
_cell_length_c 12.394072
_cell_angle_alpha 90.000000
_cell_angle_beta 90.000000
_cell_angle_gamma 90.000000
_cell_volume 3339.394951
_symmetry_space_group_name_H-M "C 2 2 2"
_symmetry_group_IT_number 21
_symmetry_cell_setting 'orthorhombic'
loop_
_space_group_symop_operation_xyz
x,y,z
-x,-y,z
x,-y,-z
-x,y,-z
1/2+x,1/2+y,z
1/2-x,1/2-y,z
1/2+x,1/2-y,-z
1/2-x,1/2+y,-z
loop_
_atom_site_type_symbol
_atom_site_label
_atom_site_fract_x
_atom_site_fract_y
_atom_site_fract_z
Si Si1 0.159597 0.711337 0.626735
Si Si2 0.161111 0.581516 0.208972
Si Si3 0.991052 0.628412 0.122999
Si Si4 0.228990 0.913417 0.021022
Si Si5 0.038123 0.085980 0.891744
Si Si6 0.810654 0.588693 0.189934
Si Si7 0.159720 0.707301 0.385957
Si Si8 0.502874 0.277127 0.265974
O O1 0.250000 0.750000 0.614886
O O2 0.177724 0.639971 0.704786
O O3 0.133352 0.682493 0.507396
O O4 0.086587 0.771316 0.667902
O O5 0.061989 0.572313 0.175741
O O6 0.208271 0.626490 0.109047
O O7 0.208845 0.499198 0.227888
O O8 0.168583 0.628861 0.318721
O O9 0.998233 0.712334 0.175833
O O10 0.901462 0.585661 0.132072
O O11 0.000000 0.646538 0.000000
O O12 0.137872 0.915653 0.079021
O O13 0.240118 0.877289 0.898621
O O14 0.263326 0.000000 0.000000
O O15 0.014372 0.138441 0.788706
O O16 0.000000 0.000000 0.870221
O O17 0.000000 0.123192 0.000000
O O18 0.250000 0.750000 0.380122
O O19 0.084984 0.763439 0.341911
#
# Coordination Sequence:
#
# PCOD8160876 Si02
#       8
#     8   8   8   8   8   8   8   8
#     4  10  23  40  59  81 112 154 195 246 291 338
#     4  10  20  32  59  85 115 151 188 230 281 346
#     4  10  18  34  51  85 118 151 180 214 271 345
#     4  10  19  34  52  83 118 150 181 228 288 338
#     4  11  22  37  57  82 117 153 191 235 287 344
#     4  10  21  34  56  85 119 151 188 227 283 345
#     4  10  21  41  60  82 112 148 198 245 294 335
#     4  10  22  37  60  83 113 154 190 238 287 343
#
# _framework density 19.165147999999999
#
# number of rings (size 3 to 8) (size 9 to 14) (size 15 to 20)
#    0.000    1.875    2.500    1.875    1.750    1.000 
#    0.000    0.625    0.000    7.500    0.000    0.000 
#    0.000    0.000    0.000    0.000    0.000    0.000 
#
# Total GULP energy -396443.237390 kJ/mol
# GULP energy per Si atom -12388.851168 kJ/mol
# Density = 1.912153 g / cm^3
# Si number density = 19.165148 Si / 1000 Ang^3
#
#
#
# Elastic Constant Matrix: (Units=GPa)
#
#
# Indices 1 2 3 4 5 6 
#
# 1 92.8040 32.4014 56.2591 0.0000 0.0000 0.0000
# 2 32.4014 73.2200 56.5079 0.0000 0.0000 0.0000
# 3 56.2591 56.5079 164.1970 0.0000 0.0000 0.0000
# 4 0.0000 0.0000 0.0000 23.4968 0.0000 0.0000
# 5 0.0000 0.0000 0.0000 0.0000 32.8726 0.0000
# 6 0.0000 0.0000 0.0000 0.0000 0.0000 25.4513
#
#
#
# Elastic Compliance Matrix: (Units=1/GPa)
#
#
# Indices 1 2 3 4 5 6 
#
# 1 0.014211 -0.003446 -0.003683 0.000000 0.000000 0.000000
# 2 -0.003446 0.019432 -0.005507 0.000000 0.000000 0.000000
# 3 -0.003683 -0.005507 0.009247 0.000000 0.000000 0.000000
# 4 0.000000 0.000000 0.000000 0.042559 0.000000 0.000000
# 5 0.000000 0.000000 0.000000 0.000000 0.030420 0.000000
# 6 0.000000 0.000000 0.000000 0.000000 0.000000 0.039291
#
#
# Mechanical properties :
#
#
# Convention : Reuss Voigt Hill
#
# Bulk Modulus (GPa) = 56.75827 68.95085 62.85456
# Shear Modulus (GPa) = 26.83742 28.70099 27.76920
#
# Velocity S-wave (km/s) = 3.74615 3.87403 3.81063
# Velocity P-wave (km/s) = 6.95638 7.48773 7.22694
#
# Compressibility (1/GPa) = 0.01761858
#
# Stress axis : x y z
#
# Youngs Moduli (GPa) = 70.36572 51.46033 108.13844
#
# Poissons Ratio (x) = 0.17735 0.39830
# Poissons Ratio (y) = 0.24250 0.59550
# Poissons Ratio (z) = 0.25918 0.28338
#
# Static dielectric constant tensor:
#      x y z
#    x 3.678270 0.000000 0.000000 
#    y 0.000000 3.173950 0.000000 
#    z 0.000000 0.000000 3.785150 
# 
# 
# High freq. dielectric constant tensor:
#      x y z
#    x 1.761000 0.000000 0.000000 
#    y 0.000000 1.719360 0.000000 
#    z 0.000000 0.000000 1.750610 
# 
# From -- ./inp_files/25501.got.cif
#   From: 2010.03.12/outbox.cif.g09.slc.cpg/sg21_13_cif.got.tgz:25501.got - 2010.04.14 01:59:26.
