data_PCOD8160607
_publ_section_title
;
Structure prediction by ZEFSAII (Michael W. Deem and Ramdas Pophale) SiO2 
 PCOD8160607
Probable space group: C 2 2 21
;
_chemical_formula_sum "Si O2"
_cell_formula_units_Z 48
_cell_length_a 9.803824
_cell_length_b 9.829893
_cell_length_c 23.615152
_cell_angle_alpha 90.000000
_cell_angle_beta 90.000000
_cell_angle_gamma 90.000000
_cell_volume 2275.804972
_symmetry_space_group_name_H-M "C 2 2 21"
_symmetry_group_IT_number 20
_symmetry_cell_setting 'orthorhombic'
loop_
_space_group_symop_operation_xyz
x,y,z
-x,-y,1/2+z
x,-y,-z
-x,y,1/2-z
1/2+x,1/2+y,z
1/2-x,1/2-y,1/2+z
1/2+x,1/2-y,-z
1/2-x,1/2+y,1/2-z
loop_
_atom_site_type_symbol
_atom_site_label
_atom_site_fract_x
_atom_site_fract_y
_atom_site_fract_z
Si Si1 0.528971 0.873938 0.465631
Si Si2 0.026875 0.499121 0.657864
Si Si3 0.233305 0.961688 0.650795
Si Si4 0.604591 0.286167 0.301929
Si Si5 0.758678 0.131628 0.026149
Si Si6 0.140942 0.727292 0.726235
O O1 0.528400 0.920276 0.400889
O O2 0.378975 0.832988 0.490162
O O3 0.633970 0.752045 0.474219
O O4 0.589904 0.000000 0.500000
O O5 0.066486 0.339142 0.656631
O O6 0.127150 0.573911 0.701901
O O7 0.872380 0.509548 0.682413
O O8 0.118197 0.079804 0.657955
O O9 0.282434 0.921523 0.588095
O O10 0.177427 0.822162 0.674228
O O11 0.500000 0.309550 0.250000
O O12 0.750783 0.258895 0.275606
O O13 0.833693 0.000000 0.000000
O O14 0.000000 0.783669 0.750000
#
# Coordination Sequence:
#
# PCOD8160607 Si02
#       6
#     8   8   8   8   8   8
#     4  11  25  46  73 102 139 183 228 289 352 410
#     4  12  24  46  70 102 143 180 229 293 346 403
#     4  12  24  45  69 103 138 180 233 286 339 412
#     4  12  26  43  72 103 141 189 231 281 342 412
#     4  11  25  46  72 102 138 178 232 287 348 412
#     4  12  24  45  70  99 143 185 229 283 343 405
#
# _framework density 21.091439000000001
#
# number of rings (size 3 to 8) (size 9 to 14) (size 15 to 20)
#    0.000    0.333    8.333    2.000    2.333    0.667 
#    0.000    3.333    0.000    0.000    0.000    0.000 
#    0.000    0.000    0.000    0.000    0.000    0.000 
#
# Total GULP energy -297431.091175 kJ/mol
# GULP energy per Si atom -12392.962132 kJ/mol
# Density = 2.104343 g / cm^3
# Si number density = 21.091439 Si / 1000 Ang^3
#
#
#
# Elastic Constant Matrix: (Units=GPa)
#
#
# Indices 1 2 3 4 5 6 
#
# 1 122.6747 58.3282 40.2616 0.0000 0.0000 0.0000
# 2 58.3282 146.8999 28.1338 0.0000 0.0000 0.0000
# 3 40.2616 28.1338 91.0857 0.0000 0.0000 0.0000
# 4 0.0000 0.0000 0.0000 54.0273 0.0000 0.0000
# 5 0.0000 0.0000 0.0000 0.0000 31.4544 0.0000
# 6 0.0000 0.0000 0.0000 0.0000 0.0000 44.2518
#
#
#
# Elastic Compliance Matrix: (Units=1/GPa)
#
#
# Indices 1 2 3 4 5 6 
#
# 1 0.011156 -0.003704 -0.003787 0.000000 0.000000 0.000000
# 2 -0.003704 0.008465 -0.000977 0.000000 0.000000 0.000000
# 3 -0.003787 -0.000977 0.012954 0.000000 0.000000 0.000000
# 4 0.000000 0.000000 0.000000 0.018509 0.000000 0.000000
# 5 0.000000 0.000000 0.000000 0.000000 0.031792 0.000000
# 6 0.000000 0.000000 0.000000 0.000000 0.000000 0.022598
#
#
# Mechanical properties :
#
#
# Convention : Reuss Voigt Hill
#
# Bulk Modulus (GPa) = 63.94481 68.23418 66.08950
# Shear Modulus (GPa) = 39.17740 41.54248 40.35994
#
# Velocity S-wave (km/s) = 4.31455 4.44287 4.37918
# Velocity P-wave (km/s) = 7.42995 7.66425 7.54801
#
# Compressibility (1/GPa) = 0.01563849
#
# Stress axis : x y z
#
# Youngs Moduli (GPa) = 89.63980 118.12858 77.19362
#
# Poissons Ratio (x) = 0.43758 0.29233
# Poissons Ratio (y) = 0.33205 0.07545
# Poissons Ratio (z) = 0.33946 0.11545
#
# Static dielectric constant tensor:
#      x y z
#    x 3.787350 0.000000 0.000000 
#    y 0.000000 4.012300 0.000000 
#    z 0.000000 0.000000 3.901920 
# 
# 
# High freq. dielectric constant tensor:
#      x y z
#    x 1.824670 0.000000 0.000000 
#    y 0.000000 1.838010 0.000000 
#    z 0.000000 0.000000 1.836430 
# 
# From -- ./inp_files/29091.got.cif
#   From: 2010.03.12/outbox.cif.g09.slc.cpg/sg20_15_cif.got.tgz:29091.got - 2010.04.14 01:38:04.
