data_PCOD8160204
_publ_section_title
;
Structure prediction by ZEFSAII (Michael W. Deem and Ramdas Pophale) SiO2 
 PCOD8160204
Probable space group: C 2 2 21
;
_chemical_formula_sum "Si O2"
_cell_formula_units_Z 24
_cell_length_a 12.385042
_cell_length_b 5.400853
_cell_length_c 13.252687
_cell_angle_alpha 90.000000
_cell_angle_beta 90.000000
_cell_angle_gamma 90.000000
_cell_volume 886.469467
_symmetry_space_group_name_H-M "C 2 2 21"
_symmetry_group_IT_number 20
_symmetry_cell_setting 'orthorhombic'
loop_
_space_group_symop_operation_xyz
x,y,z
-x,-y,1/2+z
x,-y,-z
-x,y,1/2-z
1/2+x,1/2+y,z
1/2-x,1/2-y,1/2+z
1/2+x,1/2-y,-z
1/2-x,1/2+y,1/2-z
loop_
_atom_site_type_symbol
_atom_site_label
_atom_site_fract_x
_atom_site_fract_y
_atom_site_fract_z
Si Si1 0.387535 0.451848 0.789538
Si Si2 0.506641 0.761491 0.558992
Si Si3 0.777964 0.142774 0.602304
O O1 0.500000 0.328013 0.750000
O O2 0.418424 0.717144 0.841899
O O3 0.331500 0.292621 0.877139
O O4 0.303498 0.464718 0.697316
O O5 0.503854 0.500000 0.500000
O O6 0.382813 0.820672 0.591146
O O7 0.551624 0.000000 0.500000
O O8 0.753783 0.000000 0.500000
#
# Coordination Sequence:
#
# PCOD8160204 Si02
#       3
#     8   8   8
#     4  10  24  47  76 114 157 206 266 331 399 474
#     4  10  24  47  77 114 155 202 256 318 392 469
#     4  10  24  48  77 112 158 212 268 329 400 473
#
# _framework density 27.073694
#
# number of rings (size 3 to 8) (size 9 to 14) (size 15 to 20)
#    0.000    2.000    0.000    0.000    0.000   16.000 
#    0.000   31.667    0.000    0.000    0.000    0.000 
#    0.000    0.000    0.000    0.000    0.000    0.000 
#
# Total GULP energy -148748.179365 kJ/mol
# GULP energy per Si atom -12395.681614 kJ/mol
# Density = 2.701207 g / cm^3
# Si number density = 27.073694 Si / 1000 Ang^3
#
#
#
# Elastic Constant Matrix: (Units=GPa)
#
#
# Indices 1 2 3 4 5 6 
#
# 1 184.0533 72.8330 82.4314 0.0000 0.0000 0.0000
# 2 72.8330 120.8923 83.9760 0.0000 0.0000 0.0000
# 3 82.4314 83.9760 203.8789 0.0000 0.0000 0.0000
# 4 0.0000 0.0000 0.0000 53.5360 0.0000 0.0000
# 5 0.0000 0.0000 0.0000 0.0000 31.4659 0.0000
# 6 0.0000 0.0000 0.0000 0.0000 0.0000 16.7139
#
#
#
# Elastic Compliance Matrix: (Units=1/GPa)
#
#
# Indices 1 2 3 4 5 6 
#
# 1 0.007507 -0.003382 -0.001642 0.000000 0.000000 0.000000
# 2 -0.003382 0.013111 -0.004033 0.000000 0.000000 0.000000
# 3 -0.001642 -0.004033 0.007230 0.000000 0.000000 0.000000
# 4 0.000000 0.000000 0.000000 0.018679 0.000000 0.000000
# 5 0.000000 0.000000 0.000000 0.000000 0.031780 0.000000
# 6 0.000000 0.000000 0.000000 0.000000 0.000000 0.059830
#
#
# Mechanical properties :
#
#
# Convention : Reuss Voigt Hill
#
# Bulk Modulus (GPa) = 102.73615 109.70058 106.21837
# Shear Modulus (GPa) = 31.34880 38.31544 34.83212
#
# Velocity S-wave (km/s) = 3.40649 3.76603 3.59077
# Velocity P-wave (km/s) = 7.31447 7.71478 7.51729
#
# Compressibility (1/GPa) = 0.00973367
#
# Stress axis : x y z
#
# Youngs Moduli (GPa) = 133.20922 76.27394 138.31431
#
# Poissons Ratio (x) = 0.25795 0.22714
# Poissons Ratio (y) = 0.45051 0.55779
# Poissons Ratio (z) = 0.21876 0.30760
#
# Static dielectric constant tensor:
#      x y z
#    x 5.265110 0.000000 0.000000 
#    y 0.000000 4.161140 0.000000 
#    z 0.000000 0.000000 5.321630 
# 
# 
# High freq. dielectric constant tensor:
#      x y z
#    x 2.121900 0.000000 0.000000 
#    y 0.000000 2.035290 0.000000 
#    z 0.000000 0.000000 2.113660 
# 
# From -- ./inp_files/20383.got.cif
#   From: 2010.03.12/outbox.cif.g09.slc.cpg/sg20_11_cif.got.tgz:20383.got - 2010.04.14 01:38:04.
