data_PCOD8160354
_publ_section_title
;
Structure prediction by ZEFSAII (Michael W. Deem and Ramdas Pophale) SiO2 
 PCOD8160354
Probable space group: C 2 2 21
;
_chemical_formula_sum "Si O2"
_cell_formula_units_Z 40
_cell_length_a 25.304157
_cell_length_b 8.704833
_cell_length_c 7.649579
_cell_angle_alpha 90.000000
_cell_angle_beta 90.000000
_cell_angle_gamma 90.000000
_cell_volume 1684.960993
_symmetry_space_group_name_H-M "C 2 2 21"
_symmetry_group_IT_number 20
_symmetry_cell_setting 'orthorhombic'
loop_
_space_group_symop_operation_xyz
x,y,z
-x,-y,1/2+z
x,-y,-z
-x,y,1/2-z
1/2+x,1/2+y,z
1/2-x,1/2-y,1/2+z
1/2+x,1/2-y,-z
1/2-x,1/2+y,1/2-z
loop_
_atom_site_type_symbol
_atom_site_label
_atom_site_fract_x
_atom_site_fract_y
_atom_site_fract_z
Si Si1 0.035559 0.308228 0.892864
Si Si2 0.077320 0.988458 0.292672
Si Si3 0.368135 0.000000 0.500000
Si Si4 0.804015 0.925577 0.187641
Si Si5 0.500000 0.258412 0.750000
Si Si6 0.799044 0.557311 0.181024
O O1 0.043699 0.143382 0.801732
O O2 0.094303 0.364262 0.934531
O O3 0.000000 0.403135 0.750000
O O4 0.999235 0.330845 0.066546
O O5 0.138698 0.976925 0.244816
O O6 0.067480 0.000000 0.500000
O O7 0.053849 0.145470 0.217376
O O8 0.330326 0.968093 0.334916
O O9 0.800940 0.741135 0.189938
O O10 0.761168 0.997266 0.317831
O O11 0.792319 0.000000 0.000000
O O12 0.824999 0.500000 0.000000
#
# Coordination Sequence:
#
# PCOD8160354 Si02
#       6
#     8   8   4   8   4   8
#     4  12  26  47  72 107 151 190 253 312 382 451
#     4  11  21  43  74 108 147 192 248 314 368 449
#     4  12  30  50  72 108 156 196 260 308 394 456
#     4  11  25  47  78 116 152 200 257 316 384 455
#     4  12  24  42  76 112 144 198 256 314 386 454
#     4  12  27  50  78 110 155 203 257 316 385 465
#
# _framework density 23.739422000000001
#
# number of rings (size 3 to 8) (size 9 to 14) (size 15 to 20)
#    0.000    0.400    6.000    1.800    1.400    8.000 
#    0.000    0.000    0.000    0.000    0.000    0.000 
#    0.000    0.000    0.000    0.000    0.000    0.000 
#
# Total GULP energy -247807.171670 kJ/mol
# GULP energy per Si atom -12390.358584 kJ/mol
# Density = 2.368539 g / cm^3
# Si number density = 23.739422 Si / 1000 Ang^3
#
#
#
# Elastic Constant Matrix: (Units=GPa)
#
#
# Indices 1 2 3 4 5 6 
#
# 1 153.2146 33.4977 66.8077 0.0000 0.0000 0.0000
# 2 33.4977 54.6749 34.0588 0.0000 0.0000 0.0000
# 3 66.8077 34.0588 192.0800 0.0000 0.0000 0.0000
# 4 0.0000 0.0000 0.0000 36.1562 0.0000 0.0000
# 5 0.0000 0.0000 0.0000 0.0000 29.9702 0.0000
# 6 0.0000 0.0000 0.0000 0.0000 0.0000 33.3665
#
#
#
# Elastic Compliance Matrix: (Units=1/GPa)
#
#
# Indices 1 2 3 4 5 6 
#
# 1 0.008310 -0.003699 -0.002234 0.000000 0.000000 0.000000
# 2 -0.003699 0.022208 -0.002651 0.000000 0.000000 0.000000
# 3 -0.002234 -0.002651 0.006453 0.000000 0.000000 0.000000
# 4 0.000000 0.000000 0.000000 0.027658 0.000000 0.000000
# 5 0.000000 0.000000 0.000000 0.000000 0.033366 0.000000
# 6 0.000000 0.000000 0.000000 0.000000 0.000000 0.029970
#
#
# Mechanical properties :
#
#
# Convention : Reuss Voigt Hill
#
# Bulk Modulus (GPa) = 50.50123 74.29977 62.40050
# Shear Modulus (GPa) = 32.95205 37.60560 35.27882
#
# Velocity S-wave (km/s) = 3.72973 3.98439 3.85916
# Velocity P-wave (km/s) = 6.31404 7.24798 6.79707
#
# Compressibility (1/GPa) = 0.01980150
#
# Stress axis : x y z
#
# Youngs Moduli (GPa) = 120.33922 45.02906 154.95791
#
# Poissons Ratio (x) = 0.16658 0.34622
# Poissons Ratio (y) = 0.44518 0.41081
# Poissons Ratio (z) = 0.26887 0.11938
#
# Static dielectric constant tensor:
#      x y z
#    x 4.476640 0.000000 0.000000 
#    y 0.000000 4.042130 0.000000 
#    z 0.000000 0.000000 4.383180 
# 
# 
# High freq. dielectric constant tensor:
#      x y z
#    x 1.955780 0.000000 0.000000 
#    y 0.000000 1.927160 0.000000 
#    z 0.000000 0.000000 1.961550 
# 
# From -- ./inp_files/10985.got.cif
#   From: 2010.03.12/outbox.cif.g09.slc.cpg/sg20_6_cif.got.tgz:10985.got - 2010.04.14 01:38:04.
