data_PCOD8160864
_publ_section_title
;
Structure prediction by ZEFSAII (Michael W. Deem and Ramdas Pophale) SiO2 
 PCOD8160864
Probable space group: C 2 2 2
;
_chemical_formula_sum "Si O2"
_cell_formula_units_Z 40
_cell_length_a 8.500000
_cell_length_b 16.247186
_cell_length_c 14.660840
_cell_angle_alpha 90.000000
_cell_angle_beta 90.000000
_cell_angle_gamma 90.000000
_cell_volume 2024.677852
_symmetry_space_group_name_H-M "C 2 2 2"
_symmetry_group_IT_number 21
_symmetry_cell_setting 'orthorhombic'
loop_
_space_group_symop_operation_xyz
x,y,z
-x,-y,z
x,-y,-z
-x,y,-z
1/2+x,1/2+y,z
1/2-x,1/2-y,z
1/2+x,1/2-y,-z
1/2-x,1/2+y,-z
loop_
_atom_site_type_symbol
_atom_site_label
_atom_site_fract_x
_atom_site_fract_y
_atom_site_fract_z
Si Si1 0.675013 0.839780 0.896089
Si Si2 0.611050 0.423265 0.746763
Si Si3 0.316643 0.988461 0.395445
Si Si4 0.807798 0.342568 0.902677
Si Si5 0.191703 0.157092 0.712818
O O1 0.750000 0.750000 0.895795
O O2 0.490049 0.839808 0.877326
O O3 0.751520 0.885076 0.808995
O O4 0.714870 0.879428 0.994635
O O5 0.500000 0.500000 0.770744
O O6 0.726119 0.443231 0.663326
O O7 0.712129 0.400721 0.835284
O O8 0.498853 0.347590 0.714235
O O9 0.264704 0.896384 0.368482
O O10 0.500000 0.000000 0.378547
O O11 0.269285 0.000000 0.500000
O O12 0.750000 0.250000 0.896220
O O13 0.250000 0.250000 0.700259
#
# Coordination Sequence:
#
# PCOD8160864 Si02
#       5
#     8   8   8   8   8
#     4   9  18  31  53  84 117 149 189 239 279 319
#     4  10  22  37  58  85 116 153 186 231 289 338
#     4  10  22  42  62  82 113 148 182 233 296 344
#     4  10  18  32  55  83 115 154 194 232 277 332
#     4  10  20  37  59  85 115 149 190 233 272 332
#
# _framework density 19.756229000000001
#
# number of rings (size 3 to 8) (size 9 to 14) (size 15 to 20)
#    0.000    2.200    0.000    3.600    0.000    6.000 
#    0.000   12.000    0.000   10.800    0.000    0.000 
#    0.000    0.000    0.000    0.000    0.000    0.000 
#
# Total GULP energy -247893.812251 kJ/mol
# GULP energy per Si atom -12394.690613 kJ/mol
# Density = 1.971126 g / cm^3
# Si number density = 19.756229 Si / 1000 Ang^3
#
#
#
# Elastic Constant Matrix: (Units=GPa)
#
#
# Indices 1 2 3 4 5 6 
#
# 1 140.1412 46.9100 87.6591 0.0000 0.0000 0.0000
# 2 46.9100 74.6679 59.4896 0.0000 0.0000 0.0000
# 3 87.6591 59.4896 171.3048 0.0000 0.0000 0.0000
# 4 0.0000 0.0000 0.0000 35.9725 0.0000 0.0000
# 5 0.0000 0.0000 0.0000 0.0000 36.9029 0.0000
# 6 0.0000 0.0000 0.0000 0.0000 0.0000 36.0413
#
#
#
# Elastic Compliance Matrix: (Units=1/GPa)
#
#
# Indices 1 2 3 4 5 6 
#
# 1 0.011079 -0.003378 -0.004496 0.000000 0.000000 0.000000
# 2 -0.003378 0.019546 -0.005059 0.000000 0.000000 0.000000
# 3 -0.004496 -0.005059 0.009895 0.000000 0.000000 0.000000
# 4 0.000000 0.000000 0.000000 0.027799 0.000000 0.000000
# 5 0.000000 0.000000 0.000000 0.000000 0.027098 0.000000
# 6 0.000000 0.000000 0.000000 0.000000 0.000000 0.027746
#
#
# Mechanical properties :
#
#
# Convention : Reuss Voigt Hill
#
# Bulk Modulus (GPa) = 68.24508 86.02570 77.13539
# Shear Modulus (GPa) = 32.48587 34.58703 33.53645
#
# Velocity S-wave (km/s) = 4.05944 4.18866 4.12456
# Velocity P-wave (km/s) = 7.52268 8.18727 7.86200
#
# Compressibility (1/GPa) = 0.01465307
#
# Stress axis : x y z
#
# Youngs Moduli (GPa) = 90.26329 51.16254 101.06033
#
# Poissons Ratio (x) = 0.17283 0.45437
# Poissons Ratio (y) = 0.30492 0.51127
# Poissons Ratio (z) = 0.40582 0.25883
#
# Static dielectric constant tensor:
#      x y z
#    x 3.325170 0.000000 0.000000 
#    y 0.000000 3.315370 0.000000 
#    z 0.000000 0.000000 3.944750 
# 
# 
# High freq. dielectric constant tensor:
#      x y z
#    x 1.791420 0.000000 0.000000 
#    y 0.000000 1.746330 0.000000 
#    z 0.000000 0.000000 1.774600 
# 
# From -- ./inp_files/22278.got.cif
#   From: 2010.03.12/outbox.cif.g09.slc.cpg/sg21_12_cif.got.tgz:22278.got - 2010.04.14 01:59:26.
