data_PCOD8160232
_publ_section_title
;
Structure prediction by ZEFSAII (Michael W. Deem and Ramdas Pophale) SiO2 
 PCOD8160232
Probable space group: C 2 2 21
;
_chemical_formula_sum "Si O2"
_cell_formula_units_Z 36
_cell_length_a 9.194231
_cell_length_b 20.809018
_cell_length_c 7.900158
_cell_angle_alpha 90.000000
_cell_angle_beta 90.000000
_cell_angle_gamma 90.000000
_cell_volume 1511.481284
_symmetry_space_group_name_H-M "C 2 2 21"
_symmetry_group_IT_number 20
_symmetry_cell_setting 'orthorhombic'
loop_
_space_group_symop_operation_xyz
x,y,z
-x,-y,1/2+z
x,-y,-z
-x,y,1/2-z
1/2+x,1/2+y,z
1/2-x,1/2-y,1/2+z
1/2+x,1/2-y,-z
1/2-x,1/2+y,1/2-z
loop_
_atom_site_type_symbol
_atom_site_label
_atom_site_fract_x
_atom_site_fract_y
_atom_site_fract_z
Si Si1 0.848902 0.961202 0.676815
Si Si2 0.184287 0.333917 0.601711
Si Si3 0.793227 0.500000 0.500000
Si Si4 0.088652 0.630387 0.918758
Si Si5 0.831808 0.795394 0.264086
O O1 0.732999 0.903636 0.665821
O O2 0.000000 0.932810 0.750000
O O3 0.863514 0.000000 0.500000
O O4 0.797687 0.009489 0.825752
O O5 0.201728 0.280589 0.747017
O O6 0.288592 0.316596 0.448775
O O7 0.014949 0.329782 0.545804
O O8 0.888667 0.436387 0.515538
O O9 0.238818 0.667368 0.880264
O O10 0.000000 0.615733 0.750000
O O11 0.000000 0.814275 0.250000
#
# Coordination Sequence:
#
# PCOD8160232 Si02
#       5
#     8   8   4   8   8
#     4  12  28  50  75 116 153 206 264 326 390 467
#     4  11  27  45  75 110 153 198 257 313 397 456
#     4  12  28  46  82 104 158 198 262 318 396 458
#     4  10  25  47  72 112 150 202 256 322 385 465
#     4  11  25  46  74 108 153 196 256 316 384 469
#
# _framework density 23.817695000000001
#
# number of rings (size 3 to 8) (size 9 to 14) (size 15 to 20)
#    0.000    0.889    1.111    4.000   14.000    4.444 
#    0.000    0.000    0.000    0.000    0.000    0.000 
#    0.000    0.000    0.000    0.000    0.000    0.000 
#
# Total GULP energy -223203.927455 kJ/mol
# GULP energy per Si atom -12400.218192 kJ/mol
# Density = 2.376348 g / cm^3
# Si number density = 23.817695 Si / 1000 Ang^3
#
#
#
# Elastic Constant Matrix: (Units=GPa)
#
#
# Indices 1 2 3 4 5 6 
#
# 1 162.5555 44.4621 35.0070 0.0000 0.0000 0.0000
# 2 44.4621 103.9013 42.1135 0.0000 0.0000 0.0000
# 3 35.0070 42.1135 126.5679 0.0000 0.0000 0.0000
# 4 0.0000 0.0000 0.0000 43.7088 0.0000 0.0000
# 5 0.0000 0.0000 0.0000 0.0000 2.2775 0.0000
# 6 0.0000 0.0000 0.0000 0.0000 0.0000 36.0399
#
#
#
# Elastic Compliance Matrix: (Units=1/GPa)
#
#
# Indices 1 2 3 4 5 6 
#
# 1 0.007098 -0.002591 -0.001101 0.000000 0.000000 0.000000
# 2 -0.002591 0.012071 -0.003300 0.000000 0.000000 0.000000
# 3 -0.001101 -0.003300 0.009303 0.000000 0.000000 0.000000
# 4 0.000000 0.000000 0.000000 0.022879 0.000000 0.000000
# 5 0.000000 0.000000 0.000000 0.000000 0.439082 0.000000
# 6 0.000000 0.000000 0.000000 0.000000 0.000000 0.027747
#
#
# Mechanical properties :
#
#
# Convention : Reuss Voigt Hill
#
# Bulk Modulus (GPa) = 69.02141 70.68778 69.85459
# Shear Modulus (GPa) = 9.31112 34.50138 21.90625
#
# Velocity S-wave (km/s) = 1.97935 3.81013 3.03602
# Velocity P-wave (km/s) = 5.85369 7.00708 6.45619
#
# Compressibility (1/GPa) = 0.01448826
#
# Stress axis : x y z
#
# Youngs Moduli (GPa) = 140.89426 82.84520 107.48822
#
# Poissons Ratio (x) = 0.21465 0.11834
# Poissons Ratio (y) = 0.36505 0.35468
# Poissons Ratio (z) = 0.15512 0.27337
#
# Static dielectric constant tensor:
#      x y z
#    x 4.475550 0.000000 0.000000 
#    y 0.000000 4.144390 0.000000 
#    z 0.000000 0.000000 4.562990 
# 
# 
# High freq. dielectric constant tensor:
#      x y z
#    x 1.952200 0.000000 0.000000 
#    y 0.000000 1.939760 0.000000 
#    z 0.000000 0.000000 1.965580 
# 
# From -- ./inp_files/5898.got.cif
#   From: 2010.03.12/outbox.cif.g09.slc.cpg/sg20_3_cif.got.tgz:5898.got - 2010.04.14 01:38:04.
