data_PCOD8160379
_publ_section_title
;
Structure prediction by ZEFSAII (Michael W. Deem and Ramdas Pophale) SiO2 
 PCOD8160379
Probable space group: C 2 2 21
;
_chemical_formula_sum "Si O2"
_cell_formula_units_Z 48
_cell_length_a 8.251052
_cell_length_b 29.559884
_cell_length_c 8.750686
_cell_angle_alpha 90.000000
_cell_angle_beta 90.000000
_cell_angle_gamma 90.000000
_cell_volume 2134.293540
_symmetry_space_group_name_H-M "C 2 2 21"
_symmetry_group_IT_number 20
_symmetry_cell_setting 'orthorhombic'
loop_
_space_group_symop_operation_xyz
x,y,z
-x,-y,1/2+z
x,-y,-z
-x,y,1/2-z
1/2+x,1/2+y,z
1/2-x,1/2-y,1/2+z
1/2+x,1/2-y,-z
1/2-x,1/2+y,1/2-z
loop_
_atom_site_type_symbol
_atom_site_label
_atom_site_fract_x
_atom_site_fract_y
_atom_site_fract_z
Si Si1 0.837341 0.790490 0.170981
Si Si2 0.655794 0.044605 0.074134
Si Si3 0.332651 0.634321 0.339651
Si Si4 0.845018 0.356558 0.534640
Si Si5 0.226640 0.542486 0.404344
Si Si6 0.164589 0.701128 0.522247
O O1 0.873174 0.744537 0.080121
O O2 0.697449 0.784872 0.301287
O O3 0.000000 0.806850 0.250000
O O4 0.793279 0.828386 0.048583
O O5 0.673589 0.091250 0.977497
O O6 0.767948 0.044046 0.224702
O O7 0.465280 0.039001 0.094416
O O8 0.729115 0.000000 0.000000
O O9 0.500000 0.631459 0.250000
O O10 0.184966 0.641526 0.217641
O O11 0.301088 0.591029 0.453317
O O12 0.325913 0.677340 0.453073
O O13 0.017271 0.334530 0.491569
O O14 0.301163 0.500000 0.500000
#
# Coordination Sequence:
#
# PCOD8160379 Si02
#       6
#     8   8   8   8   8   8
#     4  12  26  42  64  96 132 167 211 268 325 379
#     4   9  18  36  63  94 124 159 211 264 304 365
#     4  11  22  39  64  92 129 172 212 266 324 377
#     4  11  23  43  66  95 128 170 219 259 317 383
#     4   9  18  35  59  91 122 162 209 255 315 370
#     4  12  24  43  66  92 125 172 217 265 314 387
#
# _framework density 22.489877
#
# number of rings (size 3 to 8) (size 9 to 14) (size 15 to 20)
#    0.000    1.333    1.667    5.000    0.000    2.667 
#    6.000    3.333    0.000    2.000    0.000    0.000 
#    0.000    0.000    0.000    0.000    0.000    0.000 
#
# Total GULP energy -297338.776187 kJ/mol
# GULP energy per Si atom -12389.115674 kJ/mol
# Density = 2.243869 g / cm^3
# Si number density = 22.489877 Si / 1000 Ang^3
#
#
#
# Elastic Constant Matrix: (Units=GPa)
#
#
# Indices 1 2 3 4 5 6 
#
# 1 54.4315 27.3002 6.2622 0.0000 0.0000 0.0000
# 2 27.3002 186.7872 56.1179 0.0000 0.0000 0.0000
# 3 6.2622 56.1179 69.2831 0.0000 0.0000 0.0000
# 4 0.0000 0.0000 0.0000 42.2817 0.0000 0.0000
# 5 0.0000 0.0000 0.0000 0.0000 28.1465 0.0000
# 6 0.0000 0.0000 0.0000 0.0000 0.0000 20.3973
#
#
#
# Elastic Compliance Matrix: (Units=1/GPa)
#
#
# Indices 1 2 3 4 5 6 
#
# 1 0.019853 -0.003122 0.000735 0.000000 0.000000 0.000000
# 2 -0.003122 0.007567 -0.005847 0.000000 0.000000 0.000000
# 3 0.000735 -0.005847 0.019103 0.000000 0.000000 0.000000
# 4 0.000000 0.000000 0.000000 0.023651 0.000000 0.000000
# 5 0.000000 0.000000 0.000000 0.000000 0.035528 0.000000
# 6 0.000000 0.000000 0.000000 0.000000 0.000000 0.049026
#
#
# Mechanical properties :
#
#
# Convention : Reuss Voigt Hill
#
# Bulk Modulus (GPa) = 33.27353 54.42913 43.85133
# Shear Modulus (GPa) = 27.59161 32.88654 30.23907
#
# Velocity S-wave (km/s) = 3.50644 3.82813 3.67081
# Velocity P-wave (km/s) = 5.58753 6.61767 6.12430
#
# Compressibility (1/GPa) = 0.03005392
#
# Stress axis : x y z
#
# Youngs Moduli (GPa) = 50.36960 132.16034 52.34854
#
# Poissons Ratio (x) = 0.41266 -0.03846
# Poissons Ratio (y) = 0.15727 0.30606
# Poissons Ratio (z) = -0.03700 0.77268
#
# Static dielectric constant tensor:
#      x y z
#    x 3.739560 0.000000 0.000000 
#    y 0.000000 4.437250 0.000000 
#    z 0.000000 0.000000 4.308590 
# 
# 
# High freq. dielectric constant tensor:
#      x y z
#    x 1.869980 0.000000 0.000000 
#    y 0.000000 1.903470 0.000000 
#    z 0.000000 0.000000 1.873130 
# 
# From -- ./inp_files/6514.got.cif
#   From: 2010.03.12/outbox.cif.g09.slc.cpg/sg20_4_cif.got.tgz:6514.got - 2010.04.14 01:38:04.
