data_PCOD8160159
_publ_section_title
;
Structure prediction by ZEFSAII (Michael W. Deem and Ramdas Pophale) SiO2 
 PCOD8160159
Probable space group: C 2 2 21
;
_chemical_formula_sum "Si O2"
_cell_formula_units_Z 52
_cell_length_a 6.769648
_cell_length_b 18.093443
_cell_length_c 19.830738
_cell_angle_alpha 90.000000
_cell_angle_beta 90.000000
_cell_angle_gamma 90.000000
_cell_volume 2428.992538
_symmetry_space_group_name_H-M "C 2 2 21"
_symmetry_group_IT_number 20
_symmetry_cell_setting 'orthorhombic'
loop_
_space_group_symop_operation_xyz
x,y,z
-x,-y,1/2+z
x,-y,-z
-x,y,1/2-z
1/2+x,1/2+y,z
1/2-x,1/2-y,1/2+z
1/2+x,1/2-y,-z
1/2-x,1/2+y,1/2-z
loop_
_atom_site_type_symbol
_atom_site_label
_atom_site_fract_x
_atom_site_fract_y
_atom_site_fract_z
Si Si1 0.521181 0.699077 0.672924
Si Si2 0.496746 0.953073 0.065566
Si Si3 0.670407 0.204827 0.570163
Si Si4 0.305867 0.706307 0.421488
Si Si5 0.500000 0.034986 0.250000
Si Si6 0.783239 0.946480 0.642238
Si Si7 0.828216 0.964849 0.161983
O O1 0.500000 0.729296 0.750000
O O2 0.317451 0.694258 0.632203
O O3 0.661542 0.752891 0.630337
O O4 0.601414 0.616629 0.678838
O O5 0.463382 0.866651 0.054941
O O6 0.722750 0.966689 0.088958
O O7 0.327182 0.980635 0.116161
O O8 0.463609 0.000000 0.000000
O O9 0.528549 0.270168 0.595134
O O10 0.771297 0.227357 0.499624
O O11 0.298450 0.617853 0.412902
O O12 0.362905 0.085324 0.201082
O O13 0.657496 0.981772 0.214797
O O14 0.998757 0.973804 0.666537
#
# Coordination Sequence:
#
# PCOD8160159 Si02
#       7
#     8   8   8   8   4   8   8
#     4  12  27  45  73 104 143 189 243 292 354 430
#     4  11  23  41  72 105 135 178 243 285 344 432
#     4  12  25  47  72 103 143 186 238 295 359 421
#     4  12  27  45  73 103 144 188 233 298 362 417
#     4  10  24  44  70  96 142 176 238 288 354 418
#     4  11  24  43  68 101 135 182 230 290 350 418
#     4  11  24  43  72 102 137 186 232 295 353 417
#
# _framework density 21.408052000000001
#
# number of rings (size 3 to 8) (size 9 to 14) (size 15 to 20)
#    0.000    0.615    6.154    1.385    3.231    6.154 
#    2.769    0.000    0.000    0.000    0.000    0.000 
#    0.000    0.000    0.000    0.000    0.000    0.000 
#
# Total GULP energy -322308.944567 kJ/mol
# GULP energy per Si atom -12396.497868 kJ/mol
# Density = 2.135933 g / cm^3
# Si number density = 21.408052 Si / 1000 Ang^3
#
#
#
# Elastic Constant Matrix: (Units=GPa)
#
#
# Indices 1 2 3 4 5 6 
#
# 1 138.3643 27.7597 49.8477 0.0000 0.0000 0.0000
# 2 27.7597 74.0241 14.7128 0.0000 0.0000 0.0000
# 3 49.8477 14.7128 125.7333 0.0000 0.0000 0.0000
# 4 0.0000 0.0000 0.0000 25.6606 0.0000 0.0000
# 5 0.0000 0.0000 0.0000 0.0000 36.4627 0.0000
# 6 0.0000 0.0000 0.0000 0.0000 0.0000 24.3719
#
#
#
# Elastic Compliance Matrix: (Units=1/GPa)
#
#
# Indices 1 2 3 4 5 6 
#
# 1 0.008932 -0.002709 -0.003224 0.000000 0.000000 0.000000
# 2 -0.002709 0.014652 -0.000641 0.000000 0.000000 0.000000
# 3 -0.003224 -0.000641 0.009307 0.000000 0.000000 0.000000
# 4 0.000000 0.000000 0.000000 0.038970 0.000000 0.000000
# 5 0.000000 0.000000 0.000000 0.000000 0.027425 0.000000
# 6 0.000000 0.000000 0.000000 0.000000 0.000000 0.041031
#
#
# Mechanical properties :
#
#
# Convention : Reuss Voigt Hill
#
# Bulk Modulus (GPa) = 50.64908 58.08467 54.36687
# Shear Modulus (GPa) = 31.24093 33.68581 32.46337
#
# Velocity S-wave (km/s) = 3.82423 3.97105 3.89833
# Velocity P-wave (km/s) = 6.57343 6.94383 6.76116
#
# Compressibility (1/GPa) = 0.01974370
#
# Stress axis : x y z
#
# Youngs Moduli (GPa) = 111.95236 68.24879 107.45059
#
# Poissons Ratio (x) = 0.18488 0.34645
# Poissons Ratio (y) = 0.30326 0.06883
# Poissons Ratio (z) = 0.36097 0.04372
#
# Static dielectric constant tensor:
#      x y z
#    x 4.107170 0.000000 0.000000 
#    y 0.000000 3.746370 0.000000 
#    z 0.000000 0.000000 4.148620 
# 
# 
# High freq. dielectric constant tensor:
#      x y z
#    x 1.855630 0.000000 0.000000 
#    y 0.000000 1.831790 0.000000 
#    z 0.000000 0.000000 1.849040 
# 
# From -- ./inp_files/26093.got.cif
#   From: 2010.03.12/outbox.cif.g09.slc.cpg/sg20_14_cif.got.tgz:26093.got - 2010.04.14 01:38:04.
