data_PCOD8160191
_publ_section_title
;
Structure prediction by ZEFSAII (Michael W. Deem and Ramdas Pophale) SiO2 
 PCOD8160191
Probable space group: C 2 2 21
;
_chemical_formula_sum "Si O2"
_cell_formula_units_Z 52
_cell_length_a 6.331296
_cell_length_b 19.188874
_cell_length_c 19.761755
_cell_angle_alpha 90.000000
_cell_angle_beta 90.000000
_cell_angle_gamma 90.000000
_cell_volume 2400.864334
_symmetry_space_group_name_H-M "C 2 2 21"
_symmetry_group_IT_number 20
_symmetry_cell_setting 'orthorhombic'
loop_
_space_group_symop_operation_xyz
x,y,z
-x,-y,1/2+z
x,-y,-z
-x,y,1/2-z
1/2+x,1/2+y,z
1/2-x,1/2-y,1/2+z
1/2+x,1/2-y,-z
1/2-x,1/2+y,1/2-z
loop_
_atom_site_type_symbol
_atom_site_label
_atom_site_fract_x
_atom_site_fract_y
_atom_site_fract_z
Si Si1 0.350702 0.222320 0.577732
Si Si2 0.995981 0.766947 0.328130
Si Si3 0.460131 0.648370 0.019418
Si Si4 0.263556 0.876292 0.096508
Si Si5 0.500000 0.575850 0.250000
Si Si6 0.621965 0.994785 0.683145
Si Si7 0.807162 0.622980 0.360948
O O1 0.402543 0.303358 0.568698
O O2 0.180772 0.201834 0.522123
O O3 0.547717 0.171497 0.570450
O O4 0.237817 0.218084 0.650721
O O5 0.860054 0.835632 0.344360
O O6 0.898349 0.701007 0.368489
O O7 0.000000 0.749384 0.250000
O O8 0.316498 0.601032 0.069653
O O9 0.609377 0.605173 0.967371
O O10 0.363316 0.946028 0.126606
O O11 0.640839 0.527134 0.201701
O O12 0.650769 0.623051 0.296444
O O13 0.500000 0.022177 0.750000
O O14 0.497139 0.930613 0.649964
#
# Coordination Sequence:
#
# PCOD8160191 Si02
#       7
#     8   8   8   8   4   8   8
#     4  11  22  41  65  97 138 173 218 292 340 391
#     4  11  25  37  67 107 131 168 236 280 340 411
#     4  11  22  41  68  96 135 177 230 278 344 404
#     4  11  25  42  69 100 136 184 221 284 344 405
#     4  10  24  46  72  90 140 176 224 282 346 406
#     4  10  25  45  68  98 140 181 223 283 353 408
#     4  11  24  43  69 100 137 180 226 287 345 412
#
# _framework density 21.658866
#
# number of rings (size 3 to 8) (size 9 to 14) (size 15 to 20)
#    0.000    1.231    3.077    2.308    7.538    3.692 
#    0.000    4.615    0.000    0.000    0.000    0.000 
#    0.000    0.000    0.000    0.000    0.000    0.000 
#
# Total GULP energy -322428.397104 kJ/mol
# GULP energy per Si atom -12401.092196 kJ/mol
# Density = 2.160957 g / cm^3
# Si number density = 21.658866 Si / 1000 Ang^3
#
#
#
# Elastic Constant Matrix: (Units=GPa)
#
#
# Indices 1 2 3 4 5 6 
#
# 1 108.1582 27.5214 39.5291 0.0000 0.0000 0.0000
# 2 27.5214 69.8487 30.8154 0.0000 0.0000 0.0000
# 3 39.5291 30.8154 109.9893 0.0000 0.0000 0.0000
# 4 0.0000 0.0000 0.0000 30.5652 0.0000 0.0000
# 5 0.0000 0.0000 0.0000 0.0000 33.7869 0.0000
# 6 0.0000 0.0000 0.0000 0.0000 0.0000 22.3230
#
#
#
# Elastic Compliance Matrix: (Units=1/GPa)
#
#
# Indices 1 2 3 4 5 6 
#
# 1 0.011169 -0.003001 -0.003173 0.000000 0.000000 0.000000
# 2 -0.003001 0.017142 -0.003724 0.000000 0.000000 0.000000
# 3 -0.003173 -0.003724 0.011276 0.000000 0.000000 0.000000
# 4 0.000000 0.000000 0.000000 0.032717 0.000000 0.000000
# 5 0.000000 0.000000 0.000000 0.000000 0.029597 0.000000
# 6 0.000000 0.000000 0.000000 0.000000 0.000000 0.044797
#
#
# Mechanical properties :
#
#
# Convention : Reuss Voigt Hill
#
# Bulk Modulus (GPa) = 50.53022 53.74757 52.13890
# Shear Modulus (GPa) = 28.88652 30.01037 29.44844
#
# Velocity S-wave (km/s) = 3.65595 3.72639 3.69134
# Velocity P-wave (km/s) = 6.41888 6.58666 6.50331
#
# Compressibility (1/GPa) = 0.01979014
#
# Stress axis : x y z
#
# Youngs Moduli (GPa) = 89.53307 58.33623 88.68669
#
# Poissons Ratio (x) = 0.17505 0.28143
# Poissons Ratio (y) = 0.26867 0.33028
# Poissons Ratio (z) = 0.28412 0.21725
#
# Static dielectric constant tensor:
#      x y z
#    x 4.339090 0.000000 0.000000 
#    y 0.000000 3.521680 0.000000 
#    z 0.000000 0.000000 3.984140 
# 
# 
# High freq. dielectric constant tensor:
#      x y z
#    x 1.871950 0.000000 0.000000 
#    y 0.000000 1.822020 0.000000 
#    z 0.000000 0.000000 1.856610 
# 
# From -- ./inp_files/26094.got.cif
#   From: 2010.03.12/outbox.cif.g09.slc.cpg/sg20_14_cif.got.tgz:26094.got - 2010.04.14 01:38:04.
