data_PCOD8160295
_publ_section_title
;
Structure prediction by ZEFSAII (Michael W. Deem and Ramdas Pophale) SiO2 
 PCOD8160295
Probable space group: C 2 2 21
;
_chemical_formula_sum "Si O2"
_cell_formula_units_Z 48
_cell_length_a 10.974655
_cell_length_b 20.787457
_cell_length_c 9.297348
_cell_angle_alpha 90.000000
_cell_angle_beta 90.000000
_cell_angle_gamma 90.000000
_cell_volume 2121.052056
_symmetry_space_group_name_H-M "C 2 2 21"
_symmetry_group_IT_number 20
_symmetry_cell_setting 'orthorhombic'
loop_
_space_group_symop_operation_xyz
x,y,z
-x,-y,1/2+z
x,-y,-z
-x,y,1/2-z
1/2+x,1/2+y,z
1/2-x,1/2-y,1/2+z
1/2+x,1/2-y,-z
1/2-x,1/2+y,1/2-z
loop_
_atom_site_type_symbol
_atom_site_label
_atom_site_fract_x
_atom_site_fract_y
_atom_site_fract_z
Si Si1 0.253811 0.161974 0.283334
Si Si2 0.291162 0.119299 0.983727
Si Si3 0.748220 0.802188 0.226988
Si Si4 0.553343 0.679907 0.511396
Si Si5 0.072056 0.057074 0.898081
Si Si6 0.955569 0.324821 0.484780
O O1 0.271265 0.227879 0.196560
O O2 0.125426 0.165573 0.364361
O O3 0.367394 0.150814 0.388071
O O4 0.251382 0.111716 0.151319
O O5 0.251299 0.184825 0.897992
O O6 0.222396 0.061096 0.893724
O O7 0.438351 0.121235 0.976792
O O8 0.618292 0.825254 0.164232
O O9 0.859885 0.836979 0.147116
O O10 0.449840 0.626038 0.523659
O O11 0.502348 0.752296 0.516509
O O12 0.000000 0.047816 0.750000
O O13 0.026136 0.000000 0.000000
#
# Coordination Sequence:
#
# PCOD8160295 Si02
#       6
#     8   8   8   8   8   8
#     4  11  22  36  60 103 141 178 213 271 339 423
#     4  12  23  39  65  94 133 176 225 275 344 398
#     4  11  20  38  58  99 140 182 214 269 344 414
#     4  11  23  39  65  94 140 181 222 273 343 402
#     4  12  29  49  70  92 131 182 236 290 332 401
#     4  11  23  37  65 102 147 177 215 273 343 424
#
# _framework density 22.630278000000001
#
# number of rings (size 3 to 8) (size 9 to 14) (size 15 to 20)
#    0.000    0.667    5.000    4.000    2.333    1.333 
#    0.000    0.000    0.000    8.000    0.000    0.000 
#    0.000    0.000    0.000    0.000    0.000    0.000 
#
# Total GULP energy -297328.802255 kJ/mol
# GULP energy per Si atom -12388.700094 kJ/mol
# Density = 2.257877 g / cm^3
# Si number density = 22.630278 Si / 1000 Ang^3
#
#
#
# Elastic Constant Matrix: (Units=GPa)
#
#
# Indices 1 2 3 4 5 6 
#
# 1 122.5440 28.0704 47.1280 0.0000 0.0000 0.0000
# 2 28.0704 45.7759 27.9863 0.0000 0.0000 0.0000
# 3 47.1280 27.9863 119.4326 0.0000 0.0000 0.0000
# 4 0.0000 0.0000 0.0000 15.6701 0.0000 0.0000
# 5 0.0000 0.0000 0.0000 0.0000 29.9310 0.0000
# 6 0.0000 0.0000 0.0000 0.0000 0.0000 17.2955
#
#
#
# Elastic Compliance Matrix: (Units=1/GPa)
#
#
# Indices 1 2 3 4 5 6 
#
# 1 0.010357 -0.004497 -0.003033 0.000000 0.000000 0.000000
# 2 -0.004497 0.027451 -0.004658 0.000000 0.000000 0.000000
# 3 -0.003033 -0.004658 0.010661 0.000000 0.000000 0.000000
# 4 0.000000 0.000000 0.000000 0.063816 0.000000 0.000000
# 5 0.000000 0.000000 0.000000 0.000000 0.033410 0.000000
# 6 0.000000 0.000000 0.000000 0.000000 0.000000 0.057819
#
#
# Mechanical properties :
#
#
# Convention : Reuss Voigt Hill
#
# Bulk Modulus (GPa) = 41.50534 54.90242 48.20388
# Shear Modulus (GPa) = 21.19363 24.88385 23.03874
#
# Velocity S-wave (km/s) = 3.06358 3.31959 3.19415
# Velocity P-wave (km/s) = 5.55828 6.24549 5.91188
#
# Compressibility (1/GPa) = 0.02409328
#
# Stress axis : x y z
#
# Youngs Moduli (GPa) = 96.55485 36.42890 93.79704
#
# Poissons Ratio (x) = 0.16380 0.28450
# Poissons Ratio (y) = 0.43416 0.43692
# Poissons Ratio (z) = 0.29286 0.16969
#
# Static dielectric constant tensor:
#      x y z
#    x 4.472360 0.000000 0.000000 
#    y 0.000000 3.487960 0.000000 
#    z 0.000000 0.000000 4.128300 
# 
# 
# High freq. dielectric constant tensor:
#      x y z
#    x 1.917870 0.000000 0.000000 
#    y 0.000000 1.819850 0.000000 
#    z 0.000000 0.000000 1.912170 
# 
# From -- ./inp_files/7380.got.cif
#   From: 2010.03.12/outbox.cif.g09.slc.cpg/sg20_4_cif.got.tgz:7380.got - 2010.04.14 01:38:04.
