data_PCOD8160916
_publ_section_title
;
Structure prediction by ZEFSAII (Michael W. Deem and Ramdas Pophale) SiO2 
 PCOD8160916
Probable space group: C 2 2 2
;
_chemical_formula_sum "Si O2"
_cell_formula_units_Z 56
_cell_length_a 5.112616
_cell_length_b 23.911290
_cell_length_c 23.843814
_cell_angle_alpha 90.000000
_cell_angle_beta 90.000000
_cell_angle_gamma 90.000000
_cell_volume 2914.888232
_symmetry_space_group_name_H-M "C 2 2 2"
_symmetry_group_IT_number 21
_symmetry_cell_setting 'orthorhombic'
loop_
_space_group_symop_operation_xyz
x,y,z
-x,-y,z
x,-y,-z
-x,y,-z
1/2+x,1/2+y,z
1/2-x,1/2-y,z
1/2+x,1/2-y,-z
1/2-x,1/2+y,-z
loop_
_atom_site_type_symbol
_atom_site_label
_atom_site_fract_x
_atom_site_fract_y
_atom_site_fract_z
Si Si1 0.550094 0.383912 0.749378
Si Si2 0.008688 0.066482 0.132240
Si Si3 0.447407 0.061706 0.419173
Si Si4 0.048352 0.560479 0.289580
Si Si5 0.990158 0.434241 0.062074
Si Si6 0.450009 0.630501 0.439958
Si Si7 0.499971 0.711675 0.666009
O O1 0.476184 0.393327 0.814010
O O2 0.352882 0.423490 0.714114
O O3 0.510529 0.321655 0.725080
O O4 0.856570 0.397630 0.742948
O O5 0.271190 0.084871 0.100854
O O6 0.776655 0.083897 0.091219
O O7 0.000000 0.000000 0.148044
O O8 0.458977 0.060459 0.352817
O O9 0.156638 0.079986 0.435734
O O10 0.659026 0.105317 0.442518
O O11 0.500000 0.000000 0.443956
O O12 0.000000 0.500000 0.261761
O O13 0.000000 0.500000 0.054688
O O14 0.000000 0.406572 0.000000
O O15 0.500000 0.661473 0.500000
O O16 0.485566 0.671834 0.387948
O O17 0.250000 0.750000 0.659032
O O18 0.750000 0.750000 0.667839
#
# Coordination Sequence:
#
# PCOD8160916 Si02
#       7
#     8   8   8   8   8   8   8
#     4  12  22  38  58  84 116 148 190 242 289 340
#     4  10  19  30  50  82 116 151 191 229 267 325
#     4  11  22  39  61  89 121 151 179 213 275 354
#     4  11  20  34  58  84 115 150 178 215 278 350
#     4   9  17  30  47  73 117 166 197 219 254 307
#     4  12  25  43  64  88 114 145 191 239 282 347
#     4  12  26  45  64  81 108 145 193 247 308 350
#
# _framework density 19.211715000000002
#
# number of rings (size 3 to 8) (size 9 to 14) (size 15 to 20)
#    0.000    1.000    2.857    5.143    0.000    7.429 
#    0.000    0.000    0.000    0.000    0.000    0.000 
#    0.000   11.429    0.000    0.000    0.000    0.000 
#
# Total GULP energy -347155.147548 kJ/mol
# GULP energy per Si atom -12398.398127 kJ/mol
# Density = 1.916799 g / cm^3
# Si number density = 19.211715 Si / 1000 Ang^3
#
#
#
# Elastic Constant Matrix: (Units=GPa)
#
#
# Indices 1 2 3 4 5 6 
#
# 1 107.9188 29.5709 15.1702 0.0000 0.0000 0.0000
# 2 29.5709 82.2651 36.7967 0.0000 0.0000 0.0000
# 3 15.1702 36.7967 115.2725 0.0000 0.0000 0.0000
# 4 0.0000 0.0000 0.0000 3.0819 0.0000 0.0000
# 5 0.0000 0.0000 0.0000 0.0000 42.7772 0.0000
# 6 0.0000 0.0000 0.0000 0.0000 0.0000 31.5468
#
#
#
# Elastic Compliance Matrix: (Units=1/GPa)
#
#
# Indices 1 2 3 4 5 6 
#
# 1 0.010283 -0.003606 -0.000202 0.000000 0.000000 0.000000
# 2 -0.003606 0.015445 -0.004456 0.000000 0.000000 0.000000
# 3 -0.000202 -0.004456 0.010124 0.000000 0.000000 0.000000
# 4 0.000000 0.000000 0.000000 0.324471 0.000000 0.000000
# 5 0.000000 0.000000 0.000000 0.000000 0.023377 0.000000
# 6 0.000000 0.000000 0.000000 0.000000 0.000000 0.031699
#
#
# Mechanical properties :
#
#
# Convention : Reuss Voigt Hill
#
# Bulk Modulus (GPa) = 51.74837 52.05910 51.90373
# Shear Modulus (GPa) = 11.40596 30.40911 20.90754
#
# Velocity S-wave (km/s) = 2.43924 3.98281 3.30247
# Velocity P-wave (km/s) = 5.90995 6.95031 6.45113
#
# Compressibility (1/GPa) = 0.01932428
#
# Stress axis : x y z
#
# Youngs Moduli (GPa) = 97.25106 64.74604 98.77473
#
# Poissons Ratio (x) = 0.23346 0.01997
# Poissons Ratio (y) = 0.35066 0.44011
# Poissons Ratio (z) = 0.01967 0.28849
#
# Static dielectric constant tensor:
#      x y z
#    x 3.533090 0.000000 0.000000 
#    y 0.000000 3.317790 0.000000 
#    z 0.000000 0.000000 3.730120 
# 
# 
# High freq. dielectric constant tensor:
#      x y z
#    x 1.773500 0.000000 0.000000 
#    y 0.000000 1.696280 0.000000 
#    z 0.000000 0.000000 1.754900 
# 
# From -- ./inp_files/38296.got.cif
#   From: 2010.03.12/outbox.cif.g09.slc.cpg/sg21_20_cif.got.tgz:38296.got - 2010.04.14 01:59:26.
