data_PCOD8160783
_publ_section_title
;
Structure prediction by ZEFSAII (Michael W. Deem and Ramdas Pophale) SiO2 
 PCOD8160783
Probable space group: C 2 2 2
;
_chemical_formula_sum "Si O2"
_cell_formula_units_Z 56
_cell_length_a 5.192101
_cell_length_b 16.456451
_cell_length_c 32.112823
_cell_angle_alpha 90.000000
_cell_angle_beta 90.000000
_cell_angle_gamma 90.000000
_cell_volume 2743.833780
_symmetry_space_group_name_H-M "C 2 2 2"
_symmetry_group_IT_number 21
_symmetry_cell_setting 'orthorhombic'
loop_
_space_group_symop_operation_xyz
x,y,z
-x,-y,z
x,-y,-z
-x,y,-z
1/2+x,1/2+y,z
1/2-x,1/2-y,z
1/2+x,1/2-y,-z
1/2-x,1/2+y,-z
loop_
_atom_site_type_symbol
_atom_site_label
_atom_site_fract_x
_atom_site_fract_y
_atom_site_fract_z
Si Si1 0.000452 0.596714 0.953189
Si Si2 0.750175 0.053845 0.612480
Si Si3 0.513110 0.698334 0.824784
Si Si4 0.716479 0.342290 0.263971
Si Si5 0.002901 0.903634 0.904571
Si Si6 0.751946 0.091221 0.518232
Si Si7 0.723965 0.846732 0.306937
O O1 0.755632 0.628523 0.926955
O O2 0.000000 0.500000 0.954640
O O3 0.259019 0.628809 0.931683
O O4 0.000000 0.631926 0.000000
O O5 0.500000 0.000000 0.612466
O O6 0.773174 0.095617 0.567749
O O7 0.700886 0.124827 0.645720
O O8 0.000000 0.000000 0.622879
O O9 0.750000 0.750000 0.843574
O O10 0.635868 0.654272 0.784442
O O11 0.450935 0.630171 0.858465
O O12 0.250000 0.750000 0.814284
O O13 0.750000 0.250000 0.278618
O O14 0.486854 0.385767 0.288992
O O15 0.990955 0.381570 0.277465
O O16 0.000000 0.000000 0.900938
O O17 0.500000 0.136338 0.500000
O O18 0.000000 0.137852 0.500000
O O19 0.750844 0.000000 0.500000
O O20 0.750000 0.750000 0.304958
#
# Coordination Sequence:
#
# PCOD8160783 Si02
#       7
#     8   8   8   8   8   8   8
#     4   9  17  31  53  78 107 146 188 223 259 325
#     4  12  21  33  55  84 109 137 180 224 262 313
#     4  11  21  36  60  83 104 140 187 227 263 327
#     4   9  18  36  58  77  99 142 186 213 255 329
#     4  10  20  34  54  83 112 138 179 230 283 318
#     4  10  16  30  49  75 100 139 178 212 245 306
#     4  10  21  37  56  77 107 140 176 220 269 318
#
# _framework density 20.409400000000002
#
# number of rings (size 3 to 8) (size 9 to 14) (size 15 to 20)
#    0.000    1.857    2.857    4.286    0.000    1.714 
#    0.000    2.143    0.000    9.429    0.000    0.000 
#    0.000    0.000    0.000    0.000    0.000    0.000 
#
# Total GULP energy -346969.073483 kJ/mol
# GULP energy per Si atom -12391.752624 kJ/mol
# Density = 2.036295 g / cm^3
# Si number density = 20.409400 Si / 1000 Ang^3
#
#
#
# Elastic Constant Matrix: (Units=GPa)
#
#
# Indices 1 2 3 4 5 6 
#
# 1 203.7156 21.2924 81.2187 0.0000 0.0000 0.0000
# 2 21.2924 13.5581 29.9175 0.0000 0.0000 0.0000
# 3 81.2187 29.9175 180.6208 0.0000 0.0000 0.0000
# 4 0.0000 0.0000 0.0000 26.6181 0.0000 0.0000
# 5 0.0000 0.0000 0.0000 0.0000 43.0528 0.0000
# 6 0.0000 0.0000 0.0000 0.0000 0.0000 28.5537
#
#
#
# Elastic Compliance Matrix: (Units=1/GPa)
#
#
# Indices 1 2 3 4 5 6 
#
# 1 0.006248 -0.005694 -0.001866 0.000000 0.000000 0.000000
# 2 -0.005694 0.121433 -0.017553 0.000000 0.000000 0.000000
# 3 -0.001866 -0.017553 0.009283 0.000000 0.000000 0.000000
# 4 0.000000 0.000000 0.000000 0.037568 0.000000 0.000000
# 5 0.000000 0.000000 0.000000 0.000000 0.023227 0.000000
# 6 0.000000 0.000000 0.000000 0.000000 0.000000 0.035022
#
#
# Mechanical properties :
#
#
# Convention : Reuss Voigt Hill
#
# Bulk Modulus (GPa) = 11.52916 73.63909 42.58412
# Shear Modulus (GPa) = 16.02970 37.34265 26.68618
#
# Velocity S-wave (km/s) = 2.80555 4.28212 3.61992
# Velocity P-wave (km/s) = 4.01946 7.78511 6.19532
#
# Compressibility (1/GPa) = 0.08673658
#
# Stress axis : x y z
#
# Youngs Moduli (GPa) = 160.05026 8.23501 107.72122
#
# Poissons Ratio (x) = 0.04689 0.20105
# Poissons Ratio (y) = 0.91130 1.89088
# Poissons Ratio (z) = 0.29872 0.14455
#
# Static dielectric constant tensor:
#      x y z
#    x 2.448070 0.000000 0.000000 
#    y 0.000000 3.046700 0.000000 
#    z 0.000000 0.000000 3.008800 
# 
# 
# High freq. dielectric constant tensor:
#      x y z
#    x 1.833010 0.000000 0.000000 
#    y 0.000000 1.730330 0.000000 
#    z 0.000000 0.000000 1.808910 
# 
# From -- ./inp_files/39490.got.cif
#   From: 2010.03.12/outbox.cif.g09.slc.cpg/sg21_20_cif.got.tgz:39490.got - 2010.04.14 01:59:26.
