data_PCOD8160420
_publ_section_title
;
Structure prediction by ZEFSAII (Michael W. Deem and Ramdas Pophale) SiO2 
 PCOD8160420
Probable space group: C 2 2 21
;
_chemical_formula_sum "Si O2"
_cell_formula_units_Z 56
_cell_length_a 11.280007
_cell_length_b 15.802252
_cell_length_c 14.384303
_cell_angle_alpha 90.000000
_cell_angle_beta 90.000000
_cell_angle_gamma 90.000000
_cell_volume 2563.995007
_symmetry_space_group_name_H-M "C 2 2 21"
_symmetry_group_IT_number 20
_symmetry_cell_setting 'orthorhombic'
loop_
_space_group_symop_operation_xyz
x,y,z
-x,-y,1/2+z
x,-y,-z
-x,y,1/2-z
1/2+x,1/2+y,z
1/2-x,1/2-y,1/2+z
1/2+x,1/2-y,-z
1/2-x,1/2+y,1/2-z
loop_
_atom_site_type_symbol
_atom_site_label
_atom_site_fract_x
_atom_site_fract_y
_atom_site_fract_z
Si Si1 0.499009 0.162226 0.359212
Si Si2 0.388348 0.170999 0.642397
Si Si3 0.134851 0.244917 0.321338
Si Si4 0.166974 0.233876 0.969793
Si Si5 0.262977 0.922430 0.934576
Si Si6 0.631297 0.555228 0.253370
Si Si7 0.675707 0.008760 0.106195
O O1 0.500000 0.183924 0.250000
O O2 0.457806 0.245618 0.417283
O O3 0.624056 0.130577 0.398614
O O4 0.399272 0.092098 0.375854
O O5 0.321369 0.193412 0.738360
O O6 0.513147 0.219292 0.637461
O O7 0.311129 0.204014 0.556693
O O8 0.406773 0.070487 0.635457
O O9 0.228368 0.242834 0.401563
O O10 0.117800 0.153105 0.278428
O O11 0.175278 0.137116 0.004604
O O12 0.192693 0.957813 0.846370
O O13 0.304820 0.000000 0.000000
O O14 0.500000 0.514425 0.250000
O O15 0.706275 0.506974 0.331676
O O16 0.715765 0.000000 0.000000
#
# Coordination Sequence:
#
# PCOD8160420 Si02
#       7
#     8   8   8   8   8   8   8
#     4  12  25  46  76 112 151 189 247 324 369 434
#     4  11  24  42  71 104 139 191 249 286 368 450
#     4  11  22  42  73  99 134 197 242 289 361 451
#     4  12  24  44  69 108 147 190 236 308 374 439
#     4  12  28  46  74 111 148 194 252 304 371 445
#     4  12  24  49  72 101 150 198 244 305 376 441
#     4  12  25  45  74 114 146 189 244 315 375 436
#
# _framework density 21.840917000000001
#
# number of rings (size 3 to 8) (size 9 to 14) (size 15 to 20)
#    0.000    0.286    7.143    1.286    6.000    0.571 
#    0.000    3.571    0.000    0.000    0.000    0.000 
#    0.000    0.000    0.000    0.000    0.000    0.000 
#
# Total GULP energy -347231.239895 kJ/mol
# GULP energy per Si atom -12401.115711 kJ/mol
# Density = 2.179121 g / cm^3
# Si number density = 21.840917 Si / 1000 Ang^3
#
#
#
# Elastic Constant Matrix: (Units=GPa)
#
#
# Indices 1 2 3 4 5 6 
#
# 1 111.2213 17.4919 64.4355 0.0000 0.0000 0.0000
# 2 17.4919 76.0159 36.6353 0.0000 0.0000 0.0000
# 3 64.4355 36.6353 174.1341 0.0000 0.0000 0.0000
# 4 0.0000 0.0000 0.0000 31.7699 0.0000 0.0000
# 5 0.0000 0.0000 0.0000 0.0000 37.0092 0.0000
# 6 0.0000 0.0000 0.0000 0.0000 0.0000 13.7059
#
#
#
# Elastic Compliance Matrix: (Units=1/GPa)
#
#
# Indices 1 2 3 4 5 6 
#
# 1 0.011474 -0.000661 -0.004107 0.000000 0.000000 0.000000
# 2 -0.000661 0.014678 -0.002843 0.000000 0.000000 0.000000
# 3 -0.004107 -0.002843 0.007861 0.000000 0.000000 0.000000
# 4 0.000000 0.000000 0.000000 0.031476 0.000000 0.000000
# 5 0.000000 0.000000 0.000000 0.000000 0.027020 0.000000
# 6 0.000000 0.000000 0.000000 0.000000 0.000000 0.072961
#
#
# Mechanical properties :
#
#
# Convention : Reuss Voigt Hill
#
# Bulk Modulus (GPa) = 53.21975 66.49965 59.85970
# Shear Modulus (GPa) = 26.74423 32.68424 29.71424
#
# Velocity S-wave (km/s) = 3.50308 3.87262 3.69248
# Velocity P-wave (km/s) = 6.38608 7.10701 6.75617
#
# Compressibility (1/GPa) = 0.01879002
#
# Stress axis : x y z
#
# Youngs Moduli (GPa) = 87.15124 68.13104 127.21751
#
# Poissons Ratio (x) = 0.04504 0.52246
# Poissons Ratio (y) = 0.05761 0.36172
# Poissons Ratio (z) = 0.35791 0.19372
#
# Static dielectric constant tensor:
#      x y z
#    x 3.973480 0.000000 0.000000 
#    y 0.000000 3.987890 0.000000 
#    z 0.000000 0.000000 4.431430 
# 
# 
# High freq. dielectric constant tensor:
#      x y z
#    x 1.848120 0.000000 0.000000 
#    y 0.000000 1.848740 0.000000 
#    z 0.000000 0.000000 1.887830 
# 
# From -- ./inp_files/20036.got.cif
#   From: 2010.03.12/outbox.cif.g09.slc.cpg/sg20_11_cif.got.tgz:20036.got - 2010.04.14 01:38:04.
