data_PCOD8160152
_publ_section_title
;
Structure prediction by ZEFSAII (Michael W. Deem and Ramdas Pophale) SiO2 
 PCOD8160152
Probable space group: C 2 2 21
;
_chemical_formula_sum "Si O2"
_cell_formula_units_Z 48
_cell_length_a 8.620798
_cell_length_b 26.270180
_cell_length_c 9.689831
_cell_angle_alpha 90.000000
_cell_angle_beta 90.000000
_cell_angle_gamma 90.000000
_cell_volume 2194.455205
_symmetry_space_group_name_H-M "C 2 2 21"
_symmetry_group_IT_number 20
_symmetry_cell_setting 'orthorhombic'
loop_
_space_group_symop_operation_xyz
x,y,z
-x,-y,1/2+z
x,-y,-z
-x,y,1/2-z
1/2+x,1/2+y,z
1/2-x,1/2-y,1/2+z
1/2+x,1/2-y,-z
1/2-x,1/2+y,1/2-z
loop_
_atom_site_type_symbol
_atom_site_label
_atom_site_fract_x
_atom_site_fract_y
_atom_site_fract_z
Si Si1 0.423455 0.958719 0.892670
Si Si2 0.568844 0.845534 0.608045
Si Si3 0.939498 0.141302 0.904688
Si Si4 0.945416 0.952525 0.591690
Si Si5 0.604520 0.303563 0.877136
Si Si6 0.113343 0.311333 0.131420
O O1 0.500000 0.976469 0.750000
O O2 0.486467 0.902645 0.929808
O O3 0.238965 0.954816 0.895394
O O4 0.486108 0.000000 0.000000
O O5 0.500000 0.826770 0.750000
O O6 0.753785 0.842557 0.612525
O O7 0.496405 0.807036 0.500126
O O8 0.000000 0.131381 0.750000
O O9 0.755382 0.150067 0.890136
O O10 0.984610 0.095999 0.009802
O O11 0.012479 0.191823 0.976712
O O12 0.000000 0.954783 0.750000
O O13 0.004948 0.000000 0.500000
O O14 0.500000 0.322674 0.750000
O O15 0.667221 0.246825 0.843770
O O16 0.000000 0.332472 0.250000
#
# Coordination Sequence:
#
# PCOD8160152 Si02
#       6
#     8   8   8   8   8   8
#     4  10  24  44  69 101 134 174 221 277 337 403
#     4  11  23  41  66  99 131 173 221 277 339 405
#     4  12  25  43  68  99 136 182 226 281 341 402
#     4  11  25  47  72 102 135 174 226 276 338 409
#     4  11  23  43  69  96 134 180 229 279 340 402
#     4  11  26  42  64  99 136 181 227 282 336 401
#
# _framework density 21.87331
#
# number of rings (size 3 to 8) (size 9 to 14) (size 15 to 20)
#    0.000    1.000    1.667    4.000    4.667    6.667 
#    3.000    0.000    0.000    0.000    0.000    0.000 
#    0.000    0.000    0.000    0.000    0.000    0.000 
#
# Total GULP energy -297498.069894 kJ/mol
# GULP energy per Si atom -12395.752912 kJ/mol
# Density = 2.182353 g / cm^3
# Si number density = 21.873310 Si / 1000 Ang^3
#
#
#
# Elastic Constant Matrix: (Units=GPa)
#
#
# Indices 1 2 3 4 5 6 
#
# 1 125.4027 42.0288 68.2126 0.0000 0.0000 0.0000
# 2 42.0288 81.4244 59.0687 0.0000 0.0000 0.0000
# 3 68.2126 59.0687 181.5112 0.0000 0.0000 0.0000
# 4 0.0000 0.0000 0.0000 40.7143 0.0000 0.0000
# 5 0.0000 0.0000 0.0000 0.0000 45.9421 0.0000
# 6 0.0000 0.0000 0.0000 0.0000 0.0000 22.4692
#
#
#
# Elastic Compliance Matrix: (Units=1/GPa)
#
#
# Indices 1 2 3 4 5 6 
#
# 1 0.010701 -0.003412 -0.002911 0.000000 0.000000 0.000000
# 2 -0.003412 0.017164 -0.004304 0.000000 0.000000 0.000000
# 3 -0.002911 -0.004304 0.008004 0.000000 0.000000 0.000000
# 4 0.000000 0.000000 0.000000 0.024561 0.000000 0.000000
# 5 0.000000 0.000000 0.000000 0.000000 0.021767 0.000000
# 6 0.000000 0.000000 0.000000 0.000000 0.000000 0.044505
#
#
# Mechanical properties :
#
#
# Convention : Reuss Voigt Hill
#
# Bulk Modulus (GPa) = 68.41677 80.77318 74.59497
# Shear Modulus (GPa) = 32.71644 36.42701 34.57172
#
# Velocity S-wave (km/s) = 3.87165 4.08531 3.97992
# Velocity P-wave (km/s) = 7.16469 7.69811 7.43619
#
# Compressibility (1/GPa) = 0.01461630
#
# Stress axis : x y z
#
# Youngs Moduli (GPa) = 93.44592 58.26014 124.93873
#
# Poissons Ratio (x) = 0.19877 0.36374
# Poissons Ratio (y) = 0.31881 0.53769
# Poissons Ratio (z) = 0.27205 0.25073
#
# Static dielectric constant tensor:
#      x y z
#    x 3.895840 0.000000 0.000000 
#    y 0.000000 3.941760 0.000000 
#    z 0.000000 0.000000 4.148360 
# 
# 
# High freq. dielectric constant tensor:
#      x y z
#    x 1.862970 0.000000 0.000000 
#    y 0.000000 1.863550 0.000000 
#    z 0.000000 0.000000 1.873610 
# 
# From -- ./inp_files/6523.got.cif
#   From: 2010.03.12/outbox.cif.g09.slc.cpg/sg20_4_cif.got.tgz:6523.got - 2010.04.14 01:38:04.
