data_PCOD8160721
_publ_section_title
;
Structure prediction by ZEFSAII (Michael W. Deem and Ramdas Pophale) SiO2 
 PCOD8160721
Probable space group: C 2 2 21
;
_chemical_formula_sum "Si O2"
_cell_formula_units_Z 36
_cell_length_a 7.798386
_cell_length_b 20.695599
_cell_length_c 9.621208
_cell_angle_alpha 90.000000
_cell_angle_beta 90.000000
_cell_angle_gamma 90.000000
_cell_volume 1552.788594
_symmetry_space_group_name_H-M "C 2 2 21"
_symmetry_group_IT_number 20
_symmetry_cell_setting 'orthorhombic'
loop_
_space_group_symop_operation_xyz
x,y,z
-x,-y,1/2+z
x,-y,-z
-x,y,1/2-z
1/2+x,1/2+y,z
1/2-x,1/2-y,1/2+z
1/2+x,1/2-y,-z
1/2-x,1/2+y,1/2-z
loop_
_atom_site_type_symbol
_atom_site_label
_atom_site_fract_x
_atom_site_fract_y
_atom_site_fract_z
Si Si1 0.589860 0.000000 0.500000
Si Si2 0.500000 0.319587 0.750000
Si Si3 0.661565 0.878763 0.654056
Si Si4 0.000000 0.422166 0.250000
Si Si5 0.838071 0.255276 0.023654
Si Si6 0.689468 0.672989 0.737923
O O1 0.706891 0.944166 0.569423
O O2 0.468763 0.966586 0.384761
O O3 0.329304 0.362733 0.744880
O O4 0.500849 0.275097 0.610446
O O5 0.500000 0.893580 0.750000
O O6 0.605813 0.821417 0.550217
O O7 0.169649 0.380085 0.272173
O O8 0.695610 0.270245 0.143923
O O9 0.772317 0.202883 0.913022
O O10 0.500000 0.642159 0.750000
#
# Coordination Sequence:
#
# PCOD8160721 Si02
#       6
#     4   4   8   4   8   8
#     4  12  28  52  74 106 146 210 254 304 352 434
#     4  12  29  46  76 118 150 191 240 312 384 445
#     4  12  28  49  74 108 154 198 251 304 368 441
#     4  12  29  52  76 106 152 197 256 304 364 435
#     4  12  26  45  75 115 151 184 243 310 381 443
#     4  12  28  46  76 115 149 193 243 308 381 446
#
# _framework density 23.184097999999999
#
# number of rings (size 3 to 8) (size 9 to 14) (size 15 to 20)
#    0.000    0.000    5.556    2.667    9.333    0.000 
#    2.000    2.222    0.000    0.000    0.000    0.000 
#    0.000    0.000    0.000    0.000    0.000    0.000 
#
# Total GULP energy -223218.334637 kJ/mol
# GULP energy per Si atom -12401.018591 kJ/mol
# Density = 2.313133 g / cm^3
# Si number density = 23.184098 Si / 1000 Ang^3
#
#
#
# Elastic Constant Matrix: (Units=GPa)
#
#
# Indices 1 2 3 4 5 6 
#
# 1 152.4088 53.2651 40.8081 0.0000 0.0000 0.0000
# 2 53.2651 128.6276 56.5372 0.0000 0.0000 0.0000
# 3 40.8081 56.5372 171.1410 0.0000 0.0000 0.0000
# 4 0.0000 0.0000 0.0000 51.7137 0.0000 0.0000
# 5 0.0000 0.0000 0.0000 0.0000 29.5630 0.0000
# 6 0.0000 0.0000 0.0000 0.0000 0.0000 15.8392
#
#
#
# Elastic Compliance Matrix: (Units=1/GPa)
#
#
# Indices 1 2 3 4 5 6 
#
# 1 0.007795 -0.002821 -0.000927 0.000000 0.000000 0.000000
# 2 -0.002821 0.010116 -0.002669 0.000000 0.000000 0.000000
# 3 -0.000927 -0.002669 0.006946 0.000000 0.000000 0.000000
# 4 0.000000 0.000000 0.000000 0.019337 0.000000 0.000000
# 5 0.000000 0.000000 0.000000 0.000000 0.033826 0.000000
# 6 0.000000 0.000000 0.000000 0.000000 0.000000 0.063134
#
#
# Mechanical properties :
#
#
# Convention : Reuss Voigt Hill
#
# Bulk Modulus (GPa) = 83.17154 83.71091 83.44123
# Shear Modulus (GPa) = 31.64642 39.52766 35.58704
#
# Velocity S-wave (km/s) = 3.69861 4.13358 3.92213
# Velocity P-wave (km/s) = 7.36151 7.67902 7.52194
#
# Compressibility (1/GPa) = 0.01202334
#
# Stress axis : x y z
#
# Youngs Moduli (GPa) = 128.28293 98.85704 143.96905
#
# Poissons Ratio (x) = 0.27884 0.13345
# Poissons Ratio (y) = 0.36184 0.38428
# Poissons Ratio (z) = 0.11891 0.26387
#
# Static dielectric constant tensor:
#      x y z
#    x 3.881770 0.000000 0.000000 
#    y 0.000000 4.199620 0.000000 
#    z 0.000000 0.000000 4.647220 
# 
# 
# High freq. dielectric constant tensor:
#      x y z
#    x 1.898090 0.000000 0.000000 
#    y 0.000000 1.905380 0.000000 
#    z 0.000000 0.000000 1.949560 
# 
# From -- ./inp_files/5951.got.cif
#   From: 2010.03.12/outbox.cif.g09.slc.cpg/sg20_3_cif.got.tgz:5951.got - 2010.04.14 01:38:04.
