data_PCOD8160845
_publ_section_title
;
Structure prediction by ZEFSAII (Michael W. Deem and Ramdas Pophale) SiO2 
 PCOD8160845
Probable space group: C 2 2 2
;
_chemical_formula_sum "Si O2"
_cell_formula_units_Z 40
_cell_length_a 9.006424
_cell_length_b 20.623055
_cell_length_c 10.683294
_cell_angle_alpha 90.000000
_cell_angle_beta 90.000000
_cell_angle_gamma 90.000000
_cell_volume 1984.314787
_symmetry_space_group_name_H-M "C 2 2 2"
_symmetry_group_IT_number 21
_symmetry_cell_setting 'orthorhombic'
loop_
_space_group_symop_operation_xyz
x,y,z
-x,-y,z
x,-y,-z
-x,y,-z
1/2+x,1/2+y,z
1/2-x,1/2-y,z
1/2+x,1/2-y,-z
1/2-x,1/2+y,-z
loop_
_atom_site_type_symbol
_atom_site_label
_atom_site_fract_x
_atom_site_fract_y
_atom_site_fract_z
Si Si1 0.675294 0.317456 0.662805
Si Si2 0.247821 0.444778 0.657963
Si Si3 0.331135 0.686031 0.369651
Si Si4 0.752512 0.060249 0.842507
Si Si5 0.500000 0.000000 0.500000
Si Si6 0.500000 0.000000 0.000000
Si Si7 0.500000 0.500000 0.500000
Si Si8 0.000000 0.000000 0.000000
O O1 0.750000 0.250000 0.707065
O O2 0.706297 0.330089 0.515873
O O3 0.500014 0.308114 0.672875
O O4 0.737516 0.376200 0.751973
O O5 0.254982 0.371759 0.709856
O O6 0.249180 0.495031 0.765930
O O7 0.098795 0.451482 0.579475
O O8 0.398766 0.451577 0.578402
O O9 0.250000 0.750000 0.325314
O O10 0.600632 0.052249 0.922330
O O11 0.900727 0.052117 0.924173
#
# Coordination Sequence:
#
# PCOD8160845 Si02
#       8
#     8   8   8   8   2   2   2   2
#     4  10  21  38  59  85 122 160 187 225 284 348
#     4  11  20  34  56  84 118 156 189 229 284 343
#     4  10  21  34  54  90 128 156 186 221 271 355
#     4  11  22  40  61  83 113 151 198 249 296 332
#     4  10  22  30  50  88 116 146 194 228 268 352
#     4  10  26  42  58  84 108 142 206 268 292 320
#     4  10  18  30  54  88 116 142 194 228 264 356
#     4  10  22  38  62  84 104 142 206 264 292 324
#
# _framework density 20.158092
#
# number of rings (size 3 to 8) (size 9 to 14) (size 15 to 20)
#    0.000    1.600    0.000    7.200    0.000    6.400 
#    0.000    1.000    0.000    4.800    0.000    0.000 
#    0.000    0.000    0.000    0.000    0.000    0.000 
#
# Total GULP energy -247762.820329 kJ/mol
# GULP energy per Si atom -12388.141016 kJ/mol
# Density = 2.011221 g / cm^3
# Si number density = 20.158092 Si / 1000 Ang^3
#
#
#
# Elastic Constant Matrix: (Units=GPa)
#
#
# Indices 1 2 3 4 5 6 
#
# 1 143.5990 69.4746 45.8145 0.0000 0.0000 0.0000
# 2 69.4746 195.8284 53.8114 0.0000 0.0000 0.0000
# 3 45.8145 53.8114 74.8981 0.0000 0.0000 0.0000
# 4 0.0000 0.0000 0.0000 38.8275 0.0000 0.0000
# 5 0.0000 0.0000 0.0000 0.0000 95.7230 0.0000
# 6 0.0000 0.0000 0.0000 0.0000 0.0000 26.0907
#
#
#
# Elastic Compliance Matrix: (Units=1/GPa)
#
#
# Indices 1 2 3 4 5 6 
#
# 1 0.009340 -0.002172 -0.004152 0.000000 0.000000 0.000000
# 2 -0.002172 0.006868 -0.003605 0.000000 0.000000 0.000000
# 3 -0.004152 -0.003605 0.018482 0.000000 0.000000 0.000000
# 4 0.000000 0.000000 0.000000 0.025755 0.000000 0.000000
# 5 0.000000 0.000000 0.000000 0.000000 0.010447 0.000000
# 6 0.000000 0.000000 0.000000 0.000000 0.000000 0.038328
#
#
# Mechanical properties :
#
#
# Convention : Reuss Voigt Hill
#
# Bulk Modulus (GPa) = 67.43493 83.61406 75.52449
# Shear Modulus (GPa) = 37.30725 48.47656 42.89190
#
# Velocity S-wave (km/s) = 4.30668 4.90922 4.61779
# Velocity P-wave (km/s) = 7.63254 8.58505 8.12277
#
# Compressibility (1/GPa) = 0.01482911
#
# Stress axis : x y z
#
# Youngs Moduli (GPa) = 107.07069 145.60276 54.10760
#
# Poissons Ratio (x) = 0.31632 0.22466
# Poissons Ratio (y) = 0.23261 0.19508
# Poissons Ratio (z) = 0.44457 0.52497
#
# Static dielectric constant tensor:
#      x y z
#    x 3.397670 0.000000 0.000000 
#    y 0.000000 3.417820 0.000000 
#    z 0.000000 0.000000 3.782710 
# 
# 
# High freq. dielectric constant tensor:
#      x y z
#    x 1.810260 0.000000 0.000000 
#    y 0.000000 1.789850 0.000000 
#    z 0.000000 0.000000 1.757120 
# 
# From -- ./inp_files/22641.got.cif
#   From: 2010.03.12/outbox.cif.g09.slc.cpg/sg21_12_cif.got.tgz:22641.got - 2010.04.14 01:59:26.
