data_PCOD8160563
_publ_section_title
;
Structure prediction by ZEFSAII (Michael W. Deem and Ramdas Pophale) SiO2 
 PCOD8160563
Probable space group: C 2 2 21
;
_chemical_formula_sum "Si O2"
_cell_formula_units_Z 36
_cell_length_a 11.490306
_cell_length_b 10.565120
_cell_length_c 12.786319
_cell_angle_alpha 90.000000
_cell_angle_beta 90.000000
_cell_angle_gamma 90.000000
_cell_volume 1552.213885
_symmetry_space_group_name_H-M "C 2 2 21"
_symmetry_group_IT_number 20
_symmetry_cell_setting 'orthorhombic'
loop_
_space_group_symop_operation_xyz
x,y,z
-x,-y,1/2+z
x,-y,-z
-x,y,1/2-z
1/2+x,1/2+y,z
1/2-x,1/2-y,1/2+z
1/2+x,1/2-y,-z
1/2-x,1/2+y,1/2-z
loop_
_atom_site_type_symbol
_atom_site_label
_atom_site_fract_x
_atom_site_fract_y
_atom_site_fract_z
Si Si1 0.368495 0.371805 0.552993
Si Si2 0.322423 0.462922 0.107388
Si Si3 0.500000 0.409479 0.750000
Si Si4 0.855806 0.679988 0.148925
Si Si5 0.616064 0.151239 0.114370
O O1 0.416684 0.500000 0.500000
O O2 0.453348 0.329042 0.650275
O O3 0.244240 0.411221 0.604176
O O4 0.356711 0.258653 0.470453
O O5 0.393571 0.504151 0.209717
O O6 0.318019 0.313256 0.100499
O O7 0.192048 0.523758 0.100591
O O8 0.388778 0.500000 0.000000
O O9 0.851409 0.704032 0.272274
O O10 0.978253 0.622011 0.110261
#
# Coordination Sequence:
#
# PCOD8160563 Si02
#       5
#     8   8   4   8   8
#     4  12  25  44  72 103 143 190 247 306 370 443
#     4  12  23  44  73 100 140 186 240 298 372 431
#     4  12  24  44  70 102 134 194 246 298 364 456
#     4  11  24  45  69 103 146 186 238 305 367 438
#     4  11  25  45  72 104 141 189 240 303 367 441
#
# _framework density 23.192678999999998
#
# number of rings (size 3 to 8) (size 9 to 14) (size 15 to 20)
#    0.000    0.444    4.444    6.000    0.000    0.889 
#    0.000    2.222    0.000    0.000    0.000    0.000 
#    0.000    0.000    0.000    0.000    0.000    0.000 
#
# Total GULP energy -223038.722587 kJ/mol
# GULP energy per Si atom -12391.040144 kJ/mol
# Density = 2.313989 g / cm^3
# Si number density = 23.192679 Si / 1000 Ang^3
#
#
#
# Elastic Constant Matrix: (Units=GPa)
#
#
# Indices 1 2 3 4 5 6 
#
# 1 153.7112 28.5370 55.7650 0.0000 0.0000 0.0000
# 2 28.5370 55.3404 5.4976 0.0000 0.0000 0.0000
# 3 55.7650 5.4976 134.1844 0.0000 0.0000 0.0000
# 4 0.0000 0.0000 0.0000 31.7474 0.0000 0.0000
# 5 0.0000 0.0000 0.0000 0.0000 37.4799 0.0000
# 6 0.0000 0.0000 0.0000 0.0000 0.0000 -14.4632
#
#
#
# Elastic Compliance Matrix: (Units=1/GPa)
#
#
# Indices 1 2 3 4 5 6 
#
# 1 0.008472 -0.004035 -0.003356 0.000000 0.000000 0.000000
# 2 -0.004035 0.020066 0.000855 0.000000 0.000000 0.000000
# 3 -0.003356 0.000855 0.008812 0.000000 0.000000 0.000000
# 4 0.000000 0.000000 0.000000 0.031499 0.000000 0.000000
# 5 0.000000 0.000000 0.000000 0.000000 0.026681 0.000000
# 6 0.000000 0.000000 0.000000 0.000000 0.000000 -0.069141
#
#
# Mechanical properties :
#
#
# Convention : Reuss Voigt Hill
#
# Bulk Modulus (GPa) = 41.18965 58.09283 49.64124
# Shear Modulus (GPa) = 105.14365 27.84857 66.49611
#
# Velocity S-wave (km/s) = 6.74042 3.46894 5.36036
# Velocity P-wave (km/s) = 8.85302 6.41459 7.73056
#
# Compressibility (1/GPa) = 0.02427794
#
# Stress axis : x y z
#
# Youngs Moduli (GPa) = 118.03174 49.83558 113.48222
#
# Poissons Ratio (x) = 0.20111 0.38080
# Poissons Ratio (y) = 0.47632 -0.09702
# Poissons Ratio (z) = 0.39607 -0.04261
#
# Static dielectric constant tensor:
#      x y z
#    x 4.403860 0.000000 0.000000 
#    y 0.000000 3.668700 0.000000 
#    z 0.000000 0.000000 4.597980 
# 
# 
# High freq. dielectric constant tensor:
#      x y z
#    x 1.935620 0.000000 0.000000 
#    y 0.000000 1.872040 0.000000 
#    z 0.000000 0.000000 1.949060 
# 
# From -- ./inp_files/13666.got.cif
#   From: 2010.03.12/outbox.cif.g09.slc.cpg/sg20_7_cif.got.tgz:13666.got - 2010.04.14 01:38:04.
