data_PCOD8160615
_publ_section_title
;
Structure prediction by ZEFSAII (Michael W. Deem and Ramdas Pophale) SiO2 
 PCOD8160615
Probable space group: C 2 2 21
;
_chemical_formula_sum "Si O2"
_cell_formula_units_Z 32
_cell_length_a 34.219474
_cell_length_b 5.331937
_cell_length_c 7.675484
_cell_angle_alpha 90.000000
_cell_angle_beta 90.000000
_cell_angle_gamma 90.000000
_cell_volume 1400.438719
_symmetry_space_group_name_H-M "C 2 2 21"
_symmetry_group_IT_number 20
_symmetry_cell_setting 'orthorhombic'
loop_
_space_group_symop_operation_xyz
x,y,z
-x,-y,1/2+z
x,-y,-z
-x,y,1/2-z
1/2+x,1/2+y,z
1/2-x,1/2-y,1/2+z
1/2+x,1/2-y,-z
1/2-x,1/2+y,1/2-z
loop_
_atom_site_type_symbol
_atom_site_label
_atom_site_fract_x
_atom_site_fract_y
_atom_site_fract_z
Si Si1 0.672981 0.000000 0.000000
Si Si2 0.033938 0.751891 0.112541
Si Si3 0.274989 0.245109 0.758992
Si Si4 0.619798 0.342795 0.177638
Si Si5 0.830663 0.000000 0.000000
O O1 0.699276 0.218928 0.916401
O O2 0.645132 0.906819 0.845470
O O3 0.074650 0.781280 0.216770
O O4 0.000000 0.715296 0.250000
O O5 0.036367 0.500000 0.000000
O O6 0.025235 0.000000 0.000000
O O7 0.250097 0.493898 0.722122
O O8 0.301453 0.278478 0.934266
O O9 0.639670 0.466441 0.342187
O O10 0.622705 0.500000 0.000000
#
# Coordination Sequence:
#
# PCOD8160615 Si02
#       5
#     4   8   8   8   4
#     4  12  25  48  72  98 158 192 238 322 380 434
#     4  11  25  49  78 114 158 199 245 308 373 448
#     4  12  29  49  74 111 147 197 258 318 382 452
#     4  11  25  49  74 113 152 199 247 319 370 453
#     4  12  27  48  82 106 144 208 258 304 390 460
#
# _framework density 22.849983000000002
#
# number of rings (size 3 to 8) (size 9 to 14) (size 15 to 20)
#    0.000    0.500    3.750    3.000    1.750   10.000 
#    4.500    0.000    0.000    0.000    0.000    0.000 
#    0.000    0.000    0.000    0.000    0.000    0.000 
#
# Total GULP energy -198284.337528 kJ/mol
# GULP energy per Si atom -12392.771096 kJ/mol
# Density = 2.279798 g / cm^3
# Si number density = 22.849983 Si / 1000 Ang^3
#
#
#
# Elastic Constant Matrix: (Units=GPa)
#
#
# Indices 1 2 3 4 5 6 
#
# 1 179.8338 51.8661 58.2132 0.0000 0.0000 0.0000
# 2 51.8661 129.0984 27.6932 0.0000 0.0000 0.0000
# 3 58.2132 27.6932 101.5109 0.0000 0.0000 0.0000
# 4 0.0000 0.0000 0.0000 37.0608 0.0000 0.0000
# 5 0.0000 0.0000 0.0000 0.0000 18.2640 0.0000
# 6 0.0000 0.0000 0.0000 0.0000 0.0000 29.3066
#
#
#
# Elastic Compliance Matrix: (Units=1/GPa)
#
#
# Indices 1 2 3 4 5 6 
#
# 1 0.007364 -0.002180 -0.003628 0.000000 0.000000 0.000000
# 2 -0.002180 0.008873 -0.001170 0.000000 0.000000 0.000000
# 3 -0.003628 -0.001170 0.012251 0.000000 0.000000 0.000000
# 4 0.000000 0.000000 0.000000 0.026983 0.000000 0.000000
# 5 0.000000 0.000000 0.000000 0.000000 0.054753 0.000000
# 6 0.000000 0.000000 0.000000 0.000000 0.000000 0.034122
#
#
# Mechanical properties :
#
#
# Convention : Reuss Voigt Hill
#
# Bulk Modulus (GPa) = 68.82080 76.22090 72.52085
# Shear Modulus (GPa) = 30.64733 35.10432 32.87583
#
# Velocity S-wave (km/s) = 3.66627 3.92381 3.79722
# Velocity P-wave (km/s) = 6.93585 7.34561 7.14366
#
# Compressibility (1/GPa) = 0.01453049
#
# Stress axis : x y z
#
# Youngs Moduli (GPa) = 135.79645 112.70139 81.62534
#
# Poissons Ratio (x) = 0.24571 0.29615
# Poissons Ratio (y) = 0.29607 0.09553
# Poissons Ratio (z) = 0.49270 0.13190
#
# Static dielectric constant tensor:
#      x y z
#    x 4.579650 0.000000 0.000000 
#    y 0.000000 4.545030 0.000000 
#    z 0.000000 0.000000 3.819860 
# 
# 
# High freq. dielectric constant tensor:
#      x y z
#    x 1.924610 0.000000 0.000000 
#    y 0.000000 1.906750 0.000000 
#    z 0.000000 0.000000 1.901870 
# 
# From -- ./inp_files/11308.got.cif
#   From: 2010.03.12/outbox.cif.g09.slc.cpg/sg20_6_cif.got.tgz:11308.got - 2010.04.14 01:38:04.
