data_PCOD8160785
_publ_section_title
;
Structure prediction by ZEFSAII (Michael W. Deem and Ramdas Pophale) SiO2 
 PCOD8160785
Probable space group: C 2 2 2
;
_chemical_formula_sum "Si O2"
_cell_formula_units_Z 48
_cell_length_a 27.347016
_cell_length_b 5.154959
_cell_length_c 17.122633
_cell_angle_alpha 90.000000
_cell_angle_beta 90.000000
_cell_angle_gamma 90.000000
_cell_volume 2413.824597
_symmetry_space_group_name_H-M "C 2 2 2"
_symmetry_group_IT_number 21
_symmetry_cell_setting 'orthorhombic'
loop_
_space_group_symop_operation_xyz
x,y,z
-x,-y,z
x,-y,-z
-x,y,-z
1/2+x,1/2+y,z
1/2-x,1/2-y,z
1/2+x,1/2-y,-z
1/2-x,1/2+y,-z
loop_
_atom_site_type_symbol
_atom_site_label
_atom_site_fract_x
_atom_site_fract_y
_atom_site_fract_z
Si Si1 0.444906 0.494754 0.092842
Si Si2 0.521468 0.752152 0.412570
Si Si3 0.132383 0.250794 0.448055
Si Si4 0.307349 0.257504 0.295262
Si Si5 0.886302 0.484004 0.092256
Si Si6 0.307482 0.234014 0.798378
O O1 0.500000 0.500000 0.126919
O O2 0.423072 0.764202 0.122025
O O3 0.410364 0.255485 0.122146
O O4 0.446841 0.500000 0.000000
O O5 0.500000 0.500000 0.368462
O O6 0.500000 0.750041 0.500000
O O7 0.579296 0.776121 0.410064
O O8 0.500000 0.000000 0.367016
O O9 0.146166 0.500000 0.500000
O O10 0.170388 0.198937 0.379775
O O11 0.133824 0.000000 0.500000
O O12 0.250000 0.250000 0.306026
O O13 0.324026 0.482116 0.233384
O O14 0.322731 0.972347 0.267606
O O15 0.834095 0.385849 0.125485
O O16 0.879060 0.500000 0.000000
O O17 0.250000 0.250000 0.818161
#
# Coordination Sequence:
#
# PCOD8160785 Si02
#       6
#     8   8   8   8   8   8
#     4   9  17  30  51  84 117 147 180 225 287 342
#     4  10  16  30  49  77 108 136 169 215 273 344
#     4  12  21  33  58  86 106 138 185 238 276 318
#     4  10  23  40  57  78 110 152 190 225 289 357
#     4  10  19  33  58  89 112 142 196 246 280 334
#     4  10  21  41  60  77 112 159 189 226 294 359
#
# _framework density 19.885456000000001
#
# number of rings (size 3 to 8) (size 9 to 14) (size 15 to 20)
#    0.000    1.833    3.333    2.500    0.000    2.667 
#    0.000    5.000    0.000   10.000    0.000    0.000 
#    0.000    0.000    0.000    0.000    0.000    0.000 
#
# Total GULP energy -297340.924760 kJ/mol
# GULP energy per Si atom -12389.205198 kJ/mol
# Density = 1.984020 g / cm^3
# Si number density = 19.885456 Si / 1000 Ang^3
#
#
#
# Elastic Constant Matrix: (Units=GPa)
#
#
# Indices 1 2 3 4 5 6 
#
# 1 74.0026 52.2059 39.6887 0.0000 0.0000 0.0000
# 2 52.2059 173.6515 32.6180 0.0000 0.0000 0.0000
# 3 39.6887 32.6180 46.1151 0.0000 0.0000 0.0000
# 4 0.0000 0.0000 0.0000 31.4102 0.0000 0.0000
# 5 0.0000 0.0000 0.0000 0.0000 5.5250 0.0000
# 6 0.0000 0.0000 0.0000 0.0000 0.0000 34.4721
#
#
#
# Elastic Compliance Matrix: (Units=1/GPa)
#
#
# Indices 1 2 3 4 5 6 
#
# 1 0.027796 -0.004455 -0.020771 0.000000 0.000000 0.000000
# 2 -0.004455 0.007355 -0.001368 0.000000 0.000000 0.000000
# 3 -0.020771 -0.001368 0.040529 0.000000 0.000000 0.000000
# 4 0.000000 0.000000 0.000000 0.031837 0.000000 0.000000
# 5 0.000000 0.000000 0.000000 0.000000 0.180995 0.000000
# 6 0.000000 0.000000 0.000000 0.000000 0.000000 0.029009
#
#
# Mechanical properties :
#
#
# Convention : Reuss Voigt Hill
#
# Bulk Modulus (GPa) = 44.46162 60.31049 52.38606
# Shear Modulus (GPa) = 13.22031 25.56524 19.39278
#
# Velocity S-wave (km/s) = 2.58121 3.58945 3.12625
# Velocity P-wave (km/s) = 5.59383 6.89737 6.27952
#
# Compressibility (1/GPa) = 0.02249131
#
# Stress axis : x y z
#
# Youngs Moduli (GPa) = 35.97692 135.96288 24.67356
#
# Poissons Ratio (x) = 0.60569 0.51250
# Poissons Ratio (y) = 0.16027 0.03376
# Poissons Ratio (z) = 0.74728 0.18604
#
# Static dielectric constant tensor:
#      x y z
#    x 3.627390 0.000000 0.000000 
#    y 0.000000 3.929940 0.000000 
#    z 0.000000 0.000000 3.099500 
# 
# 
# High freq. dielectric constant tensor:
#      x y z
#    x 1.778910 0.000000 0.000000 
#    y 0.000000 1.808460 0.000000 
#    z 0.000000 0.000000 1.726730 
# 
# From -- ./inp_files/33808.got.cif
#   From: 2010.03.12/outbox.cif.g09.slc.cpg/sg21_17_cif.got.tgz:33808.got - 2010.04.14 01:59:26.
