data_PCOD8160632
_publ_section_title
;
Structure prediction by ZEFSAII (Michael W. Deem and Ramdas Pophale) SiO2 
 PCOD8160632
Probable space group: C 2 2 21
;
_chemical_formula_sum "Si O2"
_cell_formula_units_Z 24
_cell_length_a 4.756902
_cell_length_b 13.854893
_cell_length_c 13.029906
_cell_angle_alpha 90.000000
_cell_angle_beta 90.000000
_cell_angle_gamma 90.000000
_cell_volume 858.753783
_symmetry_space_group_name_H-M "C 2 2 21"
_symmetry_group_IT_number 20
_symmetry_cell_setting 'orthorhombic'
loop_
_space_group_symop_operation_xyz
x,y,z
-x,-y,1/2+z
x,-y,-z
-x,y,1/2-z
1/2+x,1/2+y,z
1/2-x,1/2-y,1/2+z
1/2+x,1/2-y,-z
1/2-x,1/2+y,1/2-z
loop_
_atom_site_type_symbol
_atom_site_label
_atom_site_fract_x
_atom_site_fract_y
_atom_site_fract_z
Si Si1 0.459111 0.656643 0.134561
Si Si2 0.534468 0.154093 0.973337
Si Si3 0.521385 0.560320 0.867843
O O1 0.500000 0.692844 0.250000
O O2 0.620666 0.737617 0.066157
O O3 0.608750 0.552228 0.123278
O O4 0.131976 0.651082 0.094185
O O5 0.219006 0.125619 0.940656
O O6 0.713755 0.073842 0.913683
O O7 0.500000 0.594431 0.750000
#
# Coordination Sequence:
#
# PCOD8160632 Si02
#       3
#     8   8   8
#     4  11  27  49  77 114 156 206 260 318 388 462
#     4  12  26  48  77 110 154 204 260 322 383 456
#     4  11  26  49  77 110 151 200 257 320 387 460
#
# _framework density 27.947476999999999
#
# number of rings (size 3 to 8) (size 9 to 14) (size 15 to 20)
#    0.000    0.667    0.000    6.000    0.000   13.333 
#    0.000   18.333    0.000    0.000    0.000    0.000 
#    0.000    0.000    0.000    0.000    0.000    0.000 
#
# Total GULP energy -148706.331075 kJ/mol
# GULP energy per Si atom -12392.194256 kJ/mol
# Density = 2.788387 g / cm^3
# Si number density = 27.947477 Si / 1000 Ang^3
#
#
#
# Elastic Constant Matrix: (Units=GPa)
#
#
# Indices 1 2 3 4 5 6 
#
# 1 81.2760 17.2485 54.2781 0.0000 0.0000 0.0000
# 2 17.2485 131.9770 53.9398 0.0000 0.0000 0.0000
# 3 54.2781 53.9398 224.4356 0.0000 0.0000 0.0000
# 4 0.0000 0.0000 0.0000 47.0261 0.0000 0.0000
# 5 0.0000 0.0000 0.0000 0.0000 40.8734 0.0000
# 6 0.0000 0.0000 0.0000 0.0000 0.0000 36.3272
#
#
#
# Elastic Compliance Matrix: (Units=1/GPa)
#
#
# Indices 1 2 3 4 5 6 
#
# 1 0.014706 -0.000519 -0.003432 0.000000 0.000000 0.000000
# 2 -0.000519 0.008421 -0.001898 0.000000 0.000000 0.000000
# 3 -0.003432 -0.001898 0.005742 0.000000 0.000000 0.000000
# 4 0.000000 0.000000 0.000000 0.021265 0.000000 0.000000
# 5 0.000000 0.000000 0.000000 0.000000 0.024466 0.000000
# 6 0.000000 0.000000 0.000000 0.000000 0.000000 0.027528
#
#
# Mechanical properties :
#
#
# Convention : Reuss Voigt Hill
#
# Bulk Modulus (GPa) = 58.24198 76.51349 67.37773
# Shear Modulus (GPa) = 41.82415 45.66014 43.74215
#
# Velocity S-wave (km/s) = 3.87269 4.04639 3.96050
# Velocity P-wave (km/s) = 6.39391 7.01912 6.71380
#
# Compressibility (1/GPa) = 0.01716975
#
# Stress axis : x y z
#
# Youngs Moduli (GPa) = 68.00080 118.75405 174.16326
#
# Poissons Ratio (x) = 0.06168 0.59766
# Poissons Ratio (y) = 0.03532 0.33060
# Poissons Ratio (z) = 0.23335 0.22542
#
# Static dielectric constant tensor:
#      x y z
#    x 4.802030 0.000000 0.000000 
#    y 0.000000 5.280880 0.000000 
#    z 0.000000 0.000000 5.473550 
# 
# 
# High freq. dielectric constant tensor:
#      x y z
#    x 2.115900 0.000000 0.000000 
#    y 0.000000 2.163190 0.000000 
#    z 0.000000 0.000000 2.146130 
# 
# From -- ./inp_files/17338.got.cif
#   From: 2010.03.12/outbox.cif.g09.slc.cpg/sg20_9_cif.got.tgz:17338.got - 2010.04.14 01:38:04.
