data_PCOD8160110
_publ_section_title
;
Structure prediction by ZEFSAII (Michael W. Deem and Ramdas Pophale) SiO2 
 PCOD8160110
Probable space group: C 2 2 21
;
_chemical_formula_sum "Si O2"
_cell_formula_units_Z 48
_cell_length_a 14.111059
_cell_length_b 24.604750
_cell_length_c 6.810061
_cell_angle_alpha 90.000000
_cell_angle_beta 90.000000
_cell_angle_gamma 90.000000
_cell_volume 2364.446907
_symmetry_space_group_name_H-M "C 2 2 21"
_symmetry_group_IT_number 20
_symmetry_cell_setting 'orthorhombic'
loop_
_space_group_symop_operation_xyz
x,y,z
-x,-y,1/2+z
x,-y,-z
-x,y,1/2-z
1/2+x,1/2+y,z
1/2-x,1/2-y,1/2+z
1/2+x,1/2-y,-z
1/2-x,1/2+y,1/2-z
loop_
_atom_site_type_symbol
_atom_site_label
_atom_site_fract_x
_atom_site_fract_y
_atom_site_fract_z
Si Si1 0.428644 0.939438 0.073916
Si Si2 0.425173 0.446595 0.403042
Si Si3 0.678315 0.306730 0.828573
Si Si4 0.334511 0.804353 0.515123
Si Si5 0.000000 0.361103 0.750000
Si Si6 0.250171 0.379819 0.322029
Si Si7 0.500000 0.375638 0.750000
O O1 0.500000 0.925909 0.250000
O O2 0.321645 0.929536 0.141138
O O3 0.441577 0.898358 0.896050
O O4 0.444809 0.000000 0.000000
O O5 0.376480 0.500000 0.500000
O O6 0.500000 0.470095 0.250000
O O7 0.349935 0.409723 0.284910
O O8 0.484471 0.411407 0.557821
O O9 0.633637 0.251507 0.913489
O O10 0.753637 0.289085 0.667647
O O11 0.593975 0.339313 0.723038
O O12 0.735321 0.340968 0.991420
O O13 0.428035 0.825242 0.623422
O O14 0.289927 0.847385 0.363690
#
# Coordination Sequence:
#
# PCOD8160110 Si02
#       7
#     8   8   8   8   4   8   4
#     4  12  24  43  67  98 134 173 221 273 332 396
#     4  11  22  43  66  96 130 169 213 270 330 387
#     4  11  24  42  66  95 132 170 223 270 327 390
#     4  12  24  43  68  98 131 174 218 272 330 395
#     4  12  26  42  68 102 132 174 222 272 338 396
#     4  11  24  42  67  96 130 173 220 269 325 395
#     4  10  24  42  64  92 130 172 216 270 324 392
#
# _framework density 20.300732
#
# number of rings (size 3 to 8) (size 9 to 14) (size 15 to 20)
#    0.000    0.667    6.667    1.500    0.000    2.667 
#    6.000    0.833    0.000    0.000    0.000    0.000 
#    0.000    0.000    0.000    0.000    0.000    0.000 
#
# Total GULP energy -297600.748697 kJ/mol
# GULP energy per Si atom -12400.031196 kJ/mol
# Density = 2.025453 g / cm^3
# Si number density = 20.300732 Si / 1000 Ang^3
#
#
#
# Elastic Constant Matrix: (Units=GPa)
#
#
# Indices 1 2 3 4 5 6 
#
# 1 111.1639 48.7689 49.4070 0.0000 0.0000 0.0000
# 2 48.7689 119.9678 38.2972 0.0000 0.0000 0.0000
# 3 49.4070 38.2972 82.7346 0.0000 0.0000 0.0000
# 4 0.0000 0.0000 0.0000 36.9177 0.0000 0.0000
# 5 0.0000 0.0000 0.0000 0.0000 41.1780 0.0000
# 6 0.0000 0.0000 0.0000 0.0000 0.0000 32.8892
#
#
#
# Elastic Compliance Matrix: (Units=1/GPa)
#
#
# Indices 1 2 3 4 5 6 
#
# 1 0.013316 -0.003373 -0.006390 0.000000 0.000000 0.000000
# 2 -0.003373 0.010635 -0.002909 0.000000 0.000000 0.000000
# 3 -0.006390 -0.002909 0.017250 0.000000 0.000000 0.000000
# 4 0.000000 0.000000 0.000000 0.027087 0.000000 0.000000
# 5 0.000000 0.000000 0.000000 0.000000 0.024285 0.000000
# 6 0.000000 0.000000 0.000000 0.000000 0.000000 0.030405
#
#
# Mechanical properties :
#
#
# Convention : Reuss Voigt Hill
#
# Bulk Modulus (GPa) = 63.06722 65.20141 64.13431
# Shear Modulus (GPa) = 32.55046 34.02320 33.28683
#
# Velocity S-wave (km/s) = 4.00861 4.09829 4.05370
# Velocity P-wave (km/s) = 7.24977 7.38797 7.31920
#
# Compressibility (1/GPa) = 0.01585610
#
# Stress axis : x y z
#
# Youngs Moduli (GPa) = 75.09878 94.02639 57.97268
#
# Poissons Ratio (x) = 0.31716 0.37047
# Poissons Ratio (y) = 0.25331 0.16863
# Poissons Ratio (z) = 0.47992 0.27350
#
# Static dielectric constant tensor:
#      x y z
#    x 3.679430 0.000000 0.000000 
#    y 0.000000 3.697680 0.000000 
#    z 0.000000 0.000000 3.794290 
# 
# 
# High freq. dielectric constant tensor:
#      x y z
#    x 1.798760 0.000000 0.000000 
#    y 0.000000 1.805570 0.000000 
#    z 0.000000 0.000000 1.800270 
# 
# From -- ./inp_files/2070.got.cif
#   From: 2010.03.12/outbox.cif.g09.slc.cpg/sg20_2_cif.got.tgz:2070.got - 2010.04.14 01:38:04.
