data_PCOD8160278
_publ_section_title
;
Structure prediction by ZEFSAII (Michael W. Deem and Ramdas Pophale) SiO2 
 PCOD8160278
Probable space group: C 2 2 21
;
_chemical_formula_sum "Si O2"
_cell_formula_units_Z 40
_cell_length_a 14.252022
_cell_length_b 14.965454
_cell_length_c 10.032248
_cell_angle_alpha 90.000000
_cell_angle_beta 90.000000
_cell_angle_gamma 90.000000
_cell_volume 2139.757907
_symmetry_space_group_name_H-M "C 2 2 21"
_symmetry_group_IT_number 20
_symmetry_cell_setting 'orthorhombic'
loop_
_space_group_symop_operation_xyz
x,y,z
-x,-y,1/2+z
x,-y,-z
-x,y,1/2-z
1/2+x,1/2+y,z
1/2-x,1/2-y,1/2+z
1/2+x,1/2-y,-z
1/2-x,1/2+y,1/2-z
loop_
_atom_site_type_symbol
_atom_site_label
_atom_site_fract_x
_atom_site_fract_y
_atom_site_fract_z
Si Si1 0.138895 0.095376 0.054544
Si Si2 0.968521 0.336566 0.055028
Si Si3 0.338742 0.880897 0.834728
Si Si4 0.000000 0.512114 0.750000
Si Si5 0.000000 0.189711 0.250000
Si Si6 0.914544 0.763987 0.342867
O O1 0.233527 0.086214 0.141230
O O2 0.063263 0.126879 0.160753
O O3 0.140937 0.160075 0.924959
O O4 0.108034 0.000000 0.000000
O O5 0.013213 0.423962 0.122888
O O6 0.940883 0.256220 0.154938
O O7 0.872528 0.363285 0.984718
O O8 0.044283 0.307410 0.946069
O O9 0.340197 0.788983 0.749546
O O10 0.405687 0.953378 0.763041
O O11 0.000000 0.802330 0.250000
#
# Coordination Sequence:
#
# PCOD8160278 Si02
#       6
#     8   8   8   4   4   8
#     4  11  24  39  62  85 115 155 207 242 284 341
#     4   9  18  36  60  86 118 155 181 232 302 353
#     4  11  21  35  60  93 117 149 191 236 302 353
#     4  11  18  32  63  88 130 140 181 244 296 361
#     4   9  22  40  59  80 114 162 195 236 286 335
#     4   9  20  40  61  82 118 158 189 237 297 345
#
# _framework density 18.693702999999999
#
# number of rings (size 3 to 8) (size 9 to 14) (size 15 to 20)
#    0.000    2.000    3.000    1.800    4.200    0.000 
#    3.600    0.000    4.400    0.000    0.000    0.000 
#    0.000    0.000    0.000    0.000    0.000    0.000 
#
# Total GULP energy -247874.399524 kJ/mol
# GULP energy per Si atom -12393.719976 kJ/mol
# Density = 1.865116 g / cm^3
# Si number density = 18.693703 Si / 1000 Ang^3
#
#
#
# Elastic Constant Matrix: (Units=GPa)
#
#
# Indices 1 2 3 4 5 6 
#
# 1 71.6947 59.6069 37.9848 0.0000 0.0000 0.0000
# 2 59.6069 120.0755 63.1989 0.0000 0.0000 0.0000
# 3 37.9848 63.1989 114.9671 0.0000 0.0000 0.0000
# 4 0.0000 0.0000 0.0000 36.1162 0.0000 0.0000
# 5 0.0000 0.0000 0.0000 0.0000 29.9134 0.0000
# 6 0.0000 0.0000 0.0000 0.0000 0.0000 15.5345
#
#
#
# Elastic Compliance Matrix: (Units=1/GPa)
#
#
# Indices 1 2 3 4 5 6 
#
# 1 0.024056 -0.010917 -0.001947 0.000000 0.000000 0.000000
# 2 -0.010917 0.016673 -0.005558 0.000000 0.000000 0.000000
# 3 -0.001947 -0.005558 0.012397 0.000000 0.000000 0.000000
# 4 0.000000 0.000000 0.000000 0.027688 0.000000 0.000000
# 5 0.000000 0.000000 0.000000 0.000000 0.033430 0.000000
# 6 0.000000 0.000000 0.000000 0.000000 0.000000 0.064373
#
#
# Mechanical properties :
#
#
# Convention : Reuss Voigt Hill
#
# Bulk Modulus (GPa) = 61.41992 69.81316 65.61654
# Shear Modulus (GPa) = 22.63591 26.04260 24.33925
#
# Velocity S-wave (km/s) = 3.48355 3.73650 3.61224
# Velocity P-wave (km/s) = 7.00767 7.48613 7.25085
#
# Compressibility (1/GPa) = 0.01628136
#
# Stress axis : x y z
#
# Youngs Moduli (GPa) = 41.56997 59.97743 80.66555
#
# Poissons Ratio (x) = 0.65477 0.15704
# Poissons Ratio (y) = 0.45382 0.44837
# Poissons Ratio (z) = 0.08093 0.33338
#
# Static dielectric constant tensor:
#      x y z
#    x 3.113930 0.000000 0.000000 
#    y 0.000000 3.529620 0.000000 
#    z 0.000000 0.000000 3.865980 
# 
# 
# High freq. dielectric constant tensor:
#      x y z
#    x 1.692970 0.000000 0.000000 
#    y 0.000000 1.729860 0.000000 
#    z 0.000000 0.000000 1.747720 
# 
# From -- ./inp_files/14946.got.cif
#   From: 2010.03.12/outbox.cif.g09.slc.cpg/sg20_8_cif.got.tgz:14946.got - 2010.04.14 01:38:04.
