data_PCOD8160467
_publ_section_title
;
Structure prediction by ZEFSAII (Michael W. Deem and Ramdas Pophale) SiO2 
 PCOD8160467
Probable space group: C 2 2 21
;
_chemical_formula_sum "Si O2"
_cell_formula_units_Z 40
_cell_length_a 11.171925
_cell_length_b 8.526292
_cell_length_c 18.209691
_cell_angle_alpha 90.000000
_cell_angle_beta 90.000000
_cell_angle_gamma 90.000000
_cell_volume 1734.565842
_symmetry_space_group_name_H-M "C 2 2 21"
_symmetry_group_IT_number 20
_symmetry_cell_setting 'orthorhombic'
loop_
_space_group_symop_operation_xyz
x,y,z
-x,-y,1/2+z
x,-y,-z
-x,y,1/2-z
1/2+x,1/2+y,z
1/2-x,1/2-y,1/2+z
1/2+x,1/2-y,-z
1/2-x,1/2+y,1/2-z
loop_
_atom_site_type_symbol
_atom_site_label
_atom_site_fract_x
_atom_site_fract_y
_atom_site_fract_z
Si Si1 0.765417 0.345634 0.186892
Si Si2 0.119682 0.556033 0.203746
Si Si3 0.826769 0.073024 0.424564
Si Si4 0.748474 0.917327 0.078406
Si Si5 0.447955 0.571959 0.173379
O O1 0.771321 0.472031 0.252480
O O2 0.645600 0.241529 0.198461
O O3 0.758925 0.441883 0.111447
O O4 0.881362 0.236177 0.187252
O O5 0.128770 0.481014 0.121713
O O6 0.000000 0.524028 0.250000
O O7 0.752239 0.232094 0.435636
O O8 0.938548 0.115486 0.375035
O O9 0.873191 0.000000 0.500000
O O10 0.865053 0.952056 0.128092
O O11 0.756613 0.000000 0.000000
O O12 0.500000 0.501993 0.250000
#
# Coordination Sequence:
#
# PCOD8160467 Si02
#       5
#     8   8   8   8   8
#     4  11  24  41  65  98 132 169 222 280 329 398
#     4  11  23  42  67  95 129 172 220 269 328 393
#     4  12  25  43  67  97 136 180 223 276 344 406
#     4  11  24  47  71  99 141 180 226 285 339 401
#     4  11  24  45  71  99 132 175 227 282 339 404
#
# _framework density 23.060527
#
# number of rings (size 3 to 8) (size 9 to 14) (size 15 to 20)
#    0.000    0.800    0.000    9.600    0.000    5.600 
#    0.000   13.000    0.000    0.000    0.000    0.000 
#    0.000    0.000    0.000    0.000    0.000    0.000 
#
# Total GULP energy -247972.019613 kJ/mol
# GULP energy per Si atom -12398.600981 kJ/mol
# Density = 2.300804 g / cm^3
# Si number density = 23.060527 Si / 1000 Ang^3
#
#
#
# Elastic Constant Matrix: (Units=GPa)
#
#
# Indices 1 2 3 4 5 6 
#
# 1 91.5311 32.6620 55.3680 0.0000 0.0000 0.0000
# 2 32.6620 152.5769 55.8348 0.0000 0.0000 0.0000
# 3 55.3680 55.8348 178.1975 0.0000 0.0000 0.0000
# 4 0.0000 0.0000 0.0000 42.5885 0.0000 0.0000
# 5 0.0000 0.0000 0.0000 0.0000 38.2226 0.0000
# 6 0.0000 0.0000 0.0000 0.0000 0.0000 -0.5146
#
#
#
# Elastic Compliance Matrix: (Units=1/GPa)
#
#
# Indices 1 2 3 4 5 6 
#
# 1 0.013776 -0.001562 -0.003791 0.000000 0.000000 0.000000
# 2 -0.001562 0.007580 -0.001890 0.000000 0.000000 0.000000
# 3 -0.003791 -0.001890 0.007382 0.000000 0.000000 0.000000
# 4 0.000000 0.000000 0.000000 0.023480 0.000000 0.000000
# 5 0.000000 0.000000 0.000000 0.000000 0.026163 0.000000
# 6 0.000000 0.000000 0.000000 0.000000 0.000000 -1.943078
#
#
# Mechanical properties :
#
#
# Convention : Reuss Voigt Hill
#
# Bulk Modulus (GPa) = 70.16275 78.89278 74.52777
# Shear Modulus (GPa) = -2.70935 34.62202 15.95634
#
# Velocity S-wave (km/s) = -1.08510 3.87893 2.63332
# Velocity P-wave (km/s) = 5.37788 7.37204 6.45246
#
# Compressibility (1/GPa) = 0.01425258
#
# Stress axis : x y z
#
# Youngs Moduli (GPa) = 72.59161 131.92717 135.46878
#
# Poissons Ratio (x) = 0.20603 0.51356
# Poissons Ratio (y) = 0.11336 0.25601
# Poissons Ratio (z) = 0.27519 0.24932
#
# Static dielectric constant tensor:
#      x y z
#    x 4.027410 0.000000 0.000000 
#    y 0.000000 4.174220 0.000000 
#    z 0.000000 0.000000 4.417890 
# 
# 
# High freq. dielectric constant tensor:
#      x y z
#    x 1.900070 0.000000 0.000000 
#    y 0.000000 1.926950 0.000000 
#    z 0.000000 0.000000 1.922380 
# 
# From -- ./inp_files/24072.got.cif
#   From: 2010.03.12/outbox.cif.g09.slc.cpg/sg20_13_cif.got.tgz:24072.got - 2010.04.14 01:38:04.
