data_PCOD8160027
_publ_section_title
;
Structure prediction by ZEFSAII (Michael W. Deem and Ramdas Pophale) SiO2 
 PCOD8160027
Probable space group: C 2 2 21
;
_chemical_formula_sum "Si O2"
_cell_formula_units_Z 60
_cell_length_a 11.603130
_cell_length_b 18.620585
_cell_length_c 12.761817
_cell_angle_alpha 90.000000
_cell_angle_beta 90.000000
_cell_angle_gamma 90.000000
_cell_volume 2757.280769
_symmetry_space_group_name_H-M "C 2 2 21"
_symmetry_group_IT_number 20
_symmetry_cell_setting 'orthorhombic'
loop_
_space_group_symop_operation_xyz
x,y,z
-x,-y,1/2+z
x,-y,-z
-x,y,1/2-z
1/2+x,1/2+y,z
1/2-x,1/2-y,1/2+z
1/2+x,1/2-y,-z
1/2-x,1/2+y,1/2-z
loop_
_atom_site_type_symbol
_atom_site_label
_atom_site_fract_x
_atom_site_fract_y
_atom_site_fract_z
Si Si1 0.317062 0.664215 0.375288
Si Si2 0.372600 0.084063 0.997311
Si Si3 0.208815 0.055901 0.292912
Si Si4 0.477325 0.639872 0.562761
Si Si5 0.773272 0.094686 0.695857
Si Si6 0.131012 0.579892 0.044979
Si Si7 0.914753 0.000000 0.000000
Si Si8 0.771063 0.821400 0.102446
O O1 0.210378 0.618656 0.417871
O O2 0.348481 0.625372 0.264602
O O3 0.426423 0.664658 0.451818
O O4 0.279606 0.745865 0.362076
O O5 0.502157 0.107310 0.023393
O O6 0.334337 0.108529 0.881307
O O7 0.356268 0.000000 0.000000
O O8 0.340631 0.075117 0.329465
O O9 0.198931 0.989748 0.212011
O O10 0.154775 0.041082 0.408398
O O11 0.382042 0.641758 0.654762
O O12 0.506745 0.556134 0.559955
O O13 0.590513 0.686809 0.588017
O O14 0.736819 0.123170 0.807772
O O15 0.151795 0.500000 0.000000
O O16 0.213819 0.642622 0.999009
#
# Coordination Sequence:
#
# PCOD8160027 Si02
#       8
#     8   8   8   8   8   8   4   8
#     4  11  28  43  68 105 143 178 235 292 362 432
#     4  10  23  44  69  98 132 181 225 287 343 414
#     4  12  21  44  68 109 132 177 238 294 353 415
#     4  11  24  44  71  99 138 186 230 297 365 413
#     4  11  22  43  71  98 132 177 241 281 343 429
#     4  11  22  44  70  95 138 180 233 284 347 426
#     4  12  22  42  74 102 134 174 236 304 342 422
#     4  12  25  46  66 102 141 186 226 288 360 423
#
# _framework density 21.760567999999999
#
# number of rings (size 3 to 8) (size 9 to 14) (size 15 to 20)
#    0.000    0.800    6.000    1.200    3.733    4.800 
#    2.400    1.333    0.000    0.000    0.000    0.000 
#    0.000    0.000    0.000    0.000    0.000    0.000 
#
# Total GULP energy -371831.306661 kJ/mol
# GULP energy per Si atom -12394.376889 kJ/mol
# Density = 2.171104 g / cm^3
# Si number density = 21.760568 Si / 1000 Ang^3
#
#
#
# Elastic Constant Matrix: (Units=GPa)
#
#
# Indices 1 2 3 4 5 6 
#
# 1 103.9763 21.0809 32.1016 0.0000 0.0000 0.0000
# 2 21.0809 103.3074 16.9418 0.0000 0.0000 0.0000
# 3 32.1016 16.9418 92.1925 0.0000 0.0000 0.0000
# 4 0.0000 0.0000 0.0000 28.1173 0.0000 0.0000
# 5 0.0000 0.0000 0.0000 0.0000 23.0069 0.0000
# 6 0.0000 0.0000 0.0000 0.0000 0.0000 73.1057
#
#
#
# Elastic Compliance Matrix: (Units=1/GPa)
#
#
# Indices 1 2 3 4 5 6 
#
# 1 0.011050 -0.001674 -0.003540 0.000000 0.000000 0.000000
# 2 -0.001674 0.010234 -0.001298 0.000000 0.000000 0.000000
# 3 -0.003540 -0.001298 0.012318 0.000000 0.000000 0.000000
# 4 0.000000 0.000000 0.000000 0.035565 0.000000 0.000000
# 5 0.000000 0.000000 0.000000 0.000000 0.043465 0.000000
# 6 0.000000 0.000000 0.000000 0.000000 0.000000 0.013679
#
#
# Mechanical properties :
#
#
# Convention : Reuss Voigt Hill
#
# Bulk Modulus (GPa) = 48.59486 48.85829 48.72657
# Shear Modulus (GPa) = 34.20091 40.13611 37.16851
#
# Velocity S-wave (km/s) = 3.96876 4.29936 4.13736
# Velocity P-wave (km/s) = 6.58646 6.86639 6.72788
#
# Compressibility (1/GPa) = 0.02057831
#
# Stress axis : x y z
#
# Youngs Moduli (GPa) = 90.49809 97.71038 81.18229
#
# Poissons Ratio (x) = 0.16360 0.28738
# Poissons Ratio (y) = 0.15152 0.10535
# Poissons Ratio (z) = 0.32036 0.12680
#
# Static dielectric constant tensor:
#      x y z
#    x 4.147080 0.000000 0.000000 
#    y 0.000000 4.120410 0.000000 
#    z 0.000000 0.000000 3.929090 
# 
# 
# High freq. dielectric constant tensor:
#      x y z
#    x 1.854080 0.000000 0.000000 
#    y 0.000000 1.840820 0.000000 
#    z 0.000000 0.000000 1.861300 
# 
# From -- ./inp_files/14385.got.cif
#   From: 2010.03.12/outbox.cif.g09.slc.cpg/sg20_8_cif.got.tgz:14385.got - 2010.04.14 01:38:04.
