data_PCOD8160729
_publ_section_title
;
Structure prediction by ZEFSAII (Michael W. Deem and Ramdas Pophale) SiO2 
 PCOD8160729
Probable space group: C 2 2 21
;
_chemical_formula_sum "Si O2"
_cell_formula_units_Z 32
_cell_length_a 5.011453
_cell_length_b 29.451808
_cell_length_c 8.543560
_cell_angle_alpha 90.000000
_cell_angle_beta 90.000000
_cell_angle_gamma 90.000000
_cell_volume 1260.998285
_symmetry_space_group_name_H-M "C 2 2 21"
_symmetry_group_IT_number 20
_symmetry_cell_setting 'orthorhombic'
loop_
_space_group_symop_operation_xyz
x,y,z
-x,-y,1/2+z
x,-y,-z
-x,y,1/2-z
1/2+x,1/2+y,z
1/2-x,1/2-y,1/2+z
1/2+x,1/2-y,-z
1/2-x,1/2+y,1/2-z
loop_
_atom_site_type_symbol
_atom_site_label
_atom_site_fract_x
_atom_site_fract_y
_atom_site_fract_z
Si Si1 0.746005 0.412398 0.146264
Si Si2 0.909836 0.727724 0.568963
Si Si3 0.422741 0.863343 0.575212
Si Si4 0.401552 0.542495 0.077673
O O1 0.500000 0.394938 0.250000
O O2 0.000000 0.427041 0.250000
O O3 0.657392 0.454481 0.037923
O O4 0.813151 0.371280 0.028599
O O5 0.168220 0.737259 0.459474
O O6 0.000000 0.727591 0.750000
O O7 0.784791 0.679486 0.509740
O O8 0.500000 0.850298 0.750000
O O9 0.253877 0.909910 0.572878
O O10 0.500000 0.530617 0.250000
O O11 0.236838 0.500000 0.000000
#
# Coordination Sequence:
#
# PCOD8160729 Si02
#       4
#     8   8   8   8
#     4  12  26  48  78 114 153 207 264 328 394 469
#     4  12  29  53  86 123 162 209 264 331 402 483
#     4  12  27  51  84 117 164 211 271 330 405 476
#     4  12  28  52  80 119 161 216 275 336 397 475
#
# _framework density 25.376719000000001
#
# number of rings (size 3 to 8) (size 9 to 14) (size 15 to 20)
#    0.000    0.000    5.000    3.750    3.500    2.000 
#    4.500    0.000    0.000    0.000    0.000    0.000 
#    0.000    0.000    0.000    0.000    0.000    0.000 
#
# Total GULP energy -198265.612383 kJ/mol
# GULP energy per Si atom -12391.600774 kJ/mol
# Density = 2.531896 g / cm^3
# Si number density = 25.376719 Si / 1000 Ang^3
#
#
#
# Elastic Constant Matrix: (Units=GPa)
#
#
# Indices 1 2 3 4 5 6 
#
# 1 118.7874 29.5477 52.6523 0.0000 0.0000 0.0000
# 2 29.5477 148.7474 58.3511 0.0000 0.0000 0.0000
# 3 52.6523 58.3511 208.7218 0.0000 0.0000 0.0000
# 4 0.0000 0.0000 0.0000 45.8679 0.0000 0.0000
# 5 0.0000 0.0000 0.0000 0.0000 24.8513 0.0000
# 6 0.0000 0.0000 0.0000 0.0000 0.0000 36.8675
#
#
#
# Elastic Compliance Matrix: (Units=1/GPa)
#
#
# Indices 1 2 3 4 5 6 
#
# 1 0.009630 -0.001078 -0.002128 0.000000 0.000000 0.000000
# 2 -0.001078 0.007672 -0.001873 0.000000 0.000000 0.000000
# 3 -0.002128 -0.001873 0.005851 0.000000 0.000000 0.000000
# 4 0.000000 0.000000 0.000000 0.021802 0.000000 0.000000
# 5 0.000000 0.000000 0.000000 0.000000 0.040239 0.000000
# 6 0.000000 0.000000 0.000000 0.000000 0.000000 0.027124
#
#
# Mechanical properties :
#
#
# Convention : Reuss Voigt Hill
#
# Bulk Modulus (GPa) = 76.95070 84.15096 80.55083
# Shear Modulus (GPa) = 39.42995 43.89770 41.66383
#
# Velocity S-wave (km/s) = 3.94608 4.16365 4.05632
# Velocity P-wave (km/s) = 7.15201 7.50648 7.33139
#
# Compressibility (1/GPa) = 0.01299533
#
# Stress axis : x y z
#
# Youngs Moduli (GPa) = 103.84506 130.35059 170.90023
#
# Poissons Ratio (x) = 0.14054 0.36364
# Poissons Ratio (y) = 0.11196 0.32005
# Poissons Ratio (z) = 0.22096 0.24411
#
# Static dielectric constant tensor:
#      x y z
#    x 5.293070 0.000000 0.000000 
#    y 0.000000 4.684850 0.000000 
#    z 0.000000 0.000000 5.478980 
# 
# 
# High freq. dielectric constant tensor:
#      x y z
#    x 1.997720 0.000000 0.000000 
#    y 0.000000 2.017700 0.000000 
#    z 0.000000 0.000000 2.047960 
# 
# From -- ./inp_files/5235.got.cif
#   From: 2010.03.12/outbox.cif.g09.slc.cpg/sg20_3_cif.got.tgz:5235.got - 2010.04.14 01:38:04.
