data_PCOD8160311
_publ_section_title
;
Structure prediction by ZEFSAII (Michael W. Deem and Ramdas Pophale) SiO2 
 PCOD8160311
Probable space group: C 2 2 21
;
_chemical_formula_sum "Si O2"
_cell_formula_units_Z 56
_cell_length_a 11.871636
_cell_length_b 14.924838
_cell_length_c 14.425020
_cell_angle_alpha 90.000000
_cell_angle_beta 90.000000
_cell_angle_gamma 90.000000
_cell_volume 2555.857415
_symmetry_space_group_name_H-M "C 2 2 21"
_symmetry_group_IT_number 20
_symmetry_cell_setting 'orthorhombic'
loop_
_space_group_symop_operation_xyz
x,y,z
-x,-y,1/2+z
x,-y,-z
-x,y,1/2-z
1/2+x,1/2+y,z
1/2-x,1/2-y,1/2+z
1/2+x,1/2-y,-z
1/2-x,1/2+y,1/2-z
loop_
_atom_site_type_symbol
_atom_site_label
_atom_site_fract_x
_atom_site_fract_y
_atom_site_fract_z
Si Si1 0.541501 0.499809 0.853700
Si Si2 0.755653 0.235988 0.438216
Si Si3 0.011084 0.801975 0.859379
Si Si4 0.284133 0.785441 0.136905
Si Si5 0.131250 0.658272 0.268055
Si Si6 0.664767 0.572372 0.572834
Si Si7 0.767155 0.467104 0.229262
O O1 0.500000 0.507623 0.750000
O O2 0.515318 0.402948 0.897360
O O3 0.472391 0.571028 0.916250
O O4 0.675280 0.514336 0.851837
O O5 0.774657 0.188593 0.538696
O O6 0.667459 0.184456 0.372134
O O7 0.706363 0.332839 0.461042
O O8 0.875590 0.249059 0.388335
O O9 0.900453 0.756646 0.899774
O O10 0.000000 0.802259 0.750000
O O11 0.207458 0.715629 0.195896
O O12 0.319984 0.872340 0.197493
O O13 0.147668 0.550783 0.261520
O O14 0.000000 0.681070 0.250000
O O15 0.709424 0.500000 0.500000
O O16 0.713824 0.544901 0.671321
#
# Coordination Sequence:
#
# PCOD8160311 Si02
#       7
#     8   8   8   8   8   8   8
#     4   9  19  36  67  94 132 177 229 286 342 414
#     4  12  26  44  71 108 143 183 247 299 367 429
#     4  11  20  45  70  95 141 188 235 296 354 439
#     4  12  27  45  73 104 142 194 237 296 371 431
#     4  12  27  49  71 104 149 187 241 305 365 429
#     4  11  22  39  69 104 138 183 247 294 353 425
#     4  11  23  45  67  99 141 189 234 294 364 424
#
# _framework density 21.910456
#
# number of rings (size 3 to 8) (size 9 to 14) (size 15 to 20)
#    0.000    0.857    4.286    3.429    4.000    3.429 
#    0.000    0.000    0.000    0.000    0.000    0.000 
#    0.000    0.000    0.000    0.000    0.000    0.000 
#
# Total GULP energy -347027.536556 kJ/mol
# GULP energy per Si atom -12393.840591 kJ/mol
# Density = 2.186059 g / cm^3
# Si number density = 21.910456 Si / 1000 Ang^3
#
#
#
# Elastic Constant Matrix: (Units=GPa)
#
#
# Indices 1 2 3 4 5 6 
#
# 1 124.4378 40.9089 26.3551 0.0000 0.0000 0.0000
# 2 40.9089 107.8353 34.7905 0.0000 0.0000 0.0000
# 3 26.3551 34.7905 120.5740 0.0000 0.0000 0.0000
# 4 0.0000 0.0000 0.0000 18.1718 0.0000 0.0000
# 5 0.0000 0.0000 0.0000 0.0000 16.1122 0.0000
# 6 0.0000 0.0000 0.0000 0.0000 0.0000 28.5154
#
#
#
# Elastic Compliance Matrix: (Units=1/GPa)
#
#
# Indices 1 2 3 4 5 6 
#
# 1 0.009317 -0.003173 -0.001121 0.000000 0.000000 0.000000
# 2 -0.003173 0.011306 -0.002569 0.000000 0.000000 0.000000
# 3 -0.001121 -0.002569 0.009280 0.000000 0.000000 0.000000
# 4 0.000000 0.000000 0.000000 0.055030 0.000000 0.000000
# 5 0.000000 0.000000 0.000000 0.000000 0.062065 0.000000
# 6 0.000000 0.000000 0.000000 0.000000 0.000000 0.035069
#
#
# Mechanical properties :
#
#
# Convention : Reuss Voigt Hill
#
# Bulk Modulus (GPa) = 61.81442 61.88401 61.84922
# Shear Modulus (GPa) = 24.85297 29.27938 27.06618
#
# Velocity S-wave (km/s) = 3.37159 3.65954 3.51851
# Velocity P-wave (km/s) = 6.59017 6.79424 6.69298
#
# Compressibility (1/GPa) = 0.01617745
#
# Stress axis : x y z
#
# Youngs Moduli (GPa) = 107.33539 88.45054 107.76033
#
# Poissons Ratio (x) = 0.28063 0.12079
# Poissons Ratio (y) = 0.34055 0.27680
# Poissons Ratio (z) = 0.12032 0.22720
#
# Static dielectric constant tensor:
#      x y z
#    x 4.326070 0.000000 0.000000 
#    y 0.000000 4.137820 0.000000 
#    z 0.000000 0.000000 4.255720 
# 
# 
# High freq. dielectric constant tensor:
#      x y z
#    x 1.850880 0.000000 0.000000 
#    y 0.000000 1.860470 0.000000 
#    z 0.000000 0.000000 1.877610 
# 
# From -- ./inp_files/20026.got.cif
#   From: 2010.03.12/outbox.cif.g09.slc.cpg/sg20_11_cif.got.tgz:20026.got - 2010.04.14 01:38:04.
