data_PCOD8160043
_publ_section_title
;
Structure prediction by ZEFSAII (Michael W. Deem and Ramdas Pophale) SiO2 
 PCOD8160043
Probable space group: C 2 2 21
;
_chemical_formula_sum "Si O2"
_cell_formula_units_Z 64
_cell_length_a 8.196901
_cell_length_b 12.021801
_cell_length_c 28.098003
_cell_angle_alpha 90.000000
_cell_angle_beta 90.000000
_cell_angle_gamma 90.000000
_cell_volume 2768.819718
_symmetry_space_group_name_H-M "C 2 2 21"
_symmetry_group_IT_number 20
_symmetry_cell_setting 'orthorhombic'
loop_
_space_group_symop_operation_xyz
x,y,z
-x,-y,1/2+z
x,-y,-z
-x,y,1/2-z
1/2+x,1/2+y,z
1/2-x,1/2-y,1/2+z
1/2+x,1/2-y,-z
1/2-x,1/2+y,1/2-z
loop_
_atom_site_type_symbol
_atom_site_label
_atom_site_fract_x
_atom_site_fract_y
_atom_site_fract_z
Si Si1 0.544010 0.675881 0.696037
Si Si2 0.714616 0.503874 0.946733
Si Si3 0.017884 0.935324 0.694210
Si Si4 0.165344 0.351377 0.858298
Si Si5 0.794109 0.240483 0.448337
Si Si6 0.083232 0.769655 0.052278
Si Si7 0.984699 0.581949 0.613535
Si Si8 0.085795 0.289123 0.198814
O O1 0.500000 0.696727 0.750000
O O2 0.481803 0.557804 0.672294
O O3 0.477645 0.780892 0.667363
O O4 0.737687 0.656879 0.695513
O O5 0.641351 0.382940 0.932618
O O6 0.571819 0.595931 0.944817
O O7 0.852942 0.551335 0.913140
O O8 0.788876 0.500000 0.000000
O O9 0.886105 0.839782 0.682254
O O10 0.000000 0.958216 0.750000
O O11 0.185331 0.873147 0.677724
O O12 0.202296 0.282063 0.906805
O O13 0.108991 0.470612 0.875006
O O14 0.839261 0.269532 0.502490
O O15 0.600111 0.226987 0.442104
O O16 0.866658 0.335490 0.415415
O O17 0.032091 0.644182 0.662698
O O18 0.000000 0.296500 0.250000
#
# Coordination Sequence:
#
# PCOD8160043 Si02
#       8
#     8   8   8   8   8   8   8   8
#     4  11  24  46  69  93 136 176 222 288 338 400
#     4  10  23  45  67 101 135 179 225 275 341 405
#     4  10  23  45  67  99 135 174 231 285 341 408
#     4  12  25  45  69 104 134 185 229 277 350 411
#     4  11  24  47  67 102 142 179 227 285 341 409
#     4  11  24  45  73  99 142 182 226 284 346 410
#     4  12  25  44  72  98 141 183 222 285 342 411
#     4  11  24  46  67 100 133 173 229 280 338 405
#
# _framework density 23.114542
#
# number of rings (size 3 to 8) (size 9 to 14) (size 15 to 20)
#    0.000    1.000    2.500    4.500    0.000    1.500 
#   18.000    0.000    0.000    0.000    0.000    0.000 
#    0.000    0.000    0.000    0.000    0.000    0.000 
#
# Total GULP energy -396516.709038 kJ/mol
# GULP energy per Si atom -12391.147157 kJ/mol
# Density = 2.306193 g / cm^3
# Si number density = 23.114542 Si / 1000 Ang^3
#
#
#
# Elastic Constant Matrix: (Units=GPa)
#
#
# Indices 1 2 3 4 5 6 
#
# 1 35.6550 16.3520 29.4688 0.0000 0.0000 0.0000
# 2 16.3520 186.0069 71.7339 0.0000 0.0000 0.0000
# 3 29.4688 71.7339 123.5598 0.0000 0.0000 0.0000
# 4 0.0000 0.0000 0.0000 37.7959 0.0000 0.0000
# 5 0.0000 0.0000 0.0000 0.0000 25.9801 0.0000
# 6 0.0000 0.0000 0.0000 0.0000 0.0000 29.3109
#
#
#
# Elastic Compliance Matrix: (Units=1/GPa)
#
#
# Indices 1 2 3 4 5 6 
#
# 1 0.034937 0.000183 -0.008439 0.000000 0.000000 0.000000
# 2 0.000183 0.006928 -0.004066 0.000000 0.000000 0.000000
# 3 -0.008439 -0.004066 0.012466 0.000000 0.000000 0.000000
# 4 0.000000 0.000000 0.000000 0.026458 0.000000 0.000000
# 5 0.000000 0.000000 0.000000 0.000000 0.038491 0.000000
# 6 0.000000 0.000000 0.000000 0.000000 0.000000 0.034117
#
#
# Mechanical properties :
#
#
# Convention : Reuss Voigt Hill
#
# Bulk Modulus (GPa) = 33.68296 64.48122 49.08209
# Shear Modulus (GPa) = 26.60473 33.79520 30.19996
#
# Velocity S-wave (km/s) = 3.39631 3.82786 3.61852
# Velocity P-wave (km/s) = 5.47574 6.89156 6.22404
#
# Compressibility (1/GPa) = 0.02968860
#
# Stress axis : x y z
#
# Youngs Moduli (GPa) = 28.62280 144.34106 80.21618
#
# Poissons Ratio (x) = -0.02642 0.67692
# Poissons Ratio (y) = -0.00524 0.32614
# Poissons Ratio (z) = 0.24154 0.58686
#
# Static dielectric constant tensor:
#      x y z
#    x 3.988020 0.000000 0.000000 
#    y 0.000000 4.795750 0.000000 
#    z 0.000000 0.000000 4.508920 
# 
# 
# High freq. dielectric constant tensor:
#      x y z
#    x 1.887160 0.000000 0.000000 
#    y 0.000000 1.945630 0.000000 
#    z 0.000000 0.000000 1.928380 
# 
# From -- ./inp_files/31073.got.cif
#   From: 2010.03.12/outbox.cif.g09.slc.cpg/sg20_16_cif.got.tgz:31073.got - 2010.04.14 01:38:04.
