data_PCOD8160262
_publ_section_title
;
Structure prediction by ZEFSAII (Michael W. Deem and Ramdas Pophale) SiO2 
 PCOD8160262
Probable space group: C 2 2 21
;
_chemical_formula_sum "Si O2"
_cell_formula_units_Z 32
_cell_length_a 11.548919
_cell_length_b 8.620675
_cell_length_c 12.163696
_cell_angle_alpha 90.000000
_cell_angle_beta 90.000000
_cell_angle_gamma 90.000000
_cell_volume 1211.011216
_symmetry_space_group_name_H-M "C 2 2 21"
_symmetry_group_IT_number 20
_symmetry_cell_setting 'orthorhombic'
loop_
_space_group_symop_operation_xyz
x,y,z
-x,-y,1/2+z
x,-y,-z
-x,y,1/2-z
1/2+x,1/2+y,z
1/2-x,1/2-y,1/2+z
1/2+x,1/2-y,-z
1/2-x,1/2+y,1/2-z
loop_
_atom_site_type_symbol
_atom_site_label
_atom_site_fract_x
_atom_site_fract_y
_atom_site_fract_z
Si Si1 0.454584 0.111410 0.362861
Si Si2 0.128998 0.688447 0.547084
Si Si3 0.135493 0.946363 0.115743
Si Si4 0.757349 0.500000 0.500000
Si Si5 0.500000 0.679554 0.250000
O O1 0.500000 0.038861 0.250000
O O2 0.557055 0.101290 0.452039
O O3 0.419700 0.288122 0.344010
O O4 0.342198 0.008697 0.394598
O O5 0.228030 0.574858 0.594479
O O6 0.041305 0.718825 0.647232
O O7 0.180189 0.845724 0.493665
O O8 0.108762 0.073927 0.209570
O O9 0.076971 0.000000 0.000000
#
# Coordination Sequence:
#
# PCOD8160262 Si02
#       5
#     8   8   8   4   4
#     4  11  24  49  73 104 148 189 243 305 359 435
#     4  11  26  47  73 108 147 190 246 289 375 432
#     4  11  24  45  74 104 147 194 238 296 361 431
#     4  10  26  48  66 108 146 186 242 300 352 434
#     4  12  24  48  74 108 150 190 234 308 354 440
#
# _framework density 26.424196999999999
#
# number of rings (size 3 to 8) (size 9 to 14) (size 15 to 20)
#    0.000    1.000    3.750    1.500    1.750    6.000 
#    2.250    0.000    0.000    0.000    0.000    0.000 
#    0.000    0.000    0.000    0.000    0.000    0.000 
#
# Total GULP energy -198422.476437 kJ/mol
# GULP energy per Si atom -12401.404777 kJ/mol
# Density = 2.636405 g / cm^3
# Si number density = 26.424197 Si / 1000 Ang^3
#
#
#
# Elastic Constant Matrix: (Units=GPa)
#
#
# Indices 1 2 3 4 5 6 
#
# 1 148.5972 44.0541 68.8670 0.0000 0.0000 0.0000
# 2 44.0541 68.6127 56.6714 0.0000 0.0000 0.0000
# 3 68.8670 56.6714 173.5733 0.0000 0.0000 0.0000
# 4 0.0000 0.0000 0.0000 25.4770 0.0000 0.0000
# 5 0.0000 0.0000 0.0000 0.0000 23.1774 0.0000
# 6 0.0000 0.0000 0.0000 0.0000 0.0000 44.6417
#
#
#
# Elastic Compliance Matrix: (Units=1/GPa)
#
#
# Indices 1 2 3 4 5 6 
#
# 1 0.008929 -0.003844 -0.002288 0.000000 0.000000 0.000000
# 2 -0.003844 0.021611 -0.005531 0.000000 0.000000 0.000000
# 3 -0.002288 -0.005531 0.008475 0.000000 0.000000 0.000000
# 4 0.000000 0.000000 0.000000 0.039251 0.000000 0.000000
# 5 0.000000 0.000000 0.000000 0.000000 0.043146 0.000000
# 6 0.000000 0.000000 0.000000 0.000000 0.000000 0.022401
#
#
# Mechanical properties :
#
#
# Convention : Reuss Voigt Hill
#
# Bulk Modulus (GPa) = 63.73408 81.10760 72.42084
# Shear Modulus (GPa) = 29.00790 33.40527 31.20659
#
# Velocity S-wave (km/s) = 3.31687 3.55941 3.44027
# Velocity P-wave (km/s) = 6.23224 6.90316 6.57626
#
# Compressibility (1/GPa) = 0.01569019
#
# Stress axis : x y z
#
# Youngs Moduli (GPa) = 111.98936 46.27342 117.99640
#
# Poissons Ratio (x) = 0.17786 0.26997
# Poissons Ratio (y) = 0.43044 0.65262
# Poissons Ratio (z) = 0.25622 0.25593
#
# Static dielectric constant tensor:
#      x y z
#    x 4.872750 0.000000 0.000000 
#    y 0.000000 5.050310 0.000000 
#    z 0.000000 0.000000 4.880470 
# 
# 
# High freq. dielectric constant tensor:
#      x y z
#    x 2.067270 0.000000 0.000000 
#    y 0.000000 2.092670 0.000000 
#    z 0.000000 0.000000 2.055460 
# 
# From -- ./inp_files/13606.got.cif
#   From: 2010.03.12/outbox.cif.g09.slc.cpg/sg20_7_cif.got.tgz:13606.got - 2010.04.14 01:38:04.
