data_PCOD8160386
_publ_section_title
;
Structure prediction by ZEFSAII (Michael W. Deem and Ramdas Pophale) SiO2 
 PCOD8160386
Probable space group: C 2 2 21
;
_chemical_formula_sum "Si O2"
_cell_formula_units_Z 56
_cell_length_a 13.711514
_cell_length_b 21.182843
_cell_length_c 9.297583
_cell_angle_alpha 90.000000
_cell_angle_beta 90.000000
_cell_angle_gamma 90.000000
_cell_volume 2700.472275
_symmetry_space_group_name_H-M "C 2 2 21"
_symmetry_group_IT_number 20
_symmetry_cell_setting 'orthorhombic'
loop_
_space_group_symop_operation_xyz
x,y,z
-x,-y,1/2+z
x,-y,-z
-x,y,1/2-z
1/2+x,1/2+y,z
1/2-x,1/2-y,1/2+z
1/2+x,1/2-y,-z
1/2-x,1/2+y,1/2-z
loop_
_atom_site_type_symbol
_atom_site_label
_atom_site_fract_x
_atom_site_fract_y
_atom_site_fract_z
Si Si1 0.246255 0.432819 0.221750
Si Si2 0.045243 0.943309 0.396908
Si Si3 0.377403 0.229569 0.015236
Si Si4 0.039424 0.818113 0.089369
Si Si5 0.697177 0.000000 0.500000
Si Si6 0.544273 0.904514 0.597866
Si Si7 0.763820 0.206366 0.720999
Si Si8 0.611288 0.000000 0.000000
O O1 0.344171 0.424438 0.132141
O O2 0.261196 0.460136 0.384652
O O3 0.213138 0.359392 0.228869
O O4 0.175171 0.480925 0.138326
O O5 0.000000 0.966740 0.250000
O O6 0.986299 0.886608 0.474726
O O7 0.038279 0.000000 0.500000
O O8 0.480389 0.265534 0.001956
O O9 0.408753 0.156663 0.024160
O O10 0.310087 0.252107 0.150254
O O11 0.319796 0.243767 0.866738
O O12 0.154598 0.806220 0.096691
O O13 0.000000 0.820790 0.250000
O O14 0.630854 0.044636 0.398856
O O15 0.500000 0.884042 0.750000
O O16 0.453463 0.937009 0.517193
#
# Coordination Sequence:
#
# PCOD8160386 Si02
#       8
#     8   8   8   8   4   8   8   4
#     4  12  22  43  65  96 137 171 225 278 335 409
#     4  11  22  40  66  93 126 175 216 276 338 394
#     4  11  23  43  68  93 128 178 227 271 340 404
#     4   9  19  42  62  86 129 167 217 263 325 397
#     4  11  24  40  63 100 136 170 221 274 338 407
#     4  11  22  41  64  96 135 176 217 275 341 405
#     4  11  23  43  69  93 126 180 220 278 333 405
#     4  11  26  40  67 100 136 176 223 276 340 415
#
# _framework density 20.737113999999998
#
# number of rings (size 3 to 8) (size 9 to 14) (size 15 to 20)
#    0.000    1.143    7.857    1.286    1.000    2.286 
#    2.571    2.143    0.000    0.000    0.000    0.000 
#    0.000    0.000    0.000    0.000    0.000    0.000 
#
# Total GULP energy -346895.736933 kJ/mol
# GULP energy per Si atom -12389.133462 kJ/mol
# Density = 2.068992 g / cm^3
# Si number density = 20.737114 Si / 1000 Ang^3
#
#
#
# Elastic Constant Matrix: (Units=GPa)
#
#
# Indices 1 2 3 4 5 6 
#
# 1 59.0722 27.8764 17.7747 0.0000 0.0000 0.0000
# 2 27.8764 134.5030 23.6697 0.0000 0.0000 0.0000
# 3 17.7747 23.6697 65.9784 0.0000 0.0000 0.0000
# 4 0.0000 0.0000 0.0000 34.9220 0.0000 0.0000
# 5 0.0000 0.0000 0.0000 0.0000 17.0526 0.0000
# 6 0.0000 0.0000 0.0000 0.0000 0.0000 51.0108
#
#
#
# Elastic Compliance Matrix: (Units=1/GPa)
#
#
# Indices 1 2 3 4 5 6 
#
# 1 0.019757 -0.003371 -0.004113 0.000000 0.000000 0.000000
# 2 -0.003371 0.008511 -0.002145 0.000000 0.000000 0.000000
# 3 -0.004113 -0.002145 0.017034 0.000000 0.000000 0.000000
# 4 0.000000 0.000000 0.000000 0.028635 0.000000 0.000000
# 5 0.000000 0.000000 0.000000 0.000000 0.058642 0.000000
# 6 0.000000 0.000000 0.000000 0.000000 0.000000 0.019604
#
#
# Mechanical properties :
#
#
# Convention : Reuss Voigt Hill
#
# Bulk Modulus (GPa) = 38.39744 44.24388 41.32066
# Shear Modulus (GPa) = 27.75888 33.27927 30.51908
#
# Velocity S-wave (km/s) = 3.66267 4.01036 3.84045
# Velocity P-wave (km/s) = 6.03683 6.54415 6.29560
#
# Compressibility (1/GPa) = 0.02604341
#
# Stress axis : x y z
#
# Youngs Moduli (GPa) = 50.61542 117.49626 58.70560
#
# Poissons Ratio (x) = 0.39606 0.24147
# Poissons Ratio (y) = 0.17062 0.12593
# Poissons Ratio (z) = 0.20819 0.25205
#
# Static dielectric constant tensor:
#      x y z
#    x 4.050100 0.000000 0.000000 
#    y 0.000000 4.293830 0.000000 
#    z 0.000000 0.000000 3.099010 
# 
# 
# High freq. dielectric constant tensor:
#      x y z
#    x 1.815480 0.000000 0.000000 
#    y 0.000000 1.820100 0.000000 
#    z 0.000000 0.000000 1.787360 
# 
# From -- ./inp_files/8771.got.cif
#   From: 2010.03.12/outbox.cif.g09.slc.cpg/sg20_5_cif.got.tgz:8771.got - 2010.04.14 01:38:04.
