data_PCOD8160884
_publ_section_title
;
Structure prediction by ZEFSAII (Michael W. Deem and Ramdas Pophale) SiO2 
 PCOD8160884
Probable space group: C 2 2 2
;
_chemical_formula_sum "Si O2"
_cell_formula_units_Z 56
_cell_length_a 12.033952
_cell_length_b 13.929532
_cell_length_c 16.446527
_cell_angle_alpha 90.000000
_cell_angle_beta 90.000000
_cell_angle_gamma 90.000000
_cell_volume 2756.887236
_symmetry_space_group_name_H-M "C 2 2 2"
_symmetry_group_IT_number 21
_symmetry_cell_setting 'orthorhombic'
loop_
_space_group_symop_operation_xyz
x,y,z
-x,-y,z
x,-y,-z
-x,y,-z
1/2+x,1/2+y,z
1/2-x,1/2-y,z
1/2+x,1/2-y,-z
1/2-x,1/2+y,-z
loop_
_atom_site_type_symbol
_atom_site_label
_atom_site_fract_x
_atom_site_fract_y
_atom_site_fract_z
Si Si1 0.634102 0.804158 0.756422
Si Si2 0.374275 0.005684 0.324266
Si Si3 0.442962 0.409439 0.143526
Si Si4 0.019049 0.294475 0.090436
Si Si5 0.155827 0.981162 0.592647
Si Si6 0.019800 0.864368 0.318669
Si Si7 0.289247 0.855870 0.806613
O O1 0.750000 0.750000 0.768148
O O2 0.658124 0.908622 0.721649
O O3 0.579044 0.816102 0.845560
O O4 0.554992 0.747672 0.690277
O O5 0.288779 0.026563 0.398014
O O6 0.500000 0.000000 0.358040
O O7 0.362106 0.095215 0.263488
O O8 0.500000 0.500000 0.098450
O O9 0.459116 0.319155 0.085169
O O10 0.510323 0.398502 0.226686
O O11 0.313413 0.422703 0.166588
O O12 0.131802 0.346585 0.116204
O O13 0.000000 0.334166 0.000000
O O14 0.118103 0.074669 0.641858
O O15 0.122967 0.000000 0.500000
O O16 0.093445 0.885692 0.629064
O O17 0.250000 0.750000 0.776107
#
# Coordination Sequence:
#
# PCOD8160884 Si02
#       7
#     8   8   8   8   8   8   8
#     4  11  23  39  66  92 128 174 216 262 317 384
#     4  12  23  40  67  95 126 170 222 258 319 399
#     4  10  18  34  67  94 120 165 213 264 309 384
#     4  10  23  40  61  90 130 167 216 267 325 378
#     4  11  22  38  68  98 127 162 214 275 323 370
#     4  10  18  37  65  94 123 162 216 255 304 388
#     4  10  21  40  66  90 126 169 213 263 323 391
#
# _framework density 20.312761999999999
#
# number of rings (size 3 to 8) (size 9 to 14) (size 15 to 20)
#    0.000    1.429    5.714    0.857    2.000    2.286 
#    0.000    1.429   18.857    0.000    0.000    0.000 
#    0.000    0.000    0.000    0.000    0.000    0.000 
#
# Total GULP energy -347028.466123 kJ/mol
# GULP energy per Si atom -12393.873790 kJ/mol
# Density = 2.026653 g / cm^3
# Si number density = 20.312762 Si / 1000 Ang^3
#
#
#
# Elastic Constant Matrix: (Units=GPa)
#
#
# Indices 1 2 3 4 5 6 
#
# 1 140.2306 35.2862 28.2457 0.0000 0.0000 0.0000
# 2 35.2862 73.6794 27.8925 0.0000 0.0000 0.0000
# 3 28.2457 27.8925 99.0639 0.0000 0.0000 0.0000
# 4 0.0000 0.0000 0.0000 13.9337 0.0000 0.0000
# 5 0.0000 0.0000 0.0000 0.0000 23.3993 0.0000
# 6 0.0000 0.0000 0.0000 0.0000 0.0000 34.9613
#
#
#
# Elastic Compliance Matrix: (Units=1/GPa)
#
#
# Indices 1 2 3 4 5 6 
#
# 1 0.008276 -0.003437 -0.001392 0.000000 0.000000 0.000000
# 2 -0.003437 0.016619 -0.003699 0.000000 0.000000 0.000000
# 3 -0.001392 -0.003699 0.011533 0.000000 0.000000 0.000000
# 4 0.000000 0.000000 0.000000 0.071769 0.000000 0.000000
# 5 0.000000 0.000000 0.000000 0.000000 0.042736 0.000000
# 6 0.000000 0.000000 0.000000 0.000000 0.000000 0.028603
#
#
# Mechanical properties :
#
#
# Convention : Reuss Voigt Hill
#
# Bulk Modulus (GPa) = 51.62152 55.09141 53.35646
# Shear Modulus (GPa) = 24.62457 29.22882 26.92670
#
# Velocity S-wave (km/s) = 3.48555 3.79745 3.64484
# Velocity P-wave (km/s) = 6.45501 6.81234 6.63608
#
# Compressibility (1/GPa) = 0.01937177
#
# Stress axis : x y z
#
# Youngs Moduli (GPa) = 120.82723 60.17363 86.70764
#
# Poissons Ratio (x) = 0.20679 0.12071
# Poissons Ratio (y) = 0.41524 0.32075
# Poissons Ratio (z) = 0.16821 0.22260
#
# Static dielectric constant tensor:
#      x y z
#    x 3.940260 0.000000 0.000000 
#    y 0.000000 4.087090 0.000000 
#    z 0.000000 0.000000 3.349640 
# 
# 
# High freq. dielectric constant tensor:
#      x y z
#    x 1.811370 0.000000 0.000000 
#    y 0.000000 1.787280 0.000000 
#    z 0.000000 0.000000 1.759720 
# 
# From -- ./inp_files/31590.got.cif
#   From: 2010.03.12/outbox.cif.g09.slc.cpg/sg21_16_cif.got.tgz:31590.got - 2010.04.14 01:59:26.
