data_PCOD8160461
_publ_section_title
;
Structure prediction by ZEFSAII (Michael W. Deem and Ramdas Pophale) SiO2 
 PCOD8160461
Probable space group: C 2 2 21
;
_chemical_formula_sum "Si O2"
_cell_formula_units_Z 40
_cell_length_a 13.364176
_cell_length_b 9.986725
_cell_length_c 14.369188
_cell_angle_alpha 90.000000
_cell_angle_beta 90.000000
_cell_angle_gamma 90.000000
_cell_volume 1917.774345
_symmetry_space_group_name_H-M "C 2 2 21"
_symmetry_group_IT_number 20
_symmetry_cell_setting 'orthorhombic'
loop_
_space_group_symop_operation_xyz
x,y,z
-x,-y,1/2+z
x,-y,-z
-x,y,1/2-z
1/2+x,1/2+y,z
1/2-x,1/2-y,1/2+z
1/2+x,1/2-y,-z
1/2-x,1/2+y,1/2-z
loop_
_atom_site_type_symbol
_atom_site_label
_atom_site_fract_x
_atom_site_fract_y
_atom_site_fract_z
Si Si1 0.310377 0.521296 0.221624
Si Si2 0.397683 0.020217 0.195555
Si Si3 0.669110 0.230780 0.597722
Si Si4 0.590906 0.702907 0.597360
Si Si5 0.623217 0.590658 0.910405
O O1 0.191412 0.500457 0.230564
O O2 0.334372 0.668821 0.184721
O O3 0.349509 0.410801 0.150996
O O4 0.362505 0.506400 0.322005
O O5 0.500000 0.026932 0.250000
O O6 0.377937 0.154448 0.137967
O O7 0.398364 0.897663 0.122810
O O8 0.622143 0.305616 0.509939
O O9 0.782557 0.187694 0.575555
O O10 0.472284 0.683869 0.607656
O O11 0.605359 0.500000 0.000000
#
# Coordination Sequence:
#
# PCOD8160461 Si02
#       5
#     8   8   8   8   8
#     4  11  23  42  64  90 124 167 209 255 315 384
#     4  11  23  41  63  91 125 165 208 264 320 371
#     4  11  24  41  64  95 127 163 212 267 316 374
#     4  12  24  42  65  93 128 170 212 257 319 386
#     4  11  24  42  66  93 129 169 212 263 319 383
#
# _framework density 20.857510999999999
#
# number of rings (size 3 to 8) (size 9 to 14) (size 15 to 20)
#    0.000    0.800    0.000   10.200    0.000    4.800 
#    0.000    4.000    0.000    0.000    0.000    0.000 
#    0.000    0.000    0.000    0.000    0.000    0.000 
#
# Total GULP energy -248159.386837 kJ/mol
# GULP energy per Si atom -12407.969342 kJ/mol
# Density = 2.081004 g / cm^3
# Si number density = 20.857511 Si / 1000 Ang^3
#
#
#
# Elastic Constant Matrix: (Units=GPa)
#
#
# Indices 1 2 3 4 5 6 
#
# 1 93.5403 22.2586 34.8197 0.0000 0.0000 0.0000
# 2 22.2586 116.7226 34.4995 0.0000 0.0000 0.0000
# 3 34.8197 34.4995 81.8357 0.0000 0.0000 0.0000
# 4 0.0000 0.0000 0.0000 45.7059 0.0000 0.0000
# 5 0.0000 0.0000 0.0000 0.0000 27.2537 0.0000
# 6 0.0000 0.0000 0.0000 0.0000 0.0000 24.6238
#
#
#
# Elastic Compliance Matrix: (Units=1/GPa)
#
#
# Indices 1 2 3 4 5 6 
#
# 1 0.012794 -0.000949 -0.005043 0.000000 0.000000 0.000000
# 2 -0.000949 0.009857 -0.003752 0.000000 0.000000 0.000000
# 3 -0.005043 -0.003752 0.015947 0.000000 0.000000 0.000000
# 4 0.000000 0.000000 0.000000 0.021879 0.000000 0.000000
# 5 0.000000 0.000000 0.000000 0.000000 0.036692 0.000000
# 6 0.000000 0.000000 0.000000 0.000000 0.000000 0.040611
#
#
# Mechanical properties :
#
#
# Convention : Reuss Voigt Hill
#
# Bulk Modulus (GPa) = 52.32944 52.80603 52.56774
# Shear Modulus (GPa) = 30.55510 32.88473 31.71991
#
# Velocity S-wave (km/s) = 3.83161 3.97500 3.90396
# Velocity P-wave (km/s) = 6.68719 6.81469 6.75124
#
# Compressibility (1/GPa) = 0.01910970
#
# Stress axis : x y z
#
# Youngs Moduli (GPa) = 78.16290 101.44885 62.70726
#
# Poissons Ratio (x) = 0.09628 0.31626
# Poissons Ratio (y) = 0.07418 0.23526
# Poissons Ratio (z) = 0.39421 0.38061
#
# Static dielectric constant tensor:
#      x y z
#    x 3.905090 0.000000 0.000000 
#    y 0.000000 3.904770 0.000000 
#    z 0.000000 0.000000 3.914980 
# 
# 
# High freq. dielectric constant tensor:
#      x y z
#    x 1.825460 0.000000 0.000000 
#    y 0.000000 1.828830 0.000000 
#    z 0.000000 0.000000 1.826910 
# 
# From -- ./inp_files/18522.got.cif
#   From: 2010.03.12/outbox.cif.g09.slc.cpg/sg20_10_cif.got.tgz:18522.got - 2010.04.14 01:38:04.
