data_PCOD8160530
_publ_section_title
;
Structure prediction by ZEFSAII (Michael W. Deem and Ramdas Pophale) SiO2 
 PCOD8160530
Probable space group: C 2 2 21
;
_chemical_formula_sum "Si O2"
_cell_formula_units_Z 60
_cell_length_a 17.085082
_cell_length_b 6.991330
_cell_length_c 24.889913
_cell_angle_alpha 90.000000
_cell_angle_beta 90.000000
_cell_angle_gamma 90.000000
_cell_volume 2973.036547
_symmetry_space_group_name_H-M "C 2 2 21"
_symmetry_group_IT_number 20
_symmetry_cell_setting 'orthorhombic'
loop_
_space_group_symop_operation_xyz
x,y,z
-x,-y,1/2+z
x,-y,-z
-x,y,1/2-z
1/2+x,1/2+y,z
1/2-x,1/2-y,1/2+z
1/2+x,1/2-y,-z
1/2-x,1/2+y,1/2-z
loop_
_atom_site_type_symbol
_atom_site_label
_atom_site_fract_x
_atom_site_fract_y
_atom_site_fract_z
Si Si1 0.790148 0.691212 0.623381
Si Si2 0.461141 0.100269 0.604222
Si Si3 0.296089 0.381917 0.808695
Si Si4 0.058600 0.500000 0.500000
Si Si5 0.346172 0.654215 0.959462
Si Si6 0.820248 0.951067 0.304278
Si Si7 0.522626 0.222861 0.189875
Si Si8 0.440592 0.541729 0.127256
O O1 0.867688 0.605840 0.595086
O O2 0.762393 0.544633 0.669335
O O3 0.722325 0.725995 0.579776
O O4 0.810783 0.895198 0.648736
O O5 0.483489 0.966070 0.654024
O O6 0.502977 0.022864 0.551242
O O7 0.488114 0.314452 0.618328
O O8 0.332226 0.443299 0.752000
O O9 0.365606 0.344706 0.850691
O O10 0.256927 0.176883 0.802007
O O11 0.117332 0.676110 0.494071
O O12 0.419016 0.559025 0.928500
O O13 0.308733 0.500000 0.000000
O O14 0.891721 0.810892 0.315928
O O15 0.500000 0.161441 0.250000
O O16 0.460797 0.379905 0.170602
#
# Coordination Sequence:
#
# PCOD8160530 Si02
#       8
#     8   8   8   4   8   8   8   8
#     4  11  26  42  65 100 138 174 221 277 340 402
#     4  12  26  45  70 102 134 182 229 279 342 408
#     4  11  24  39  66  96 140 182 219 268 328 410
#     4  12  26  46  74 100 128 178 238 282 338 412
#     4  11  25  47  69  98 132 172 224 288 341 399
#     4  12  23  40  65 100 140 180 223 270 336 401
#     4  12  25  42  69 104 142 177 229 284 336 406
#     4  11  24  43  68  98 134 180 224 274 340 401
#
# _framework density 20.181387000000001
#
# number of rings (size 3 to 8) (size 9 to 14) (size 15 to 20)
#    0.000    0.533    8.000    0.000    2.800    2.667 
#    0.000    1.333    0.000    0.000    0.000    0.000 
#    0.000    0.000    0.000    0.000    0.000    0.000 
#
# Total GULP energy -372169.234041 kJ/mol
# GULP energy per Si atom -12405.641135 kJ/mol
# Density = 2.013545 g / cm^3
# Si number density = 20.181387 Si / 1000 Ang^3
#
#
#
# Elastic Constant Matrix: (Units=GPa)
#
#
# Indices 1 2 3 4 5 6 
#
# 1 92.4338 30.6720 34.2772 0.0000 0.0000 0.0000
# 2 30.6720 85.0446 43.7707 0.0000 0.0000 0.0000
# 3 34.2772 43.7707 119.4755 0.0000 0.0000 0.0000
# 4 0.0000 0.0000 0.0000 37.9895 0.0000 0.0000
# 5 0.0000 0.0000 0.0000 0.0000 33.3694 0.0000
# 6 0.0000 0.0000 0.0000 0.0000 0.0000 23.8567
#
#
#
# Elastic Compliance Matrix: (Units=1/GPa)
#
#
# Indices 1 2 3 4 5 6 
#
# 1 0.012846 -0.003372 -0.002450 0.000000 0.000000 0.000000
# 2 -0.003372 0.015376 -0.004666 0.000000 0.000000 0.000000
# 3 -0.002450 -0.004666 0.010782 0.000000 0.000000 0.000000
# 4 0.000000 0.000000 0.000000 0.026323 0.000000 0.000000
# 5 0.000000 0.000000 0.000000 0.000000 0.029968 0.000000
# 6 0.000000 0.000000 0.000000 0.000000 0.000000 0.041917
#
#
# Mechanical properties :
#
#
# Convention : Reuss Voigt Hill
#
# Bulk Modulus (GPa) = 55.46751 57.15485 56.31118
# Shear Modulus (GPa) = 30.45122 31.59206 31.02164
#
# Velocity S-wave (km/s) = 3.88864 3.96081 3.92489
# Velocity P-wave (km/s) = 6.90697 7.02136 6.96440
#
# Compressibility (1/GPa) = 0.01802857
#
# Stress axis : x y z
#
# Youngs Moduli (GPa) = 77.84490 65.03634 92.74571
#
# Poissons Ratio (x) = 0.21930 0.22724
# Poissons Ratio (y) = 0.26249 0.43272
# Poissons Ratio (z) = 0.19073 0.30344
#
# Static dielectric constant tensor:
#      x y z
#    x 3.681480 0.000000 0.000000 
#    y 0.000000 3.675540 0.000000 
#    z 0.000000 0.000000 3.635150 
# 
# 
# High freq. dielectric constant tensor:
#      x y z
#    x 1.795030 0.000000 0.000000 
#    y 0.000000 1.795680 0.000000 
#    z 0.000000 0.000000 1.792070 
# 
# From -- ./inp_files/29925.got.cif
#   From: 2010.03.12/outbox.cif.g09.slc.cpg/sg20_15_cif.got.tgz:29925.got - 2010.04.14 01:38:04.
