data_PCOD8160915
_publ_section_title
;
Structure prediction by ZEFSAII (Michael W. Deem and Ramdas Pophale) SiO2 
 PCOD8160915
Probable space group: C 2 2 2
;
_chemical_formula_sum "Si O2"
_cell_formula_units_Z 40
_cell_length_a 25.180418
_cell_length_b 4.986938
_cell_length_c 16.875028
_cell_angle_alpha 90.000000
_cell_angle_beta 90.000000
_cell_angle_gamma 90.000000
_cell_volume 2119.050986
_symmetry_space_group_name_H-M "C 2 2 2"
_symmetry_group_IT_number 21
_symmetry_cell_setting 'orthorhombic'
loop_
_space_group_symop_operation_xyz
x,y,z
-x,-y,z
x,-y,-z
-x,y,-z
1/2+x,1/2+y,z
1/2-x,1/2-y,z
1/2+x,1/2-y,-z
1/2-x,1/2+y,-z
loop_
_atom_site_type_symbol
_atom_site_label
_atom_site_fract_x
_atom_site_fract_y
_atom_site_fract_z
Si Si1 0.694936 0.367685 0.194500
Si Si2 0.811831 0.748358 0.447139
Si Si3 0.555971 0.893123 0.170629
Si Si4 0.905126 0.892568 0.911726
Si Si5 0.843845 0.629416 0.277129
O O1 0.750000 0.250000 0.160040
O O2 0.654315 0.374707 0.121819
O O3 0.695156 0.667466 0.229652
O O4 0.679368 0.169135 0.267064
O O5 0.826881 0.500000 0.500000
O O6 0.750000 0.750000 0.422896
O O7 0.846541 0.725204 0.367682
O O8 0.828348 0.000000 0.500000
O O9 0.555736 0.593373 0.135709
O O10 0.596563 0.884990 0.243736
O O11 0.500000 0.000000 0.204536
O O12 0.571740 0.093867 0.098405
O O13 0.901884 0.000000 0.000000
#
# Coordination Sequence:
#
# PCOD8160915 Si02
#       5
#     8   8   8   8   8
#     4  10  19  33  52  73 101 140 175 205 251 308
#     4  10  19  30  48  76 106 134 162 198 250 304
#     4  10  21  36  55  76  98 134 177 217 265 309
#     4  10  21  35  51  77 106 131 171 220 264 312
#     4  10  20  34  52  75 104 134 173 215 249 306
#
# _framework density 18.876373000000001
#
# number of rings (size 3 to 8) (size 9 to 14) (size 15 to 20)
#    0.000    2.000    0.000    4.200    0.000    4.000 
#    0.000    6.000    0.000    0.600    0.000    1.400 
#    0.000    0.000    0.000    0.000    0.000    0.000 
#
# Total GULP energy -247877.097484 kJ/mol
# GULP energy per Si atom -12393.854874 kJ/mol
# Density = 1.883341 g / cm^3
# Si number density = 18.876373 Si / 1000 Ang^3
#
#
#
# Elastic Constant Matrix: (Units=GPa)
#
#
# Indices 1 2 3 4 5 6 
#
# 1 104.6366 31.2399 40.6225 0.0000 0.0000 0.0000
# 2 31.2399 101.4692 28.6377 0.0000 0.0000 0.0000
# 3 40.6225 28.6377 98.0527 0.0000 0.0000 0.0000
# 4 0.0000 0.0000 0.0000 58.8822 0.0000 0.0000
# 5 0.0000 0.0000 0.0000 0.0000 13.2116 0.0000
# 6 0.0000 0.0000 0.0000 0.0000 0.0000 30.9046
#
#
#
# Elastic Compliance Matrix: (Units=1/GPa)
#
#
# Indices 1 2 3 4 5 6 
#
# 1 0.011937 -0.002484 -0.004220 0.000000 0.000000 0.000000
# 2 -0.002484 0.011257 -0.002259 0.000000 0.000000 0.000000
# 3 -0.004220 -0.002259 0.012607 0.000000 0.000000 0.000000
# 4 0.000000 0.000000 0.000000 0.016983 0.000000 0.000000
# 5 0.000000 0.000000 0.000000 0.000000 0.075691 0.000000
# 6 0.000000 0.000000 0.000000 0.000000 0.000000 0.032358
#
#
# Mechanical properties :
#
#
# Convention : Reuss Voigt Hill
#
# Bulk Modulus (GPa) = 55.94258 56.12874 56.03566
# Shear Modulus (GPa) = 27.06854 34.17690 30.62272
#
# Velocity S-wave (km/s) = 3.79091 4.25969 4.03212
# Velocity P-wave (km/s) = 6.99014 7.34798 7.17129
#
# Compressibility (1/GPa) = 0.01787547
#
# Stress axis : x y z
#
# Youngs Moduli (GPa) = 83.77493 88.82975 79.32398
#
# Poissons Ratio (x) = 0.22066 0.33473
# Poissons Ratio (y) = 0.20810 0.17918
# Poissons Ratio (z) = 0.35351 0.20065
#
# Static dielectric constant tensor:
#      x y z
#    x 3.327800 0.000000 0.000000 
#    y 0.000000 3.859590 0.000000 
#    z 0.000000 0.000000 3.152160 
# 
# 
# High freq. dielectric constant tensor:
#      x y z
#    x 1.713870 0.000000 0.000000 
#    y 0.000000 1.762780 0.000000 
#    z 0.000000 0.000000 1.710340 
# 
# From -- ./inp_files/33697.got.cif
#   From: 2010.03.12/outbox.cif.g09.slc.cpg/sg21_17_cif.got.tgz:33697.got - 2010.04.14 01:59:26.
