data_PCOD8160907
_publ_section_title
;
Structure prediction by ZEFSAII (Michael W. Deem and Ramdas Pophale) SiO2 
 PCOD8160907
Probable space group: C 2 2 2
;
_chemical_formula_sum "Si O2"
_cell_formula_units_Z 48
_cell_length_a 38.239631
_cell_length_b 8.184456
_cell_length_c 7.784832
_cell_angle_alpha 90.000000
_cell_angle_beta 90.000000
_cell_angle_gamma 90.000000
_cell_volume 2436.423366
_symmetry_space_group_name_H-M "C 2 2 2"
_symmetry_group_IT_number 21
_symmetry_cell_setting 'orthorhombic'
loop_
_space_group_symop_operation_xyz
x,y,z
-x,-y,z
x,-y,-z
-x,y,-z
1/2+x,1/2+y,z
1/2-x,1/2-y,z
1/2+x,1/2-y,-z
1/2-x,1/2+y,-z
loop_
_atom_site_type_symbol
_atom_site_label
_atom_site_fract_x
_atom_site_fract_y
_atom_site_fract_z
Si Si1 0.789471 0.306232 1.000000
Si Si2 0.414066 0.194272 0.690601
Si Si3 0.835633 0.305669 0.690421
Si Si4 0.335633 0.194331 0.690421
Si Si5 0.085934 0.305728 0.309399
Si Si6 0.960577 0.304687 0.000000
O O1 0.750000 0.250000 0.000000
O O2 0.808792 0.234441 0.831089
O O3 0.791456 0.500000 0.000000
O O4 0.808792 0.234441 0.168911
O O5 0.374847 0.256458 0.732735
O O6 0.425350 0.254246 0.500000
O O7 0.414441 1.000000 0.696699
O O8 0.440938 0.264670 0.831206
O O9 0.835323 0.500000 0.695659
O O10 0.824355 0.244840 0.500000
O O11 0.874847 0.243542 0.732735
O O12 0.059062 0.235330 0.168794
O O13 0.960344 0.500000 0.000000
O O14 0.000000 0.236828 0.000000
#
# Coordination Sequence:
#
# PCOD8160907 Si02
#       6
#     8   8   8   8   8   8
#     4  10  19  29  42  60  81 103 127 159 199 238
#     4   8  13  21  32  44  59  83 117 154 186 216
#     4   8  14  25  40  55  70  92 125 162 194 225
#     4   8  14  25  40  55  70  92 125 162 194 225
#     4   8  13  21  32  44  59  83 117 154 186 216
#     4   9  15  19  24  38  61  88 117 151 190 225
#
# _framework density 19.70101
#
# number of rings (size 3 to 8) (size 9 to 14) (size 15 to 20)
#    0.000    3.500    0.000    3.000    0.000    5.333 
#    0.000    3.333    0.000    0.000    0.000    0.000 
#    0.000    0.000    0.000    0.000    0.000   13.333 
#
# Total GULP energy -297404.830789 kJ/mol
# GULP energy per Si atom -12391.867950 kJ/mol
# Density = 1.965617 g / cm^3
# Si number density = 19.701010 Si / 1000 Ang^3
#
#
#
# Elastic Constant Matrix: (Units=GPa)
#
#
# Indices 1 2 3 4 5 6 
#
# 1 181.6667 0.9084 139.1877 0.0000 0.0000 0.0000
# 2 0.9084 2.9173 3.1604 0.0000 0.0000 0.0000
# 3 139.1877 3.1604 214.5600 0.0000 0.0000 0.0000
# 4 0.0000 0.0000 0.0000 1.5460 0.0000 0.0000
# 5 0.0000 0.0000 0.0000 0.0000 27.5632 0.0000
# 6 0.0000 0.0000 0.0000 0.0000 0.0000 11.5691
#
#
#
# Elastic Compliance Matrix: (Units=1/GPa)
#
#
# Indices 1 2 3 4 5 6 
#
# 1 0.010999 0.004375 -0.007199 0.000000 0.000000 0.000000
# 2 0.004375 0.350082 -0.007994 0.000000 0.000000 0.000000
# 3 -0.007199 -0.007994 0.009449 0.000000 0.000000 0.000000
# 4 0.000000 0.000000 0.000000 0.646814 0.000000 0.000000
# 5 0.000000 0.000000 0.000000 0.000000 0.036280 0.000000
# 6 0.000000 0.000000 0.000000 0.000000 0.000000 0.086437
#
#
# Mechanical properties :
#
#
# Convention : Reuss Voigt Hill
#
# Bulk Modulus (GPa) = 2.86622 76.18411 39.52517
# Shear Modulus (GPa) = 3.91237 25.19484 14.55361
#
# Velocity S-wave (km/s) = 1.41074 3.58000 2.72090
# Velocity P-wave (km/s) = 2.02771 7.47279 5.47513
#
# Compressibility (1/GPa) = 0.34889099
#
# Stress axis : x y z
#
# Youngs Moduli (GPa) = 90.91989 2.85647 105.83350
#
# Poissons Ratio (x) = -0.01250 0.76194
# Poissons Ratio (y) = -0.39773 0.84607
# Poissons Ratio (z) = 0.65457 0.02284
#
# Static dielectric constant tensor:
#      x y z
#    x 3.972160 0.000000 0.000000 
#    y 0.000000 2.729450 0.000000 
#    z 0.000000 0.000000 4.182450 
# 
# 
# High freq. dielectric constant tensor:
#      x y z
#    x 1.762990 0.000000 0.000000 
#    y 0.000000 1.682210 0.000000 
#    z 0.000000 0.000000 1.787240 
# 
# From -- ./inp_files/19067.got.cif
#   From: 2010.03.12/outbox.cif.g09.slc.cpg/sg21_10_cif.got.tgz:19067.got - 2010.04.14 01:59:26.
