data_PCOD8160114
_publ_section_title
;
Structure prediction by ZEFSAII (Michael W. Deem and Ramdas Pophale) SiO2 
 PCOD8160114
Probable space group: C 2 2 21
;
_chemical_formula_sum "Si O2"
_cell_formula_units_Z 36
_cell_length_a 9.835422
_cell_length_b 20.294125
_cell_length_c 7.785718
_cell_angle_alpha 90.000000
_cell_angle_beta 90.000000
_cell_angle_gamma 90.000000
_cell_volume 1554.039306
_symmetry_space_group_name_H-M "C 2 2 21"
_symmetry_group_IT_number 20
_symmetry_cell_setting 'orthorhombic'
loop_
_space_group_symop_operation_xyz
x,y,z
-x,-y,1/2+z
x,-y,-z
-x,y,1/2-z
1/2+x,1/2+y,z
1/2-x,1/2-y,1/2+z
1/2+x,1/2-y,-z
1/2-x,1/2+y,1/2-z
loop_
_atom_site_type_symbol
_atom_site_label
_atom_site_fract_x
_atom_site_fract_y
_atom_site_fract_z
Si Si1 0.872692 0.121249 0.650906
Si Si2 0.632608 0.953086 0.837618
Si Si3 0.715144 0.168452 0.962321
Si Si4 0.237770 0.000000 0.000000
Si Si5 0.488850 0.730953 0.057726
O O1 0.745997 0.138065 0.774886
O O2 0.918678 0.188461 0.565921
O O3 0.000000 0.089460 0.750000
O O4 0.842138 0.068619 0.502644
O O5 0.500000 0.921423 0.750000
O O6 0.690821 0.998903 0.685823
O O7 0.724014 0.891033 0.898931
O O8 0.599183 0.000000 0.000000
O O9 0.560551 0.196942 0.957433
O O10 0.829576 0.225047 0.002985
O O11 0.500000 0.704599 0.250000
#
# Coordination Sequence:
#
# PCOD8160114 Si02
#       5
#     8   8   8   4   8
#     4  10  24  42  67 105 146 194 249 302 366 444
#     4  12  26  46  74 109 146 194 242 301 370 445
#     4  11  25  46  73 106 151 189 251 306 369 443
#     4  12  24  44  74 100 150 196 240 300 380 434
#     4  11  24  44  70 107 146 197 250 304 380 433
#
# _framework density 23.165437000000001
#
# number of rings (size 3 to 8) (size 9 to 14) (size 15 to 20)
#    0.000    0.889    3.333    2.667    0.000   13.333 
#    0.000    0.000    0.000    0.000    0.000    0.000 
#    0.000    0.000    0.000    0.000    0.000    0.000 
#
# Total GULP energy -222997.863401 kJ/mol
# GULP energy per Si atom -12388.770189 kJ/mol
# Density = 2.311271 g / cm^3
# Si number density = 23.165437 Si / 1000 Ang^3
#
#
#
# Elastic Constant Matrix: (Units=GPa)
#
#
# Indices 1 2 3 4 5 6 
#
# 1 89.6423 50.6603 33.5086 0.0000 0.0000 0.0000
# 2 50.6603 80.8950 32.9446 0.0000 0.0000 0.0000
# 3 33.5086 32.9446 144.4700 0.0000 0.0000 0.0000
# 4 0.0000 0.0000 0.0000 25.5030 0.0000 0.0000
# 5 0.0000 0.0000 0.0000 0.0000 40.1406 0.0000
# 6 0.0000 0.0000 0.0000 0.0000 0.0000 13.4763
#
#
#
# Elastic Compliance Matrix: (Units=1/GPa)
#
#
# Indices 1 2 3 4 5 6 
#
# 1 0.017652 -0.010348 -0.001734 0.000000 0.000000 0.000000
# 2 -0.010348 0.019694 -0.002091 0.000000 0.000000 0.000000
# 3 -0.001734 -0.002091 0.007801 0.000000 0.000000 0.000000
# 4 0.000000 0.000000 0.000000 0.039211 0.000000 0.000000
# 5 0.000000 0.000000 0.000000 0.000000 0.024912 0.000000
# 6 0.000000 0.000000 0.000000 0.000000 0.000000 0.074204
#
#
# Mechanical properties :
#
#
# Convention : Reuss Voigt Hill
#
# Bulk Modulus (GPa) = 59.52428 61.02603 60.27516
# Shear Modulus (GPa) = 22.99688 29.01690 26.00689
#
# Velocity S-wave (km/s) = 3.15417 3.54304 3.35425
# Velocity P-wave (km/s) = 6.24629 6.56797 6.40915
#
# Compressibility (1/GPa) = 0.01679987
#
# Stress axis : x y z
#
# Youngs Moduli (GPa) = 56.65110 50.77786 128.19014
#
# Poissons Ratio (x) = 0.52545 0.22234
# Poissons Ratio (y) = 0.58623 0.26801
# Poissons Ratio (z) = 0.09826 0.10616
#
# Static dielectric constant tensor:
#      x y z
#    x 4.444980 0.000000 0.000000 
#    y 0.000000 3.840540 0.000000 
#    z 0.000000 0.000000 4.434860 
# 
# 
# High freq. dielectric constant tensor:
#      x y z
#    x 1.904370 0.000000 0.000000 
#    y 0.000000 1.907800 0.000000 
#    z 0.000000 0.000000 1.935960 
# 
# From -- ./inp_files/5908.got.cif
#   From: 2010.03.12/outbox.cif.g09.slc.cpg/sg20_3_cif.got.tgz:5908.got - 2010.04.14 01:38:04.
