data_PCOD8160992
_publ_section_title
;
Structure prediction by ZEFSAII (Michael W. Deem and Ramdas Pophale) SiO2 
 PCOD8160992
Probable space group: C 2 2 2
;
_chemical_formula_sum "Si O2"
_cell_formula_units_Z 24
_cell_length_a 8.082356
_cell_length_b 25.505011
_cell_length_c 5.100162
_cell_angle_alpha 90.000000
_cell_angle_beta 90.000000
_cell_angle_gamma 90.000000
_cell_volume 1051.350346
_symmetry_space_group_name_H-M "C 2 2 2"
_symmetry_group_IT_number 21
_symmetry_cell_setting 'orthorhombic'
loop_
_space_group_symop_operation_xyz
x,y,z
-x,-y,z
x,-y,-z
-x,y,-z
1/2+x,1/2+y,z
1/2-x,1/2-y,z
1/2+x,1/2-y,-z
1/2-x,1/2+y,-z
loop_
_atom_site_type_symbol
_atom_site_label
_atom_site_fract_x
_atom_site_fract_y
_atom_site_fract_z
Si Si1 0.185382 0.023747 0.246492
Si Si2 0.315413 0.194249 0.608673
Si Si3 0.179909 0.856121 0.893454
O O1 0.191748 0.085861 0.225708
O O2 0.277849 0.000000 0.500000
O O3 0.000000 0.000000 0.247775
O O4 0.283092 0.000000 0.000000
O O5 0.500000 0.194703 0.500000
O O6 0.250000 0.250000 0.713402
O O7 0.203639 0.179994 0.359122
O O8 0.303797 0.154910 0.860612
O O9 0.000000 0.843587 0.000000
#
# Coordination Sequence:
#
# PCOD8160992 Si02
#       3
#     8   8   8
#     4  10  19  34  61 103 138 165 228 288 322 401
#     4  12  27  47  68  99 146 186 239 296 358 424
#     4  12  23  41  73 107 134 185 238 292 354 408
#
# _framework density 22.827786
#
# number of rings (size 3 to 8) (size 9 to 14) (size 15 to 20)
#    0.000    0.667    3.333    7.000    4.667    0.000 
#    0.000    0.000    0.000   15.000    0.000    0.000 
#    0.000    0.000    0.000    0.000    0.000    0.000 
#
# Total GULP energy -148702.956182 kJ/mol
# GULP energy per Si atom -12391.913015 kJ/mol
# Density = 2.277583 g / cm^3
# Si number density = 22.827786 Si / 1000 Ang^3
#
#
#
# Elastic Constant Matrix: (Units=GPa)
#
#
# Indices 1 2 3 4 5 6 
#
# 1 55.9016 48.4379 23.7756 0.0000 0.0000 0.0000
# 2 48.4379 141.5694 67.6644 0.0000 0.0000 0.0000
# 3 23.7756 67.6644 213.8967 0.0000 0.0000 0.0000
# 4 0.0000 0.0000 0.0000 61.4751 0.0000 0.0000
# 5 0.0000 0.0000 0.0000 0.0000 12.8218 0.0000
# 6 0.0000 0.0000 0.0000 0.0000 0.0000 20.7548
#
#
#
# Elastic Compliance Matrix: (Units=1/GPa)
#
#
# Indices 1 2 3 4 5 6 
#
# 1 0.025428 -0.008658 -0.000087 0.000000 0.000000 0.000000
# 2 -0.008658 0.011270 -0.002603 0.000000 0.000000 0.000000
# 3 -0.000087 -0.002603 0.005508 0.000000 0.000000 0.000000
# 4 0.000000 0.000000 0.000000 0.016267 0.000000 0.000000
# 5 0.000000 0.000000 0.000000 0.000000 0.077992 0.000000
# 6 0.000000 0.000000 0.000000 0.000000 0.000000 0.048182
#
#
# Mechanical properties :
#
#
# Convention : Reuss Voigt Hill
#
# Bulk Modulus (GPa) = 51.25778 76.79150 64.02464
# Shear Modulus (GPa) = 23.38116 37.10967 30.24542
#
# Velocity S-wave (km/s) = 3.20385 4.03629 3.64392
# Velocity P-wave (km/s) = 6.01573 7.44545 6.76845
#
# Compressibility (1/GPa) = 0.01950923
#
# Stress axis : x y z
#
# Youngs Moduli (GPa) = 39.32651 88.72969 181.54593
#
# Poissons Ratio (x) = 0.76826 0.01587
# Poissons Ratio (y) = 0.34051 0.47253
# Poissons Ratio (z) = 0.00344 0.23095
#
# Static dielectric constant tensor:
#      x y z
#    x 3.751510 0.000000 0.000000 
#    y 0.000000 4.136490 0.000000 
#    z 0.000000 0.000000 3.537760 
# 
# 
# High freq. dielectric constant tensor:
#      x y z
#    x 1.861060 0.000000 0.000000 
#    y 0.000000 1.906620 0.000000 
#    z 0.000000 0.000000 1.943600 
# 
# From -- ./inp_files/1132.got.cif
#   From: 2010.03.12/outbox.cif.g09.slc.cpg/sg21_1_cif.got.tgz:1132.got - 2010.04.14 01:59:26.
