data_PCOD8160669
_publ_section_title
;
Structure prediction by ZEFSAII (Michael W. Deem and Ramdas Pophale) SiO2 
 PCOD8160669
Probable space group: C 2 2 21
;
_chemical_formula_sum "Si O2"
_cell_formula_units_Z 40
_cell_length_a 4.723845
_cell_length_b 21.917090
_cell_length_c 15.916925
_cell_angle_alpha 90.000000
_cell_angle_beta 90.000000
_cell_angle_gamma 90.000000
_cell_volume 1647.925978
_symmetry_space_group_name_H-M "C 2 2 21"
_symmetry_group_IT_number 20
_symmetry_cell_setting 'orthorhombic'
loop_
_space_group_symop_operation_xyz
x,y,z
-x,-y,1/2+z
x,-y,-z
-x,y,1/2-z
1/2+x,1/2+y,z
1/2-x,1/2-y,1/2+z
1/2+x,1/2-y,-z
1/2-x,1/2+y,1/2-z
loop_
_atom_site_type_symbol
_atom_site_label
_atom_site_fract_x
_atom_site_fract_y
_atom_site_fract_z
Si Si1 0.144474 0.040114 0.160157
Si Si2 0.351903 0.912183 0.096347
Si Si3 0.130867 0.841995 0.341088
Si Si4 0.049162 0.263725 0.946067
Si Si5 0.874847 0.400764 0.579713
O O1 0.403426 0.087777 0.155598
O O2 0.000000 0.040317 0.250000
O O3 0.910928 0.060541 0.091856
O O4 0.290884 0.975554 0.142395
O O5 0.552639 0.868498 0.154165
O O6 0.049214 0.878900 0.089075
O O7 0.485323 0.924821 0.006125
O O8 0.104091 0.770932 0.368330
O O9 0.000000 0.852664 0.250000
O O10 0.182986 0.328444 0.920260
O O11 0.813048 0.275600 0.018029
#
# Coordination Sequence:
#
# PCOD8160669 Si02
#       5
#     8   8   8   8   8
#     4  12  28  48  71 109 154 194 245 310 374 434
#     4  12  25  47  73 105 148 197 250 305 363 445
#     4  12  25  43  73 112 147 191 249 309 378 431
#     4  12  23  47  75 107 151 192 245 310 369 446
#     4  12  25  47  78 106 144 201 253 296 371 454
#
# _framework density 24.272936999999999
#
# number of rings (size 3 to 8) (size 9 to 14) (size 15 to 20)
#    0.000    0.000    4.000    6.000    0.000    4.800 
#    0.000    0.000    0.000    0.000    0.000    0.000 
#    0.000    0.000    0.000    0.000    0.000    0.000 
#
# Total GULP energy -248022.140890 kJ/mol
# GULP energy per Si atom -12401.107044 kJ/mol
# Density = 2.421769 g / cm^3
# Si number density = 24.272937 Si / 1000 Ang^3
#
#
#
# Elastic Constant Matrix: (Units=GPa)
#
#
# Indices 1 2 3 4 5 6 
#
# 1 105.1804 24.8329 3.5706 0.0000 0.0000 0.0000
# 2 24.8329 97.2141 33.8644 0.0000 0.0000 0.0000
# 3 3.5706 33.8644 66.1600 0.0000 0.0000 0.0000
# 4 0.0000 0.0000 0.0000 25.1776 0.0000 0.0000
# 5 0.0000 0.0000 0.0000 0.0000 42.7015 0.0000
# 6 0.0000 0.0000 0.0000 0.0000 0.0000 50.4789
#
#
#
# Elastic Compliance Matrix: (Units=1/GPa)
#
#
# Indices 1 2 3 4 5 6 
#
# 1 0.010167 -0.002928 0.000950 0.000000 0.000000 0.000000
# 2 -0.002928 0.013362 -0.006681 0.000000 0.000000 0.000000
# 3 0.000950 -0.006681 0.018484 0.000000 0.000000 0.000000
# 4 0.000000 0.000000 0.000000 0.039718 0.000000 0.000000
# 5 0.000000 0.000000 0.000000 0.000000 0.023418 0.000000
# 6 0.000000 0.000000 0.000000 0.000000 0.000000 0.019810
#
#
# Mechanical properties :
#
#
# Convention : Reuss Voigt Hill
#
# Bulk Modulus (GPa) = 40.49671 43.67668 42.08669
# Shear Modulus (GPa) = 33.22080 37.42404 35.32242
#
# Velocity S-wave (km/s) = 3.70352 3.93084 3.81887
# Velocity P-wave (km/s) = 5.91677 6.21571 6.06808
#
# Compressibility (1/GPa) = 0.02469337
#
# Stress axis : x y z
#
# Youngs Moduli (GPa) = 98.36226 74.83947 54.10230
#
# Poissons Ratio (x) = 0.21912 -0.05140
# Poissons Ratio (y) = 0.28800 0.36148
# Poissons Ratio (z) = -0.09344 0.50003
#
# Static dielectric constant tensor:
#      x y z
#    x 4.735730 0.000000 0.000000 
#    y 0.000000 4.366160 0.000000 
#    z 0.000000 0.000000 4.203200 
# 
# 
# High freq. dielectric constant tensor:
#      x y z
#    x 1.989640 0.000000 0.000000 
#    y 0.000000 1.967500 0.000000 
#    z 0.000000 0.000000 1.950730 
# 
# From -- ./inp_files/17638.got.cif
#   From: 2010.03.12/outbox.cif.g09.slc.cpg/sg20_9_cif.got.tgz:17638.got - 2010.04.14 01:38:04.
