data_PCOD8160789
_publ_section_title
;
Structure prediction by ZEFSAII (Michael W. Deem and Ramdas Pophale) SiO2 
 PCOD8160789
Probable space group: C 2 2 2
;
_chemical_formula_sum "Si O2"
_cell_formula_units_Z 32
_cell_length_a 20.196980
_cell_length_b 16.551953
_cell_length_c 5.282801
_cell_angle_alpha 90.000000
_cell_angle_beta 90.000000
_cell_angle_gamma 90.000000
_cell_volume 1766.037541
_symmetry_space_group_name_H-M "C 2 2 2"
_symmetry_group_IT_number 21
_symmetry_cell_setting 'orthorhombic'
loop_
_space_group_symop_operation_xyz
x,y,z
-x,-y,z
x,-y,-z
-x,y,-z
1/2+x,1/2+y,z
1/2-x,1/2-y,z
1/2+x,1/2-y,-z
1/2-x,1/2+y,-z
loop_
_atom_site_type_symbol
_atom_site_label
_atom_site_fract_x
_atom_site_fract_y
_atom_site_fract_z
Si Si1 0.380611 0.592931 0.474713
Si Si2 0.735769 0.845076 0.530115
Si Si3 0.924548 0.818211 0.025239
Si Si4 0.812450 0.690399 0.030140
O O1 0.399986 0.500000 0.500000
O O2 0.302013 0.603350 0.494941
O O3 0.405728 0.621707 0.201647
O O4 0.415298 0.640507 0.702499
O O5 0.750000 0.750000 0.556556
O O6 0.688880 0.862839 0.287623
O O7 0.696594 0.868488 0.787668
O O8 0.880638 0.738196 0.005508
O O9 0.000000 0.790529 0.000000
O O10 0.750000 0.750000 0.056479
#
# Coordination Sequence:
#
# PCOD8160789 Si02
#       4
#     8   8   8   8
#     4  12  23  35  50  74 104 141 172 198 239 301
#     4  10  16  32  56  69  87 127 170 212 252 270
#     4  12  23  35  50  74 104 141 172 198 239 301
#     4  10  16  32  56  69  87 127 170 212 252 270
#
# _framework density 18.119661000000001
#
# number of rings (size 3 to 8) (size 9 to 14) (size 15 to 20)
#    0.000    1.000   10.000    1.500    0.000    3.000 
#    0.000    0.000    0.000    0.000    0.000    0.000 
#    0.000    6.000    0.000    0.000    0.000    0.000 
#
# Total GULP energy -198336.074953 kJ/mol
# GULP energy per Si atom -12396.004685 kJ/mol
# Density = 1.807842 g / cm^3
# Si number density = 18.119661 Si / 1000 Ang^3
#
#
#
# Elastic Constant Matrix: (Units=GPa)
#
#
# Indices 1 2 3 4 5 6 
#
# 1 107.6033 23.3074 9.0850 0.0000 0.0000 0.0000
# 2 23.3074 9.1164 1.2159 0.0000 0.0000 0.0000
# 3 9.0850 1.2159 133.3098 0.0000 0.0000 0.0000
# 4 0.0000 0.0000 0.0000 7.4124 0.0000 0.0000
# 5 0.0000 0.0000 0.0000 0.0000 13.4423 0.0000
# 6 0.0000 0.0000 0.0000 0.0000 0.0000 10.0194
#
#
#
# Elastic Compliance Matrix: (Units=1/GPa)
#
#
# Indices 1 2 3 4 5 6 
#
# 1 0.020944 -0.053421 -0.000940 0.000000 0.000000 0.000000
# 2 -0.053421 0.246086 0.001396 0.000000 0.000000 0.000000
# 3 -0.000940 0.001396 0.007553 0.000000 0.000000 0.000000
# 4 0.000000 0.000000 0.000000 0.134910 0.000000 0.000000
# 5 0.000000 0.000000 0.000000 0.000000 0.074392 0.000000
# 6 0.000000 0.000000 0.000000 0.000000 0.000000 0.099807
#
#
# Mechanical properties :
#
#
# Convention : Reuss Voigt Hill
#
# Bulk Modulus (GPa) = 5.92936 35.24955 20.58945
# Shear Modulus (GPa) = 6.70385 20.60287 13.65336
#
# Velocity S-wave (km/s) = 1.92556 3.37567 2.74799
# Velocity P-wave (km/s) = 2.86761 5.88978 4.63210
#
# Compressibility (1/GPa) = 0.16865230
#
# Stress axis : x y z
#
# Youngs Moduli (GPa) = 47.74612 4.06362 132.40373
#
# Poissons Ratio (x) = 0.21708 0.12447
# Poissons Ratio (y) = 2.55066 -0.18485
# Poissons Ratio (z) = 0.04489 -0.00567
#
# Static dielectric constant tensor:
#      x y z
#    x 3.293800 0.000000 0.000000 
#    y 0.000000 2.876710 0.000000 
#    z 0.000000 0.000000 5.542140 
# 
# 
# High freq. dielectric constant tensor:
#      x y z
#    x 1.682500 0.000000 0.000000 
#    y 0.000000 1.637210 0.000000 
#    z 0.000000 0.000000 1.748320 
# 
# From -- ./inp_files/3385.got.cif
#   From: 2010.03.12/outbox.cif.g09.slc.cpg/sg21_2_cif.got.tgz:3385.got - 2010.04.14 01:59:26.
