data_PCOD8160188
_publ_section_title
;
Structure prediction by ZEFSAII (Michael W. Deem and Ramdas Pophale) SiO2 
 PCOD8160188
Probable space group: C 2 2 21
;
_chemical_formula_sum "Si O2"
_cell_formula_units_Z 32
_cell_length_a 27.616559
_cell_length_b 5.095968
_cell_length_c 9.460545
_cell_angle_alpha 90.000000
_cell_angle_beta 90.000000
_cell_angle_gamma 90.000000
_cell_volume 1331.411834
_symmetry_space_group_name_H-M "C 2 2 21"
_symmetry_group_IT_number 20
_symmetry_cell_setting 'orthorhombic'
loop_
_space_group_symop_operation_xyz
x,y,z
-x,-y,1/2+z
x,-y,-z
-x,y,1/2-z
1/2+x,1/2+y,z
1/2-x,1/2-y,1/2+z
1/2+x,1/2-y,-z
1/2-x,1/2+y,1/2-z
loop_
_atom_site_type_symbol
_atom_site_label
_atom_site_fract_x
_atom_site_fract_y
_atom_site_fract_z
Si Si1 0.100205 0.414310 0.342174
Si Si2 0.500000 0.191074 0.750000
Si Si3 0.371243 0.610626 0.696956
Si Si4 0.764266 0.010588 0.340858
Si Si5 0.547510 0.500000 0.000000
O O1 0.105971 0.500000 0.500000
O O2 0.045698 0.487598 0.291184
O O3 0.138621 0.606467 0.266720
O O4 0.110613 0.109232 0.310217
O O5 0.487441 0.355470 0.609362
O O6 0.321465 0.514550 0.630608
O O7 0.413776 0.678860 0.584983
O O8 0.754852 0.284122 0.262383
O O9 0.740527 0.000000 0.500000
#
# Coordination Sequence:
#
# PCOD8160188 Si02
#       5
#     8   4   8   8   4
#     4  11  26  41  69 101 145 185 240 292 353 426
#     4  10  26  40  72 102 144 192 242 294 352 424
#     4  11  25  47  70 103 142 190 233 295 369 429
#     4  12  27  49  79 112 148 194 251 313 382 458
#     4  10  24  46  72 100 146 184 238 290 352 428
#
# _framework density 24.034635000000002
#
# number of rings (size 3 to 8) (size 9 to 14) (size 15 to 20)
#    0.000    1.000    1.250    3.000   10.500   10.000 
#    0.000    0.000    0.000    0.000    0.000    0.000 
#    0.000    0.000    0.000    0.000    0.000    0.000 
#
# Total GULP energy -198228.560620 kJ/mol
# GULP energy per Si atom -12389.285039 kJ/mol
# Density = 2.397993 g / cm^3
# Si number density = 24.034635 Si / 1000 Ang^3
#
#
#
# Elastic Constant Matrix: (Units=GPa)
#
#
# Indices 1 2 3 4 5 6 
#
# 1 75.4963 7.3780 14.9133 0.0000 0.0000 0.0000
# 2 7.3780 103.0599 44.3105 0.0000 0.0000 0.0000
# 3 14.9133 44.3105 175.4894 0.0000 0.0000 0.0000
# 4 0.0000 0.0000 0.0000 8.4444 0.0000 0.0000
# 5 0.0000 0.0000 0.0000 0.0000 22.9916 0.0000
# 6 0.0000 0.0000 0.0000 0.0000 0.0000 30.3677
#
#
#
# Elastic Compliance Matrix: (Units=1/GPa)
#
#
# Indices 1 2 3 4 5 6 
#
# 1 0.013498 -0.000531 -0.001013 0.000000 0.000000 0.000000
# 2 -0.000531 0.010906 -0.002709 0.000000 0.000000 0.000000
# 3 -0.001013 -0.002709 0.006468 0.000000 0.000000 0.000000
# 4 0.000000 0.000000 0.000000 0.118422 0.000000 0.000000
# 5 0.000000 0.000000 0.000000 0.000000 0.043494 0.000000
# 6 0.000000 0.000000 0.000000 0.000000 0.000000 0.032930
#
#
# Mechanical properties :
#
#
# Convention : Reuss Voigt Hill
#
# Bulk Modulus (GPa) = 44.70871 54.13879 49.42375
# Shear Modulus (GPa) = 20.68871 31.52366 26.10618
#
# Velocity S-wave (km/s) = 2.93710 3.62552 3.29932
# Velocity P-wave (km/s) = 5.49038 6.33246 5.92640
#
# Compressibility (1/GPa) = 0.02236701
#
# Stress axis : x y z
#
# Youngs Moduli (GPa) = 74.08693 91.69584 154.59937
#
# Poissons Ratio (x) = 0.04867 0.15661
# Poissons Ratio (y) = 0.03932 0.41874
# Poissons Ratio (z) = 0.07505 0.24836
#
# Static dielectric constant tensor:
#      x y z
#    x 4.481350 0.000000 0.000000 
#    y 0.000000 4.161490 0.000000 
#    z 0.000000 0.000000 4.837690 
# 
# 
# High freq. dielectric constant tensor:
#      x y z
#    x 1.962720 0.000000 0.000000 
#    y 0.000000 1.939600 0.000000 
#    z 0.000000 0.000000 1.972590 
# 
# From -- ./inp_files/5160.got.cif
#   From: 2010.03.12/outbox.cif.g09.slc.cpg/sg20_3_cif.got.tgz:5160.got - 2010.04.14 01:38:04.
