data_PCOD8160104
_publ_section_title
;
Structure prediction by ZEFSAII (Michael W. Deem and Ramdas Pophale) SiO2 
 PCOD8160104
Probable space group: C 2 2 21
;
_chemical_formula_sum "Si O2"
_cell_formula_units_Z 48
_cell_length_a 9.486763
_cell_length_b 14.242441
_cell_length_c 17.323346
_cell_angle_alpha 90.000000
_cell_angle_beta 90.000000
_cell_angle_gamma 90.000000
_cell_volume 2340.638045
_symmetry_space_group_name_H-M "C 2 2 21"
_symmetry_group_IT_number 20
_symmetry_cell_setting 'orthorhombic'
loop_
_space_group_symop_operation_xyz
x,y,z
-x,-y,1/2+z
x,-y,-z
-x,y,1/2-z
1/2+x,1/2+y,z
1/2-x,1/2-y,1/2+z
1/2+x,1/2-y,-z
1/2-x,1/2+y,1/2-z
loop_
_atom_site_type_symbol
_atom_site_label
_atom_site_fract_x
_atom_site_fract_y
_atom_site_fract_z
Si Si1 0.077726 0.902629 0.464012
Si Si2 0.592349 0.757269 0.414100
Si Si3 0.657449 0.013737 0.734762
Si Si4 0.194960 0.680397 0.848258
Si Si5 0.837439 0.839537 0.762409
Si Si6 0.762608 0.930894 0.431409
O O1 0.050769 0.829452 0.532343
O O2 0.183700 0.856078 0.403893
O O3 0.931066 0.923550 0.420563
O O4 0.138223 0.000000 0.500000
O O5 0.451569 0.814993 0.393962
O O6 0.677014 0.720946 0.339696
O O7 0.698894 0.829742 0.454864
O O8 0.500000 0.977397 0.750000
O O9 0.679368 0.112256 0.776023
O O10 0.691660 0.027552 0.645109
O O11 0.757730 0.936770 0.772985
O O12 0.227174 0.782566 0.810866
O O13 0.000000 0.863680 0.750000
O O14 0.723000 0.000000 0.500000
#
# Coordination Sequence:
#
# PCOD8160104 Si02
#       6
#     8   8   8   8   8   8
#     4  11  26  41  68 102 135 176 231 279 339 404
#     4  11  22  48  66  97 138 176 219 280 345 403
#     4  12  24  46  67  97 137 177 230 277 338 404
#     4  11  23  45  68  99 133 180 225 275 341 410
#     4  10  24  41  71  95 132 178 221 280 339 399
#     4  11  26  44  66  99 137 179 226 281 340 399
#
# _framework density 20.507228999999999
#
# number of rings (size 3 to 8) (size 9 to 14) (size 15 to 20)
#    0.000    1.000    3.333    2.500   14.000    2.000 
#    3.000    0.000    0.000    0.000    0.000    0.000 
#    0.000    0.000    0.000    0.000    0.000    0.000 
#
# Total GULP energy -297693.182185 kJ/mol
# GULP energy per Si atom -12403.882591 kJ/mol
# Density = 2.046055 g / cm^3
# Si number density = 20.507229 Si / 1000 Ang^3
#
#
#
# Elastic Constant Matrix: (Units=GPa)
#
#
# Indices 1 2 3 4 5 6 
#
# 1 86.9546 56.6473 62.9368 0.0000 0.0000 0.0000
# 2 56.6473 114.2727 40.3230 0.0000 0.0000 0.0000
# 3 62.9368 40.3230 116.9244 0.0000 0.0000 0.0000
# 4 0.0000 0.0000 0.0000 38.2824 0.0000 0.0000
# 5 0.0000 0.0000 0.0000 0.0000 35.3755 0.0000
# 6 0.0000 0.0000 0.0000 0.0000 0.0000 39.4593
#
#
#
# Elastic Compliance Matrix: (Units=1/GPa)
#
#
# Indices 1 2 3 4 5 6 
#
# 1 0.024443 -0.008510 -0.010222 0.000000 0.000000 0.000000
# 2 -0.008510 0.012926 0.000123 0.000000 0.000000 0.000000
# 3 -0.010222 0.000123 0.014012 0.000000 0.000000 0.000000
# 4 0.000000 0.000000 0.000000 0.026122 0.000000 0.000000
# 5 0.000000 0.000000 0.000000 0.000000 0.028268 0.000000
# 6 0.000000 0.000000 0.000000 0.000000 0.000000 0.025343
#
#
# Mechanical properties :
#
#
# Convention : Reuss Voigt Hill
#
# Bulk Modulus (GPa) = 70.60549 70.88509 70.74529
# Shear Modulus (GPa) = 28.89301 33.17307 31.03304
#
# Velocity S-wave (km/s) = 3.75763 4.02634 3.89430
# Velocity P-wave (km/s) = 7.30278 7.50041 7.40226
#
# Compressibility (1/GPa) = 0.01416321
#
# Stress axis : x y z
#
# Youngs Moduli (GPa) = 40.91233 77.36290 71.36545
#
# Poissons Ratio (x) = 0.65833 0.72950
# Poissons Ratio (y) = 0.34815 -0.00876
# Poissons Ratio (z) = 0.41820 -0.00950
#
# Static dielectric constant tensor:
#      x y z
#    x 3.704250 0.000000 0.000000 
#    y 0.000000 3.926460 0.000000 
#    z 0.000000 0.000000 3.757710 
# 
# 
# High freq. dielectric constant tensor:
#      x y z
#    x 1.797150 0.000000 0.000000 
#    y 0.000000 1.819910 0.000000 
#    z 0.000000 0.000000 1.807130 
# 
# From -- ./inp_files/23433.got.cif
#   From: 2010.03.12/outbox.cif.g09.slc.cpg/sg20_12_cif.got.tgz:23433.got - 2010.04.14 01:38:04.
