data_PCOD8160505
_publ_section_title
;
Structure prediction by ZEFSAII (Michael W. Deem and Ramdas Pophale) SiO2 
 PCOD8160505
Probable space group: C 2 2 21
;
_chemical_formula_sum "Si O2"
_cell_formula_units_Z 36
_cell_length_a 9.065786
_cell_length_b 8.752523
_cell_length_c 20.488629
_cell_angle_alpha 90.000000
_cell_angle_beta 90.000000
_cell_angle_gamma 90.000000
_cell_volume 1625.741988
_symmetry_space_group_name_H-M "C 2 2 21"
_symmetry_group_IT_number 20
_symmetry_cell_setting 'orthorhombic'
loop_
_space_group_symop_operation_xyz
x,y,z
-x,-y,1/2+z
x,-y,-z
-x,y,1/2-z
1/2+x,1/2+y,z
1/2-x,1/2-y,1/2+z
1/2+x,1/2-y,-z
1/2-x,1/2+y,1/2-z
loop_
_atom_site_type_symbol
_atom_site_label
_atom_site_fract_x
_atom_site_fract_y
_atom_site_fract_z
Si Si1 0.162686 0.670635 0.868726
Si Si2 0.535951 0.241218 0.317913
Si Si3 0.844967 0.652705 0.427708
Si Si4 0.986834 0.834357 0.969175
Si Si5 0.000000 0.548677 0.750000
O O1 0.338592 0.684787 0.862395
O O2 0.138486 0.528400 0.917236
O O3 0.102670 0.654444 0.794887
O O4 0.085183 0.816149 0.903177
O O5 0.500000 0.332034 0.250000
O O6 0.383815 0.235630 0.359186
O O7 0.589475 0.067548 0.298412
O O8 0.682523 0.697316 0.451225
O O9 0.965745 0.704457 0.480082
O O10 0.014357 0.000000 0.000000
#
# Coordination Sequence:
#
# PCOD8160505 Si02
#       5
#     8   8   8   8   4
#     4  11  23  45  69 100 138 175 226 280 336 404
#     4   9  21  44  67 100 136 174 219 277 339 400
#     4  11  24  46  65 100 136 176 228 280 335 403
#     4  12  26  42  69 101 132 181 226 279 340 396
#     4   8  22  38  66 100 138 176 216 278 338 400
#
# _framework density 22.143737000000002
#
# number of rings (size 3 to 8) (size 9 to 14) (size 15 to 20)
#    0.667    0.889    0.000    4.667    3.111    5.333 
#    4.000    1.111    0.000    0.000    0.000    0.000 
#    0.000    0.000    0.000    0.000    0.000    0.000 
#
# Total GULP energy -223065.595583 kJ/mol
# GULP energy per Si atom -12392.533088 kJ/mol
# Density = 2.209334 g / cm^3
# Si number density = 22.143737 Si / 1000 Ang^3
#
#
#
# Elastic Constant Matrix: (Units=GPa)
#
#
# Indices 1 2 3 4 5 6 
#
# 1 144.2694 57.7309 78.9762 0.0000 0.0000 0.0000
# 2 57.7309 80.9841 57.6061 0.0000 0.0000 0.0000
# 3 78.9762 57.6061 139.2380 0.0000 0.0000 0.0000
# 4 0.0000 0.0000 0.0000 34.0008 0.0000 0.0000
# 5 0.0000 0.0000 0.0000 0.0000 51.2262 0.0000
# 6 0.0000 0.0000 0.0000 0.0000 0.0000 26.8663
#
#
#
# Elastic Compliance Matrix: (Units=1/GPa)
#
#
# Indices 1 2 3 4 5 6 
#
# 1 0.011301 -0.004955 -0.004360 0.000000 0.000000 0.000000
# 2 -0.004955 0.019670 -0.005328 0.000000 0.000000 0.000000
# 3 -0.004360 -0.005328 0.011859 0.000000 0.000000 0.000000
# 4 0.000000 0.000000 0.000000 0.029411 0.000000 0.000000
# 5 0.000000 0.000000 0.000000 0.000000 0.019521 0.000000
# 6 0.000000 0.000000 0.000000 0.000000 0.000000 0.037221
#
#
# Mechanical properties :
#
#
# Convention : Reuss Voigt Hill
#
# Bulk Modulus (GPa) = 73.82649 83.67978 78.75314
# Shear Modulus (GPa) = 30.71571 33.76386 32.23979
#
# Velocity S-wave (km/s) = 3.72843 3.90905 3.81981
# Velocity P-wave (km/s) = 7.20742 7.63188 7.42269
#
# Compressibility (1/GPa) = 0.01354527
#
# Stress axis : x y z
#
# Youngs Moduli (GPa) = 88.48834 50.83951 84.32318
#
# Poissons Ratio (x) = 0.25189 0.36766
# Poissons Ratio (y) = 0.43843 0.44924
# Poissons Ratio (z) = 0.38582 0.27085
#
# Static dielectric constant tensor:
#      x y z
#    x 3.773650 0.000000 0.000000 
#    y 0.000000 3.749270 0.000000 
#    z 0.000000 0.000000 4.337980 
# 
# 
# High freq. dielectric constant tensor:
#      x y z
#    x 1.855150 0.000000 0.000000 
#    y 0.000000 1.846300 0.000000 
#    z 0.000000 0.000000 1.901270 
# 
# From -- ./inp_files/26385.got.cif
#   From: 2010.03.12/outbox.cif.g09.slc.cpg/sg20_14_cif.got.tgz:26385.got - 2010.04.14 01:38:04.
