data_PCOD8160649
_publ_section_title
;
Structure prediction by ZEFSAII (Michael W. Deem and Ramdas Pophale) SiO2 
 PCOD8160649
Probable space group: C 2 2 21
;
_chemical_formula_sum "Si O2"
_cell_formula_units_Z 32
_cell_length_a 9.043884
_cell_length_b 31.872562
_cell_length_c 4.950812
_cell_angle_alpha 90.000000
_cell_angle_beta 90.000000
_cell_angle_gamma 90.000000
_cell_volume 1427.080240
_symmetry_space_group_name_H-M "C 2 2 21"
_symmetry_group_IT_number 20
_symmetry_cell_setting 'orthorhombic'
loop_
_space_group_symop_operation_xyz
x,y,z
-x,-y,1/2+z
x,-y,-z
-x,y,1/2-z
1/2+x,1/2+y,z
1/2-x,1/2-y,1/2+z
1/2+x,1/2-y,-z
1/2-x,1/2+y,1/2-z
loop_
_atom_site_type_symbol
_atom_site_label
_atom_site_fract_x
_atom_site_fract_y
_atom_site_fract_z
Si Si1 0.730943 0.089044 0.804292
Si Si2 0.170156 0.356079 0.701187
Si Si3 0.000000 0.030568 0.750000
Si Si4 0.678186 0.270426 0.766050
Si Si5 0.000000 0.525129 0.750000
O O1 0.663588 0.114058 0.554920
O O2 0.619121 0.053370 0.903787
O O3 0.871113 0.063693 0.701764
O O4 0.752986 0.120763 0.052005
O O5 0.272080 0.316197 0.633192
O O6 0.000000 0.342422 0.750000
O O7 0.028006 0.000000 0.500000
O O8 0.500000 0.266593 0.750000
O O9 0.754614 0.263125 0.475823
O O10 0.073586 0.500000 0.500000
#
# Coordination Sequence:
#
# PCOD8160649 Si02
#       5
#     8   8   4   8   4
#     4  12  25  42  68 100 135 180 230 282 350 405
#     4  12  24  45  70 102 141 179 227 286 343 416
#     4  12  26  46  66  94 136 180 230 292 348 412
#     4  12  27  48  77 110 147 190 235 288 352 424
#     4  12  22  40  64  94 130 174 230 280 338 406
#
# _framework density 22.423404999999999
#
# number of rings (size 3 to 8) (size 9 to 14) (size 15 to 20)
#    0.000    0.000    2.500    8.250    3.500    0.000 
#    0.000    0.000    0.000    0.000    0.000    0.000 
#    0.000    0.000    0.000    0.000    0.000    0.000 
#
# Total GULP energy -198403.377274 kJ/mol
# GULP energy per Si atom -12400.211080 kJ/mol
# Density = 2.237237 g / cm^3
# Si number density = 22.423405 Si / 1000 Ang^3
#
#
#
# Elastic Constant Matrix: (Units=GPa)
#
#
# Indices 1 2 3 4 5 6 
#
# 1 123.7113 49.7281 14.0302 0.0000 0.0000 0.0000
# 2 49.7281 95.6995 22.5112 0.0000 0.0000 0.0000
# 3 14.0302 22.5112 115.3890 0.0000 0.0000 0.0000
# 4 0.0000 0.0000 0.0000 -76.8659 0.0000 0.0000
# 5 0.0000 0.0000 0.0000 0.0000 29.6862 0.0000
# 6 0.0000 0.0000 0.0000 0.0000 0.0000 5.7265
#
#
#
# Elastic Compliance Matrix: (Units=1/GPa)
#
#
# Indices 1 2 3 4 5 6 
#
# 1 0.010223 -0.005261 -0.000217 0.000000 0.000000 0.000000
# 2 -0.005261 0.013660 -0.002025 0.000000 0.000000 0.000000
# 3 -0.000217 -0.002025 0.009088 0.000000 0.000000 0.000000
# 4 0.000000 0.000000 0.000000 -0.013010 0.000000 0.000000
# 5 0.000000 0.000000 0.000000 0.000000 0.033686 0.000000
# 6 0.000000 0.000000 0.000000 0.000000 0.000000 0.174628
#
#
# Mechanical properties :
#
#
# Convention : Reuss Voigt Hill
#
# Bulk Modulus (GPa) = 55.66567 56.37099 56.01833
# Shear Modulus (GPa) = 20.05875 8.27803 14.16839
#
# Velocity S-wave (km/s) = 2.99414 1.92346 2.51640
# Velocity P-wave (km/s) = 6.06893 5.48879 5.78614
#
# Compressibility (1/GPa) = 0.01796439
#
# Stress axis : x y z
#
# Youngs Moduli (GPa) = 97.82172 73.20894 110.03809
#
# Poissons Ratio (x) = 0.38516 0.02384
# Poissons Ratio (y) = 0.51464 0.22284
# Poissons Ratio (z) = 0.02119 0.14826
#
# Static dielectric constant tensor:
#      x y z
#    x 4.673190 0.000000 0.000000 
#    y 0.000000 4.134220 0.000000 
#    z 0.000000 0.000000 5.351670 
# 
# 
# High freq. dielectric constant tensor:
#      x y z
#    x 1.885780 0.000000 0.000000 
#    y 0.000000 1.902790 0.000000 
#    z 0.000000 0.000000 1.892860 
# 
# From -- ./inp_files/607.got.cif
#   From: 2010.03.12/outbox.cif.g09.slc.cpg/sg20_1_cif.got.tgz:607.got - 2010.04.14 01:38:04.
