data_PCOD8160655
_publ_section_title
;
Structure prediction by ZEFSAII (Michael W. Deem and Ramdas Pophale) SiO2 
 PCOD8160655
Probable space group: C 2 2 21
;
_chemical_formula_sum "Si O2"
_cell_formula_units_Z 32
_cell_length_a 12.863260
_cell_length_b 21.112213
_cell_length_c 4.868693
_cell_angle_alpha 90.000000
_cell_angle_beta 90.000000
_cell_angle_gamma 90.000000
_cell_volume 1322.200135
_symmetry_space_group_name_H-M "C 2 2 21"
_symmetry_group_IT_number 20
_symmetry_cell_setting 'orthorhombic'
loop_
_space_group_symop_operation_xyz
x,y,z
-x,-y,1/2+z
x,-y,-z
-x,y,1/2-z
1/2+x,1/2+y,z
1/2-x,1/2-y,1/2+z
1/2+x,1/2-y,-z
1/2-x,1/2+y,1/2-z
loop_
_atom_site_type_symbol
_atom_site_label
_atom_site_fract_x
_atom_site_fract_y
_atom_site_fract_z
Si Si1 0.679266 0.251829 0.024386
Si Si2 0.110785 0.621516 0.861519
Si Si3 0.220690 0.567893 0.383247
Si Si4 0.931309 0.122963 0.504650
O O1 0.736496 0.271534 0.744078
O O2 0.601101 0.192873 0.973895
O O3 0.616526 0.312581 0.131716
O O4 0.185226 0.622183 0.596674
O O5 0.000000 0.596010 0.750000
O O6 0.163293 0.576154 0.091214
O O7 0.186909 0.500000 0.500000
O O8 0.345922 0.574110 0.380565
O O9 0.000000 0.091342 0.750000
O O10 0.000000 0.143914 0.250000
#
# Coordination Sequence:
#
# PCOD8160655 Si02
#       4
#     8   8   8   8
#     4  12  22  43  72 104 146 184 227 299 372 435
#     4  12  25  46  74 105 140 190 239 297 365 432
#     4  12  27  48  71 102 144 192 244 300 352 422
#     4  12  25  43  72 105 141 184 234 290 362 433
#
# _framework density 24.202086000000001
#
# number of rings (size 3 to 8) (size 9 to 14) (size 15 to 20)
#    0.000    0.000    5.000    5.250    0.000    5.000 
#    0.000    0.000    0.000    0.000    0.000    0.000 
#    0.000    0.000    0.000    0.000    0.000    0.000 
#
# Total GULP energy -198443.064315 kJ/mol
# GULP energy per Si atom -12402.691520 kJ/mol
# Density = 2.414700 g / cm^3
# Si number density = 24.202086 Si / 1000 Ang^3
#
#
#
# Elastic Constant Matrix: (Units=GPa)
#
#
# Indices 1 2 3 4 5 6 
#
# 1 145.3006 30.7444 65.8785 0.0000 0.0000 0.0000
# 2 30.7444 54.1925 8.9895 0.0000 0.0000 0.0000
# 3 65.8785 8.9895 137.7941 0.0000 0.0000 0.0000
# 4 0.0000 0.0000 0.0000 28.9796 0.0000 0.0000
# 5 0.0000 0.0000 0.0000 0.0000 55.6710 0.0000
# 6 0.0000 0.0000 0.0000 0.0000 0.0000 17.1147
#
#
#
# Elastic Compliance Matrix: (Units=1/GPa)
#
#
# Indices 1 2 3 4 5 6 
#
# 1 0.009925 -0.004896 -0.004426 0.000000 0.000000 0.000000
# 2 -0.004896 0.021070 0.000966 0.000000 0.000000 0.000000
# 3 -0.004426 0.000966 0.009310 0.000000 0.000000 0.000000
# 4 0.000000 0.000000 0.000000 0.034507 0.000000 0.000000
# 5 0.000000 0.000000 0.000000 0.000000 0.017963 0.000000
# 6 0.000000 0.000000 0.000000 0.000000 0.000000 0.058429
#
#
# Mechanical properties :
#
#
# Convention : Reuss Voigt Hill
#
# Bulk Modulus (GPa) = 42.38398 60.94578 51.66488
# Shear Modulus (GPa) = 28.44462 35.79804 32.12133
#
# Velocity S-wave (km/s) = 3.43198 3.85012 3.64705
# Velocity P-wave (km/s) = 5.76673 6.70830 6.25526
#
# Compressibility (1/GPa) = 0.02359382
#
# Stress axis : x y z
#
# Youngs Moduli (GPa) = 100.75704 47.46021 107.41140
#
# Poissons Ratio (x) = 0.23239 0.47536
# Poissons Ratio (y) = 0.49335 -0.10380
# Poissons Ratio (z) = 0.44591 -0.04586
#
# Static dielectric constant tensor:
#      x y z
#    x 4.437010 0.000000 0.000000 
#    y 0.000000 3.983710 0.000000 
#    z 0.000000 0.000000 4.380370 
# 
# 
# High freq. dielectric constant tensor:
#      x y z
#    x 1.963660 0.000000 0.000000 
#    y 0.000000 1.947700 0.000000 
#    z 0.000000 0.000000 1.973380 
# 
# From -- ./inp_files/1016.got.cif
#   From: 2010.03.12/outbox.cif.g09.slc.cpg/sg20_1_cif.got.tgz:1016.got - 2010.04.14 01:38:04.
