data_PCOD8160391
_publ_section_title
;
Structure prediction by ZEFSAII (Michael W. Deem and Ramdas Pophale) SiO2 
 PCOD8160391
Probable space group: C 2 2 21
;
_chemical_formula_sum "Si O2"
_cell_formula_units_Z 60
_cell_length_a 11.771799
_cell_length_b 8.170093
_cell_length_c 28.374160
_cell_angle_alpha 90.000000
_cell_angle_beta 90.000000
_cell_angle_gamma 90.000000
_cell_volume 2728.932864
_symmetry_space_group_name_H-M "C 2 2 21"
_symmetry_group_IT_number 20
_symmetry_cell_setting 'orthorhombic'
loop_
_space_group_symop_operation_xyz
x,y,z
-x,-y,1/2+z
x,-y,-z
-x,y,1/2-z
1/2+x,1/2+y,z
1/2-x,1/2-y,1/2+z
1/2+x,1/2-y,-z
1/2-x,1/2+y,1/2-z
loop_
_atom_site_type_symbol
_atom_site_label
_atom_site_fract_x
_atom_site_fract_y
_atom_site_fract_z
Si Si1 0.000000 0.699989 0.750000
Si Si2 0.902372 0.451798 0.075553
Si Si3 0.144192 0.229942 0.803323
Si Si4 0.988678 0.886611 0.959646
Si Si5 0.925886 0.434809 0.820510
Si Si6 0.789058 0.091575 0.264427
Si Si7 0.659095 0.604731 0.906308
Si Si8 0.407048 0.144457 0.473969
O O1 0.059155 0.595854 0.709989
O O2 0.099416 0.802684 0.774311
O O3 0.915556 0.254928 0.066079
O O4 0.969918 0.562528 0.038292
O O5 0.946616 0.509518 0.126307
O O6 0.768303 0.489325 0.072637
O O7 0.228353 0.376919 0.786753
O O8 0.178043 0.136622 0.851277
O O9 0.015798 0.294317 0.806329
O O10 0.164708 0.094516 0.762805
O O11 0.046594 0.999991 0.919215
O O12 0.085174 0.795265 0.990008
O O13 0.924558 0.000000 0.000000
O O14 0.799827 0.371129 0.807326
O O15 0.653169 0.789000 0.927466
O O16 0.335237 0.000000 0.500000
#
# Coordination Sequence:
#
# PCOD8160391 Si02
#       8
#     4   8   8   8   8   8   8   8
#     4  12  26  42  70  94 140 176 230 284 340 410
#     4  11  22  40  68  94 132 174 218 277 334 399
#     4  12  24  45  68  96 142 179 234 289 346 411
#     4   9  22  41  65  97 132 173 223 274 334 405
#     4  12  24  44  66  97 135 179 230 282 336 411
#     4  12  25  45  67 102 131 184 228 283 353 406
#     4  11  22  42  65  99 132 173 225 279 335 405
#     4   9  20  40  64  93 131 172 220 270 335 397
#
# _framework density 21.986618
#
# number of rings (size 3 to 8) (size 9 to 14) (size 15 to 20)
#    0.000    1.067    5.333    0.000    3.733    5.333 
#    0.000    4.000    0.000    0.000    0.000    0.000 
#    0.000    0.000    0.000    0.000    0.000    0.000 
#
# Total GULP energy -371680.853576 kJ/mol
# GULP energy per Si atom -12389.361786 kJ/mol
# Density = 2.193658 g / cm^3
# Si number density = 21.986618 Si / 1000 Ang^3
#
#
#
# Elastic Constant Matrix: (Units=GPa)
#
#
# Indices 1 2 3 4 5 6 
#
# 1 93.4804 37.2722 28.8050 0.0000 0.0000 0.0000
# 2 37.2722 106.5073 42.4367 0.0000 0.0000 0.0000
# 3 28.8050 42.4367 103.8658 0.0000 0.0000 0.0000
# 4 0.0000 0.0000 0.0000 41.1786 0.0000 0.0000
# 5 0.0000 0.0000 0.0000 0.0000 20.7449 0.0000
# 6 0.0000 0.0000 0.0000 0.0000 0.0000 24.3586
#
#
#
# Elastic Compliance Matrix: (Units=1/GPa)
#
#
# Indices 1 2 3 4 5 6 
#
# 1 0.012788 -0.003658 -0.002052 0.000000 0.000000 0.000000
# 2 -0.003658 0.012261 -0.003995 0.000000 0.000000 0.000000
# 3 -0.002052 -0.003995 0.011829 0.000000 0.000000 0.000000
# 4 0.000000 0.000000 0.000000 0.024284 0.000000 0.000000
# 5 0.000000 0.000000 0.000000 0.000000 0.048205 0.000000
# 6 0.000000 0.000000 0.000000 0.000000 0.000000 0.041053
#
#
# Mechanical properties :
#
#
# Convention : Reuss Voigt Hill
#
# Bulk Modulus (GPa) = 57.24568 57.87572 57.56070
# Shear Modulus (GPa) = 28.46524 30.27906 29.37215
#
# Velocity S-wave (km/s) = 3.60204 3.71503 3.65898
# Velocity P-wave (km/s) = 6.58732 6.69196 6.63984
#
# Compressibility (1/GPa) = 0.01746857
#
# Stress axis : x y z
#
# Youngs Moduli (GPa) = 78.19774 81.56089 84.53658
#
# Poissons Ratio (x) = 0.29831 0.17348
# Poissons Ratio (y) = 0.28601 0.33773
# Poissons Ratio (z) = 0.16047 0.32584
#
# Static dielectric constant tensor:
#      x y z
#    x 3.847320 0.000000 0.000000 
#    y 0.000000 4.157770 0.000000 
#    z 0.000000 0.000000 4.139360 
# 
# 
# High freq. dielectric constant tensor:
#      x y z
#    x 1.849480 0.000000 0.000000 
#    y 0.000000 1.872650 0.000000 
#    z 0.000000 0.000000 1.864740 
# 
# From -- ./inp_files/30337.got.cif
#   From: 2010.03.12/outbox.cif.g09.slc.cpg/sg20_16_cif.got.tgz:30337.got - 2010.04.14 01:38:04.
