data_PCOD8160325
_publ_section_title
;
Structure prediction by ZEFSAII (Michael W. Deem and Ramdas Pophale) SiO2 
 PCOD8160325
Probable space group: C 2 2 21
;
_chemical_formula_sum "Si O2"
_cell_formula_units_Z 36
_cell_length_a 12.653178
_cell_length_b 19.478631
_cell_length_c 6.420505
_cell_angle_alpha 90.000000
_cell_angle_beta 90.000000
_cell_angle_gamma 90.000000
_cell_volume 1582.439943
_symmetry_space_group_name_H-M "C 2 2 21"
_symmetry_group_IT_number 20
_symmetry_cell_setting 'orthorhombic'
loop_
_space_group_symop_operation_xyz
x,y,z
-x,-y,1/2+z
x,-y,-z
-x,y,1/2-z
1/2+x,1/2+y,z
1/2-x,1/2-y,1/2+z
1/2+x,1/2-y,-z
1/2-x,1/2+y,1/2-z
loop_
_atom_site_type_symbol
_atom_site_label
_atom_site_fract_x
_atom_site_fract_y
_atom_site_fract_z
Si Si1 0.618712 0.757846 0.518548
Si Si2 0.000000 0.840582 0.750000
Si Si3 0.816346 0.922954 0.533375
Si Si4 0.717561 0.843914 0.178213
Si Si5 0.114640 0.614412 0.220318
O O1 0.525297 0.705497 0.454416
O O2 0.631811 0.810243 0.327958
O O3 0.725887 0.715351 0.546518
O O4 0.598334 0.804558 0.721267
O O5 0.899022 0.885760 0.686157
O O6 0.805845 0.886531 0.308100
O O7 0.700706 0.923379 0.637286
O O8 0.856888 0.000000 0.500000
O O9 0.652711 0.891893 0.018602
O O10 0.000000 0.578084 0.250000
#
# Coordination Sequence:
#
# PCOD8160325 Si02
#       5
#     8   4   8   8   8
#     4  11  21  37  67 106 135 167 222 284 363 416
#     4  12  24  44  70 102 142 182 222 294 354 420
#     4  11  28  48  65 100 139 187 242 277 336 415
#     4  11  21  42  69  98 142 176 220 295 341 417
#     4  11  24  43  71 100 137 180 228 291 348 413
#
# _framework density 22.749680999999999
#
# number of rings (size 3 to 8) (size 9 to 14) (size 15 to 20)
#    0.000    0.889    4.444    2.667    3.111    5.333 
#    4.000    0.000    0.000    0.000    0.000    0.000 
#    0.000    0.000    0.000    0.000    0.000    0.000 
#
# Total GULP energy -223197.294193 kJ/mol
# GULP energy per Si atom -12399.849677 kJ/mol
# Density = 2.269790 g / cm^3
# Si number density = 22.749681 Si / 1000 Ang^3
#
#
#
# Elastic Constant Matrix: (Units=GPa)
#
#
# Indices 1 2 3 4 5 6 
#
# 1 100.1975 7.8643 17.3367 0.0000 0.0000 0.0000
# 2 7.8643 78.8535 13.3732 0.0000 0.0000 0.0000
# 3 17.3367 13.3732 99.7221 0.0000 0.0000 0.0000
# 4 0.0000 0.0000 0.0000 20.3325 0.0000 0.0000
# 5 0.0000 0.0000 0.0000 0.0000 29.0027 0.0000
# 6 0.0000 0.0000 0.0000 0.0000 0.0000 17.3661
#
#
#
# Elastic Compliance Matrix: (Units=1/GPa)
#
#
# Indices 1 2 3 4 5 6 
#
# 1 0.010332 -0.000743 -0.001697 0.000000 0.000000 0.000000
# 2 -0.000743 0.013030 -0.001618 0.000000 0.000000 0.000000
# 3 -0.001697 -0.001618 0.010540 0.000000 0.000000 0.000000
# 4 0.000000 0.000000 0.000000 0.049182 0.000000 0.000000
# 5 0.000000 0.000000 0.000000 0.000000 0.034480 0.000000
# 6 0.000000 0.000000 0.000000 0.000000 0.000000 0.057583
#
#
# Mechanical properties :
#
#
# Convention : Reuss Voigt Hill
#
# Bulk Modulus (GPa) = 38.77929 39.54682 39.16306
# Shear Modulus (GPa) = 26.06087 29.35353 27.70720
#
# Velocity S-wave (km/s) = 3.38827 3.59595 3.49365
# Velocity P-wave (km/s) = 5.69124 5.88747 5.79019
#
# Compressibility (1/GPa) = 0.02578696
#
# Stress axis : x y z
#
# Youngs Moduli (GPa) = 96.78530 76.74438 94.87796
#
# Poissons Ratio (x) = 0.05700 0.16097
# Poissons Ratio (y) = 0.07188 0.15354
# Poissons Ratio (z) = 0.16421 0.12420
#
# Static dielectric constant tensor:
#      x y z
#    x 3.998670 0.000000 0.000000 
#    y 0.000000 3.821090 0.000000 
#    z 0.000000 0.000000 4.266710 
# 
# 
# High freq. dielectric constant tensor:
#      x y z
#    x 1.900250 0.000000 0.000000 
#    y 0.000000 1.866060 0.000000 
#    z 0.000000 0.000000 1.905950 
# 
# From -- ./inp_files/1740.got.cif
#   From: 2010.03.12/outbox.cif.g09.slc.cpg/sg20_1_cif.got.tgz:1740.got - 2010.04.14 01:38:04.
