data_PCOD8160029
_publ_section_title
;
Structure prediction by ZEFSAII (Michael W. Deem and Ramdas Pophale) SiO2 
 PCOD8160029
Probable space group: C 2 2 21
;
_chemical_formula_sum "Si O2"
_cell_formula_units_Z 24
_cell_length_a 5.280422
_cell_length_b 13.848253
_cell_length_c 13.862475
_cell_angle_alpha 90.000000
_cell_angle_beta 90.000000
_cell_angle_gamma 90.000000
_cell_volume 1013.688214
_symmetry_space_group_name_H-M "C 2 2 21"
_symmetry_group_IT_number 20
_symmetry_cell_setting 'orthorhombic'
loop_
_space_group_symop_operation_xyz
x,y,z
-x,-y,1/2+z
x,-y,-z
-x,y,1/2-z
1/2+x,1/2+y,z
1/2-x,1/2-y,1/2+z
1/2+x,1/2-y,-z
1/2-x,1/2+y,1/2-z
loop_
_atom_site_type_symbol
_atom_site_label
_atom_site_fract_x
_atom_site_fract_y
_atom_site_fract_z
Si Si1 0.500000 0.216782 0.250000
Si Si2 0.586812 0.500000 0.500000
Si Si3 0.547698 0.705395 0.956565
Si Si4 0.753526 0.530692 0.294616
O O1 0.529218 0.283121 0.344381
O O2 0.260107 0.144374 0.264249
O O3 0.409293 0.407492 0.480411
O O4 0.769238 0.518645 0.409270
O O5 0.809600 0.758082 0.980508
O O6 0.500000 0.484286 0.250000
O O7 0.000000 0.476223 0.250000
#
# Coordination Sequence:
#
# PCOD8160029 Si02
#       4
#     4   4   8   8
#     4  10  24  48  70 102 146 188 230 298 356 416
#     4  12  26  48  76 108 140 192 242 292 356 428
#     4  12  27  48  74 104 147 188 237 297 357 422
#     4  10  23  44  70 101 144 181 238 289 346 428
#
# _framework density 23.675917999999999
#
# number of rings (size 3 to 8) (size 9 to 14) (size 15 to 20)
#    1.000    0.000    3.333    2.000    2.333    5.333 
#    0.000    0.000    0.000    0.000    0.000    0.000 
#    0.000    0.000    0.000    0.000    0.000    0.000 
#
# Total GULP energy -148731.466585 kJ/mol
# GULP energy per Si atom -12394.288882 kJ/mol
# Density = 2.362203 g / cm^3
# Si number density = 23.675918 Si / 1000 Ang^3
#
#
#
# Elastic Constant Matrix: (Units=GPa)
#
#
# Indices 1 2 3 4 5 6 
#
# 1 141.8347 24.0876 43.1092 0.0000 0.0000 0.0000
# 2 24.0876 116.0711 21.0614 0.0000 0.0000 0.0000
# 3 43.1092 21.0614 179.7125 0.0000 0.0000 0.0000
# 4 0.0000 0.0000 0.0000 47.3526 0.0000 0.0000
# 5 0.0000 0.0000 0.0000 0.0000 26.0845 0.0000
# 6 0.0000 0.0000 0.0000 0.0000 0.0000 2.5855
#
#
#
# Elastic Compliance Matrix: (Units=1/GPa)
#
#
# Indices 1 2 3 4 5 6 
#
# 1 0.007794 -0.001306 -0.001717 0.000000 0.000000 0.000000
# 2 -0.001306 0.009021 -0.000744 0.000000 0.000000 0.000000
# 3 -0.001717 -0.000744 0.006063 0.000000 0.000000 0.000000
# 4 0.000000 0.000000 0.000000 0.021118 0.000000 0.000000
# 5 0.000000 0.000000 0.000000 0.000000 0.038337 0.000000
# 6 0.000000 0.000000 0.000000 0.000000 0.000000 0.386780
#
#
# Mechanical properties :
#
#
# Convention : Reuss Voigt Hill
#
# Bulk Modulus (GPa) = 65.16453 68.23720 66.70086
# Shear Modulus (GPa) = 10.37857 38.49518 24.43688
#
# Velocity S-wave (km/s) = 2.09598 4.03665 3.21618
# Velocity P-wave (km/s) = 5.78280 7.11407 6.48270
#
# Compressibility (1/GPa) = 0.01534577
#
# Stress axis : x y z
#
# Youngs Moduli (GPa) = 128.30411 110.84720 164.92397
#
# Poissons Ratio (x) = 0.14476 0.28310
# Poissons Ratio (y) = 0.16756 0.12270
# Poissons Ratio (z) = 0.22024 0.08247
#
# Static dielectric constant tensor:
#      x y z
#    x 3.847580 0.000000 0.000000 
#    y 0.000000 4.183460 0.000000 
#    z 0.000000 0.000000 4.386730 
# 
# 
# High freq. dielectric constant tensor:
#      x y z
#    x 1.915000 0.000000 0.000000 
#    y 0.000000 1.928020 0.000000 
#    z 0.000000 0.000000 1.956880 
# 
# From -- ./inp_files/11796.got.cif
#   From: 2010.03.12/outbox.cif.g09.slc.cpg/sg20_6_cif.got.tgz:11796.got - 2010.04.14 01:38:04.
