data_PCOD8160659
_publ_section_title
;
Structure prediction by ZEFSAII (Michael W. Deem and Ramdas Pophale) SiO2 
 PCOD8160659
Probable space group: C 2 2 21
;
_chemical_formula_sum "Si O2"
_cell_formula_units_Z 44
_cell_length_a 31.194127
_cell_length_b 8.739656
_cell_length_c 7.759155
_cell_angle_alpha 90.000000
_cell_angle_beta 90.000000
_cell_angle_gamma 90.000000
_cell_volume 2115.346919
_symmetry_space_group_name_H-M "C 2 2 21"
_symmetry_group_IT_number 20
_symmetry_cell_setting 'orthorhombic'
loop_
_space_group_symop_operation_xyz
x,y,z
-x,-y,1/2+z
x,-y,-z
-x,y,1/2-z
1/2+x,1/2+y,z
1/2-x,1/2-y,1/2+z
1/2+x,1/2-y,-z
1/2-x,1/2+y,1/2-z
loop_
_atom_site_type_symbol
_atom_site_label
_atom_site_fract_x
_atom_site_fract_y
_atom_site_fract_z
Si Si1 0.954613 0.105289 0.829667
Si Si2 0.903127 0.000000 0.500000
Si Si3 0.345123 0.338546 0.724417
Si Si4 0.113743 0.323628 0.536855
Si Si5 0.223418 0.671738 0.962523
Si Si6 0.189230 0.827597 0.290015
O O1 0.929975 0.259621 0.880694
O O2 0.000000 0.153243 0.750000
O O3 0.929889 0.022140 0.673820
O O4 0.959498 0.000000 0.000000
O O5 0.871635 0.855838 0.543750
O O6 0.303436 0.232035 0.701896
O O7 0.331863 0.505864 0.791172
O O8 0.377077 0.266591 0.861904
O O9 0.106359 0.500000 0.500000
O O10 0.153493 0.299060 0.666580
O O11 0.212643 0.789667 0.113183
O O12 0.208075 0.500000 0.000000
O O13 0.274246 0.677756 0.936034
#
# Coordination Sequence:
#
# PCOD8160659 Si02
#       6
#     8   4   8   8   8   8
#     4  12  24  45  77 110 136 177 232 282 342 424
#     4  12  22  44  74 104 134 176 234 282 332 410
#     4  12  23  43  69  94 136 186 236 284 338 418
#     4  12  25  44  69 101 142 181 224 289 354 406
#     4  12  24  37  58  95 134 178 237 296 345 393
#     4  12  23  41  61  91 131 186 238 279 344 414
#
# _framework density 20.800370999999998
#
# number of rings (size 3 to 8) (size 9 to 14) (size 15 to 20)
#    0.000    0.000    6.364    4.909    0.000    1.455 
#    0.000    2.727    0.000    0.000    0.000    0.000 
#    0.000    0.000    0.000    0.000    0.000    0.000 
#
# Total GULP energy -272811.456786 kJ/mol
# GULP energy per Si atom -12400.520763 kJ/mol
# Density = 2.075303 g / cm^3
# Si number density = 20.800371 Si / 1000 Ang^3
#
#
#
# Elastic Constant Matrix: (Units=GPa)
#
#
# Indices 1 2 3 4 5 6 
#
# 1 147.5239 65.1202 55.3340 0.0000 0.0000 0.0000
# 2 65.1202 141.1672 47.3264 0.0000 0.0000 0.0000
# 3 55.3340 47.3264 116.6634 0.0000 0.0000 0.0000
# 4 0.0000 0.0000 0.0000 31.7878 0.0000 0.0000
# 5 0.0000 0.0000 0.0000 0.0000 47.0379 0.0000
# 6 0.0000 0.0000 0.0000 0.0000 0.0000 17.6018
#
#
#
# Elastic Compliance Matrix: (Units=1/GPa)
#
#
# Indices 1 2 3 4 5 6 
#
# 1 0.009403 -0.003290 -0.003125 0.000000 0.000000 0.000000
# 2 -0.003290 0.009350 -0.002233 0.000000 0.000000 0.000000
# 3 -0.003125 -0.002233 0.010960 0.000000 0.000000 0.000000
# 4 0.000000 0.000000 0.000000 0.031459 0.000000 0.000000
# 5 0.000000 0.000000 0.000000 0.000000 0.021259 0.000000
# 6 0.000000 0.000000 0.000000 0.000000 0.000000 0.056812
#
#
# Mechanical properties :
#
#
# Convention : Reuss Voigt Hill
#
# Bulk Modulus (GPa) = 80.53358 82.32396 81.42877
# Shear Modulus (GPa) = 31.11826 35.12377 33.12102
#
# Velocity S-wave (km/s) = 3.87207 4.11373 3.99473
# Velocity P-wave (km/s) = 7.66759 7.88846 7.77881
#
# Compressibility (1/GPa) = 0.01241718
#
# Stress axis : x y z
#
# Youngs Moduli (GPa) = 106.34874 106.95361 91.24348
#
# Poissons Ratio (x) = 0.35186 0.28517
# Poissons Ratio (y) = 0.34987 0.20370
# Poissons Ratio (z) = 0.33237 0.23878
#
# Static dielectric constant tensor:
#      x y z
#    x 4.071900 0.000000 0.000000 
#    y 0.000000 3.581030 0.000000 
#    z 0.000000 0.000000 4.085300 
# 
# 
# High freq. dielectric constant tensor:
#      x y z
#    x 1.821800 0.000000 0.000000 
#    y 0.000000 1.795370 0.000000 
#    z 0.000000 0.000000 1.836990 
# 
# From -- ./inp_files/11379.got.cif
#   From: 2010.03.12/outbox.cif.g09.slc.cpg/sg20_6_cif.got.tgz:11379.got - 2010.04.14 01:38:04.
