data_PCOD8160827
_publ_section_title
;
Structure prediction by ZEFSAII (Michael W. Deem and Ramdas Pophale) SiO2 
 PCOD8160827
Probable space group: C 2 2 2
;
_chemical_formula_sum "Si O2"
_cell_formula_units_Z 36
_cell_length_a 19.764541
_cell_length_b 8.205231
_cell_length_c 11.779818
_cell_angle_alpha 90.000000
_cell_angle_beta 90.000000
_cell_angle_gamma 90.000000
_cell_volume 1910.364001
_symmetry_space_group_name_H-M "C 2 2 2"
_symmetry_group_IT_number 21
_symmetry_cell_setting 'orthorhombic'
loop_
_space_group_symop_operation_xyz
x,y,z
-x,-y,z
x,-y,-z
-x,y,-z
1/2+x,1/2+y,z
1/2-x,1/2-y,z
1/2+x,1/2-y,-z
1/2-x,1/2+y,-z
loop_
_atom_site_type_symbol
_atom_site_label
_atom_site_fract_x
_atom_site_fract_y
_atom_site_fract_z
Si Si1 0.750000 0.250000 0.610463
Si Si2 0.213900 0.523834 0.239719
Si Si3 0.151001 0.500000 0.000000
Si Si4 0.847018 0.000000 0.500000
Si Si5 0.360372 0.660850 0.278994
Si Si6 0.924117 0.831952 0.955287
O O1 0.798071 0.360084 0.689769
O O2 0.701125 0.350828 0.530386
O O3 0.293130 0.565711 0.241483
O O4 0.163757 0.653791 0.298923
O O5 0.198282 0.499242 0.108626
O O6 0.108043 0.333636 0.003548
O O7 0.890177 0.929196 0.607195
O O8 0.418064 0.660149 0.181999
O O9 0.000000 0.829410 0.000000
O O10 0.889217 0.000000 0.000000
#
# Coordination Sequence:
#
# PCOD8160827 Si02
#       6
#     4   8   4   4   8   8
#     4  10  18  28  48  76 116 156 172 214 278 334
#     4   9  19  30  49  83 116 146 177 221 285 334
#     4  10  21  34  56  84 113 144 180 232 276 340
#     4  10  18  30  50  75 116 144 189 218 264 338
#     4   9  19  34  50  79 114 145 183 226 272 333
#     4  10  22  38  57  78 109 146 189 230 275 324
#
# _framework density 18.844576
#
# number of rings (size 3 to 8) (size 9 to 14) (size 15 to 20)
#    0.000    2.444    0.000    3.000    7.778    1.778 
#    0.000    0.000    0.000    2.667    0.000    0.000 
#    0.000    0.000    0.000    0.000    0.000    0.000 
#
# Total GULP energy -223020.101355 kJ/mol
# GULP energy per Si atom -12390.005631 kJ/mol
# Density = 1.880168 g / cm^3
# Si number density = 18.844576 Si / 1000 Ang^3
#
#
#
# Elastic Constant Matrix: (Units=GPa)
#
#
# Indices 1 2 3 4 5 6 
#
# 1 48.1888 22.6993 37.7189 0.0000 0.0000 0.0000
# 2 22.6993 147.9154 55.3260 0.0000 0.0000 0.0000
# 3 37.7189 55.3260 133.2258 0.0000 0.0000 0.0000
# 4 0.0000 0.0000 0.0000 41.6604 0.0000 0.0000
# 5 0.0000 0.0000 0.0000 0.0000 27.4251 0.0000
# 6 0.0000 0.0000 0.0000 0.0000 0.0000 12.3233
#
#
#
# Elastic Compliance Matrix: (Units=1/GPa)
#
#
# Indices 1 2 3 4 5 6 
#
# 1 0.026944 -0.001517 -0.006998 0.000000 0.000000 0.000000
# 2 -0.001517 0.008089 -0.002930 0.000000 0.000000 0.000000
# 3 -0.006998 -0.002930 0.010704 0.000000 0.000000 0.000000
# 4 0.000000 0.000000 0.000000 0.024004 0.000000 0.000000
# 5 0.000000 0.000000 0.000000 0.000000 0.036463 0.000000
# 6 0.000000 0.000000 0.000000 0.000000 0.000000 0.081147
#
#
# Mechanical properties :
#
#
# Convention : Reuss Voigt Hill
#
# Bulk Modulus (GPa) = 43.76964 62.31314 53.04139
# Shear Modulus (GPa) = 22.95079 30.52081 26.73580
#
# Velocity S-wave (km/s) = 3.49363 4.02880 3.77072
# Velocity P-wave (km/s) = 6.28896 7.40137 6.86772
#
# Compressibility (1/GPa) = 0.02284689
#
# Stress axis : x y z
#
# Youngs Moduli (GPa) = 37.11371 123.62008 93.42219
#
# Poissons Ratio (x) = 0.18756 0.65380
# Poissons Ratio (y) = 0.05631 0.27370
# Poissons Ratio (z) = 0.25974 0.36218
#
# Static dielectric constant tensor:
#      x y z
#    x 2.903650 0.000000 0.000000 
#    y 0.000000 3.949810 0.000000 
#    z 0.000000 0.000000 3.767500 
# 
# 
# High freq. dielectric constant tensor:
#      x y z
#    x 1.672000 0.000000 0.000000 
#    y 0.000000 1.760170 0.000000 
#    z 0.000000 0.000000 1.745880 
# 
# From -- ./inp_files/22484.got.cif
#   From: 2010.03.12/outbox.cif.g09.slc.cpg/sg21_12_cif.got.tgz:22484.got - 2010.04.14 01:59:26.
