data_PCOD8160970
_publ_section_title
;
Structure prediction by ZEFSAII (Michael W. Deem and Ramdas Pophale) SiO2 
 PCOD8160970
Probable space group: C 2 2 2
;
_chemical_formula_sum "Si O2"
_cell_formula_units_Z 64
_cell_length_a 18.424309
_cell_length_b 15.595432
_cell_length_c 11.678647
_cell_angle_alpha 90.000000
_cell_angle_beta 90.000000
_cell_angle_gamma 90.000000
_cell_volume 3355.684715
_symmetry_space_group_name_H-M "C 2 2 2"
_symmetry_group_IT_number 21
_symmetry_cell_setting 'orthorhombic'
loop_
_space_group_symop_operation_xyz
x,y,z
-x,-y,z
x,-y,-z
-x,y,-z
1/2+x,1/2+y,z
1/2-x,1/2-y,z
1/2+x,1/2-y,-z
1/2-x,1/2+y,-z
loop_
_atom_site_type_symbol
_atom_site_label
_atom_site_fract_x
_atom_site_fract_y
_atom_site_fract_z
Si Si1 0.926860 0.538426 0.779072
Si Si2 0.710890 0.660006 0.220711
Si Si3 0.653080 0.916465 0.562861
Si Si4 0.927917 0.244327 0.428557
Si Si5 0.962579 0.722624 0.832996
Si Si6 0.706218 0.662485 0.475548
Si Si7 0.823758 0.429139 0.912408
Si Si8 0.611464 0.750311 0.056154
O O1 0.861329 0.564769 0.695544
O O2 0.944520 0.622872 0.851759
O O3 0.899057 0.465114 0.863525
O O4 0.000000 0.500000 0.719347
O O5 0.750000 0.750000 0.237085
O O6 0.681304 0.634801 0.346983
O O7 0.764492 0.582726 0.187388
O O8 0.653113 0.671292 0.117101
O O9 0.604345 0.834735 0.526065
O O10 0.738750 0.905079 0.535347
O O11 0.622338 0.000000 0.500000
O O12 0.943990 0.244283 0.293497
O O13 0.867549 0.170916 0.450643
O O14 0.000000 0.223414 0.500000
O O15 0.047698 0.730885 0.854125
O O16 0.917914 0.776083 0.929968
O O17 0.750000 0.750000 0.473771
O O18 0.837917 0.334229 0.963428
O O19 0.792295 0.500000 0.000000
#
# Coordination Sequence:
#
# PCOD8160970 Si02
#       8
#     8   8   8   8   8   8   8   8
#     4  11  21  31  50  77 115 152 180 222 276 343
#     4   9  19  33  53  73 100 148 190 225 263 331
#     4  10  22  33  50  80 111 149 180 227 281 336
#     4  10  21  34  55  82 106 145 187 233 280 332
#     4  10  20  32  51  80 109 143 182 228 277 329
#     4   9  18  38  54  72 110 149 187 231 282 334
#     4  11  20  33  50  78 110 148 187 221 269 335
#     4  10  19  34  52  77 111 146 182 225 275 328
#
# _framework density 19.072113999999999
#
# number of rings (size 3 to 8) (size 9 to 14) (size 15 to 20)
#    0.000    2.000    2.500    1.500    3.500    2.250 
#    2.250    1.875    0.000    0.375    0.000    1.750 
#    0.000    0.000    0.000    0.000    0.000    0.000 
#
# Total GULP energy -396531.299069 kJ/mol
# GULP energy per Si atom -12391.603096 kJ/mol
# Density = 1.902870 g / cm^3
# Si number density = 19.072114 Si / 1000 Ang^3
#
#
#
# Elastic Constant Matrix: (Units=GPa)
#
#
# Indices 1 2 3 4 5 6 
#
# 1 96.0872 27.1054 56.1171 0.0000 0.0000 0.0000
# 2 27.1054 33.8606 27.7495 0.0000 0.0000 0.0000
# 3 56.1171 27.7495 119.4289 0.0000 0.0000 0.0000
# 4 0.0000 0.0000 0.0000 19.7591 0.0000 0.0000
# 5 0.0000 0.0000 0.0000 0.0000 36.1183 0.0000
# 6 0.0000 0.0000 0.0000 0.0000 0.0000 25.4245
#
#
#
# Elastic Compliance Matrix: (Units=1/GPa)
#
#
# Indices 1 2 3 4 5 6 
#
# 1 0.016000 -0.008210 -0.005610 0.000000 0.000000 0.000000
# 2 -0.008210 0.040692 -0.005597 0.000000 0.000000 0.000000
# 3 -0.005610 -0.005597 0.012310 0.000000 0.000000 0.000000
# 4 0.000000 0.000000 0.000000 0.050610 0.000000 0.000000
# 5 0.000000 0.000000 0.000000 0.000000 0.027687 0.000000
# 6 0.000000 0.000000 0.000000 0.000000 0.000000 0.039332
#
#
# Mechanical properties :
#
#
# Convention : Reuss Voigt Hill
#
# Bulk Modulus (GPa) = 33.14921 52.36898 42.75909
# Shear Modulus (GPa) = 21.22955 25.48734 23.35844
#
# Velocity S-wave (km/s) = 3.33996 3.65960 3.50343
# Velocity P-wave (km/s) = 5.68265 6.73609 6.23167
#
# Compressibility (1/GPa) = 0.03016663
#
# Stress axis : x y z
#
# Youngs Moduli (GPa) = 62.50090 24.57484 81.23567
#
# Poissons Ratio (x) = 0.20176 0.45576
# Poissons Ratio (y) = 0.51313 0.45469
# Poissons Ratio (z) = 0.35065 0.13755
#
# Static dielectric constant tensor:
#      x y z
#    x 3.517200 0.000000 0.000000 
#    y 0.000000 3.258050 0.000000 
#    z 0.000000 0.000000 3.532700 
# 
# 
# High freq. dielectric constant tensor:
#      x y z
#    x 1.734490 0.000000 0.000000 
#    y 0.000000 1.700000 0.000000 
#    z 0.000000 0.000000 1.745280 
# 
# From -- ./inp_files/26298.got.cif
#   From: 2010.03.12/outbox.cif.g09.slc.cpg/sg21_14_cif.got.tgz:26298.got - 2010.04.14 01:59:26.
