data_PCOD8160228
_publ_section_title
;
Structure prediction by ZEFSAII (Michael W. Deem and Ramdas Pophale) SiO2 
 PCOD8160228
Probable space group: C 2 2 21
;
_chemical_formula_sum "Si O2"
_cell_formula_units_Z 44
_cell_length_a 16.888946
_cell_length_b 14.930460
_cell_length_c 8.890325
_cell_angle_alpha 90.000000
_cell_angle_beta 90.000000
_cell_angle_gamma 90.000000
_cell_volume 2241.781976
_symmetry_space_group_name_H-M "C 2 2 21"
_symmetry_group_IT_number 20
_symmetry_cell_setting 'orthorhombic'
loop_
_space_group_symop_operation_xyz
x,y,z
-x,-y,1/2+z
x,-y,-z
-x,y,1/2-z
1/2+x,1/2+y,z
1/2-x,1/2-y,1/2+z
1/2+x,1/2-y,-z
1/2-x,1/2+y,1/2-z
loop_
_atom_site_type_symbol
_atom_site_label
_atom_site_fract_x
_atom_site_fract_y
_atom_site_fract_z
Si Si1 0.944725 0.139826 0.373649
Si Si2 0.540173 0.500000 0.500000
Si Si3 0.077211 0.743403 0.160279
Si Si4 0.710483 0.460197 0.838653
Si Si5 0.809276 0.593850 0.427361
Si Si6 0.336175 0.376941 0.136324
O O1 0.951187 0.186878 0.534814
O O2 0.852351 0.122313 0.337125
O O3 0.000000 0.192800 0.250000
O O4 0.981613 0.039429 0.374852
O O5 0.590997 0.588022 0.537986
O O6 0.116252 0.659896 0.073901
O O7 0.141184 0.786441 0.275576
O O8 0.000000 0.710360 0.250000
O O9 0.784838 0.421513 0.746524
O O10 0.676902 0.545019 0.753811
O O11 0.736491 0.500000 0.000000
O O12 0.835991 0.500000 0.500000
O O13 0.739005 0.638336 0.527103
#
# Coordination Sequence:
#
# PCOD8160228 Si02
#       6
#     8   4   8   8   8   8
#     4  12  22  33  59  98 140 164 196 260 344 418
#     4  12  18  34  60  96 138 162 186 258 350 402
#     4  12  26  41  63  99 130 174 230 276 320 390
#     4  11  20  35  62  97 126 170 209 252 333 414
#     4  10  25  47  64  85 131 182 229 275 325 381
#     4  11  20  38  63  92 133 169 203 267 338 403
#
# _framework density 19.627243
#
# number of rings (size 3 to 8) (size 9 to 14) (size 15 to 20)
#    0.000    0.727    9.091    0.000    2.545    0.000 
#    0.000    5.455    0.000    0.000    0.000    0.000 
#    0.000    0.000    0.000    0.000    0.000    0.000 
#
# Total GULP energy -272596.155489 kJ/mol
# GULP energy per Si atom -12390.734340 kJ/mol
# Density = 1.958257 g / cm^3
# Si number density = 19.627243 Si / 1000 Ang^3
#
#
#
# Elastic Constant Matrix: (Units=GPa)
#
#
# Indices 1 2 3 4 5 6 
#
# 1 85.1795 47.1454 38.9703 0.0000 0.0000 0.0000
# 2 47.1454 72.3149 27.5402 0.0000 0.0000 0.0000
# 3 38.9703 27.5402 113.5674 0.0000 0.0000 0.0000
# 4 0.0000 0.0000 0.0000 21.8845 0.0000 0.0000
# 5 0.0000 0.0000 0.0000 0.0000 54.2649 0.0000
# 6 0.0000 0.0000 0.0000 0.0000 0.0000 34.2821
#
#
#
# Elastic Compliance Matrix: (Units=1/GPa)
#
#
# Indices 1 2 3 4 5 6 
#
# 1 0.019937 -0.011450 -0.004065 0.000000 0.000000 0.000000
# 2 -0.011450 0.021811 -0.001360 0.000000 0.000000 0.000000
# 3 -0.004065 -0.001360 0.010530 0.000000 0.000000 0.000000
# 4 0.000000 0.000000 0.000000 0.045694 0.000000 0.000000
# 5 0.000000 0.000000 0.000000 0.000000 0.018428 0.000000
# 6 0.000000 0.000000 0.000000 0.000000 0.000000 0.029170
#
#
# Mechanical properties :
#
#
# Convention : Reuss Voigt Hill
#
# Bulk Modulus (GPa) = 53.97094 55.37485 54.67289
# Shear Modulus (GPa) = 26.95484 32.58004 29.76744
#
# Velocity S-wave (km/s) = 3.70988 4.07866 3.89863
# Velocity P-wave (km/s) = 6.77559 7.10317 6.94131
#
# Compressibility (1/GPa) = 0.01852849
#
# Stress axis : x y z
#
# Youngs Moduli (GPa) = 50.15865 45.84841 94.96686
#
# Poissons Ratio (x) = 0.52495 0.38601
# Poissons Ratio (y) = 0.57430 0.12918
# Poissons Ratio (z) = 0.20388 0.06237
#
# Static dielectric constant tensor:
#      x y z
#    x 3.446090 0.000000 0.000000 
#    y 0.000000 2.751320 0.000000 
#    z 0.000000 0.000000 3.669370 
# 
# 
# High freq. dielectric constant tensor:
#      x y z
#    x 1.748530 0.000000 0.000000 
#    y 0.000000 1.729880 0.000000 
#    z 0.000000 0.000000 1.785200 
# 
# From -- ./inp_files/9278.got.cif
#   From: 2010.03.12/outbox.cif.g09.slc.cpg/sg20_5_cif.got.tgz:9278.got - 2010.04.14 01:38:04.
