data_PCOD8160471
_publ_section_title
;
Structure prediction by ZEFSAII (Michael W. Deem and Ramdas Pophale) SiO2 
 PCOD8160471
Probable space group: C 2 2 21
;
_chemical_formula_sum "Si O2"
_cell_formula_units_Z 56
_cell_length_a 15.616524
_cell_length_b 8.246865
_cell_length_c 19.739135
_cell_angle_alpha 90.000000
_cell_angle_beta 90.000000
_cell_angle_gamma 90.000000
_cell_volume 2542.151188
_symmetry_space_group_name_H-M "C 2 2 21"
_symmetry_group_IT_number 20
_symmetry_cell_setting 'orthorhombic'
loop_
_space_group_symop_operation_xyz
x,y,z
-x,-y,1/2+z
x,-y,-z
-x,y,1/2-z
1/2+x,1/2+y,z
1/2-x,1/2-y,1/2+z
1/2+x,1/2-y,-z
1/2-x,1/2+y,1/2-z
loop_
_atom_site_type_symbol
_atom_site_label
_atom_site_fract_x
_atom_site_fract_y
_atom_site_fract_z
Si Si1 0.380404 0.759783 0.592119
Si Si2 0.275126 0.534579 0.072631
Si Si3 0.181040 0.939848 0.207924
Si Si4 0.938462 0.190951 0.119012
Si Si5 0.500000 0.515384 0.250000
Si Si6 0.796617 0.310839 0.323172
Si Si7 0.971074 0.000000 0.500000
Si Si8 0.975970 0.515374 0.671915
O O1 0.317086 0.885576 0.555553
O O2 0.315796 0.678613 0.644899
O O3 0.413318 0.625639 0.540840
O O4 0.459746 0.848095 0.630726
O O5 0.337596 0.648108 0.118334
O O6 0.260339 0.365729 0.112532
O O7 0.319108 0.500000 0.000000
O O8 0.199768 0.119405 0.181794
O O9 0.256811 0.889042 0.256593
O O10 0.087149 0.913306 0.241930
O O11 0.951831 0.385352 0.128441
O O12 0.988918 0.123605 0.183685
O O13 0.975306 0.111993 0.050782
O O14 0.891277 0.377649 0.329797
O O15 0.000000 0.477236 0.750000
#
# Coordination Sequence:
#
# PCOD8160471 Si02
#       8
#     8   8   8   8   4   8   4   8
#     4  11  28  43  69 103 139 190 239 290 363 431
#     4  11  26  45  68 100 141 185 234 293 354 436
#     4  12  24  44  69 104 138 186 237 295 356 428
#     4  12  23  46  70 101 140 189 233 293 369 427
#     4  12  22  42  72  98 144 184 228 304 358 422
#     4  11  23  42  70 103 140 182 230 296 356 422
#     4  12  26  46  68  98 144 188 238 286 356 440
#     4  11  24  43  74 105 139 181 237 304 361 428
#
# _framework density 22.028586000000001
#
# number of rings (size 3 to 8) (size 9 to 14) (size 15 to 20)
#    0.000    0.571    5.714    1.714    9.000    0.000 
#    2.571    1.429    0.000    0.000    0.000    0.000 
#    0.000    0.000    0.000    0.000    0.000    0.000 
#
# Total GULP energy -347103.862751 kJ/mol
# GULP energy per Si atom -12396.566527 kJ/mol
# Density = 2.197845 g / cm^3
# Si number density = 22.028586 Si / 1000 Ang^3
#
#
#
# Elastic Constant Matrix: (Units=GPa)
#
#
# Indices 1 2 3 4 5 6 
#
# 1 78.5753 22.9935 19.1836 0.0000 0.0000 0.0000
# 2 22.9935 100.6071 37.0419 0.0000 0.0000 0.0000
# 3 19.1836 37.0419 122.4157 0.0000 0.0000 0.0000
# 4 0.0000 0.0000 0.0000 29.3174 0.0000 0.0000
# 5 0.0000 0.0000 0.0000 0.0000 26.4769 0.0000
# 6 0.0000 0.0000 0.0000 0.0000 0.0000 35.7984
#
#
#
# Elastic Compliance Matrix: (Units=1/GPa)
#
#
# Indices 1 2 3 4 5 6 
#
# 1 0.013838 -0.002661 -0.001363 0.000000 0.000000 0.000000
# 2 -0.002661 0.011697 -0.003123 0.000000 0.000000 0.000000
# 3 -0.001363 -0.003123 0.009327 0.000000 0.000000 0.000000
# 4 0.000000 0.000000 0.000000 0.034109 0.000000 0.000000
# 5 0.000000 0.000000 0.000000 0.000000 0.037769 0.000000
# 6 0.000000 0.000000 0.000000 0.000000 0.000000 0.027934
#
#
# Mechanical properties :
#
#
# Convention : Reuss Voigt Hill
#
# Bulk Modulus (GPa) = 48.61558 51.11514 49.86536
# Shear Modulus (GPa) = 32.08721 33.14382 32.61551
#
# Velocity S-wave (km/s) = 3.82071 3.88310 3.85203
# Velocity P-wave (km/s) = 6.44833 6.58476 6.51690
#
# Compressibility (1/GPa) = 0.02056954
#
# Stress axis : x y z
#
# Youngs Moduli (GPa) = 72.26414 85.48889 107.21082
#
# Poissons Ratio (x) = 0.22746 0.14618
# Poissons Ratio (y) = 0.19227 0.33477
# Poissons Ratio (z) = 0.09853 0.26695
#
# Static dielectric constant tensor:
#      x y z
#    x 4.025480 0.000000 0.000000 
#    y 0.000000 4.100530 0.000000 
#    z 0.000000 0.000000 4.119220 
# 
# 
# High freq. dielectric constant tensor:
#      x y z
#    x 1.871380 0.000000 0.000000 
#    y 0.000000 1.864450 0.000000 
#    z 0.000000 0.000000 1.873350 
# 
# From -- ./inp_files/27611.got.cif
#   From: 2010.03.12/outbox.cif.g09.slc.cpg/sg20_14_cif.got.tgz:27611.got - 2010.04.14 01:38:04.
