data_PCOD8160739
_publ_section_title
;
Structure prediction by ZEFSAII (Michael W. Deem and Ramdas Pophale) SiO2 
 PCOD8160739
Probable space group: C 2 2 21
;
_chemical_formula_sum "Si O2"
_cell_formula_units_Z 28
_cell_length_a 8.638884
_cell_length_b 16.364983
_cell_length_c 7.097477
_cell_angle_alpha 90.000000
_cell_angle_beta 90.000000
_cell_angle_gamma 90.000000
_cell_volume 1003.407158
_symmetry_space_group_name_H-M "C 2 2 21"
_symmetry_group_IT_number 20
_symmetry_cell_setting 'orthorhombic'
loop_
_space_group_symop_operation_xyz
x,y,z
-x,-y,1/2+z
x,-y,-z
-x,y,1/2-z
1/2+x,1/2+y,z
1/2-x,1/2-y,1/2+z
1/2+x,1/2-y,-z
1/2-x,1/2+y,1/2-z
loop_
_atom_site_type_symbol
_atom_site_label
_atom_site_fract_x
_atom_site_fract_y
_atom_site_fract_z
Si Si1 0.641139 0.319676 0.127052
Si Si2 0.667764 0.568083 0.233278
Si Si3 0.150934 0.352811 0.039541
Si Si4 0.582303 0.000000 0.500000
O O1 0.500000 0.354957 0.250000
O O2 0.799948 0.327465 0.248940
O O3 0.598501 0.226749 0.075472
O O4 0.667201 0.367136 0.934395
O O5 0.500000 0.524472 0.250000
O O6 0.699701 0.609665 0.433416
O O7 0.805338 0.503491 0.186172
O O8 0.012395 0.417643 0.028655
#
# Coordination Sequence:
#
# PCOD8160739 Si02
#       4
#     8   8   8   4
#     4  12  26  51  85 124 176 241 299 360 436 528
#     4  12  28  52  81 124 175 236 293 363 443 530
#     4  12  28  53  85 132 177 234 302 367 437 528
#     4  12  32  54  88 128 176 226 292 368 454 506
#
# _framework density 27.904924000000001
#
# number of rings (size 3 to 8) (size 9 to 14) (size 15 to 20)
#    0.000    0.000    5.714    2.571    8.000    2.286 
#    0.000    0.000    0.000    0.000    0.000    0.000 
#    0.000    0.000    0.000    0.000    0.000    0.000 
#
# Total GULP energy -173640.934144 kJ/mol
# GULP energy per Si atom -12402.923867 kJ/mol
# Density = 2.784141 g / cm^3
# Si number density = 27.904924 Si / 1000 Ang^3
#
#
#
# Elastic Constant Matrix: (Units=GPa)
#
#
# Indices 1 2 3 4 5 6 
#
# 1 164.6588 69.1907 67.6217 0.0000 0.0000 0.0000
# 2 69.1907 148.9884 49.4847 0.0000 0.0000 0.0000
# 3 67.6217 49.4847 120.9749 0.0000 0.0000 0.0000
# 4 0.0000 0.0000 0.0000 35.1004 0.0000 0.0000
# 5 0.0000 0.0000 0.0000 0.0000 62.6882 0.0000
# 6 0.0000 0.0000 0.0000 0.0000 0.0000 24.0957
#
#
#
# Elastic Compliance Matrix: (Units=1/GPa)
#
#
# Indices 1 2 3 4 5 6 
#
# 1 0.008813 -0.002843 -0.003764 0.000000 0.000000 0.000000
# 2 -0.002843 0.008684 -0.001963 0.000000 0.000000 0.000000
# 3 -0.003764 -0.001963 0.011173 0.000000 0.000000 0.000000
# 4 0.000000 0.000000 0.000000 0.028490 0.000000 0.000000
# 5 0.000000 0.000000 0.000000 0.000000 0.015952 0.000000
# 6 0.000000 0.000000 0.000000 0.000000 0.000000 0.041501
#
#
# Mechanical properties :
#
#
# Convention : Reuss Voigt Hill
#
# Bulk Modulus (GPa) = 86.72072 89.69070 88.20571
# Shear Modulus (GPa) = 36.87410 40.93185 38.90298
#
# Velocity S-wave (km/s) = 3.63908 3.83408 3.73785
# Velocity P-wave (km/s) = 6.98583 7.19802 7.09272
#
# Compressibility (1/GPa) = 0.01153127
#
# Stress axis : x y z
#
# Youngs Moduli (GPa) = 113.46371 115.15102 89.50212
#
# Poissons Ratio (x) = 0.32737 0.33684
# Poissons Ratio (y) = 0.32257 0.17571
# Poissons Ratio (z) = 0.42702 0.22606
#
# Static dielectric constant tensor:
#      x y z
#    x 5.426200 0.000000 0.000000 
#    y 0.000000 5.177450 0.000000 
#    z 0.000000 0.000000 5.534670 
# 
# 
# High freq. dielectric constant tensor:
#      x y z
#    x 2.138050 0.000000 0.000000 
#    y 0.000000 2.128570 0.000000 
#    z 0.000000 0.000000 2.150460 
# 
# From -- ./inp_files/5698.got.cif
#   From: 2010.03.12/outbox.cif.g09.slc.cpg/sg20_3_cif.got.tgz:5698.got - 2010.04.14 01:38:04.
