data_PCOD8160146
_publ_section_title
;
Structure prediction by ZEFSAII (Michael W. Deem and Ramdas Pophale) SiO2 
 PCOD8160146
Probable space group: C 2 2 21
;
_chemical_formula_sum "Si O2"
_cell_formula_units_Z 48
_cell_length_a 22.615848
_cell_length_b 11.005178
_cell_length_c 8.980312
_cell_angle_alpha 90.000000
_cell_angle_beta 90.000000
_cell_angle_gamma 90.000000
_cell_volume 2235.122721
_symmetry_space_group_name_H-M "C 2 2 21"
_symmetry_group_IT_number 20
_symmetry_cell_setting 'orthorhombic'
loop_
_space_group_symop_operation_xyz
x,y,z
-x,-y,1/2+z
x,-y,-z
-x,y,1/2-z
1/2+x,1/2+y,z
1/2-x,1/2-y,1/2+z
1/2+x,1/2-y,-z
1/2-x,1/2+y,1/2-z
loop_
_atom_site_type_symbol
_atom_site_label
_atom_site_fract_x
_atom_site_fract_y
_atom_site_fract_z
Si Si1 0.000000 0.718445 0.750000
Si Si2 0.931937 0.174130 0.794932
Si Si3 0.211375 0.870181 0.932099
Si Si4 0.101083 0.364242 0.449533
Si Si5 0.132332 0.000000 0.500000
Si Si6 0.920204 0.864806 0.525861
Si Si7 0.290399 0.712583 0.121487
O O1 0.048685 0.634739 0.671626
O O2 0.029665 0.798641 0.879187
O O3 0.902822 0.197185 0.633183
O O4 0.000000 0.162344 0.750000
O O5 0.917267 0.283010 0.907796
O O6 0.909450 0.045263 0.864129
O O7 0.142049 0.866516 0.889737
O O8 0.238961 0.840943 0.771338
O O9 0.232798 0.762472 0.037911
O O10 0.230163 0.000000 0.000000
O O11 0.112997 0.500000 0.500000
O O12 0.160806 0.320194 0.367033
O O13 0.176168 0.107978 0.464938
O O14 0.945088 0.000000 0.500000
#
# Coordination Sequence:
#
# PCOD8160146 Si02
#       7
#     4   8   8   8   4   8   8
#     4  12  24  42  66 102 138 182 232 276 350 410
#     4  11  24  39  67 102 132 178 222 276 349 411
#     4  11  25  45  71 101 139 180 231 282 345 406
#     4  11  26  46  67  96 141 181 229 283 340 404
#     4  10  24  44  68 102 142 172 228 290 350 400
#     4  11  25  40  68 103 139 175 224 289 348 413
#     4  11  25  46  71 102 134 183 227 287 346 408
#
# _framework density 21.475331000000001
#
# number of rings (size 3 to 8) (size 9 to 14) (size 15 to 20)
#    0.000    1.000    3.333    2.500   12.833    0.000 
#    0.000    0.000    1.833    0.000    0.000    0.000 
#    0.000    0.000    0.000    0.000    0.000    0.000 
#
# Total GULP energy -297464.850261 kJ/mol
# GULP energy per Si atom -12394.368761 kJ/mol
# Density = 2.142645 g / cm^3
# Si number density = 21.475331 Si / 1000 Ang^3
#
#
#
# Elastic Constant Matrix: (Units=GPa)
#
#
# Indices 1 2 3 4 5 6 
#
# 1 65.1257 39.5468 18.7769 0.0000 0.0000 0.0000
# 2 39.5468 120.3641 37.7816 0.0000 0.0000 0.0000
# 3 18.7769 37.7816 130.2796 0.0000 0.0000 0.0000
# 4 0.0000 0.0000 0.0000 31.1656 0.0000 0.0000
# 5 0.0000 0.0000 0.0000 0.0000 38.2492 0.0000
# 6 0.0000 0.0000 0.0000 0.0000 0.0000 22.8159
#
#
#
# Elastic Compliance Matrix: (Units=1/GPa)
#
#
# Indices 1 2 3 4 5 6 
#
# 1 0.019309 -0.006018 -0.001038 0.000000 0.000000 0.000000
# 2 -0.006018 0.011016 -0.002327 0.000000 0.000000 0.000000
# 3 -0.001038 -0.002327 0.008500 0.000000 0.000000 0.000000
# 4 0.000000 0.000000 0.000000 0.032087 0.000000 0.000000
# 5 0.000000 0.000000 0.000000 0.000000 0.026144 0.000000
# 6 0.000000 0.000000 0.000000 0.000000 0.000000 0.043829
#
#
# Mechanical properties :
#
#
# Convention : Reuss Voigt Hill
#
# Bulk Modulus (GPa) = 49.85412 56.44224 53.14818
# Shear Modulus (GPa) = 30.05933 33.09040 31.57487
#
# Velocity S-wave (km/s) = 3.74533 3.92963 3.83859
# Velocity P-wave (km/s) = 6.47830 6.85046 6.66698
#
# Compressibility (1/GPa) = 0.02005852
#
# Stress axis : x y z
#
# Youngs Moduli (GPa) = 51.79031 90.77679 117.64345
#
# Poissons Ratio (x) = 0.54633 0.12206
# Poissons Ratio (y) = 0.31169 0.27379
# Poissons Ratio (z) = 0.05374 0.21126
#
# Static dielectric constant tensor:
#      x y z
#    x 3.939330 0.000000 0.000000 
#    y 0.000000 3.867780 0.000000 
#    z 0.000000 0.000000 5.281660 
# 
# 
# High freq. dielectric constant tensor:
#      x y z
#    x 1.850500 0.000000 0.000000 
#    y 0.000000 1.827570 0.000000 
#    z 0.000000 0.000000 1.859600 
# 
# From -- ./inp_files/10667.got.cif
#   From: 2010.03.12/outbox.cif.g09.slc.cpg/sg20_6_cif.got.tgz:10667.got - 2010.04.14 01:38:04.
