data_PCOD8160316
_publ_section_title
;
Structure prediction by ZEFSAII (Michael W. Deem and Ramdas Pophale) SiO2 
 PCOD8160316
Probable space group: C 2 2 21
;
_chemical_formula_sum "Si O2"
_cell_formula_units_Z 52
_cell_length_a 6.286078
_cell_length_b 22.938872
_cell_length_c 18.393507
_cell_angle_alpha 90.000000
_cell_angle_beta 90.000000
_cell_angle_gamma 90.000000
_cell_volume 2652.261649
_symmetry_space_group_name_H-M "C 2 2 21"
_symmetry_group_IT_number 20
_symmetry_cell_setting 'orthorhombic'
loop_
_space_group_symop_operation_xyz
x,y,z
-x,-y,1/2+z
x,-y,-z
-x,y,1/2-z
1/2+x,1/2+y,z
1/2-x,1/2-y,1/2+z
1/2+x,1/2-y,-z
1/2-x,1/2+y,1/2-z
loop_
_atom_site_type_symbol
_atom_site_label
_atom_site_fract_x
_atom_site_fract_y
_atom_site_fract_z
Si Si1 0.624687 0.869983 0.823811
Si Si2 0.364025 0.305349 0.425388
Si Si3 0.133429 0.020342 0.317339
Si Si4 0.321516 0.198421 0.079467
Si Si5 0.000000 0.553665 0.750000
Si Si6 0.066085 0.235103 0.325792
Si Si7 0.889832 0.911107 0.327226
O O1 0.500000 0.889112 0.750000
O O2 0.774883 0.921896 0.856800
O O3 0.468395 0.853250 0.889783
O O4 0.766288 0.814508 0.804062
O O5 0.550914 0.258377 0.433308
O O6 0.277546 0.323284 0.504045
O O7 0.168133 0.282444 0.378177
O O8 0.454775 0.362876 0.386204
O O9 0.000000 0.045703 0.250000
O O10 0.339774 0.985012 0.295133
O O11 0.975332 0.974280 0.358472
O O12 0.138096 0.207651 0.137212
O O13 0.864024 0.589952 0.810265
O O14 0.000000 0.265908 0.250000
O O15 0.000000 0.897673 0.250000
#
# Coordination Sequence:
#
# PCOD8160316 Si02
#       7
#     8   8   8   8   4   8   8
#     4  11  21  35  63  96 121 155 206 257 305 375
#     4  11  24  41  59  87 129 167 203 253 311 384
#     4   9  18  34  58  93 122 152 198 254 304 351
#     4  11  24  41  59  91 125 168 203 246 330 364
#     4   8  16  34  56  90 114 152 190 242 310 340
#     4  11  23  37  61  93 122 158 209 259 307 363
#     4   9  21  35  59  94 115 157 207 249 298 359
#
# _framework density 19.605907999999999
#
# number of rings (size 3 to 8) (size 9 to 14) (size 15 to 20)
#    0.000    2.154    3.846    0.462    3.231    1.231 
#    0.000    0.000    0.000    5.538    0.000    0.000 
#    0.000    0.000    0.000    0.000    0.000    0.000 
#
# Total GULP energy -322184.106874 kJ/mol
# GULP energy per Si atom -12391.696418 kJ/mol
# Density = 1.956128 g / cm^3
# Si number density = 19.605908 Si / 1000 Ang^3
#
#
#
# Elastic Constant Matrix: (Units=GPa)
#
#
# Indices 1 2 3 4 5 6 
#
# 1 98.1101 22.9756 30.0124 0.0000 0.0000 0.0000
# 2 22.9756 94.3469 33.6504 0.0000 0.0000 0.0000
# 3 30.0124 33.6504 107.1945 0.0000 0.0000 0.0000
# 4 0.0000 0.0000 0.0000 8.9664 0.0000 0.0000
# 5 0.0000 0.0000 0.0000 0.0000 25.4618 0.0000
# 6 0.0000 0.0000 0.0000 0.0000 0.0000 1.3878
#
#
#
# Elastic Compliance Matrix: (Units=1/GPa)
#
#
# Indices 1 2 3 4 5 6 
#
# 1 0.011427 -0.001849 -0.002619 0.000000 0.000000 0.000000
# 2 -0.001849 0.012235 -0.003323 0.000000 0.000000 0.000000
# 3 -0.002619 -0.003323 0.011105 0.000000 0.000000 0.000000
# 4 0.000000 0.000000 0.000000 0.111527 0.000000 0.000000
# 5 0.000000 0.000000 0.000000 0.000000 0.039275 0.000000
# 6 0.000000 0.000000 0.000000 0.000000 0.000000 0.720562
#
#
# Mechanical properties :
#
#
# Convention : Reuss Voigt Hill
#
# Bulk Modulus (GPa) = 52.12324 52.54761 52.33543
# Shear Modulus (GPa) = 5.38731 21.36407 13.37569
#
# Velocity S-wave (km/s) = 1.65945 3.30460 2.61478
# Velocity P-wave (km/s) = 5.50589 6.43589 5.98897
#
# Compressibility (1/GPa) = 0.01918530
#
# Stress axis : x y z
#
# Youngs Moduli (GPa) = 87.51452 81.73548 90.04729
#
# Poissons Ratio (x) = 0.15109 0.23583
# Poissons Ratio (y) = 0.16178 0.29924
# Poissons Ratio (z) = 0.22920 0.27162
#
# Static dielectric constant tensor:
#      x y z
#    x 4.104190 0.000000 0.000000 
#    y 0.000000 3.615760 0.000000 
#    z 0.000000 0.000000 3.350250 
# 
# 
# High freq. dielectric constant tensor:
#      x y z
#    x 1.786340 0.000000 0.000000 
#    y 0.000000 1.756770 0.000000 
#    z 0.000000 0.000000 1.727490 
# 
# From -- ./inp_files/26088.got.cif
#   From: 2010.03.12/outbox.cif.g09.slc.cpg/sg20_14_cif.got.tgz:26088.got - 2010.04.14 01:38:04.
