data_PCOD8160398
_publ_section_title
;
Structure prediction by ZEFSAII (Michael W. Deem and Ramdas Pophale) SiO2 
 PCOD8160398
Probable space group: C 2 2 21
;
_chemical_formula_sum "Si O2"
_cell_formula_units_Z 64
_cell_length_a 11.571162
_cell_length_b 14.292775
_cell_length_c 16.566510
_cell_angle_alpha 90.000000
_cell_angle_beta 90.000000
_cell_angle_gamma 90.000000
_cell_volume 2739.835938
_symmetry_space_group_name_H-M "C 2 2 21"
_symmetry_group_IT_number 20
_symmetry_cell_setting 'orthorhombic'
loop_
_space_group_symop_operation_xyz
x,y,z
-x,-y,1/2+z
x,-y,-z
-x,y,1/2-z
1/2+x,1/2+y,z
1/2-x,1/2-y,1/2+z
1/2+x,1/2-y,-z
1/2-x,1/2+y,1/2-z
loop_
_atom_site_type_symbol
_atom_site_label
_atom_site_fract_x
_atom_site_fract_y
_atom_site_fract_z
Si Si1 0.206833 0.105700 0.026307
Si Si2 0.679443 0.728889 0.183415
Si Si3 0.295991 0.490062 0.093910
Si Si4 0.443801 0.150396 0.961624
Si Si5 0.066945 0.572540 0.831375
Si Si6 0.081513 0.822498 0.322520
Si Si7 0.393476 0.764782 0.576743
Si Si8 0.656542 0.318006 0.640912
O O1 0.171382 0.146610 0.115101
O O2 0.344596 0.118545 0.022618
O O3 0.147896 0.165396 0.956455
O O4 0.171375 0.000000 0.000000
O O5 0.603479 0.818578 0.160302
O O6 0.807825 0.764191 0.207347
O O7 0.623754 0.690890 0.265575
O O8 0.179180 0.490482 0.149676
O O9 0.374498 0.400727 0.114613
O O10 0.377980 0.577250 0.115754
O O11 0.262669 0.500000 0.000000
O O12 0.467302 0.064653 0.899684
O O13 0.409187 0.245445 0.915332
O O14 0.566472 0.166164 0.005765
O O15 0.000000 0.543645 0.750000
O O16 0.000000 0.863274 0.250000
O O17 0.005934 0.747848 0.369465
O O18 0.294022 0.812697 0.627945
#
# Coordination Sequence:
#
# PCOD8160398 Si02
#       8
#     8   8   8   8   8   8   8   8
#     4  11  26  40  64 103 138 168 225 294 331 395
#     4  11  22  44  67  95 135 175 220 280 346 400
#     4  11  26  45  68 101 140 175 227 292 346 406
#     4  11  22  41  68  93 131 183 227 262 340 420
#     4  11  23  44  70  96 132 182 228 278 338 415
#     4  11  23  44  70  96 132 182 228 278 338 415
#     4  11  22  41  68  93 131 183 227 262 340 420
#     4  11  24  41  65  98 133 171 223 281 342 406
#
# _framework density 23.359064
#
# number of rings (size 3 to 8) (size 9 to 14) (size 15 to 20)
#    0.000    1.000    5.000    1.500    3.500    5.000 
#    4.500    0.000    0.000    0.000    0.000    0.000 
#    0.000    0.000    0.000    0.000    0.000    0.000 
#
# Total GULP energy -396565.333845 kJ/mol
# GULP energy per Si atom -12392.666683 kJ/mol
# Density = 2.330590 g / cm^3
# Si number density = 23.359064 Si / 1000 Ang^3
#
#
#
# Elastic Constant Matrix: (Units=GPa)
#
#
# Indices 1 2 3 4 5 6 
#
# 1 73.8602 -15.4060 7.6567 0.0000 0.0000 0.0000
# 2 -15.4060 63.3193 12.2734 0.0000 0.0000 0.0000
# 3 7.6567 12.2734 118.3832 0.0000 0.0000 0.0000
# 4 0.0000 0.0000 0.0000 29.1236 0.0000 0.0000
# 5 0.0000 0.0000 0.0000 0.0000 25.9067 0.0000
# 6 0.0000 0.0000 0.0000 0.0000 0.0000 14.7746
#
#
#
# Elastic Compliance Matrix: (Units=1/GPa)
#
#
# Indices 1 2 3 4 5 6 
#
# 1 0.014464 0.003776 -0.001327 0.000000 0.000000 0.000000
# 2 0.003776 0.017103 -0.002017 0.000000 0.000000 0.000000
# 3 -0.001327 -0.002017 0.008742 0.000000 0.000000 0.000000
# 4 0.000000 0.000000 0.000000 0.034336 0.000000 0.000000
# 5 0.000000 0.000000 0.000000 0.000000 0.038600 0.000000
# 6 0.000000 0.000000 0.000000 0.000000 0.000000 0.067684
#
#
# Mechanical properties :
#
#
# Convention : Reuss Voigt Hill
#
# Bulk Modulus (GPa) = 24.28748 29.40121 26.84435
# Shear Modulus (GPa) = 25.80111 30.69687 28.24899
#
# Velocity S-wave (km/s) = 3.32707 3.62903 3.48133
# Velocity P-wave (km/s) = 5.01789 5.49306 5.26085
#
# Compressibility (1/GPa) = 0.04117347
#
# Stress axis : x y z
#
# Youngs Moduli (GPa) = 69.13542 58.46974 114.38859
#
# Poissons Ratio (x) = -0.22081 0.15180
# Poissons Ratio (y) = -0.26109 0.23077
# Poissons Ratio (z) = 0.09175 0.11796
#
# Static dielectric constant tensor:
#      x y z
#    x 4.384100 0.000000 0.000000 
#    y 0.000000 4.030140 0.000000 
#    z 0.000000 0.000000 4.266680 
# 
# 
# High freq. dielectric constant tensor:
#      x y z
#    x 1.937150 0.000000 0.000000 
#    y 0.000000 1.906390 0.000000 
#    z 0.000000 0.000000 1.930180 
# 
# From -- ./inp_files/24451.got.cif
#   From: 2010.03.12/outbox.cif.g09.slc.cpg/sg20_13_cif.got.tgz:24451.got - 2010.04.14 01:38:04.
