data_PCOD8160397
_publ_section_title
;
Structure prediction by ZEFSAII (Michael W. Deem and Ramdas Pophale) SiO2 
 PCOD8160397
Probable space group: C 2 2 21
;
_chemical_formula_sum "Si O2"
_cell_formula_units_Z 56
_cell_length_a 30.525071
_cell_length_b 16.847882
_cell_length_c 5.149864
_cell_angle_alpha 90.000000
_cell_angle_beta 90.000000
_cell_angle_gamma 90.000000
_cell_volume 2648.486448
_symmetry_space_group_name_H-M "C 2 2 21"
_symmetry_group_IT_number 20
_symmetry_cell_setting 'orthorhombic'
loop_
_space_group_symop_operation_xyz
x,y,z
-x,-y,1/2+z
x,-y,-z
-x,y,1/2-z
1/2+x,1/2+y,z
1/2-x,1/2-y,1/2+z
1/2+x,1/2-y,-z
1/2-x,1/2+y,1/2-z
loop_
_atom_site_type_symbol
_atom_site_label
_atom_site_fract_x
_atom_site_fract_y
_atom_site_fract_z
Si Si1 0.248627 0.801077 0.065948
Si Si2 0.057199 0.500000 0.000000
Si Si3 0.609316 0.871120 0.790937
Si Si4 0.164097 0.909757 0.056896
Si Si5 0.044764 0.751203 0.380854
Si Si6 0.875871 0.841505 0.926141
Si Si7 0.000000 0.631736 0.750000
Si Si8 0.158592 0.670020 0.694988
O O1 0.237815 0.737035 0.289582
O O2 0.207345 0.857381 0.018017
O O3 0.290221 0.851197 0.168881
O O4 0.088199 0.541295 0.210339
O O5 0.028296 0.425592 0.075404
O O6 0.575007 0.797258 0.822476
O O7 0.631070 0.878444 0.511835
O O8 0.644234 0.854840 0.017338
O O9 0.144519 0.894394 0.342616
O O10 0.126696 0.889318 0.843421
O O11 0.177690 0.000000 0.000000
O O12 0.073014 0.822295 0.507980
O O13 0.033487 0.686147 0.595746
O O14 0.000000 0.784557 0.250000
O O15 0.847851 0.762385 0.876774
#
# Coordination Sequence:
#
# PCOD8160397 Si02
#       8
#     8   4   8   8   8   8   4   8
#     4  12  22  42  72 101 132 174 224 279 327 396
#     4  12  22  40  58  86 138 188 216 268 342 396
#     4  11  24  39  59  89 133 182 219 275 316 401
#     4  12  25  45  69 105 137 175 218 277 348 411
#     4  11  24  41  65 100 125 169 234 289 329 385
#     4  11  23  41  72  96 133 171 219 280 331 395
#     4  12  24  40  62  94 132 174 236 280 336 394
#     4  11  22  41  66  93 129 169 236 266 321 371
#
# _framework density 21.144151999999998
#
# number of rings (size 3 to 8) (size 9 to 14) (size 15 to 20)
#    0.000    0.571    4.286    5.571    2.000    1.714 
#    2.571    0.000    0.000    1.714    0.000    0.000 
#    0.000    0.000    0.000    0.000    0.000    0.000 
#
# Total GULP energy -347049.400109 kJ/mol
# GULP energy per Si atom -12394.621432 kJ/mol
# Density = 2.109603 g / cm^3
# Si number density = 21.144152 Si / 1000 Ang^3
#
#
#
# Elastic Constant Matrix: (Units=GPa)
#
#
# Indices 1 2 3 4 5 6 
#
# 1 118.7936 28.5788 14.9386 0.0000 0.0000 0.0000
# 2 28.5788 75.4092 27.2601 0.0000 0.0000 0.0000
# 3 14.9386 27.2601 92.8149 0.0000 0.0000 0.0000
# 4 0.0000 0.0000 0.0000 18.2232 0.0000 0.0000
# 5 0.0000 0.0000 0.0000 0.0000 85.7764 0.0000
# 6 0.0000 0.0000 0.0000 0.0000 0.0000 -48.1919
#
#
#
# Elastic Compliance Matrix: (Units=1/GPa)
#
#
# Indices 1 2 3 4 5 6 
#
# 1 0.009284 -0.003332 -0.000516 0.000000 0.000000 0.000000
# 2 -0.003332 0.016032 -0.004172 0.000000 0.000000 0.000000
# 3 -0.000516 -0.004172 0.012083 0.000000 0.000000 0.000000
# 4 0.000000 0.000000 0.000000 0.054875 0.000000 0.000000
# 5 0.000000 0.000000 0.000000 0.000000 0.011658 0.000000
# 6 0.000000 0.000000 0.000000 0.000000 0.000000 -0.020750
#
#
# Mechanical properties :
#
#
# Convention : Reuss Voigt Hill
#
# Bulk Modulus (GPa) = 46.81946 47.61918 47.21932
# Shear Modulus (GPa) = 47.01809 25.57755 36.29782
#
# Velocity S-wave (km/s) = 4.72072 3.48181 4.14778
# Velocity P-wave (km/s) = 7.20449 6.22367 6.73197
#
# Compressibility (1/GPa) = 0.02135864
#
# Stress axis : x y z
#
# Youngs Moduli (GPa) = 107.70687 62.37471 82.76390
#
# Poissons Ratio (x) = 0.20785 0.04268
# Poissons Ratio (y) = 0.35891 0.34532
# Poissons Ratio (z) = 0.05554 0.26025
#
# Static dielectric constant tensor:
#      x y z
#    x 4.427260 0.000000 0.000000 
#    y 0.000000 3.022160 0.000000 
#    z 0.000000 0.000000 3.987470 
# 
# 
# High freq. dielectric constant tensor:
#      x y z
#    x 1.837940 0.000000 0.000000 
#    y 0.000000 1.794630 0.000000 
#    z 0.000000 0.000000 1.846530 
# 
# From -- ./inp_files/4714.got.cif
#   From: 2010.03.12/outbox.cif.g09.slc.cpg/sg20_3_cif.got.tgz:4714.got - 2010.04.14 01:38:04.
