data_PCOD8160158
_publ_section_title
;
Structure prediction by ZEFSAII (Michael W. Deem and Ramdas Pophale) SiO2 
 PCOD8160158
Probable space group: C 2 2 21
;
_chemical_formula_sum "Si O2"
_cell_formula_units_Z 56
_cell_length_a 8.506513
_cell_length_b 21.941589
_cell_length_c 13.773656
_cell_angle_alpha 90.000000
_cell_angle_beta 90.000000
_cell_angle_gamma 90.000000
_cell_volume 2570.803473
_symmetry_space_group_name_H-M "C 2 2 21"
_symmetry_group_IT_number 20
_symmetry_cell_setting 'orthorhombic'
loop_
_space_group_symop_operation_xyz
x,y,z
-x,-y,1/2+z
x,-y,-z
-x,y,1/2-z
1/2+x,1/2+y,z
1/2-x,1/2-y,1/2+z
1/2+x,1/2-y,-z
1/2-x,1/2+y,1/2-z
loop_
_atom_site_type_symbol
_atom_site_label
_atom_site_fract_x
_atom_site_fract_y
_atom_site_fract_z
Si Si1 0.206686 0.093678 0.995546
Si Si2 0.182342 0.767635 0.719413
Si Si3 0.316330 0.817814 0.531729
Si Si4 0.962705 0.500000 0.000000
Si Si5 0.675136 0.211169 0.416655
Si Si6 0.961033 0.000000 0.000000
Si Si7 0.320732 0.363474 0.284076
Si Si8 0.709095 0.068348 0.898927
O O1 0.184897 0.094227 0.878915
O O2 0.361701 0.058481 0.030650
O O3 0.210940 0.161819 0.034281
O O4 0.063950 0.055777 0.042259
O O5 0.208687 0.811445 0.627262
O O6 0.299897 0.792623 0.801641
O O7 0.234681 0.699586 0.689559
O O8 0.000000 0.768748 0.750000
O O9 0.494672 0.797511 0.553638
O O10 0.239574 0.776865 0.447608
O O11 0.308596 0.886141 0.491191
O O12 0.064286 0.521081 0.906230
O O13 0.862217 0.973493 0.089526
O O14 0.500000 0.352034 0.250000
O O15 0.215864 0.396506 0.202255
#
# Coordination Sequence:
#
# PCOD8160158 Si02
#       8
#     8   8   8   4   8   4   8   8
#     4  11  24  45  73 100 142 180 235 280 349 408
#     4  12  28  42  67 108 140 183 236 284 363 425
#     4  12  25  44  70 102 143 181 226 293 352 409
#     4  10  24  48  66  98 128 194 226 282 336 410
#     4  12  25  44  70 102 143 181 226 293 352 409
#     4  10  24  44  70  94 136 186 230 278 336 414
#     4  12  24  42  71 108 136 177 236 286 339 429
#     4  11  24  45  73 100 142 180 235 280 349 408
#
# _framework density 21.783071
#
# number of rings (size 3 to 8) (size 9 to 14) (size 15 to 20)
#    0.000    0.571    5.714    2.143    6.000    0.000 
#    0.000    8.571    0.000    0.000    0.000    0.000 
#    0.000    0.000    0.000    0.000    0.000    0.000 
#
# Total GULP energy -347215.032471 kJ/mol
# GULP energy per Si atom -12400.536874 kJ/mol
# Density = 2.173349 g / cm^3
# Si number density = 21.783071 Si / 1000 Ang^3
#
#
#
# Elastic Constant Matrix: (Units=GPa)
#
#
# Indices 1 2 3 4 5 6 
#
# 1 121.6189 37.2449 16.8726 0.0000 0.0000 0.0000
# 2 37.2449 82.3038 40.3591 0.0000 0.0000 0.0000
# 3 16.8726 40.3591 102.6349 0.0000 0.0000 0.0000
# 4 0.0000 0.0000 0.0000 20.7721 0.0000 0.0000
# 5 0.0000 0.0000 0.0000 0.0000 26.6066 0.0000
# 6 0.0000 0.0000 0.0000 0.0000 0.0000 18.7839
#
#
#
# Elastic Compliance Matrix: (Units=1/GPa)
#
#
# Indices 1 2 3 4 5 6 
#
# 1 0.009547 -0.004399 0.000160 0.000000 0.000000 0.000000
# 2 -0.004399 0.017080 -0.005993 0.000000 0.000000 0.000000
# 3 0.000160 -0.005993 0.012074 0.000000 0.000000 0.000000
# 4 0.000000 0.000000 0.000000 0.048142 0.000000 0.000000
# 5 0.000000 0.000000 0.000000 0.000000 0.037585 0.000000
# 6 0.000000 0.000000 0.000000 0.000000 0.000000 0.053237
#
#
# Mechanical properties :
#
#
# Convention : Reuss Voigt Hill
#
# Bulk Modulus (GPa) = 54.83374 55.05674 54.94524
# Shear Modulus (GPa) = 24.48502 27.37124 25.92813
#
# Velocity S-wave (km/s) = 3.35631 3.54861 3.45380
# Velocity P-wave (km/s) = 6.34405 6.49000 6.41744
#
# Compressibility (1/GPa) = 0.01823695
#
# Stress axis : x y z
#
# Youngs Moduli (GPa) = 104.74109 58.54935 82.82560
#
# Poissons Ratio (x) = 0.25756 -0.01328
# Poissons Ratio (y) = 0.46076 0.49638
# Poissons Ratio (z) = -0.01679 0.35089
#
# Static dielectric constant tensor:
#      x y z
#    x 4.183080 0.000000 0.000000 
#    y 0.000000 4.006010 0.000000 
#    z 0.000000 0.000000 3.758700 
# 
# 
# High freq. dielectric constant tensor:
#      x y z
#    x 1.876520 0.000000 0.000000 
#    y 0.000000 1.862180 0.000000 
#    z 0.000000 0.000000 1.836350 
# 
# From -- ./inp_files/19254.got.cif
#   From: 2010.03.12/outbox.cif.g09.slc.cpg/sg20_10_cif.got.tgz:19254.got - 2010.04.14 01:38:04.
