data_PCOD8160986
_publ_section_title
;
Structure prediction by ZEFSAII (Michael W. Deem and Ramdas Pophale) SiO2 
 PCOD8160986
Probable space group: C 2 2 2
;
_chemical_formula_sum "Si O2"
_cell_formula_units_Z 64
_cell_length_a 23.360970
_cell_length_b 11.783839
_cell_length_c 11.410911
_cell_angle_alpha 90.000000
_cell_angle_beta 90.000000
_cell_angle_gamma 90.000000
_cell_volume 3141.217368
_symmetry_space_group_name_H-M "C 2 2 2"
_symmetry_group_IT_number 21
_symmetry_cell_setting 'orthorhombic'
loop_
_space_group_symop_operation_xyz
x,y,z
-x,-y,z
x,-y,-z
-x,y,-z
1/2+x,1/2+y,z
1/2-x,1/2-y,z
1/2+x,1/2-y,-z
1/2-x,1/2+y,-z
loop_
_atom_site_type_symbol
_atom_site_label
_atom_site_fract_x
_atom_site_fract_y
_atom_site_fract_z
Si Si1 0.040715 0.760865 0.262134
Si Si2 0.810341 0.026197 0.227921
Si Si3 0.398292 0.874597 0.462298
Si Si4 0.683891 0.722232 0.142935
Si Si5 0.083288 0.240014 0.303502
Si Si6 0.146713 0.758170 0.113437
Si Si7 0.417794 0.485976 0.635566
Si Si8 0.790629 0.355933 0.315605
O O1 0.066253 0.669212 0.351853
O O2 0.078388 0.764560 0.142221
O O3 0.975493 0.718614 0.239894
O O4 0.039640 0.888435 0.316995
O O5 0.820106 0.124182 0.133119
O O6 0.747399 0.032812 0.286403
O O7 0.821515 0.912294 0.156644
O O8 0.853002 0.052523 0.336537
O O9 0.410329 0.786288 0.565672
O O10 0.331235 0.878321 0.426972
O O11 0.418732 0.000000 0.500000
O O12 0.750000 0.750000 0.166184
O O13 0.640729 0.779989 0.236430
O O14 0.659985 0.770960 0.020715
O O15 0.075118 0.105095 0.299967
O O16 0.173018 0.663402 0.197822
O O17 0.429324 0.500000 0.500000
O O18 0.750000 0.250000 0.346326
#
# Coordination Sequence:
#
# PCOD8160986 Si02
#       8
#     8   8   8   8   8   8   8   8
#     4  10  21  40  62  83 117 155 201 245 287 367
#     4   9  19  34  56  85 116 153 190 234 294 352
#     4  11  24  38  58  86 119 161 204 246 294 352
#     4  11  23  37  57  87 122 148 188 248 295 351
#     4  11  24  37  57  91 119 154 194 242 310 349
#     4   9  19  38  61  85 108 152 200 236 295 350
#     4  10  19  34  58  89 117 152 192 236 295 354
#     4   9  19  37  60  83 113 158 203 237 287 360
#
# _framework density 20.374265999999999
#
# number of rings (size 3 to 8) (size 9 to 14) (size 15 to 20)
#    0.000    2.000    1.250    3.000    1.750    3.000 
#    0.000    0.000    0.000    4.500    0.000    1.750 
#    0.000    0.000    0.000    0.000    0.000    0.000 
#
# Total GULP energy -396586.610458 kJ/mol
# GULP energy per Si atom -12393.331577 kJ/mol
# Density = 2.032789 g / cm^3
# Si number density = 20.374266 Si / 1000 Ang^3
#
#
#
# Elastic Constant Matrix: (Units=GPa)
#
#
# Indices 1 2 3 4 5 6 
#
# 1 153.0051 6.9724 55.8449 0.0000 0.0000 0.0000
# 2 6.9724 59.3884 13.6410 0.0000 0.0000 0.0000
# 3 55.8449 13.6410 54.2430 0.0000 0.0000 0.0000
# 4 0.0000 0.0000 0.0000 19.8555 0.0000 0.0000
# 5 0.0000 0.0000 0.0000 0.0000 23.7480 0.0000
# 6 0.0000 0.0000 0.0000 0.0000 0.0000 14.9722
#
#
#
# Elastic Compliance Matrix: (Units=1/GPa)
#
#
# Indices 1 2 3 4 5 6 
#
# 1 0.010569 0.001336 -0.011217 0.000000 0.000000 0.000000
# 2 0.001336 0.018039 -0.005912 0.000000 0.000000 0.000000
# 3 -0.011217 -0.005912 0.031470 0.000000 0.000000 0.000000
# 4 0.000000 0.000000 0.000000 0.050364 0.000000 0.000000
# 5 0.000000 0.000000 0.000000 0.000000 0.042109 0.000000
# 6 0.000000 0.000000 0.000000 0.000000 0.000000 0.066791
#
#
# Mechanical properties :
#
#
# Convention : Reuss Voigt Hill
#
# Bulk Modulus (GPa) = 35.09652 46.61702 40.85677
# Shear Modulus (GPa) = 19.19936 24.39366 21.79651
#
# Velocity S-wave (km/s) = 3.07308 3.46392 3.27434
# Velocity P-wave (km/s) = 5.46398 6.23926 5.86444
#
# Compressibility (1/GPa) = 0.02849286
#
# Stress axis : x y z
#
# Youngs Moduli (GPa) = 94.61739 55.43437 31.77597
#
# Poissons Ratio (x) = -0.07404 0.35643
# Poissons Ratio (y) = -0.12637 0.18785
# Poissons Ratio (z) = 1.06131 0.32770
#
# Static dielectric constant tensor:
#      x y z
#    x 4.040980 0.000000 0.000000 
#    y 0.000000 3.606370 0.000000 
#    z 0.000000 0.000000 3.459980 
# 
# 
# High freq. dielectric constant tensor:
#      x y z
#    x 1.812290 0.000000 0.000000 
#    y 0.000000 1.779820 0.000000 
#    z 0.000000 0.000000 1.772160 
# 
# From -- ./inp_files/27477.got.cif
#   From: 2010.03.12/outbox.cif.g09.slc.cpg/sg21_14_cif.got.tgz:27477.got - 2010.04.14 01:59:26.
