data_PCOD8160589
_publ_section_title
;
Structure prediction by ZEFSAII (Michael W. Deem and Ramdas Pophale) SiO2 
 PCOD8160589
Probable space group: C 2 2 21
;
_chemical_formula_sum "Si O2"
_cell_formula_units_Z 64
_cell_length_a 8.686394
_cell_length_b 12.345865
_cell_length_c 26.395035
_cell_angle_alpha 90.000000
_cell_angle_beta 90.000000
_cell_angle_gamma 90.000000
_cell_volume 2830.631206
_symmetry_space_group_name_H-M "C 2 2 21"
_symmetry_group_IT_number 20
_symmetry_cell_setting 'orthorhombic'
loop_
_space_group_symop_operation_xyz
x,y,z
-x,-y,1/2+z
x,-y,-z
-x,y,1/2-z
1/2+x,1/2+y,z
1/2-x,1/2-y,1/2+z
1/2+x,1/2-y,-z
1/2-x,1/2+y,1/2-z
loop_
_atom_site_type_symbol
_atom_site_label
_atom_site_fract_x
_atom_site_fract_y
_atom_site_fract_z
Si Si1 0.501488 0.660478 0.159006
Si Si2 0.476243 0.985054 0.406274
Si Si3 0.200293 0.085755 0.077543
Si Si4 0.922241 0.938442 0.198060
Si Si5 0.567890 0.113765 0.801971
Si Si6 0.754268 0.675757 0.422616
Si Si7 0.029043 0.123969 0.907847
Si Si8 0.278377 0.184373 0.537669
O O1 0.667399 0.625529 0.135427
O O2 0.422411 0.568505 0.193016
O O3 0.521600 0.760791 0.195933
O O4 0.401917 0.688215 0.108664
O O5 0.511514 0.943486 0.349857
O O6 0.423647 0.887422 0.443571
O O7 0.628464 0.039316 0.428949
O O8 0.344588 0.074285 0.399857
O O9 0.179236 0.187673 0.039568
O O10 0.078504 0.989243 0.065332
O O11 0.749948 0.895953 0.196512
O O12 0.000000 0.900355 0.250000
O O13 0.022043 0.888268 0.152699
O O14 0.500000 0.063842 0.750000
O O15 0.846216 0.786557 0.419543
O O16 0.725373 0.651361 0.481689
O O17 0.861711 0.160113 0.925210
#
# Coordination Sequence:
#
# PCOD8160589 Si02
#       8
#     8   8   8   8   8   8   8   8
#     4  11  24  49  73 103 149 187 240 309 359 436
#     4  12  24  50  73 105 153 188 243 306 362 432
#     4  11  25  44  76 102 142 192 238 294 366 426
#     4  11  25  48  72 104 142 185 240 301 367 436
#     4  12  26  46  77 105 141 193 242 300 370 433
#     4  12  27  46  76 108 149 197 243 299 369 436
#     4  11  25  48  73 106 148 191 242 302 370 431
#     4  12  26  51  71 106 152 193 246 302 360 436
#
# _framework density 22.609797
#
# number of rings (size 3 to 8) (size 9 to 14) (size 15 to 20)
#    0.000    0.500    5.000    2.250    7.000    0.500 
#    6.750    0.625    0.000    0.000    0.000    0.000 
#    0.000    0.000    0.000    0.000    0.000    0.000 
#
# Total GULP energy -396918.585240 kJ/mol
# GULP energy per Si atom -12403.705789 kJ/mol
# Density = 2.255834 g / cm^3
# Si number density = 22.609797 Si / 1000 Ang^3
#
#
#
# Elastic Constant Matrix: (Units=GPa)
#
#
# Indices 1 2 3 4 5 6 
#
# 1 92.5778 28.2508 18.8402 0.0000 0.0000 0.0000
# 2 28.2508 125.8192 24.6127 0.0000 0.0000 0.0000
# 3 18.8402 24.6127 104.7775 0.0000 0.0000 0.0000
# 4 0.0000 0.0000 0.0000 26.7042 0.0000 0.0000
# 5 0.0000 0.0000 0.0000 0.0000 28.7387 0.0000
# 6 0.0000 0.0000 0.0000 0.0000 0.0000 42.2832
#
#
#
# Elastic Compliance Matrix: (Units=1/GPa)
#
#
# Indices 1 2 3 4 5 6 
#
# 1 0.011840 -0.002350 -0.001577 0.000000 0.000000 0.000000
# 2 -0.002350 0.008797 -0.001644 0.000000 0.000000 0.000000
# 3 -0.001577 -0.001644 0.010214 0.000000 0.000000 0.000000
# 4 0.000000 0.000000 0.000000 0.037447 0.000000 0.000000
# 5 0.000000 0.000000 0.000000 0.000000 0.034796 0.000000
# 6 0.000000 0.000000 0.000000 0.000000 0.000000 0.023650
#
#
# Mechanical properties :
#
#
# Convention : Reuss Voigt Hill
#
# Bulk Modulus (GPa) = 50.73818 51.84244 51.29031
# Shear Modulus (GPa) = 34.61273 36.30995 35.46134
#
# Velocity S-wave (km/s) = 3.91688 4.01176 3.96461
# Velocity P-wave (km/s) = 6.55328 6.66618 6.60997
#
# Compressibility (1/GPa) = 0.01970902
#
# Stress axis : x y z
#
# Youngs Moduli (GPa) = 84.46131 113.67324 97.90722
#
# Poissons Ratio (x) = 0.26713 0.15439
# Poissons Ratio (y) = 0.19848 0.16095
# Poissons Ratio (z) = 0.13319 0.18687
#
# Static dielectric constant tensor:
#      x y z
#    x 4.117780 0.000000 0.000000 
#    y 0.000000 4.376380 0.000000 
#    z 0.000000 0.000000 4.084330 
# 
# 
# High freq. dielectric constant tensor:
#      x y z
#    x 1.892670 0.000000 0.000000 
#    y 0.000000 1.907430 0.000000 
#    z 0.000000 0.000000 1.887740 
# 
# From -- ./inp_files/31094.got.cif
#   From: 2010.03.12/outbox.cif.g09.slc.cpg/sg20_16_cif.got.tgz:31094.got - 2010.04.14 01:38:04.
