data_PCOD8160854
_publ_section_title
;
Structure prediction by ZEFSAII (Michael W. Deem and Ramdas Pophale) SiO2 
 PCOD8160854
Probable space group: C 2 2 2
;
_chemical_formula_sum "Si O2"
_cell_formula_units_Z 48
_cell_length_a 11.599056
_cell_length_b 19.242789
_cell_length_c 11.603890
_cell_angle_alpha 90.000000
_cell_angle_beta 90.000000
_cell_angle_gamma 90.000000
_cell_volume 2589.967213
_symmetry_space_group_name_H-M "C 2 2 2"
_symmetry_group_IT_number 21
_symmetry_cell_setting 'orthorhombic'
loop_
_space_group_symop_operation_xyz
x,y,z
-x,-y,z
x,-y,-z
-x,y,-z
1/2+x,1/2+y,z
1/2-x,1/2-y,z
1/2+x,1/2-y,-z
1/2-x,1/2+y,-z
loop_
_atom_site_type_symbol
_atom_site_label
_atom_site_fract_x
_atom_site_fract_y
_atom_site_fract_z
Si Si1 0.078843 0.869051 0.098267
Si Si2 0.902292 0.696004 0.421312
Si Si3 0.186823 0.682619 0.041202
Si Si4 0.532669 0.578001 0.660177
Si Si5 0.340594 0.650993 0.540432
Si Si6 0.525300 0.782484 0.160301
O O1 0.210259 0.873370 0.048582
O O2 0.079087 0.916979 0.210799
O O3 0.022197 0.793725 0.126759
O O4 0.000000 0.903908 0.000000
O O5 0.793022 0.644303 0.423446
O O6 0.870584 0.768636 0.482469
O O7 0.945857 0.709253 0.292882
O O8 0.000000 0.660238 0.500000
O O9 0.250000 0.750000 0.092348
O O10 0.078093 0.664381 0.124255
O O11 0.140435 0.698032 0.911657
O O12 0.500000 0.500000 0.627212
O O13 0.417065 0.623843 0.646843
O O14 0.631299 0.606393 0.573626
#
# Coordination Sequence:
#
# PCOD8160854 Si02
#       6
#     8   8   8   8   8   8
#     4  11  20  32  55  84 113 140 194 229 278 339
#     4  11  21  32  56  90 120 136 181 241 306 348
#     4   9  18  30  50  79 114 156 171 216 290 365
#     4  11  23  42  58  76 114 160 200 231 273 331
#     4  10  21  36  56  82 112 152 182 234 292 352
#     4  10  18  32  50  82 121 148 170 219 305 351
#
# _framework density 18.533052999999999
#
# number of rings (size 3 to 8) (size 9 to 14) (size 15 to 20)
#    0.000    1.667    6.667    1.000    7.000    0.333 
#    0.000    0.000    0.000    2.000    0.000    0.000 
#    0.000    0.000    0.000    0.000    0.000    0.000 
#
# Total GULP energy -297385.859258 kJ/mol
# GULP energy per Si atom -12391.077469 kJ/mol
# Density = 1.849087 g / cm^3
# Si number density = 18.533053 Si / 1000 Ang^3
#
#
#
# Elastic Constant Matrix: (Units=GPa)
#
#
# Indices 1 2 3 4 5 6 
#
# 1 137.6514 21.1803 52.7836 0.0000 0.0000 0.0000
# 2 21.1803 39.6565 17.1655 0.0000 0.0000 0.0000
# 3 52.7836 17.1655 137.3623 0.0000 0.0000 0.0000
# 4 0.0000 0.0000 0.0000 13.8105 0.0000 0.0000
# 5 0.0000 0.0000 0.0000 0.0000 27.2503 0.0000
# 6 0.0000 0.0000 0.0000 0.0000 0.0000 13.4361
#
#
#
# Elastic Compliance Matrix: (Units=1/GPa)
#
#
# Indices 1 2 3 4 5 6 
#
# 1 0.008953 -0.003481 -0.003005 0.000000 0.000000 0.000000
# 2 -0.003481 0.028012 -0.002163 0.000000 0.000000 0.000000
# 3 -0.003005 -0.002163 0.008705 0.000000 0.000000 0.000000
# 4 0.000000 0.000000 0.000000 0.072409 0.000000 0.000000
# 5 0.000000 0.000000 0.000000 0.000000 0.036697 0.000000
# 6 0.000000 0.000000 0.000000 0.000000 0.000000 0.074426
#
#
# Mechanical properties :
#
#
# Convention : Reuss Voigt Hill
#
# Bulk Modulus (GPa) = 35.24631 55.21430 45.23031
# Shear Modulus (GPa) = 19.53455 25.80210 22.66833
#
# Velocity S-wave (km/s) = 3.25012 3.73530 3.50112
# Velocity P-wave (km/s) = 5.75706 6.96134 6.38764
#
# Compressibility (1/GPa) = 0.02837176
#
# Stress axis : x y z
#
# Youngs Moduli (GPa) = 111.69825 35.69917 114.87490
#
# Poissons Ratio (x) = 0.12426 0.34523
# Poissons Ratio (y) = 0.38879 0.24847
# Poissons Ratio (z) = 0.33568 0.07722
#
# Static dielectric constant tensor:
#      x y z
#    x 3.962170 0.000000 0.000000 
#    y 0.000000 2.918640 0.000000 
#    z 0.000000 0.000000 3.411350 
# 
# 
# High freq. dielectric constant tensor:
#      x y z
#    x 1.735540 0.000000 0.000000 
#    y 0.000000 1.651840 0.000000 
#    z 0.000000 0.000000 1.725300 
# 
# From -- ./inp_files/24074.got.cif
#   From: 2010.03.12/outbox.cif.g09.slc.cpg/sg21_13_cif.got.tgz:24074.got - 2010.04.14 01:59:26.
