data_PCOD8160046
_publ_section_title
;
Structure prediction by ZEFSAII (Michael W. Deem and Ramdas Pophale) SiO2 
 PCOD8160046
Probable space group: C 2 2 21
;
_chemical_formula_sum "Si O2"
_cell_formula_units_Z 32
_cell_length_a 12.726935
_cell_length_b 9.472656
_cell_length_c 11.754507
_cell_angle_alpha 90.000000
_cell_angle_beta 90.000000
_cell_angle_gamma 90.000000
_cell_volume 1417.098411
_symmetry_space_group_name_H-M "C 2 2 21"
_symmetry_group_IT_number 20
_symmetry_cell_setting 'orthorhombic'
loop_
_space_group_symop_operation_xyz
x,y,z
-x,-y,1/2+z
x,-y,-z
-x,y,1/2-z
1/2+x,1/2+y,z
1/2-x,1/2-y,1/2+z
1/2+x,1/2-y,-z
1/2-x,1/2+y,1/2-z
loop_
_atom_site_type_symbol
_atom_site_label
_atom_site_fract_x
_atom_site_fract_y
_atom_site_fract_z
Si Si1 0.099373 0.856137 0.051351
Si Si2 0.388415 0.219708 0.058905
Si Si3 0.306569 0.879010 0.412049
Si Si4 0.183308 0.425889 0.344334
O O1 0.192585 0.888655 0.141042
O O2 0.004754 0.761608 0.102686
O O3 0.146587 0.771104 0.946001
O O4 0.052384 0.000000 0.000000
O O5 0.319186 0.359061 0.083549
O O6 0.340955 0.087282 0.126013
O O7 0.386028 0.178930 0.923774
O O8 0.348544 0.911787 0.286531
O O9 0.343354 0.000000 0.500000
#
# Coordination Sequence:
#
# PCOD8160046 Si02
#       4
#     8   8   8   8
#     4  11  23  46  72 105 141 185 243 291 357 427
#     4  10  23  45  70 102 139 189 236 294 359 419
#     4  11  25  43  71 104 144 190 239 293 360 429
#     4  10  23  47  68 102 153 179 236 307 346 421
#
# _framework density 22.581353
#
# number of rings (size 3 to 8) (size 9 to 14) (size 15 to 20)
#    0.000    1.500    5.000    0.750   10.500    2.000 
#    0.000    2.500    0.000    0.000    0.000    0.000 
#    0.000    0.000    0.000    0.000    0.000    0.000 
#
# Total GULP energy -198324.287005 kJ/mol
# GULP energy per Si atom -12395.267938 kJ/mol
# Density = 2.252996 g / cm^3
# Si number density = 22.581353 Si / 1000 Ang^3
#
#
#
# Elastic Constant Matrix: (Units=GPa)
#
#
# Indices 1 2 3 4 5 6 
#
# 1 112.8798 41.2278 4.2786 0.0000 0.0000 0.0000
# 2 41.2278 114.1801 49.9173 0.0000 0.0000 0.0000
# 3 4.2786 49.9173 154.0899 0.0000 0.0000 0.0000
# 4 0.0000 0.0000 0.0000 16.3967 0.0000 0.0000
# 5 0.0000 0.0000 0.0000 0.0000 3.7522 0.0000
# 6 0.0000 0.0000 0.0000 0.0000 0.0000 43.8464
#
#
#
# Elastic Compliance Matrix: (Units=1/GPa)
#
#
# Indices 1 2 3 4 5 6 
#
# 1 0.010356 -0.004210 0.001076 0.000000 0.000000 0.000000
# 2 -0.004210 0.011914 -0.003743 0.000000 0.000000 0.000000
# 3 0.001076 -0.003743 0.007672 0.000000 0.000000 0.000000
# 4 0.000000 0.000000 0.000000 0.060988 0.000000 0.000000
# 5 0.000000 0.000000 0.000000 0.000000 0.266511 0.000000
# 6 0.000000 0.000000 0.000000 0.000000 0.000000 0.022807
#
#
# Mechanical properties :
#
#
# Convention : Reuss Voigt Hill
#
# Bulk Modulus (GPa) = 61.76712 63.55525 62.66118
# Shear Modulus (GPa) = 12.51887 31.84748 22.18317
#
# Velocity S-wave (km/s) = 2.35710 3.75953 3.13767
# Velocity P-wave (km/s) = 5.90088 6.85941 6.39812
#
# Compressibility (1/GPa) = 0.01618984
#
# Stress axis : x y z
#
# Youngs Moduli (GPa) = 96.56501 83.93222 130.33901
#
# Poissons Ratio (x) = 0.35333 -0.14027
# Poissons Ratio (y) = 0.40651 0.48783
# Poissons Ratio (z) = -0.10392 0.31414
#
# Static dielectric constant tensor:
#      x y z
#    x 4.238810 0.000000 0.000000 
#    y 0.000000 4.103370 0.000000 
#    z 0.000000 0.000000 3.817260 
# 
# 
# High freq. dielectric constant tensor:
#      x y z
#    x 1.888800 0.000000 0.000000 
#    y 0.000000 1.900110 0.000000 
#    z 0.000000 0.000000 1.867750 
# 
# From -- ./inp_files/12466.got.cif
#   From: 2010.03.12/outbox.cif.g09.slc.cpg/sg20_7_cif.got.tgz:12466.got - 2010.04.14 01:38:04.
