data_PCOD8160277
_publ_section_title
;
Structure prediction by ZEFSAII (Michael W. Deem and Ramdas Pophale) SiO2 
 PCOD8160277
Probable space group: C 2 2 21
;
_chemical_formula_sum "Si O2"
_cell_formula_units_Z 40
_cell_length_a 5.371226
_cell_length_b 15.413457
_cell_length_c 18.691314
_cell_angle_alpha 90.000000
_cell_angle_beta 90.000000
_cell_angle_gamma 90.000000
_cell_volume 1547.438204
_symmetry_space_group_name_H-M "C 2 2 21"
_symmetry_group_IT_number 20
_symmetry_cell_setting 'orthorhombic'
loop_
_space_group_symop_operation_xyz
x,y,z
-x,-y,1/2+z
x,-y,-z
-x,y,1/2-z
1/2+x,1/2+y,z
1/2-x,1/2-y,1/2+z
1/2+x,1/2-y,-z
1/2-x,1/2+y,1/2-z
loop_
_atom_site_type_symbol
_atom_site_label
_atom_site_fract_x
_atom_site_fract_y
_atom_site_fract_z
Si Si1 0.761025 0.235401 0.160003
Si Si2 0.000000 0.623828 0.750000
Si Si3 0.273032 0.851088 0.868294
Si Si4 0.753588 0.651048 0.972437
Si Si5 0.966457 0.480190 0.384650
Si Si6 0.885294 0.000000 0.000000
O O1 0.785443 0.317540 0.213497
O O2 0.509391 0.182342 0.179059
O O3 0.717275 0.267187 0.079001
O O4 0.013376 0.177557 0.168217
O O5 0.875049 0.562444 0.689658
O O6 0.295327 0.956347 0.871562
O O7 0.294199 0.811529 0.948171
O O8 0.984566 0.596268 0.941851
O O9 0.527157 0.584271 0.972959
O O10 0.758907 0.534459 0.428064
#
# Coordination Sequence:
#
# PCOD8160277 Si02
#       6
#     8   4   8   8   8   4
#     4  11  28  44  72 101 159 193 251 304 392 459
#     4  10  28  54  64 112 148 226 244 322 396 470
#     4  12  23  46  72 111 140 197 250 320 372 450
#     4  11  23  42  69 113 146 190 244 321 379 454
#     4  11  24  44  78 106 154 194 263 320 383 462
#     4  12  20  42  80 114 148 188 270 318 378 460
#
# _framework density 25.849173
#
# number of rings (size 3 to 8) (size 9 to 14) (size 15 to 20)
#    0.000    0.800    4.000    2.400    5.600    2.400 
#    3.600    0.000    0.000    0.000    0.000    0.000 
#    0.000    0.000    0.000    0.000    0.000    0.000 
#
# Total GULP energy -247886.139481 kJ/mol
# GULP energy per Si atom -12394.306974 kJ/mol
# Density = 2.579034 g / cm^3
# Si number density = 25.849173 Si / 1000 Ang^3
#
#
#
# Elastic Constant Matrix: (Units=GPa)
#
#
# Indices 1 2 3 4 5 6 
#
# 1 122.4279 34.2370 19.3484 0.0000 0.0000 0.0000
# 2 34.2370 77.9631 14.4031 0.0000 0.0000 0.0000
# 3 19.3484 14.4031 135.9595 0.0000 0.0000 0.0000
# 4 0.0000 0.0000 0.0000 53.6213 0.0000 0.0000
# 5 0.0000 0.0000 0.0000 0.0000 5.5126 0.0000
# 6 0.0000 0.0000 0.0000 0.0000 0.0000 33.5714
#
#
#
# Elastic Compliance Matrix: (Units=1/GPa)
#
#
# Indices 1 2 3 4 5 6 
#
# 1 0.009423 -0.003968 -0.000921 0.000000 0.000000 0.000000
# 2 -0.003968 0.014754 -0.000998 0.000000 0.000000 0.000000
# 3 -0.000921 -0.000998 0.007592 0.000000 0.000000 0.000000
# 4 0.000000 0.000000 0.000000 0.018649 0.000000 0.000000
# 5 0.000000 0.000000 0.000000 0.000000 0.181403 0.000000
# 6 0.000000 0.000000 0.000000 0.000000 0.000000 0.029787
#
#
# Mechanical properties :
#
#
# Convention : Reuss Voigt Hill
#
# Bulk Modulus (GPa) = 50.01311 52.48082 51.24696
# Shear Modulus (GPa) = 17.85412 36.43185 27.14299
#
# Velocity S-wave (km/s) = 2.63098 3.75827 3.24397
# Velocity P-wave (km/s) = 5.34971 6.25936 5.82233
#
# Compressibility (1/GPa) = 0.01999476
#
# Stress axis : x y z
#
# Youngs Moduli (GPa) = 106.12052 67.78025 131.71928
#
# Poissons Ratio (x) = 0.26896 0.12127
# Poissons Ratio (y) = 0.42109 0.13149
# Poissons Ratio (z) = 0.09770 0.06766
#
# Static dielectric constant tensor:
#      x y z
#    x 4.527760 0.000000 0.000000 
#    y 0.000000 4.595280 0.000000 
#    z 0.000000 0.000000 4.886500 
# 
# 
# High freq. dielectric constant tensor:
#      x y z
#    x 2.015840 0.000000 0.000000 
#    y 0.000000 2.032540 0.000000 
#    z 0.000000 0.000000 2.039270 
# 
# From -- ./inp_files/22659.got.cif
#   From: 2010.03.12/outbox.cif.g09.slc.cpg/sg20_12_cif.got.tgz:22659.got - 2010.04.14 01:38:04.
