data_PCOD8160064
_publ_section_title
;
Structure prediction by ZEFSAII (Michael W. Deem and Ramdas Pophale) SiO2 
 PCOD8160064
Probable space group: C 2 2 21
;
_chemical_formula_sum "Si O2"
_cell_formula_units_Z 40
_cell_length_a 11.282039
_cell_length_b 17.697823
_cell_length_c 8.711532
_cell_angle_alpha 90.000000
_cell_angle_beta 90.000000
_cell_angle_gamma 90.000000
_cell_volume 1739.410071
_symmetry_space_group_name_H-M "C 2 2 21"
_symmetry_group_IT_number 20
_symmetry_cell_setting 'orthorhombic'
loop_
_space_group_symop_operation_xyz
x,y,z
-x,-y,1/2+z
x,-y,-z
-x,y,1/2-z
1/2+x,1/2+y,z
1/2-x,1/2-y,1/2+z
1/2+x,1/2-y,-z
1/2-x,1/2+y,1/2-z
loop_
_atom_site_type_symbol
_atom_site_label
_atom_site_fract_x
_atom_site_fract_y
_atom_site_fract_z
Si Si1 0.325484 0.041741 0.340014
Si Si2 0.555203 0.839359 0.006704
Si Si3 0.572131 0.670111 0.902434
Si Si4 0.671134 0.887931 0.311895
Si Si5 0.574433 0.433118 0.614183
O O1 0.428240 0.104245 0.360790
O O2 0.203147 0.089448 0.317451
O O3 0.320560 0.000000 0.500000
O O4 0.345783 0.979738 0.204050
O O5 0.651264 0.851797 0.143491
O O6 0.423225 0.853480 0.069428
O O7 0.580753 0.757690 0.939163
O O8 0.500000 0.654357 0.750000
O O9 0.700559 0.631924 0.880040
O O10 0.498445 0.636206 0.044328
O O11 0.597498 0.500000 0.500000
O O12 0.500000 0.469841 0.750000
#
# Coordination Sequence:
#
# PCOD8160064 Si02
#       5
#     8   8   8   8   8
#     4   9  19  43  68  96 138 183 235 299 357 433
#     4  10  24  43  69 103 141 195 244 309 368 446
#     4  12  26  43  71 106 149 190 246 307 384 447
#     4  10  23  46  71 100 145 189 244 307 365 452
#     4  11  23  42  72 103 140 190 241 305 368 442
#
# _framework density 22.996300000000002
#
# number of rings (size 3 to 8) (size 9 to 14) (size 15 to 20)
#    0.000    1.600    0.000    5.400    8.400    0.000 
#   10.800    9.000    0.000    0.000    0.000    0.000 
#    0.000    0.000    0.000    0.000    0.000    0.000 
#
# Total GULP energy -247847.145420 kJ/mol
# GULP energy per Si atom -12392.357271 kJ/mol
# Density = 2.294396 g / cm^3
# Si number density = 22.996300 Si / 1000 Ang^3
#
#
#
# Elastic Constant Matrix: (Units=GPa)
#
#
# Indices 1 2 3 4 5 6 
#
# 1 94.3997 36.9627 28.8644 0.0000 0.0000 0.0000
# 2 36.9627 134.7431 23.0282 0.0000 0.0000 0.0000
# 3 28.8644 23.0282 51.7627 0.0000 0.0000 0.0000
# 4 0.0000 0.0000 0.0000 29.2536 0.0000 0.0000
# 5 0.0000 0.0000 0.0000 0.0000 28.5483 0.0000
# 6 0.0000 0.0000 0.0000 0.0000 0.0000 33.7130
#
#
#
# Elastic Compliance Matrix: (Units=1/GPa)
#
#
# Indices 1 2 3 4 5 6 
#
# 1 0.013581 -0.002631 -0.006403 0.000000 0.000000 0.000000
# 2 -0.002631 0.008542 -0.002333 0.000000 0.000000 0.000000
# 3 -0.006403 -0.002333 0.023927 0.000000 0.000000 0.000000
# 4 0.000000 0.000000 0.000000 0.034184 0.000000 0.000000
# 5 0.000000 0.000000 0.000000 0.000000 0.035028 0.000000
# 6 0.000000 0.000000 0.000000 0.000000 0.000000 0.029662
#
#
# Mechanical properties :
#
#
# Convention : Reuss Voigt Hill
#
# Bulk Modulus (GPa) = 42.88784 50.95732 46.92258
# Shear Modulus (GPa) = 28.50125 31.10632 29.80379
#
# Velocity S-wave (km/s) = 3.52431 3.68185 3.60394
# Velocity P-wave (km/s) = 5.93729 6.34679 6.14545
#
# Compressibility (1/GPa) = 0.02331663
#
# Stress axis : x y z
#
# Youngs Moduli (GPa) = 73.63047 117.06772 41.79359
#
# Poissons Ratio (x) = 0.30805 0.26759
# Poissons Ratio (y) = 0.19375 0.09750
# Poissons Ratio (z) = 0.47143 0.27310
#
# Static dielectric constant tensor:
#      x y z
#    x 4.807520 0.000000 0.000000 
#    y 0.000000 4.259610 0.000000 
#    z 0.000000 0.000000 4.133200 
# 
# 
# High freq. dielectric constant tensor:
#      x y z
#    x 1.924380 0.000000 0.000000 
#    y 0.000000 1.901370 0.000000 
#    z 0.000000 0.000000 1.903680 
# 
# From -- ./inp_files/7063.got.cif
#   From: 2010.03.12/outbox.cif.g09.slc.cpg/sg20_4_cif.got.tgz:7063.got - 2010.04.14 01:38:04.
