data_PCOD8160515
_publ_section_title
;
Structure prediction by ZEFSAII (Michael W. Deem and Ramdas Pophale) SiO2 
 PCOD8160515
Probable space group: C 2 2 21
;
_chemical_formula_sum "Si O2"
_cell_formula_units_Z 48
_cell_length_a 8.820012
_cell_length_b 14.523688
_cell_length_c 17.161781
_cell_angle_alpha 90.000000
_cell_angle_beta 90.000000
_cell_angle_gamma 90.000000
_cell_volume 2198.408742
_symmetry_space_group_name_H-M "C 2 2 21"
_symmetry_group_IT_number 20
_symmetry_cell_setting 'orthorhombic'
loop_
_space_group_symop_operation_xyz
x,y,z
-x,-y,1/2+z
x,-y,-z
-x,y,1/2-z
1/2+x,1/2+y,z
1/2-x,1/2-y,1/2+z
1/2+x,1/2-y,-z
1/2-x,1/2+y,1/2-z
loop_
_atom_site_type_symbol
_atom_site_label
_atom_site_fract_x
_atom_site_fract_y
_atom_site_fract_z
Si Si1 0.134885 0.748379 0.396670
Si Si2 0.311587 0.186834 0.350872
Si Si3 0.679379 0.174426 0.756887
Si Si4 0.214402 0.925439 0.935408
Si Si5 0.620686 0.600768 0.480310
Si Si6 0.177417 0.528769 0.263610
O O1 0.259622 0.770073 0.331151
O O2 0.209563 0.673326 0.455198
O O3 0.085284 0.840500 0.441840
O O4 0.992319 0.699461 0.355157
O O5 0.243545 0.283608 0.323231
O O6 0.247090 0.158044 0.434455
O O7 0.255156 0.109168 0.290004
O O8 0.500000 0.180166 0.750000
O O9 0.740402 0.070144 0.764005
O O10 0.033302 0.913620 0.931997
O O11 0.275969 0.958018 0.852542
O O12 0.263287 0.000000 0.000000
O O13 0.688549 0.500000 0.500000
O O14 0.000000 0.528771 0.250000
#
# Coordination Sequence:
#
# PCOD8160515 Si02
#       6
#     8   8   8   8   8   8
#     4  12  24  48  69 101 145 183 237 292 359 430
#     4  12  24  45  70 103 138 187 234 292 359 430
#     4  11  25  42  71 102 136 182 236 292 356 422
#     4  11  25  46  68 101 141 186 241 292 357 425
#     4  11  27  44  68 105 143 188 236 295 359 427
#     4  11  23  46  69 101 139 183 237 293 356 423
#
# _framework density 21.833974999999999
#
# number of rings (size 3 to 8) (size 9 to 14) (size 15 to 20)
#    0.000    0.667    3.333    3.500    7.000    0.667 
#    6.000    0.000    0.000    0.000    0.000    0.000 
#    0.000    0.000    0.000    0.000    0.000    0.000 
#
# Total GULP energy -297667.911687 kJ/mol
# GULP energy per Si atom -12402.829654 kJ/mol
# Density = 2.178428 g / cm^3
# Si number density = 21.833975 Si / 1000 Ang^3
#
#
#
# Elastic Constant Matrix: (Units=GPa)
#
#
# Indices 1 2 3 4 5 6 
#
# 1 96.6046 38.7503 44.0271 0.0000 0.0000 0.0000
# 2 38.7503 152.7849 50.4414 0.0000 0.0000 0.0000
# 3 44.0271 50.4414 113.6843 0.0000 0.0000 0.0000
# 4 0.0000 0.0000 0.0000 33.3393 0.0000 0.0000
# 5 0.0000 0.0000 0.0000 0.0000 33.4066 0.0000
# 6 0.0000 0.0000 0.0000 0.0000 0.0000 17.1373
#
#
#
# Elastic Compliance Matrix: (Units=1/GPa)
#
#
# Indices 1 2 3 4 5 6 
#
# 1 0.013034 -0.001921 -0.004196 0.000000 0.000000 0.000000
# 2 -0.001921 0.007951 -0.002784 0.000000 0.000000 0.000000
# 3 -0.004196 -0.002784 0.011656 0.000000 0.000000 0.000000
# 4 0.000000 0.000000 0.000000 0.029995 0.000000 0.000000
# 5 0.000000 0.000000 0.000000 0.000000 0.029934 0.000000
# 6 0.000000 0.000000 0.000000 0.000000 0.000000 0.058352
#
#
# Mechanical properties :
#
#
# Convention : Reuss Voigt Hill
#
# Bulk Modulus (GPa) = 67.38043 69.94571 68.66307
# Shear Modulus (GPa) = 28.79009 32.10031 30.44520
#
# Velocity S-wave (km/s) = 3.63518 3.83848 3.73821
# Velocity P-wave (km/s) = 6.96755 7.19375 7.08155
#
# Compressibility (1/GPa) = 0.01484111
#
# Stress axis : x y z
#
# Youngs Moduli (GPa) = 76.72243 125.76280 85.78907
#
# Poissons Ratio (x) = 0.24154 0.35993
# Poissons Ratio (y) = 0.14735 0.23886
# Poissons Ratio (z) = 0.32189 0.35015
#
# Static dielectric constant tensor:
#      x y z
#    x 3.752900 0.000000 0.000000 
#    y 0.000000 4.571010 0.000000 
#    z 0.000000 0.000000 3.780410 
# 
# 
# High freq. dielectric constant tensor:
#      x y z
#    x 1.851940 0.000000 0.000000 
#    y 0.000000 1.887170 0.000000 
#    z 0.000000 0.000000 1.854070 
# 
# From -- ./inp_files/23478.got.cif
#   From: 2010.03.12/outbox.cif.g09.slc.cpg/sg20_12_cif.got.tgz:23478.got - 2010.04.14 01:38:04.
