data_PCOD8160454
_publ_section_title
;
Structure prediction by ZEFSAII (Michael W. Deem and Ramdas Pophale) SiO2 
 PCOD8160454
Probable space group: C 2 2 21
;
_chemical_formula_sum "Si O2"
_cell_formula_units_Z 64
_cell_length_a 7.848555
_cell_length_b 24.150837
_cell_length_c 14.711302
_cell_angle_alpha 90.000000
_cell_angle_beta 90.000000
_cell_angle_gamma 90.000000
_cell_volume 2788.515120
_symmetry_space_group_name_H-M "C 2 2 21"
_symmetry_group_IT_number 20
_symmetry_cell_setting 'orthorhombic'
loop_
_space_group_symop_operation_xyz
x,y,z
-x,-y,1/2+z
x,-y,-z
-x,y,1/2-z
1/2+x,1/2+y,z
1/2-x,1/2-y,1/2+z
1/2+x,1/2-y,-z
1/2-x,1/2+y,1/2-z
loop_
_atom_site_type_symbol
_atom_site_label
_atom_site_fract_x
_atom_site_fract_y
_atom_site_fract_z
Si Si1 0.696460 0.788481 0.232953
Si Si2 0.174622 0.403870 0.302892
Si Si3 0.116590 0.791925 0.444900
Si Si4 0.629672 0.088249 0.107229
Si Si5 0.154648 0.002419 0.697593
Si Si6 0.330038 0.212125 0.380206
Si Si7 0.929467 0.915540 0.034598
Si Si8 0.801390 0.563500 0.004197
O O1 0.500000 0.780356 0.250000
O O2 0.763201 0.846482 0.274196
O O3 0.728086 0.784081 0.125465
O O4 0.796327 0.740603 0.284403
O O5 0.290236 0.454813 0.274941
O O6 0.148191 0.405281 0.411001
O O7 0.000000 0.409203 0.250000
O O8 0.174083 0.785916 0.548991
O O9 0.042178 0.853721 0.425780
O O10 0.984602 0.742771 0.429557
O O11 0.692838 0.040884 0.177298
O O12 0.638600 0.149062 0.149541
O O13 0.755387 0.082844 0.021510
O O14 0.430043 0.084294 0.081879
O O15 0.000000 0.970754 0.750000
O O16 0.091017 0.036471 0.609520
O O17 0.099620 0.927746 0.974098
O O18 0.846483 0.500000 0.000000
#
# Coordination Sequence:
#
# PCOD8160454 Si02
#       8
#     8   8   8   8   8   8   8   8
#     4  11  24  44  73 104 142 184 245 308 364 427
#     4  11  23  38  71 104 136 175 238 307 357 421
#     4  11  24  44  71 106 144 186 244 306 361 436
#     4  11  27  46  67  99 153 188 234 295 367 455
#     4  12  23  44  70 106 142 185 240 303 373 433
#     4  11  26  43  69 102 141 195 236 293 373 439
#     4  11  23  43  73 105 134 187 239 302 364 426
#     4  12  24  41  68 100 139 185 235 289 362 435
#
# _framework density 22.951283
#
# number of rings (size 3 to 8) (size 9 to 14) (size 15 to 20)
#    0.000    0.750    2.500    5.250    8.750    0.500 
#    0.000    3.750    0.000    0.000    0.000    0.000 
#    0.000    0.000    0.000    0.000    0.000    0.000 
#
# Total GULP energy -396697.757013 kJ/mol
# GULP energy per Si atom -12396.804907 kJ/mol
# Density = 2.289905 g / cm^3
# Si number density = 22.951283 Si / 1000 Ang^3
#
#
#
# Elastic Constant Matrix: (Units=GPa)
#
#
# Indices 1 2 3 4 5 6 
#
# 1 90.2190 29.8660 2.0662 0.0000 0.0000 0.0000
# 2 29.8660 139.2363 15.7145 0.0000 0.0000 0.0000
# 3 2.0662 15.7145 50.4588 0.0000 0.0000 0.0000
# 4 0.0000 0.0000 0.0000 33.8562 0.0000 0.0000
# 5 0.0000 0.0000 0.0000 0.0000 42.3247 0.0000
# 6 0.0000 0.0000 0.0000 0.0000 0.0000 -164.8080
#
#
#
# Elastic Compliance Matrix: (Units=1/GPa)
#
#
# Indices 1 2 3 4 5 6 
#
# 1 0.011936 -0.002596 0.000320 0.000000 0.000000 0.000000
# 2 -0.002596 0.008008 -0.002388 0.000000 0.000000 0.000000
# 3 0.000320 -0.002388 0.020549 0.000000 0.000000 0.000000
# 4 0.000000 0.000000 0.000000 0.029537 0.000000 0.000000
# 5 0.000000 0.000000 0.000000 0.000000 0.023627 0.000000
# 6 0.000000 0.000000 0.000000 0.000000 0.000000 -0.006068
#
#
# Mechanical properties :
#
#
# Convention : Reuss Voigt Hill
#
# Bulk Modulus (GPa) = 32.08752 41.68972 36.88862
# Shear Modulus (GPa) = 46.59557 -2.24092 22.17732
#
# Velocity S-wave (km/s) = 4.51066 -0.98919 3.11187
# Velocity P-wave (km/s) = 6.41398 4.11086 5.38694
#
# Compressibility (1/GPa) = 0.03116476
#
# Stress axis : x y z
#
# Youngs Moduli (GPa) = 83.77784 124.86807 48.66488
#
# Poissons Ratio (x) = 0.32421 -0.01556
# Poissons Ratio (y) = 0.21752 0.11620
# Poissons Ratio (z) = -0.02680 0.29816
#
# Static dielectric constant tensor:
#      x y z
#    x 4.128880 0.000000 0.000000 
#    y 0.000000 4.459630 0.000000 
#    z 0.000000 0.000000 18.901650 
# 
# 
# High freq. dielectric constant tensor:
#      x y z
#    x 1.913550 0.000000 0.000000 
#    y 0.000000 1.915800 0.000000 
#    z 0.000000 0.000000 1.896400 
# 
# From -- ./inp_files/19361.got.cif
#   From: 2010.03.12/outbox.cif.g09.slc.cpg/sg20_10_cif.got.tgz:19361.got - 2010.04.14 01:38:04.
