data_PCOD8160816
_publ_section_title
;
Structure prediction by ZEFSAII (Michael W. Deem and Ramdas Pophale) SiO2 
 PCOD8160816
Probable space group: C 2 2 2
;
_chemical_formula_sum "Si O2"
_cell_formula_units_Z 46
_cell_length_a 14.708520
_cell_length_b 14.708232
_cell_length_c 12.660989
_cell_angle_alpha 90.000000
_cell_angle_beta 90.000000
_cell_angle_gamma 90.000000
_cell_volume 2739.031825
_symmetry_space_group_name_H-M "C 2 2 2"
_symmetry_group_IT_number 21
_symmetry_cell_setting 'orthorhombic'
loop_
_space_group_symop_operation_xyz
x,y,z
-x,-y,z
x,-y,-z
-x,y,-z
1/2+x,1/2+y,z
1/2-x,1/2-y,z
1/2+x,1/2-y,-z
1/2-x,1/2+y,-z
loop_
_atom_site_type_symbol
_atom_site_label
_atom_site_fract_x
_atom_site_fract_y
_atom_site_fract_z
Si Si1 0.750000 0.250000 0.480381
Si Si2 0.543204 0.805033 0.224446
Si Si3 0.000000 0.500000 0.500000
Si Si4 0.620499 0.879498 0.650896
Si Si5 0.645982 0.000000 0.000000
Si Si6 0.679301 0.320702 0.684859
Si Si7 0.694961 0.043204 0.775555
Si Si8 0.500000 0.145985 0.000000
O O1 0.687910 0.187910 0.408159
O O2 0.686601 0.313401 0.556840
O O3 0.446094 0.820716 0.276770
O O4 0.580606 0.710216 0.273125
O O5 0.609052 0.890945 0.249954
O O6 0.530813 0.792230 0.098558
O O7 0.064092 0.435907 0.567062
O O8 0.679274 0.946091 0.723237
O O9 0.707766 0.969185 0.098557
O O10 0.582747 0.917251 0.960519
O O11 0.750000 0.250000 0.738738
O O12 0.710223 0.419398 0.726871
#
# Coordination Sequence:
#
# PCOD8160816 Si02
#       8
#     4   8   2   8   4   8   8   4
#     4  10  22  34  42  72 118 140 166 228 264 298
#     4  10  17  32  52  78 106 136 172 211 268 313
#     4  12  20  28  56  78  88 132 184 212 252 314
#     4  12  20  32  50  79 101 133 175 224 258 302
#     4   9  16  26  48  78 106 133 162 216 265 308
#     4   8  18  34  45  71 110 142 166 209 269 309
#     4  10  17  32  52  78 106 136 172 211 268 313
#     4   9  16  26  48  78 106 133 162 216 265 308
#
# _framework density 16.794255
#
# number of rings (size 3 to 8) (size 9 to 14) (size 15 to 20)
#    0.522    1.565    3.478    2.087    0.000    0.000 
#    0.000    1.739    0.000    1.043    0.000    2.435 
#    0.000    0.000    0.000    0.000    0.000    0.000 
#
# Total GULP energy -285083.753074 kJ/mol
# GULP energy per Si atom -12394.945786 kJ/mol
# Density = 1.675603 g / cm^3
# Si number density = 16.794255 Si / 1000 Ang^3
#
#
#
# Elastic Constant Matrix: (Units=GPa)
#
#
# Indices 1 2 3 4 5 6 
#
# 1 69.8419 61.0467 52.9872 0.0000 0.0000 0.0000
# 2 61.0467 69.8265 52.9801 0.0000 0.0000 0.0000
# 3 52.9872 52.9801 113.7899 0.0000 0.0000 0.0000
# 4 0.0000 0.0000 0.0000 29.0735 0.0000 0.0000
# 5 0.0000 0.0000 0.0000 0.0000 29.0756 0.0000
# 6 0.0000 0.0000 0.0000 0.0000 0.0000 39.1258
#
#
#
# Elastic Compliance Matrix: (Units=1/GPa)
#
#
# Indices 1 2 3 4 5 6 
#
# 1 0.063025 -0.050767 -0.005711 0.000000 0.000000 0.000000
# 2 -0.050767 0.063037 -0.005710 0.000000 0.000000 0.000000
# 3 -0.005711 -0.005710 0.014106 0.000000 0.000000 0.000000
# 4 0.000000 0.000000 0.000000 0.034396 0.000000 0.000000
# 5 0.000000 0.000000 0.000000 0.000000 0.034393 0.000000
# 6 0.000000 0.000000 0.000000 0.000000 0.000000 0.025559
#
#
# Mechanical properties :
#
#
# Convention : Reuss Voigt Hill
#
# Bulk Modulus (GPa) = 63.32245 65.27626 64.29935
# Shear Modulus (GPa) = 13.73044 25.21792 19.47418
#
# Velocity S-wave (km/s) = 2.86242 3.87923 3.40895
# Velocity P-wave (km/s) = 6.97934 7.68226 7.33922
#
# Compressibility (1/GPa) = 0.01579219
#
# Stress axis : x y z
#
# Youngs Moduli (GPa) = 15.86680 15.86373 70.89185
#
# Poissons Ratio (x) = 0.80535 0.40488
# Poissons Ratio (y) = 0.80551 0.40477
# Poissons Ratio (z) = 0.09062 0.09058
#
# Static dielectric constant tensor:
#      x y z
#    x 2.907900 0.000000 0.000000 
#    y 0.000000 2.907840 0.000000 
#    z 0.000000 0.000000 3.190750 
# 
# 
# High freq. dielectric constant tensor:
#      x y z
#    x 1.612570 0.000000 0.000000 
#    y 0.000000 1.612560 0.000000 
#    z 0.000000 0.000000 1.660510 
# 
# From -- ./inp_files/26147.got.cif
#   From: 2010.03.12/outbox.cif.g09.slc.cpg/sg21_14_cif.got.tgz:26147.got - 2010.04.14 01:59:26.
