data_PCOD8160199
_publ_section_title
;
Structure prediction by ZEFSAII (Michael W. Deem and Ramdas Pophale) SiO2 
 PCOD8160199
Probable space group: C 2 2 21
;
_chemical_formula_sum "Si O2"
_cell_formula_units_Z 56
_cell_length_a 20.527664
_cell_length_b 11.589494
_cell_length_c 11.449850
_cell_angle_alpha 90.000000
_cell_angle_beta 90.000000
_cell_angle_gamma 90.000000
_cell_volume 2723.979298
_symmetry_space_group_name_H-M "C 2 2 21"
_symmetry_group_IT_number 20
_symmetry_cell_setting 'orthorhombic'
loop_
_space_group_symop_operation_xyz
x,y,z
-x,-y,1/2+z
x,-y,-z
-x,y,1/2-z
1/2+x,1/2+y,z
1/2-x,1/2-y,1/2+z
1/2+x,1/2-y,-z
1/2-x,1/2+y,1/2-z
loop_
_atom_site_type_symbol
_atom_site_label
_atom_site_fract_x
_atom_site_fract_y
_atom_site_fract_z
Si Si1 0.905025 0.135821 0.497251
Si Si2 0.362596 0.882238 0.859280
Si Si3 0.368914 0.460203 0.120674
Si Si4 0.525664 0.726114 0.624338
Si Si5 0.836200 0.358076 0.122062
Si Si6 0.805316 0.188949 0.698773
Si Si7 0.924016 0.822005 0.760050
O O1 0.843846 0.163474 0.579197
O O2 0.888420 0.174262 0.365923
O O3 0.966700 0.214526 0.534245
O O4 0.923075 0.000000 0.500000
O O5 0.440609 0.853423 0.869182
O O6 0.329768 0.807753 0.756193
O O7 0.351686 0.015278 0.827310
O O8 0.328242 0.857143 0.982729
O O9 0.415824 0.355896 0.084901
O O10 0.315037 0.417923 0.212453
O O11 0.413757 0.557339 0.176408
O O12 0.334211 0.500000 0.000000
O O13 0.500000 0.686681 0.750000
O O14 0.770698 0.303093 0.173585
O O15 0.895705 0.279459 0.161335
O O16 0.000000 0.799191 0.750000
#
# Coordination Sequence:
#
# PCOD8160199 Si02
#       7
#     8   8   8   8   8   8   8
#     4  12  22  38  69 104 135 169 213 287 344 390
#     4  10  24  47  67  91 130 185 221 267 334 404
#     4  11  21  38  65 101 132 170 217 278 340 398
#     4  11  19  40  66  98 132 170 220 269 333 403
#     4  11  27  44  69  92 132 183 228 270 330 415
#     4  11  25  42  67  99 129 179 222 276 343 398
#     4  12  24  40  64 101 134 166 223 281 337 396
#
# _framework density 20.558160000000001
#
# number of rings (size 3 to 8) (size 9 to 14) (size 15 to 20)
#    0.000    0.857    4.286    5.143    6.000    0.571 
#    0.000    0.714    0.000    0.000    0.000    0.000 
#    0.000    0.000    0.000    0.000    0.000    0.000 
#
# Total GULP energy -347237.514429 kJ/mol
# GULP energy per Si atom -12401.339801 kJ/mol
# Density = 2.051137 g / cm^3
# Si number density = 20.558160 Si / 1000 Ang^3
#
#
#
# Elastic Constant Matrix: (Units=GPa)
#
#
# Indices 1 2 3 4 5 6 
#
# 1 86.1462 25.3907 1.4409 0.0000 0.0000 0.0000
# 2 25.3907 80.1650 4.7475 0.0000 0.0000 0.0000
# 3 1.4409 4.7475 87.8510 0.0000 0.0000 0.0000
# 4 0.0000 0.0000 0.0000 31.0382 0.0000 0.0000
# 5 0.0000 0.0000 0.0000 0.0000 24.4660 0.0000
# 6 0.0000 0.0000 0.0000 0.0000 0.0000 20.6576
#
#
#
# Elastic Compliance Matrix: (Units=1/GPa)
#
#
# Indices 1 2 3 4 5 6 
#
# 1 0.012803 -0.004056 0.000009 0.000000 0.000000 0.000000
# 2 -0.004056 0.013799 -0.000679 0.000000 0.000000 0.000000
# 3 0.000009 -0.000679 0.011419 0.000000 0.000000 0.000000
# 4 0.000000 0.000000 0.000000 0.032218 0.000000 0.000000
# 5 0.000000 0.000000 0.000000 0.000000 0.040873 0.000000
# 6 0.000000 0.000000 0.000000 0.000000 0.000000 0.048408
#
#
# Mechanical properties :
#
#
# Convention : Reuss Voigt Hill
#
# Bulk Modulus (GPa) = 35.00128 35.25783 35.12955
# Shear Modulus (GPa) = 28.01169 30.07121 29.04145
#
# Velocity S-wave (km/s) = 3.69529 3.82873 3.76260
# Velocity P-wave (km/s) = 5.93880 6.06078 6.00010
#
# Compressibility (1/GPa) = 0.02857039
#
# Stress axis : x y z
#
# Youngs Moduli (GPa) = 78.10407 72.46856 87.56979
#
# Poissons Ratio (x) = 0.29392 -0.00080
# Poissons Ratio (y) = 0.31677 0.05948
# Poissons Ratio (z) = -0.00072 0.04922
#
# Static dielectric constant tensor:
#      x y z
#    x 3.582310 0.000000 0.000000 
#    y 0.000000 3.833510 0.000000 
#    z 0.000000 0.000000 4.012970 
# 
# 
# High freq. dielectric constant tensor:
#      x y z
#    x 1.790150 0.000000 0.000000 
#    y 0.000000 1.795850 0.000000 
#    z 0.000000 0.000000 1.822250 
# 
# From -- ./inp_files/16314.got.cif
#   From: 2010.03.12/outbox.cif.g09.slc.cpg/sg20_9_cif.got.tgz:16314.got - 2010.04.14 01:38:04.
