data_PCOD8160693
_publ_section_title
;
Structure prediction by ZEFSAII (Michael W. Deem and Ramdas Pophale) SiO2 
 PCOD8160693
Probable space group: C 2 2 21
;
_chemical_formula_sum "Si O2"
_cell_formula_units_Z 32
_cell_length_a 16.269476
_cell_length_b 7.032945
_cell_length_c 12.405356
_cell_angle_alpha 90.000000
_cell_angle_beta 90.000000
_cell_angle_gamma 90.000000
_cell_volume 1419.449737
_symmetry_space_group_name_H-M "C 2 2 21"
_symmetry_group_IT_number 20
_symmetry_cell_setting 'orthorhombic'
loop_
_space_group_symop_operation_xyz
x,y,z
-x,-y,1/2+z
x,-y,-z
-x,y,1/2-z
1/2+x,1/2+y,z
1/2-x,1/2-y,1/2+z
1/2+x,1/2-y,-z
1/2-x,1/2+y,1/2-z
loop_
_atom_site_type_symbol
_atom_site_label
_atom_site_fract_x
_atom_site_fract_y
_atom_site_fract_z
Si Si1 0.555422 0.500000 0.500000
Si Si2 0.943991 0.666333 0.570945
Si Si3 0.649257 0.336148 0.307080
Si Si4 0.500000 0.915862 0.750000
Si Si5 0.705522 0.409490 0.882026
O O1 0.498064 0.313545 0.501441
O O2 0.610091 0.485967 0.391794
O O3 0.902325 0.500000 0.500000
O O4 0.006095 0.556530 0.649024
O O5 0.871723 0.770271 0.635401
O O6 0.580113 0.215683 0.246063
O O7 0.701537 0.437659 0.213720
O O8 0.709072 0.200939 0.374831
O O9 0.699562 0.500000 0.000000
#
# Coordination Sequence:
#
# PCOD8160693 Si02
#       5
#     4   8   8   4   8
#     4  12  26  48  76 116 150 198 256 306 368 454
#     4  12  24  47  75 108 151 196 242 314 369 439
#     4  12  28  47  78 112 154 201 252 311 374 452
#     4  12  24  46  78 106 146 196 258 300 376 434
#     4  12  28  48  74 111 158 198 251 311 382 449
#
# _framework density 22.543948
#
# number of rings (size 3 to 8) (size 9 to 14) (size 15 to 20)
#    0.000    0.000    3.750    6.000    8.750    0.000 
#    0.000    0.000    0.000    0.000    0.000    0.000 
#    0.000    0.000    0.000    0.000    0.000    0.000 
#
# Total GULP energy -198490.908742 kJ/mol
# GULP energy per Si atom -12405.681796 kJ/mol
# Density = 2.249264 g / cm^3
# Si number density = 22.543948 Si / 1000 Ang^3
#
#
#
# Elastic Constant Matrix: (Units=GPa)
#
#
# Indices 1 2 3 4 5 6 
#
# 1 104.8497 36.2200 19.0911 0.0000 0.0000 0.0000
# 2 36.2200 113.9428 39.6124 0.0000 0.0000 0.0000
# 3 19.0911 39.6124 108.3995 0.0000 0.0000 0.0000
# 4 0.0000 0.0000 0.0000 43.2835 0.0000 0.0000
# 5 0.0000 0.0000 0.0000 0.0000 34.9820 0.0000
# 6 0.0000 0.0000 0.0000 0.0000 0.0000 28.8064
#
#
#
# Elastic Compliance Matrix: (Units=1/GPa)
#
#
# Indices 1 2 3 4 5 6 
#
# 1 0.010765 -0.003165 -0.000739 0.000000 0.000000 0.000000
# 2 -0.003165 0.010984 -0.003456 0.000000 0.000000 0.000000
# 3 -0.000739 -0.003456 0.010618 0.000000 0.000000 0.000000
# 4 0.000000 0.000000 0.000000 0.023104 0.000000 0.000000
# 5 0.000000 0.000000 0.000000 0.000000 0.028586 0.000000
# 6 0.000000 0.000000 0.000000 0.000000 0.000000 0.034714
#
#
# Mechanical properties :
#
#
# Convention : Reuss Voigt Hill
#
# Bulk Modulus (GPa) = 56.66961 57.44876 57.05919
# Shear Modulus (GPa) = 35.87419 36.89896 36.38658
#
# Velocity S-wave (km/s) = 3.99344 4.05007 4.02186
# Velocity P-wave (km/s) = 6.81582 6.88543 6.85071
#
# Compressibility (1/GPa) = 0.01764614
#
# Stress axis : x y z
#
# Youngs Moduli (GPa) = 92.88978 91.04074 94.17561
#
# Poissons Ratio (x) = 0.28815 0.06963
# Poissons Ratio (y) = 0.29400 0.32552
# Poissons Ratio (z) = 0.06868 0.31468
#
# Static dielectric constant tensor:
#      x y z
#    x 3.975790 0.000000 0.000000 
#    y 0.000000 4.180740 0.000000 
#    z 0.000000 0.000000 4.220940 
# 
# 
# High freq. dielectric constant tensor:
#      x y z
#    x 1.886770 0.000000 0.000000 
#    y 0.000000 1.903130 0.000000 
#    z 0.000000 0.000000 1.901140 
# 
# From -- ./inp_files/11942.got.cif
#   From: 2010.03.12/outbox.cif.g09.slc.cpg/sg20_6_cif.got.tgz:11942.got - 2010.04.14 01:38:04.
