data_PCOD8160923
_publ_section_title
;
Structure prediction by ZEFSAII (Michael W. Deem and Ramdas Pophale) SiO2 
 PCOD8160923
Probable space group: C 2 2 2
;
_chemical_formula_sum "Si O2"
_cell_formula_units_Z 48
_cell_length_a 16.526747
_cell_length_b 14.394022
_cell_length_c 9.572076
_cell_angle_alpha 90.000000
_cell_angle_beta 90.000000
_cell_angle_gamma 90.000000
_cell_volume 2277.066316
_symmetry_space_group_name_H-M "C 2 2 2"
_symmetry_group_IT_number 21
_symmetry_cell_setting 'orthorhombic'
loop_
_space_group_symop_operation_xyz
x,y,z
-x,-y,z
x,-y,-z
-x,y,-z
1/2+x,1/2+y,z
1/2-x,1/2-y,z
1/2+x,1/2-y,-z
1/2-x,1/2+y,-z
loop_
_atom_site_type_symbol
_atom_site_label
_atom_site_fract_x
_atom_site_fract_y
_atom_site_fract_z
Si Si1 0.682652 0.997590 0.835804
Si Si2 0.626564 0.811836 0.753629
Si Si3 0.589315 0.291461 0.983206
Si Si4 0.799878 0.154098 0.753428
Si Si5 0.909148 0.767082 0.466533
Si Si6 0.053260 0.366757 0.227007
O O1 0.742779 0.064501 0.749362
O O2 0.591228 0.032111 0.800022
O O3 0.693646 0.891804 0.780225
O O4 0.700683 0.000000 0.000000
O O5 0.639003 0.761792 0.605709
O O6 0.542758 0.867839 0.764347
O O7 0.630922 0.729633 0.867955
O O8 0.645466 0.359159 0.892552
O O9 0.582111 0.193833 0.903927
O O10 0.500000 0.336984 0.000000
O O11 0.750000 0.250000 0.762230
O O12 0.857597 0.154519 0.615930
O O13 0.913121 0.675588 0.371111
O O14 0.000000 0.804651 0.500000
#
# Coordination Sequence:
#
# PCOD8160923 Si02
#       6
#     8   8   8   8   8   8
#     4  12  21  33  56  89 124 159 191 244 310 369
#     4  10  19  31  56  88 118 154 203 232 292 374
#     4   9  17  33  58  85 115 157 201 245 294 361
#     4  11  20  38  58  82 125 162 195 249 315 349
#     4   9  19  36  57  85 120 163 199 237 297 370
#     4   9  17  32  53  83 125 158 180 227 301 370
#
# _framework density 21.079756
#
# number of rings (size 3 to 8) (size 9 to 14) (size 15 to 20)
#    0.000    2.000    5.000    1.500    0.000    1.333 
#    0.000    5.000    0.000    0.500    0.000    2.333 
#    0.000    0.000    0.000    0.000    0.000    0.000 
#
# Total GULP energy -297492.908324 kJ/mol
# GULP energy per Si atom -12395.537847 kJ/mol
# Density = 2.103178 g / cm^3
# Si number density = 21.079756 Si / 1000 Ang^3
#
#
#
# Elastic Constant Matrix: (Units=GPa)
#
#
# Indices 1 2 3 4 5 6 
#
# 1 85.4078 29.6699 34.8821 0.0000 0.0000 0.0000
# 2 29.6699 42.6051 29.8560 0.0000 0.0000 0.0000
# 3 34.8821 29.8560 158.6577 0.0000 0.0000 0.0000
# 4 0.0000 0.0000 0.0000 16.4498 0.0000 0.0000
# 5 0.0000 0.0000 0.0000 0.0000 36.1926 0.0000
# 6 0.0000 0.0000 0.0000 0.0000 0.0000 27.0752
#
#
#
# Elastic Compliance Matrix: (Units=1/GPa)
#
#
# Indices 1 2 3 4 5 6 
#
# 1 0.015797 -0.009868 -0.001616 0.000000 0.000000 0.000000
# 2 -0.009868 0.033201 -0.004078 0.000000 0.000000 0.000000
# 3 -0.001616 -0.004078 0.007426 0.000000 0.000000 0.000000
# 4 0.000000 0.000000 0.000000 0.060791 0.000000 0.000000
# 5 0.000000 0.000000 0.000000 0.000000 0.027630 0.000000
# 6 0.000000 0.000000 0.000000 0.000000 0.000000 0.036934
#
#
# Mechanical properties :
#
#
# Convention : Reuss Voigt Hill
#
# Bulk Modulus (GPa) = 39.52766 52.83187 46.17977
# Shear Modulus (GPa) = 22.59001 28.76102 25.67552
#
# Velocity S-wave (km/s) = 3.27715 3.69777 3.49380
# Velocity P-wave (km/s) = 5.75429 6.58397 6.18306
#
# Compressibility (1/GPa) = 0.02529874
#
# Stress axis : x y z
#
# Youngs Moduli (GPa) = 63.30434 30.11917 134.66924
#
# Poissons Ratio (x) = 0.29722 0.21763
# Poissons Ratio (y) = 0.62471 0.54921
# Poissons Ratio (z) = 0.10230 0.12283
#
# Static dielectric constant tensor:
#      x y z
#    x 4.065000 0.000000 0.000000 
#    y 0.000000 3.239330 0.000000 
#    z 0.000000 0.000000 4.102480 
# 
# 
# High freq. dielectric constant tensor:
#      x y z
#    x 1.825580 0.000000 0.000000 
#    y 0.000000 1.770360 0.000000 
#    z 0.000000 0.000000 1.833930 
# 
# From -- ./inp_files/14970.got.cif
#   From: 2010.03.12/outbox.cif.g09.slc.cpg/sg21_8_cif.got.tgz:14970.got - 2010.04.14 01:59:26.
