data_PCOD8160239
_publ_section_title
;
Structure prediction by ZEFSAII (Michael W. Deem and Ramdas Pophale) SiO2 
 PCOD8160239
Probable space group: C 2 2 21
;
_chemical_formula_sum "Si O2"
_cell_formula_units_Z 32
_cell_length_a 5.041140
_cell_length_b 22.895267
_cell_length_c 10.963508
_cell_angle_alpha 90.000000
_cell_angle_beta 90.000000
_cell_angle_gamma 90.000000
_cell_volume 1265.388866
_symmetry_space_group_name_H-M "C 2 2 21"
_symmetry_group_IT_number 20
_symmetry_cell_setting 'orthorhombic'
loop_
_space_group_symop_operation_xyz
x,y,z
-x,-y,1/2+z
x,-y,-z
-x,y,1/2-z
1/2+x,1/2+y,z
1/2-x,1/2-y,1/2+z
1/2+x,1/2-y,-z
1/2-x,1/2+y,1/2-z
loop_
_atom_site_type_symbol
_atom_site_label
_atom_site_fract_x
_atom_site_fract_y
_atom_site_fract_z
Si Si1 0.762660 0.930093 0.171400
Si Si2 0.000000 0.687928 0.250000
Si Si3 0.726914 0.766110 0.426081
Si Si4 0.390329 0.881939 0.991473
Si Si5 0.937147 0.000000 0.500000
O O1 0.500000 0.943512 0.250000
O O2 0.000000 0.900355 0.250000
O O3 0.682018 0.891759 0.052242
O O4 0.880084 0.991417 0.119883
O O5 0.230079 0.731830 0.201007
O O6 0.099592 0.646512 0.357931
O O7 0.427105 0.757263 0.471221
O O8 0.761109 0.836711 0.416567
O O9 0.241216 0.942973 0.982362
#
# Coordination Sequence:
#
# PCOD8160239 Si02
#       5
#     8   4   8   8   4
#     4  12  28  52  76 121 175 223 265 341 419 512
#     4  10  26  54  90 114 162 214 292 356 398 514
#     4  10  25  50  77 118 157 206 272 343 416 474
#     4  11  27  53  84 126 167 217 283 342 434 493
#     4  12  28  50  82 128 166 220 280 330 432 506
#
# _framework density 25.288667
#
# number of rings (size 3 to 8) (size 9 to 14) (size 15 to 20)
#    0.000    1.000    2.500    0.750    7.000   10.000 
#    9.000    0.000    0.000    0.000    0.000    0.000 
#    0.000    0.000    0.000    0.000    0.000    0.000 
#
# Total GULP energy -198227.685399 kJ/mol
# GULP energy per Si atom -12389.230337 kJ/mol
# Density = 2.523111 g / cm^3
# Si number density = 25.288667 Si / 1000 Ang^3
#
#
#
# Elastic Constant Matrix: (Units=GPa)
#
#
# Indices 1 2 3 4 5 6 
#
# 1 135.6250 64.5295 71.1397 0.0000 0.0000 0.0000
# 2 64.5295 206.7323 80.4838 0.0000 0.0000 0.0000
# 3 71.1397 80.4838 177.8868 0.0000 0.0000 0.0000
# 4 0.0000 0.0000 0.0000 51.0980 0.0000 0.0000
# 5 0.0000 0.0000 0.0000 0.0000 40.5211 0.0000
# 6 0.0000 0.0000 0.0000 0.0000 0.0000 25.9985
#
#
#
# Elastic Compliance Matrix: (Units=1/GPa)
#
#
# Indices 1 2 3 4 5 6 
#
# 1 0.009898 -0.001880 -0.003108 0.000000 0.000000 0.000000
# 2 -0.001880 0.006228 -0.002066 0.000000 0.000000 0.000000
# 3 -0.003108 -0.002066 0.007799 0.000000 0.000000 0.000000
# 4 0.000000 0.000000 0.000000 0.019570 0.000000 0.000000
# 5 0.000000 0.000000 0.000000 0.000000 0.024679 0.000000
# 6 0.000000 0.000000 0.000000 0.000000 0.000000 0.038464
#
#
# Mechanical properties :
#
#
# Convention : Reuss Voigt Hill
#
# Bulk Modulus (GPa) = 101.85452 105.83892 103.84672
# Shear Modulus (GPa) = 40.31676 43.79625 42.05650
#
# Velocity S-wave (km/s) = 3.99715 4.16607 4.08248
# Velocity P-wave (km/s) = 7.85284 8.06751 7.96090
#
# Compressibility (1/GPa) = 0.00981793
#
# Stress axis : x y z
#
# Youngs Moduli (GPa) = 101.03337 160.55760 128.21627
#
# Poissons Ratio (x) = 0.30177 0.39848
# Poissons Ratio (y) = 0.18990 0.26493
# Poissons Ratio (z) = 0.31400 0.33176
#
# Static dielectric constant tensor:
#      x y z
#    x 4.707780 0.000000 0.000000 
#    y 0.000000 4.842210 0.000000 
#    z 0.000000 0.000000 4.952340 
# 
# 
# High freq. dielectric constant tensor:
#      x y z
#    x 2.015650 0.000000 0.000000 
#    y 0.000000 2.011310 0.000000 
#    z 0.000000 0.000000 2.016670 
# 
# From -- ./inp_files/11951.got.cif
#   From: 2010.03.12/outbox.cif.g09.slc.cpg/sg20_6_cif.got.tgz:11951.got - 2010.04.14 01:38:04.
