data_PCOD8160794
_publ_section_title
;
Structure prediction by ZEFSAII (Michael W. Deem and Ramdas Pophale) SiO2 
 PCOD8160794
Probable space group: C 2 2 2
;
_chemical_formula_sum "Si O2"
_cell_formula_units_Z 20
_cell_length_a 6.698336
_cell_length_b 15.759116
_cell_length_c 8.719713
_cell_angle_alpha 90.000000
_cell_angle_beta 90.000000
_cell_angle_gamma 90.000000
_cell_volume 920.451631
_symmetry_space_group_name_H-M "C 2 2 2"
_symmetry_group_IT_number 21
_symmetry_cell_setting 'orthorhombic'
loop_
_space_group_symop_operation_xyz
x,y,z
-x,-y,z
x,-y,-z
-x,y,-z
1/2+x,1/2+y,z
1/2-x,1/2-y,z
1/2+x,1/2-y,-z
1/2-x,1/2+y,-z
loop_
_atom_site_type_symbol
_atom_site_label
_atom_site_fract_x
_atom_site_fract_y
_atom_site_fract_z
Si Si1 0.500000 0.000000 0.000000
Si Si2 0.973448 0.770721 0.818737
Si Si3 0.000000 0.500000 0.500000
Si Si4 0.790578 0.608741 0.251378
O O1 0.647065 0.057860 0.900423
O O2 0.750000 0.750000 0.768322
O O3 0.095534 0.696886 0.738800
O O4 0.054944 0.863222 0.758426
O O5 0.000000 0.767291 0.000000
O O6 0.154167 0.444858 0.400639
#
# Coordination Sequence:
#
# PCOD8160794 Si02
#       4
#     2   8   2   8
#     4  10  16  38  66 102 130 176 220 296 336 386
#     4  11  19  39  69 103 128 173 228 285 334 399
#     4  10  24  46  62 102 144 190 216 268 352 410
#     4  10  21  39  67  95 144 173 224 280 336 414
#
# _framework density 21.728463999999999
#
# number of rings (size 3 to 8) (size 9 to 14) (size 15 to 20)
#    0.000    1.600    6.000    0.000    0.000    0.000 
#    7.200   21.000    0.000    0.000    0.000    0.000 
#    0.000    0.000    0.000    0.000    0.000    0.000 
#
# Total GULP energy -123911.902836 kJ/mol
# GULP energy per Si atom -12391.190284 kJ/mol
# Density = 2.167901 g / cm^3
# Si number density = 21.728464 Si / 1000 Ang^3
#
#
#
# Elastic Constant Matrix: (Units=GPa)
#
#
# Indices 1 2 3 4 5 6 
#
# 1 169.8965 75.1351 49.2553 0.0000 0.0000 0.0000
# 2 75.1351 140.4583 68.5206 0.0000 0.0000 0.0000
# 3 49.2553 68.5206 122.5665 0.0000 0.0000 0.0000
# 4 0.0000 0.0000 0.0000 19.0582 0.0000 0.0000
# 5 0.0000 0.0000 0.0000 0.0000 13.2116 0.0000
# 6 0.0000 0.0000 0.0000 0.0000 0.0000 55.4827
#
#
#
# Elastic Compliance Matrix: (Units=1/GPa)
#
#
# Indices 1 2 3 4 5 6 
#
# 1 0.007817 -0.003643 -0.001105 0.000000 0.000000 0.000000
# 2 -0.003643 0.011487 -0.004958 0.000000 0.000000 0.000000
# 3 -0.001105 -0.004958 0.011375 0.000000 0.000000 0.000000
# 4 0.000000 0.000000 0.000000 0.052471 0.000000 0.000000
# 5 0.000000 0.000000 0.000000 0.000000 0.075691 0.000000
# 6 0.000000 0.000000 0.000000 0.000000 0.000000 0.018024
#
#
# Mechanical properties :
#
#
# Convention : Reuss Voigt Hill
#
# Bulk Modulus (GPa) = 88.75026 90.97148 89.86087
# Shear Modulus (GPa) = 24.99619 33.55120 29.27370
#
# Velocity S-wave (km/s) = 3.39542 3.93378 3.67447
# Velocity P-wave (km/s) = 7.50371 7.91146 7.71028
#
# Compressibility (1/GPa) = 0.01126757
#
# Stress axis : x y z
#
# Youngs Moduli (GPa) = 127.92314 87.05777 87.91533
#
# Poissons Ratio (x) = 0.31711 0.09716
# Poissons Ratio (y) = 0.46596 0.43586
# Poissons Ratio (z) = 0.14137 0.43161
#
# Static dielectric constant tensor:
#      x y z
#    x 4.592030 0.000000 0.000000 
#    y 0.000000 4.644820 0.000000 
#    z 0.000000 0.000000 3.770210 
# 
# 
# High freq. dielectric constant tensor:
#      x y z
#    x 1.851810 0.000000 0.000000 
#    y 0.000000 1.867960 0.000000 
#    z 0.000000 0.000000 1.835130 
# 
# From -- ./inp_files/9595.got.cif
#   From: 2010.03.12/outbox.cif.g09.slc.cpg/sg21_5_cif.got.tgz:9595.got - 2010.04.14 01:59:26.
