data_PCOD8160704
_publ_section_title
;
Structure prediction by ZEFSAII (Michael W. Deem and Ramdas Pophale) SiO2 
 PCOD8160704
Probable space group: C 2 2 21
;
_chemical_formula_sum "Si O2"
_cell_formula_units_Z 64
_cell_length_a 8.943792
_cell_length_b 11.247278
_cell_length_c 27.804621
_cell_angle_alpha 90.000000
_cell_angle_beta 90.000000
_cell_angle_gamma 90.000000
_cell_volume 2796.958999
_symmetry_space_group_name_H-M "C 2 2 21"
_symmetry_group_IT_number 20
_symmetry_cell_setting 'orthorhombic'
loop_
_space_group_symop_operation_xyz
x,y,z
-x,-y,1/2+z
x,-y,-z
-x,y,1/2-z
1/2+x,1/2+y,z
1/2-x,1/2-y,1/2+z
1/2+x,1/2-y,-z
1/2-x,1/2+y,1/2-z
loop_
_atom_site_type_symbol
_atom_site_label
_atom_site_fract_x
_atom_site_fract_y
_atom_site_fract_z
Si Si1 0.362853 0.702692 0.725802
Si Si2 0.790383 0.496411 0.915222
Si Si3 0.915169 0.965578 0.672974
Si Si4 0.272372 0.362415 0.856001
Si Si5 0.690318 0.263810 0.452347
Si Si6 0.166531 0.774772 0.050382
Si Si7 0.896629 0.585149 0.615904
Si Si8 0.112364 0.280450 0.209956
O O1 0.500000 0.776274 0.750000
O O2 0.439666 0.588889 0.700644
O O3 0.260518 0.782109 0.690748
O O4 0.266604 0.661496 0.772167
O O5 0.722675 0.492110 0.862201
O O6 0.765985 0.367980 0.937480
O O7 0.700996 0.585553 0.949661
O O8 0.960451 0.545254 0.914951
O O9 0.868310 0.862754 0.710250
O O10 0.062433 0.919144 0.644834
O O11 0.244227 0.283967 0.903290
O O12 0.156755 0.469711 0.855822
O O13 0.757802 0.289924 0.504914
O O14 0.511880 0.267732 0.450433
O O15 0.765556 0.361030 0.417422
O O16 0.940310 0.680848 0.656678
O O17 0.000000 0.325520 0.250000
#
# Coordination Sequence:
#
# PCOD8160704 Si02
#       8
#     8   8   8   8   8   8   8   8
#     4  12  28  45  75 108 151 195 255 312 374 453
#     4  12  25  49  80 109 150 201 249 310 383 454
#     4  12  25  48  75 105 153 200 249 313 380 446
#     4  12  27  49  73 110 151 200 251 313 383 454
#     4  12  28  51  75 117 151 198 250 316 383 459
#     4  12  27  51  80 110 155 194 253 313 384 460
#     4  12  27  47  78 109 157 196 253 316 376 452
#     4  12  25  45  72 110 146 199 252 304 375 445
#
# _framework density 22.881993999999999
#
# number of rings (size 3 to 8) (size 9 to 14) (size 15 to 20)
#    0.000    0.000    5.000    4.500    7.000    1.000 
#    2.250    0.000    0.000    0.000    0.000    0.000 
#    0.000    0.000    0.000    0.000    0.000    0.000 
#
# Total GULP energy -396766.735707 kJ/mol
# GULP energy per Si atom -12398.960491 kJ/mol
# Density = 2.282991 g / cm^3
# Si number density = 22.881994 Si / 1000 Ang^3
#
#
#
# Elastic Constant Matrix: (Units=GPa)
#
#
# Indices 1 2 3 4 5 6 
#
# 1 117.2025 13.5868 27.5610 0.0000 0.0000 0.0000
# 2 13.5868 90.7912 5.7682 0.0000 0.0000 0.0000
# 3 27.5610 5.7682 98.2331 0.0000 0.0000 0.0000
# 4 0.0000 0.0000 0.0000 20.6471 0.0000 0.0000
# 5 0.0000 0.0000 0.0000 0.0000 44.7726 0.0000
# 6 0.0000 0.0000 0.0000 0.0000 0.0000 37.1352
#
#
#
# Elastic Compliance Matrix: (Units=1/GPa)
#
#
# Indices 1 2 3 4 5 6 
#
# 1 0.009269 -0.001226 -0.002529 0.000000 0.000000 0.000000
# 2 -0.001226 0.011218 -0.000315 0.000000 0.000000 0.000000
# 3 -0.002529 -0.000315 0.010908 0.000000 0.000000 0.000000
# 4 0.000000 0.000000 0.000000 0.048433 0.000000 0.000000
# 5 0.000000 0.000000 0.000000 0.000000 0.022335 0.000000
# 6 0.000000 0.000000 0.000000 0.000000 0.000000 0.026929
#
#
# Mechanical properties :
#
#
# Convention : Reuss Voigt Hill
#
# Bulk Modulus (GPa) = 43.00084 44.45099 43.72592
# Shear Modulus (GPa) = 34.48696 37.79838 36.14267
#
# Velocity S-wave (km/s) = 3.88644 4.06875 3.97863
# Velocity P-wave (km/s) = 6.24279 6.44525 6.34483
#
# Compressibility (1/GPa) = 0.02325536
#
# Stress axis : x y z
#
# Youngs Moduli (GPa) = 107.88614 89.14396 91.67774
#
# Poissons Ratio (x) = 0.10933 0.23181
# Poissons Ratio (y) = 0.13232 0.02884
# Poissons Ratio (z) = 0.27280 0.02804
#
# Static dielectric constant tensor:
#      x y z
#    x 4.334910 0.000000 0.000000 
#    y 0.000000 4.274330 0.000000 
#    z 0.000000 0.000000 4.226090 
# 
# 
# High freq. dielectric constant tensor:
#      x y z
#    x 1.919940 0.000000 0.000000 
#    y 0.000000 1.910890 0.000000 
#    z 0.000000 0.000000 1.908540 
# 
# From -- ./inp_files/31074.got.cif
#   From: 2010.03.12/outbox.cif.g09.slc.cpg/sg20_16_cif.got.tgz:31074.got - 2010.04.14 01:38:04.
