data_PCOD8160207
_publ_section_title
;
Structure prediction by ZEFSAII (Michael W. Deem and Ramdas Pophale) SiO2 
 PCOD8160207
Probable space group: C 2 2 21
;
_chemical_formula_sum "Si O2"
_cell_formula_units_Z 32
_cell_length_a 17.430649
_cell_length_b 7.545991
_cell_length_c 11.144984
_cell_angle_alpha 90.000000
_cell_angle_beta 90.000000
_cell_angle_gamma 90.000000
_cell_volume 1465.916691
_symmetry_space_group_name_H-M "C 2 2 21"
_symmetry_group_IT_number 20
_symmetry_cell_setting 'orthorhombic'
loop_
_space_group_symop_operation_xyz
x,y,z
-x,-y,1/2+z
x,-y,-z
-x,y,1/2-z
1/2+x,1/2+y,z
1/2-x,1/2-y,1/2+z
1/2+x,1/2-y,-z
1/2-x,1/2+y,1/2-z
loop_
_atom_site_type_symbol
_atom_site_label
_atom_site_fract_x
_atom_site_fract_y
_atom_site_fract_z
Si Si1 0.801045 0.000000 0.500000
Si Si2 0.768155 0.661278 0.775965
Si Si3 0.607663 0.835769 0.085609
Si Si4 0.648790 0.497969 0.639092
Si Si5 0.500000 0.652326 0.250000
O O1 0.748508 0.980693 0.381823
O O2 0.853327 0.825470 0.513454
O O3 0.840826 0.599566 0.697366
O O4 0.692068 0.673192 0.689346
O O5 0.786603 0.848735 0.836415
O O6 0.525405 0.773010 0.137501
O O7 0.591675 0.000000 0.000000
O O8 0.629011 0.500000 0.500000
O O9 0.570935 0.471484 0.712632
#
# Coordination Sequence:
#
# PCOD8160207 Si02
#       5
#     4   8   8   8   4
#     4  12  22  40  76 100 136 190 222 292 346 406
#     4  11  21  42  67 101 133 173 233 283 340 406
#     4  11  25  46  70 102 143 179 232 291 339 413
#     4  11  24  42  70 102 137 178 232 289 341 412
#     4  10  24  48  66 100 140 182 234 274 350 420
#
# _framework density 21.829345
#
# number of rings (size 3 to 8) (size 9 to 14) (size 15 to 20)
#    0.000    1.000    5.000    3.750    1.750    0.000 
#    9.000    1.250    0.000    0.000    0.000    0.000 
#    0.000    0.000    0.000    0.000    0.000    0.000 
#
# Total GULP energy -198368.017968 kJ/mol
# GULP energy per Si atom -12398.001123 kJ/mol
# Density = 2.177966 g / cm^3
# Si number density = 21.829345 Si / 1000 Ang^3
#
#
#
# Elastic Constant Matrix: (Units=GPa)
#
#
# Indices 1 2 3 4 5 6 
#
# 1 110.3397 38.5413 14.2131 0.0000 0.0000 0.0000
# 2 38.5413 82.5625 22.0334 0.0000 0.0000 0.0000
# 3 14.2131 22.0334 101.7899 0.0000 0.0000 0.0000
# 4 0.0000 0.0000 0.0000 43.4349 0.0000 0.0000
# 5 0.0000 0.0000 0.0000 0.0000 32.9861 0.0000
# 6 0.0000 0.0000 0.0000 0.0000 0.0000 27.1391
#
#
#
# Elastic Compliance Matrix: (Units=1/GPa)
#
#
# Indices 1 2 3 4 5 6 
#
# 1 0.010847 -0.004945 -0.000444 0.000000 0.000000 0.000000
# 2 -0.004945 0.015109 -0.002580 0.000000 0.000000 0.000000
# 3 -0.000444 -0.002580 0.010445 0.000000 0.000000 0.000000
# 4 0.000000 0.000000 0.000000 0.023023 0.000000 0.000000
# 5 0.000000 0.000000 0.000000 0.000000 0.030316 0.000000
# 6 0.000000 0.000000 0.000000 0.000000 0.000000 0.036847
#
#
# Mechanical properties :
#
#
# Convention : Reuss Voigt Hill
#
# Bulk Modulus (GPa) = 48.87023 49.36308 49.11666
# Shear Modulus (GPa) = 33.47913 35.37230 34.42572
#
# Velocity S-wave (km/s) = 3.92047 4.02979 3.97550
# Velocity P-wave (km/s) = 6.55205 6.65692 6.60469
#
# Compressibility (1/GPa) = 0.02046235
#
# Stress axis : x y z
#
# Youngs Moduli (GPa) = 92.18720 66.18547 95.74277
#
# Poissons Ratio (x) = 0.32730 0.04253
# Poissons Ratio (y) = 0.45589 0.24702
# Poissons Ratio (z) = 0.04095 0.17076
#
# Static dielectric constant tensor:
#      x y z
#    x 3.888610 0.000000 0.000000 
#    y 0.000000 3.941440 0.000000 
#    z 0.000000 0.000000 4.225760 
# 
# 
# High freq. dielectric constant tensor:
#      x y z
#    x 1.847780 0.000000 0.000000 
#    y 0.000000 1.845850 0.000000 
#    z 0.000000 0.000000 1.879560 
# 
# From -- ./inp_files/12502.got.cif
#   From: 2010.03.12/outbox.cif.g09.slc.cpg/sg20_7_cif.got.tgz:12502.got - 2010.04.14 01:38:04.
