data_PCOD8160529
_publ_section_title
;
Structure prediction by ZEFSAII (Michael W. Deem and Ramdas Pophale) SiO2 
 PCOD8160529
Probable space group: C 2 2 21
;
_chemical_formula_sum "Si O2"
_cell_formula_units_Z 32
_cell_length_a 12.044008
_cell_length_b 7.722291
_cell_length_c 12.664234
_cell_angle_alpha 90.000000
_cell_angle_beta 90.000000
_cell_angle_gamma 90.000000
_cell_volume 1177.866649
_symmetry_space_group_name_H-M "C 2 2 21"
_symmetry_group_IT_number 20
_symmetry_cell_setting 'orthorhombic'
loop_
_space_group_symop_operation_xyz
x,y,z
-x,-y,1/2+z
x,-y,-z
-x,y,1/2-z
1/2+x,1/2+y,z
1/2-x,1/2-y,1/2+z
1/2+x,1/2-y,-z
1/2-x,1/2+y,1/2-z
loop_
_atom_site_type_symbol
_atom_site_label
_atom_site_fract_x
_atom_site_fract_y
_atom_site_fract_z
Si Si1 0.697455 0.695683 0.130335
Si Si2 0.499297 0.557744 0.868807
Si Si3 0.123810 0.762041 0.534240
Si Si4 0.883840 0.510143 0.779272
O O1 0.612992 0.540516 0.102060
O O2 0.788626 0.634313 0.217167
O O3 0.632551 0.848851 0.187557
O O4 0.755997 0.760895 0.022584
O O5 0.500000 0.622273 0.750000
O O6 0.393217 0.428435 0.888426
O O7 0.475395 0.723111 0.945107
O O8 0.112055 0.588663 0.602189
O O9 0.000000 0.419520 0.750000
#
# Coordination Sequence:
#
# PCOD8160529 Si02
#       4
#     8   8   8   8
#     4  12  26  47  76 106 148 201 246 311 386 437
#     4  11  23  50  74 103 150 192 248 312 372 455
#     4  11  25  43  75 108 143 194 248 305 375 444
#     4  12  27  49  71 110 151 191 256 312 365 465
#
# _framework density 27.167760999999999
#
# number of rings (size 3 to 8) (size 9 to 14) (size 15 to 20)
#    0.000    0.500    5.000    2.250   10.500    3.000 
#    0.000    0.000    0.000    0.000    0.000    0.000 
#    0.000    0.000    0.000    0.000    0.000    0.000 
#
# Total GULP energy -198351.259042 kJ/mol
# GULP energy per Si atom -12396.953690 kJ/mol
# Density = 2.710593 g / cm^3
# Si number density = 27.167761 Si / 1000 Ang^3
#
#
#
# Elastic Constant Matrix: (Units=GPa)
#
#
# Indices 1 2 3 4 5 6 
#
# 1 156.6622 27.6871 13.3051 0.0000 0.0000 0.0000
# 2 27.6871 47.7236 4.4389 0.0000 0.0000 0.0000
# 3 13.3051 4.4389 138.9117 0.0000 0.0000 0.0000
# 4 0.0000 0.0000 0.0000 40.2027 0.0000 0.0000
# 5 0.0000 0.0000 0.0000 0.0000 56.6746 0.0000
# 6 0.0000 0.0000 0.0000 0.0000 0.0000 20.2879
#
#
#
# Elastic Compliance Matrix: (Units=1/GPa)
#
#
# Indices 1 2 3 4 5 6 
#
# 1 0.007155 -0.004099 -0.000554 0.000000 0.000000 0.000000
# 2 -0.004099 0.023365 -0.000354 0.000000 0.000000 0.000000
# 3 -0.000554 -0.000354 0.007263 0.000000 0.000000 0.000000
# 4 0.000000 0.000000 0.000000 0.024874 0.000000 0.000000
# 5 0.000000 0.000000 0.000000 0.000000 0.017645 0.000000
# 6 0.000000 0.000000 0.000000 0.000000 0.000000 0.049290
#
#
# Mechanical properties :
#
#
# Convention : Reuss Voigt Hill
#
# Bulk Modulus (GPa) = 36.01277 48.23997 42.12637
# Shear Modulus (GPa) = 33.58789 43.29080 38.43935
#
# Velocity S-wave (km/s) = 3.51994 3.99615 3.76558
# Velocity P-wave (km/s) = 5.45935 6.25197 5.86906
#
# Compressibility (1/GPa) = 0.02776793
#
# Stress axis : x y z
#
# Youngs Moduli (GPa) = 139.76807 42.79876 137.67995
#
# Poissons Ratio (x) = 0.17544 0.07631
# Poissons Ratio (y) = 0.57295 0.04874
# Poissons Ratio (z) = 0.07747 0.01515
#
# Static dielectric constant tensor:
#      x y z
#    x 5.057650 0.000000 0.000000 
#    y 0.000000 4.739240 0.000000 
#    z 0.000000 0.000000 5.206850 
# 
# 
# High freq. dielectric constant tensor:
#      x y z
#    x 2.089650 0.000000 0.000000 
#    y 0.000000 2.084300 0.000000 
#    z 0.000000 0.000000 2.111120 
# 
# From -- ./inp_files/18185.got.cif
#   From: 2010.03.12/outbox.cif.g09.slc.cpg/sg20_10_cif.got.tgz:18185.got - 2010.04.14 01:38:04.
