data_PCOD8160988
_publ_section_title
;
Structure prediction by ZEFSAII (Michael W. Deem and Ramdas Pophale) SiO2 
 PCOD8160988
Probable space group: C 2 2 2
;
_chemical_formula_sum "Si O2"
_cell_formula_units_Z 48
_cell_length_a 8.771385
_cell_length_b 17.611632
_cell_length_c 14.875449
_cell_angle_alpha 90.000000
_cell_angle_beta 90.000000
_cell_angle_gamma 90.000000
_cell_volume 2297.935631
_symmetry_space_group_name_H-M "C 2 2 2"
_symmetry_group_IT_number 21
_symmetry_cell_setting 'orthorhombic'
loop_
_space_group_symop_operation_xyz
x,y,z
-x,-y,z
x,-y,-z
-x,y,-z
1/2+x,1/2+y,z
1/2-x,1/2-y,z
1/2+x,1/2-y,-z
1/2-x,1/2+y,-z
loop_
_atom_site_type_symbol
_atom_site_label
_atom_site_fract_x
_atom_site_fract_y
_atom_site_fract_z
Si Si1 0.822819 0.520617 0.196801
Si Si2 0.250000 0.750000 0.667808
Si Si3 0.500000 0.500000 0.500000
Si Si4 0.225067 0.138888 0.860022
Si Si5 0.996280 0.258622 0.817676
Si Si6 0.750101 0.584170 0.389076
Si Si7 0.500000 0.000000 0.500000
Si Si8 0.650643 0.141226 0.952875
O O1 0.723709 0.448006 0.169110
O O2 0.755473 0.555197 0.287294
O O3 0.790272 0.582358 0.120462
O O4 0.000000 0.500000 0.206518
O O5 0.401477 0.760574 0.726805
O O6 0.260966 0.675506 0.605900
O O7 0.600211 0.553148 0.436692
O O8 0.065955 0.174843 0.828066
O O9 0.369135 0.179116 0.811882
O O10 0.227423 0.152510 0.967784
O O11 0.889113 0.279008 0.903288
O O12 0.900496 0.555698 0.439141
O O13 0.500000 0.106068 0.000000
#
# Coordination Sequence:
#
# PCOD8160988 Si02
#       8
#     8   4   2   8   8   8   2   8
#     4  12  19  37  68  98 128 181 230 275 315 400
#     4  12  24  44  70 102 130 174 214 278 330 414
#     4  10  28  52  72 106 130 168 192 294 360 420
#     4  10  22  36  61  95 137 183 232 276 312 374
#     4  10  22  38  56  97 128 179 227 272 327 372
#     4  11  25  46  74  99 135 162 217 266 350 406
#     4  10  24  48  76 102 114 172 212 258 324 440
#     4  10  19  34  58  93 133 181 234 274 316 367
#
# _framework density 20.888314999999999
#
# number of rings (size 3 to 8) (size 9 to 14) (size 15 to 20)
#    0.000    1.333    5.833    0.500    2.333    4.667 
#    0.000    0.000    0.000    0.000    0.000    0.000 
#    0.000    0.000    0.000    0.000    0.000    0.000 
#
# Total GULP energy -297647.428813 kJ/mol
# GULP energy per Si atom -12401.976201 kJ/mol
# Density = 2.084077 g / cm^3
# Si number density = 20.888315 Si / 1000 Ang^3
#
#
#
# Elastic Constant Matrix: (Units=GPa)
#
#
# Indices 1 2 3 4 5 6 
#
# 1 82.7561 66.0080 46.3192 0.0000 0.0000 0.0000
# 2 66.0080 144.9324 64.3037 0.0000 0.0000 0.0000
# 3 46.3192 64.3037 105.5712 0.0000 0.0000 0.0000
# 4 0.0000 0.0000 0.0000 37.9580 0.0000 0.0000
# 5 0.0000 0.0000 0.0000 0.0000 -36.8535 0.0000
# 6 0.0000 0.0000 0.0000 0.0000 0.0000 27.7022
#
#
#
# Elastic Compliance Matrix: (Units=1/GPa)
#
#
# Indices 1 2 3 4 5 6 
#
# 1 0.020438 -0.007304 -0.004519 0.000000 0.000000 0.000000
# 2 -0.007304 0.012065 -0.004144 0.000000 0.000000 0.000000
# 3 -0.004519 -0.004144 0.013979 0.000000 0.000000 0.000000
# 4 0.000000 0.000000 0.000000 0.026345 0.000000 0.000000
# 5 0.000000 0.000000 0.000000 0.000000 -0.027134 0.000000
# 6 0.000000 0.000000 0.000000 0.000000 0.000000 0.036098
#
#
# Mechanical properties :
#
#
# Convention : Reuss Voigt Hill
#
# Bulk Modulus (GPa) = 68.73212 76.28017 72.50615
# Shear Modulus (GPa) = 42.16781 16.20325 29.18553
#
# Velocity S-wave (km/s) = 4.49790 2.78818 3.74199
# Velocity P-wave (km/s) = 7.74279 6.85293 7.31141
#
# Compressibility (1/GPa) = 0.01454924
#
# Stress axis : x y z
#
# Youngs Moduli (GPa) = 48.92769 82.88532 71.53518
#
# Poissons Ratio (x) = 0.60536 0.32324
# Poissons Ratio (y) = 0.35735 0.29646
# Poissons Ratio (z) = 0.22109 0.34350
#
# Static dielectric constant tensor:
#      x y z
#    x 3.887450 0.000000 0.000000 
#    y 0.000000 3.924690 0.000000 
#    z 0.000000 0.000000 3.778080 
# 
# 
# High freq. dielectric constant tensor:
#      x y z
#    x 1.812490 0.000000 0.000000 
#    y 0.000000 1.827230 0.000000 
#    z 0.000000 0.000000 1.808630 
# 
# From -- ./inp_files/30574.got.cif
#   From: 2010.03.12/outbox.cif.g09.slc.cpg/sg21_16_cif.got.tgz:30574.got - 2010.04.14 01:59:26.
