data_PCOD8160630
_publ_section_title
;
Structure prediction by ZEFSAII (Michael W. Deem and Ramdas Pophale) SiO2 
 PCOD8160630
Probable space group: C 2 2 21
;
_chemical_formula_sum "Si O2"
_cell_formula_units_Z 24
_cell_length_a 7.788452
_cell_length_b 11.974471
_cell_length_c 11.147135
_cell_angle_alpha 90.000000
_cell_angle_beta 90.000000
_cell_angle_gamma 90.000000
_cell_volume 1039.610710
_symmetry_space_group_name_H-M "C 2 2 21"
_symmetry_group_IT_number 20
_symmetry_cell_setting 'orthorhombic'
loop_
_space_group_symop_operation_xyz
x,y,z
-x,-y,1/2+z
x,-y,-z
-x,y,1/2-z
1/2+x,1/2+y,z
1/2-x,1/2-y,1/2+z
1/2+x,1/2-y,-z
1/2-x,1/2+y,1/2-z
loop_
_atom_site_type_symbol
_atom_site_label
_atom_site_fract_x
_atom_site_fract_y
_atom_site_fract_z
Si Si1 0.322182 0.605024 0.429156
Si Si2 0.701118 0.344299 0.480868
Si Si3 0.183618 0.525596 0.191550
O O1 0.241101 0.500000 0.500000
O O2 0.516072 0.623210 0.469251
O O3 0.209336 0.712884 0.460867
O O4 0.313751 0.578302 0.288299
O O5 0.836095 0.386287 0.581978
O O6 0.739002 0.408206 0.356027
O O7 0.000000 0.503060 0.250000
#
# Coordination Sequence:
#
# PCOD8160630 Si02
#       3
#     8   8   8
#     4  12  27  48  79 107 154 193 252 307 375 442
#     4  11  27  50  75 113 150 198 255 304 379 445
#     4  11  26  48  77 111 152 196 250 308 376 444
#
# _framework density 23.085564999999999
#
# number of rings (size 3 to 8) (size 9 to 14) (size 15 to 20)
#    0.000    0.667    3.333    3.000   14.000    0.000 
#    0.000    0.000    0.000    0.000    0.000    0.000 
#    0.000    0.000    0.000    0.000    0.000    0.000 
#
# Total GULP energy -148845.637479 kJ/mol
# GULP energy per Si atom -12403.803123 kJ/mol
# Density = 2.303302 g / cm^3
# Si number density = 23.085565 Si / 1000 Ang^3
#
#
#
# Elastic Constant Matrix: (Units=GPa)
#
#
# Indices 1 2 3 4 5 6 
#
# 1 116.8223 48.9675 57.5920 0.0000 0.0000 0.0000
# 2 48.9675 228.5922 90.5397 0.0000 0.0000 0.0000
# 3 57.5920 90.5397 150.7816 0.0000 0.0000 0.0000
# 4 0.0000 0.0000 0.0000 35.5205 0.0000 0.0000
# 5 0.0000 0.0000 0.0000 0.0000 46.2285 0.0000
# 6 0.0000 0.0000 0.0000 0.0000 0.0000 29.9343
#
#
#
# Elastic Compliance Matrix: (Units=1/GPa)
#
#
# Indices 1 2 3 4 5 6 
#
# 1 0.010680 -0.000882 -0.003550 0.000000 0.000000 0.000000
# 2 -0.000882 0.005812 -0.003153 0.000000 0.000000 0.000000
# 3 -0.003550 -0.003153 0.009881 0.000000 0.000000 0.000000
# 4 0.000000 0.000000 0.000000 0.028153 0.000000 0.000000
# 5 0.000000 0.000000 0.000000 0.000000 0.021632 0.000000
# 6 0.000000 0.000000 0.000000 0.000000 0.000000 0.033406
#
#
# Mechanical properties :
#
#
# Convention : Reuss Voigt Hill
#
# Bulk Modulus (GPa) = 89.25536 98.93270 94.09403
# Shear Modulus (GPa) = 38.92000 42.27646 40.59823
#
# Velocity S-wave (km/s) = 4.11043 4.28400 4.19811
# Velocity P-wave (km/s) = 7.82779 8.21085 8.02161
#
# Compressibility (1/GPa) = 0.01120381
#
# Stress axis : x y z
#
# Youngs Moduli (GPa) = 93.63696 172.04354 101.19974
#
# Poissons Ratio (x) = 0.15170 0.35922
# Poissons Ratio (y) = 0.08257 0.31912
# Poissons Ratio (z) = 0.33238 0.54253
#
# Static dielectric constant tensor:
#      x y z
#    x 3.929460 0.000000 0.000000 
#    y 0.000000 4.924730 0.000000 
#    z 0.000000 0.000000 4.457370 
# 
# 
# High freq. dielectric constant tensor:
#      x y z
#    x 1.914720 0.000000 0.000000 
#    y 0.000000 1.918460 0.000000 
#    z 0.000000 0.000000 1.924130 
# 
# From -- ./inp_files/12277.got.cif
#   From: 2010.03.12/outbox.cif.g09.slc.cpg/sg20_7_cif.got.tgz:12277.got - 2010.04.14 01:38:04.
