data_PCOD8160219
_publ_section_title
;
Structure prediction by ZEFSAII (Michael W. Deem and Ramdas Pophale) SiO2 
 PCOD8160219
Probable space group: C 2 2 21
;
_chemical_formula_sum "Si O2"
_cell_formula_units_Z 48
_cell_length_a 10.557888
_cell_length_b 9.283382
_cell_length_c 23.358627
_cell_angle_alpha 90.000000
_cell_angle_beta 90.000000
_cell_angle_gamma 90.000000
_cell_volume 2289.446946
_symmetry_space_group_name_H-M "C 2 2 21"
_symmetry_group_IT_number 20
_symmetry_cell_setting 'orthorhombic'
loop_
_space_group_symop_operation_xyz
x,y,z
-x,-y,1/2+z
x,-y,-z
-x,y,1/2-z
1/2+x,1/2+y,z
1/2-x,1/2-y,1/2+z
1/2+x,1/2-y,-z
1/2-x,1/2+y,1/2-z
loop_
_atom_site_type_symbol
_atom_site_label
_atom_site_fract_x
_atom_site_fract_y
_atom_site_fract_z
Si Si1 0.853453 0.536050 0.260003
Si Si2 0.882788 0.167091 0.566159
Si Si3 0.557841 0.846455 0.144680
Si Si4 0.954537 0.569936 0.060000
Si Si5 0.675175 0.365332 0.941344
Si Si6 0.785359 0.296337 0.177973
O O1 0.785244 0.458796 0.205363
O O2 0.771678 0.673496 0.279971
O O3 0.000000 0.585471 0.250000
O O4 0.855465 0.401474 0.303706
O O5 0.815899 0.202210 0.504912
O O6 0.792701 0.207292 0.619093
O O7 0.009240 0.262402 0.566075
O O8 0.924115 0.998574 0.565431
O O9 0.647665 0.751549 0.105710
O O10 0.432868 0.758674 0.164953
O O11 0.522127 0.988938 0.110813
O O12 0.806610 0.554621 0.070987
O O13 0.996203 0.500000 0.000000
#
# Coordination Sequence:
#
# PCOD8160219 Si02
#       6
#     8   8   8   8   8   8
#     4  10  25  44  66  97 131 175 224 274 331 386
#     4  11  23  40  65  96 131 170 215 267 331 396
#     4  11  23  42  69  93 129 173 220 268 331 392
#     4  12  21  41  64  91 135 171 208 272 327 396
#     4  11  24  41  65 101 133 173 212 267 340 397
#     4  11  23  46  67  95 134 171 223 280 322 394
#
# _framework density 20.965761000000001
#
# number of rings (size 3 to 8) (size 9 to 14) (size 15 to 20)
#    0.000    1.000    6.667    0.000    2.333    1.333 
#    3.000    0.000    0.000    0.000    0.000    0.000 
#    0.000    0.000    0.000    0.000    0.000    0.000 
#
# Total GULP energy -297450.092608 kJ/mol
# GULP energy per Si atom -12393.753859 kJ/mol
# Density = 2.091804 g / cm^3
# Si number density = 20.965761 Si / 1000 Ang^3
#
#
#
# Elastic Constant Matrix: (Units=GPa)
#
#
# Indices 1 2 3 4 5 6 
#
# 1 48.7520 33.1568 17.8810 0.0000 0.0000 0.0000
# 2 33.1568 91.5501 24.0598 0.0000 0.0000 0.0000
# 3 17.8810 24.0598 79.8820 0.0000 0.0000 0.0000
# 4 0.0000 0.0000 0.0000 42.6080 0.0000 0.0000
# 5 0.0000 0.0000 0.0000 0.0000 32.2365 0.0000
# 6 0.0000 0.0000 0.0000 0.0000 0.0000 34.7720
#
#
#
# Elastic Compliance Matrix: (Units=1/GPa)
#
#
# Indices 1 2 3 4 5 6 
#
# 1 0.028089 -0.009253 -0.003501 0.000000 0.000000 0.000000
# 2 -0.009253 0.014910 -0.002420 0.000000 0.000000 0.000000
# 3 -0.003501 -0.002420 0.014031 0.000000 0.000000 0.000000
# 4 0.000000 0.000000 0.000000 0.023470 0.000000 0.000000
# 5 0.000000 0.000000 0.000000 0.000000 0.031021 0.000000
# 6 0.000000 0.000000 0.000000 0.000000 0.000000 0.028759
#
#
# Mechanical properties :
#
#
# Convention : Reuss Voigt Hill
#
# Bulk Modulus (GPa) = 37.47637 41.15327 39.31482
# Shear Modulus (GPa) = 27.85203 31.59573 29.72388
#
# Velocity S-wave (km/s) = 3.64875 3.88624 3.76937
# Velocity P-wave (km/s) = 5.97202 6.30940 6.14303
#
# Compressibility (1/GPa) = 0.02668348
#
# Stress axis : x y z
#
# Youngs Moduli (GPa) = 35.60105 67.06880 71.27186
#
# Poissons Ratio (x) = 0.62059 0.24949
# Poissons Ratio (y) = 0.32942 0.17245
# Poissons Ratio (z) = 0.12462 0.16228
#
# Static dielectric constant tensor:
#      x y z
#    x 3.612660 0.000000 0.000000 
#    y 0.000000 3.761030 0.000000 
#    z 0.000000 0.000000 4.301610 
# 
# 
# High freq. dielectric constant tensor:
#      x y z
#    x 1.796580 0.000000 0.000000 
#    y 0.000000 1.818740 0.000000 
#    z 0.000000 0.000000 1.847360 
# 
# From -- ./inp_files/28716.got.cif
#   From: 2010.03.12/outbox.cif.g09.slc.cpg/sg20_15_cif.got.tgz:28716.got - 2010.04.14 01:38:04.
