data_PCOD8160222
_publ_section_title
;
Structure prediction by ZEFSAII (Michael W. Deem and Ramdas Pophale) SiO2 
 PCOD8160222
Probable space group: C 2 2 21
;
_chemical_formula_sum "Si O2"
_cell_formula_units_Z 40
_cell_length_a 8.576202
_cell_length_b 17.032802
_cell_length_c 12.893252
_cell_angle_alpha 90.000000
_cell_angle_beta 90.000000
_cell_angle_gamma 90.000000
_cell_volume 1883.404357
_symmetry_space_group_name_H-M "C 2 2 21"
_symmetry_group_IT_number 20
_symmetry_cell_setting 'orthorhombic'
loop_
_space_group_symop_operation_xyz
x,y,z
-x,-y,1/2+z
x,-y,-z
-x,y,1/2-z
1/2+x,1/2+y,z
1/2-x,1/2-y,1/2+z
1/2+x,1/2-y,-z
1/2-x,1/2+y,1/2-z
loop_
_atom_site_type_symbol
_atom_site_label
_atom_site_fract_x
_atom_site_fract_y
_atom_site_fract_z
Si Si1 0.500000 0.092907 0.250000
Si Si2 0.676329 0.167361 0.770451
Si Si3 0.841802 0.842734 0.437794
Si Si4 0.791450 0.487216 0.386626
Si Si5 0.120205 0.723264 0.394804
Si Si6 0.506558 0.500000 0.000000
O O1 0.549616 0.143976 0.348501
O O2 0.360845 0.038749 0.293255
O O3 0.500000 0.192320 0.750000
O O4 0.762830 0.132641 0.670054
O O5 0.682433 0.103662 0.861334
O O6 0.764205 0.245232 0.806658
O O7 0.713494 0.794647 0.501107
O O8 0.990540 0.787670 0.420911
O O9 0.887590 0.922485 0.496941
O O10 0.872936 0.500000 0.500000
O O11 0.605640 0.504759 0.397942
#
# Coordination Sequence:
#
# PCOD8160222 Si02
#       6
#     4   8   8   8   8   4
#     4  12  26  44  72 106 140 186 236 296 354 428
#     4  12  25  47  74 101 142 192 232 295 358 421
#     4  12  27  46  73 106 145 187 239 289 361 423
#     4  10  25  44  70 101 143 181 238 292 353 422
#     4  12  27  46  71 108 146 184 236 296 354 426
#     4  10  26  46  74 100 144 188 234 304 338 432
#
# _framework density 21.238139
#
# number of rings (size 3 to 8) (size 9 to 14) (size 15 to 20)
#    0.600    0.000    5.000    1.200   11.200    1.600 
#    0.000    0.000    0.000    0.000    0.000    0.000 
#    0.000    0.000    0.000    0.000    0.000    0.000 
#
# Total GULP energy -248051.132670 kJ/mol
# GULP energy per Si atom -12402.556633 kJ/mol
# Density = 2.118980 g / cm^3
# Si number density = 21.238139 Si / 1000 Ang^3
#
#
#
# Elastic Constant Matrix: (Units=GPa)
#
#
# Indices 1 2 3 4 5 6 
#
# 1 111.8366 33.8704 30.1058 0.0000 0.0000 0.0000
# 2 33.8704 82.4959 15.7341 0.0000 0.0000 0.0000
# 3 30.1058 15.7341 84.9865 0.0000 0.0000 0.0000
# 4 0.0000 0.0000 0.0000 37.0084 0.0000 0.0000
# 5 0.0000 0.0000 0.0000 0.0000 50.3962 0.0000
# 6 0.0000 0.0000 0.0000 0.0000 0.0000 -47.9307
#
#
#
# Elastic Compliance Matrix: (Units=1/GPa)
#
#
# Indices 1 2 3 4 5 6 
#
# 1 0.010976 -0.003903 -0.003166 0.000000 0.000000 0.000000
# 2 -0.003903 0.013953 -0.001201 0.000000 0.000000 0.000000
# 3 -0.003166 -0.001201 0.013110 0.000000 0.000000 0.000000
# 4 0.000000 0.000000 0.000000 0.027021 0.000000 0.000000
# 5 0.000000 0.000000 0.000000 0.000000 0.019843 0.000000
# 6 0.000000 0.000000 0.000000 0.000000 0.000000 -0.020863
#
#
# Mechanical properties :
#
#
# Convention : Reuss Voigt Hill
#
# Bulk Modulus (GPa) = 46.50882 48.74884 47.62883
# Shear Modulus (GPa) = 56.98395 21.20204 39.09300
#
# Velocity S-wave (km/s) = 5.18548 3.16302 4.29499
# Velocity P-wave (km/s) = 7.60253 6.02850 6.86081
#
# Compressibility (1/GPa) = 0.02150130
#
# Stress axis : x y z
#
# Youngs Moduli (GPa) = 91.11060 71.66864 76.27623
#
# Poissons Ratio (x) = 0.27969 0.24146
# Poissons Ratio (y) = 0.35556 0.09159
# Poissons Ratio (z) = 0.28841 0.08606
#
# Static dielectric constant tensor:
#      x y z
#    x 3.940070 0.000000 0.000000 
#    y 0.000000 3.756790 0.000000 
#    z 0.000000 0.000000 3.820910 
# 
# 
# High freq. dielectric constant tensor:
#      x y z
#    x 1.839230 0.000000 0.000000 
#    y 0.000000 1.837590 0.000000 
#    z 0.000000 0.000000 1.835540 
# 
# From -- ./inp_files/12760.got.cif
#   From: 2010.03.12/outbox.cif.g09.slc.cpg/sg20_7_cif.got.tgz:12760.got - 2010.04.14 01:38:04.
