data_PCOD8160126
_publ_section_title
;
Structure prediction by ZEFSAII (Michael W. Deem and Ramdas Pophale) SiO2 
 PCOD8160126
Probable space group: C 2 2 21
;
_chemical_formula_sum "Si O2"
_cell_formula_units_Z 28
_cell_length_a 7.603146
_cell_length_b 29.238003
_cell_length_c 5.860281
_cell_angle_alpha 90.000000
_cell_angle_beta 90.000000
_cell_angle_gamma 90.000000
_cell_volume 1302.745187
_symmetry_space_group_name_H-M "C 2 2 21"
_symmetry_group_IT_number 20
_symmetry_cell_setting 'orthorhombic'
loop_
_space_group_symop_operation_xyz
x,y,z
-x,-y,1/2+z
x,-y,-z
-x,y,1/2-z
1/2+x,1/2+y,z
1/2-x,1/2-y,1/2+z
1/2+x,1/2-y,-z
1/2-x,1/2+y,1/2-z
loop_
_atom_site_type_symbol
_atom_site_label
_atom_site_fract_x
_atom_site_fract_y
_atom_site_fract_z
Si Si1 0.150429 0.448218 0.082100
Si Si2 0.000000 0.772640 0.250000
Si Si3 0.500000 0.474048 0.250000
Si Si4 0.356012 0.805462 0.059301
Si Si5 0.500000 0.119658 0.250000
O O1 0.329946 0.442417 0.223991
O O2 0.000000 0.432679 0.250000
O O3 0.123795 0.500000 0.000000
O O4 0.141601 0.412721 0.875662
O O5 0.845594 0.804048 0.354790
O O6 0.096810 0.742284 0.439698
O O7 0.484236 0.500000 0.500000
O O8 0.500000 0.814576 0.250000
O O9 0.369482 0.848683 0.894182
#
# Coordination Sequence:
#
# PCOD8160126 Si02
#       5
#     8   4   4   8   4
#     4  11  22  44  75  99 140 199 247 303 367 437
#     4  11  22  42  81  98 134 190 224 288 364 450
#     4  10  24  42  75 109 136 188 266 313 364 445
#     4  11  23  44  71 108 141 179 239 289 364 448
#     4  11  26  44  70 107 148 184 246 307 362 431
#
# _framework density 21.493075999999999
#
# number of rings (size 3 to 8) (size 9 to 14) (size 15 to 20)
#    0.000    1.143    4.286    1.714    4.000    0.000 
#    0.000    8.571    0.000    0.000    0.000    0.000 
#    0.000    0.000    0.000    0.000    0.000    0.000 
#
# Total GULP energy -173499.327857 kJ/mol
# GULP energy per Si atom -12392.809133 kJ/mol
# Density = 2.144416 g / cm^3
# Si number density = 21.493076 Si / 1000 Ang^3
#
#
#
# Elastic Constant Matrix: (Units=GPa)
#
#
# Indices 1 2 3 4 5 6 
#
# 1 213.7911 63.3599 82.3778 0.0000 0.0000 0.0000
# 2 63.3599 128.2945 63.2636 0.0000 0.0000 0.0000
# 3 82.3778 63.2636 139.1125 0.0000 0.0000 0.0000
# 4 0.0000 0.0000 0.0000 29.8049 0.0000 0.0000
# 5 0.0000 0.0000 0.0000 0.0000 40.0480 0.0000
# 6 0.0000 0.0000 0.0000 0.0000 0.0000 65.7772
#
#
#
# Elastic Compliance Matrix: (Units=1/GPa)
#
#
# Indices 1 2 3 4 5 6 
#
# 1 0.006318 -0.001644 -0.002994 0.000000 0.000000 0.000000
# 2 -0.001644 0.010476 -0.003790 0.000000 0.000000 0.000000
# 3 -0.002994 -0.003790 0.010685 0.000000 0.000000 0.000000
# 4 0.000000 0.000000 0.000000 0.033552 0.000000 0.000000
# 5 0.000000 0.000000 0.000000 0.000000 0.024970 0.000000
# 6 0.000000 0.000000 0.000000 0.000000 0.000000 0.015203
#
#
# Mechanical properties :
#
#
# Convention : Reuss Voigt Hill
#
# Bulk Modulus (GPa) = 94.14111 99.91118 97.02615
# Shear Modulus (GPa) = 41.11822 45.27246 43.19534
#
# Velocity S-wave (km/s) = 4.37864 4.59450 4.48787
# Velocity P-wave (km/s) = 8.33421 8.64478 8.49091
#
# Compressibility (1/GPa) = 0.01062235
#
# Stress axis : x y z
#
# Youngs Moduli (GPa) = 158.27088 95.45995 93.58925
#
# Poissons Ratio (x) = 0.15694 0.28019
# Poissons Ratio (y) = 0.26021 0.35474
# Poissons Ratio (z) = 0.47383 0.36183
#
# Static dielectric constant tensor:
#      x y z
#    x 3.984690 0.000000 0.000000 
#    y 0.000000 3.708120 0.000000 
#    z 0.000000 0.000000 4.183250 
# 
# 
# High freq. dielectric constant tensor:
#      x y z
#    x 1.850510 0.000000 0.000000 
#    y 0.000000 1.831420 0.000000 
#    z 0.000000 0.000000 1.862500 
# 
# From -- ./inp_files/482.got.cif
#   From: 2010.03.12/outbox.cif.g09.slc.cpg/sg20_1_cif.got.tgz:482.got - 2010.04.14 01:38:04.
