data_PCOD8160302
_publ_section_title
;
Structure prediction by ZEFSAII (Michael W. Deem and Ramdas Pophale) SiO2 
 PCOD8160302
Probable space group: C 2 2 21
;
_chemical_formula_sum "Si O2"
_cell_formula_units_Z 48
_cell_length_a 11.877855
_cell_length_b 10.723545
_cell_length_c 18.667219
_cell_angle_alpha 90.000000
_cell_angle_beta 90.000000
_cell_angle_gamma 90.000000
_cell_volume 2377.694321
_symmetry_space_group_name_H-M "C 2 2 21"
_symmetry_group_IT_number 20
_symmetry_cell_setting 'orthorhombic'
loop_
_space_group_symop_operation_xyz
x,y,z
-x,-y,1/2+z
x,-y,-z
-x,y,1/2-z
1/2+x,1/2+y,z
1/2-x,1/2-y,1/2+z
1/2+x,1/2-y,-z
1/2-x,1/2+y,1/2-z
loop_
_atom_site_type_symbol
_atom_site_label
_atom_site_fract_x
_atom_site_fract_y
_atom_site_fract_z
Si Si1 0.882068 0.581011 0.286448
Si Si2 0.842538 0.564926 0.574110
Si Si3 0.351562 0.252320 0.089286
Si Si4 0.767949 0.494931 0.153670
Si Si5 0.440812 0.654551 0.681410
Si Si6 0.921689 0.626521 0.954590
O O1 0.877323 0.538450 0.368203
O O2 0.788835 0.509897 0.238733
O O3 0.865564 0.730862 0.287219
O O4 0.000000 0.545912 0.250000
O O5 0.810536 0.500000 0.500000
O O6 0.734372 0.636652 0.602796
O O7 0.949260 0.658180 0.566147
O O8 0.292830 0.127669 0.118295
O O9 0.469212 0.285728 0.126809
O O10 0.373118 0.236997 0.004095
O O11 0.638975 0.448153 0.143517
O O12 0.846325 0.389869 0.116469
O O13 0.500000 0.589901 0.750000
O O14 0.924307 0.500000 0.000000
#
# Coordination Sequence:
#
# PCOD8160302 Si02
#       6
#     8   8   8   8   8   8
#     4  11  20  40  67  91 122 171 219 266 327 391
#     4  11  23  41  64  92 130 171 221 270 329 403
#     4  11  23  42  62  96 134 172 216 276 331 389
#     4  11  22  41  68  94 123 175 219 265 335 391
#     4  11  22  41  67  92 134 172 216 278 332 389
#     4   9  20  38  62  87 120 167 219 260 326 391
#
# _framework density 20.187624
#
# number of rings (size 3 to 8) (size 9 to 14) (size 15 to 20)
#    0.000    1.333    5.000    3.000    4.667    0.000 
#    3.000    2.500    0.000    0.000    0.000    0.000 
#    0.000    0.000    0.000    0.000    0.000    0.000 
#
# Total GULP energy -297540.087472 kJ/mol
# GULP energy per Si atom -12397.503645 kJ/mol
# Density = 2.014168 g / cm^3
# Si number density = 20.187624 Si / 1000 Ang^3
#
#
#
# Elastic Constant Matrix: (Units=GPa)
#
#
# Indices 1 2 3 4 5 6 
#
# 1 117.7169 58.6415 34.4073 0.0000 0.0000 0.0000
# 2 58.6415 60.3241 26.9884 0.0000 0.0000 0.0000
# 3 34.4073 26.9884 109.2831 0.0000 0.0000 0.0000
# 4 0.0000 0.0000 0.0000 20.2744 0.0000 0.0000
# 5 0.0000 0.0000 0.0000 0.0000 24.7183 0.0000
# 6 0.0000 0.0000 0.0000 0.0000 0.0000 38.6518
#
#
#
# Elastic Compliance Matrix: (Units=1/GPa)
#
#
# Indices 1 2 3 4 5 6 
#
# 1 0.016660 -0.015569 -0.001400 0.000000 0.000000 0.000000
# 2 -0.015569 0.033185 -0.003294 0.000000 0.000000 0.000000
# 3 -0.001400 -0.003294 0.010405 0.000000 0.000000 0.000000
# 4 0.000000 0.000000 0.000000 0.049323 0.000000 0.000000
# 5 0.000000 0.000000 0.000000 0.000000 0.040456 0.000000
# 6 0.000000 0.000000 0.000000 0.000000 0.000000 0.025872
#
#
# Mechanical properties :
#
#
# Convention : Reuss Voigt Hill
#
# Bulk Modulus (GPa) = 50.69885 58.59985 54.64935
# Shear Modulus (GPa) = 22.42137 27.88135 25.15136
#
# Velocity S-wave (km/s) = 3.33626 3.72036 3.53353
# Velocity P-wave (km/s) = 6.32528 6.89532 6.61644
#
# Compressibility (1/GPa) = 0.01972431
#
# Stress axis : x y z
#
# Youngs Moduli (GPa) = 60.02416 30.13402 96.10885
#
# Poissons Ratio (x) = 0.46915 0.13460
# Poissons Ratio (y) = 0.93450 0.31655
# Poissons Ratio (z) = 0.08406 0.09925
#
# Static dielectric constant tensor:
#      x y z
#    x 3.653450 0.000000 0.000000 
#    y 0.000000 3.328490 0.000000 
#    z 0.000000 0.000000 3.874050 
# 
# 
# High freq. dielectric constant tensor:
#      x y z
#    x 1.785420 0.000000 0.000000 
#    y 0.000000 1.755260 0.000000 
#    z 0.000000 0.000000 1.802160 
# 
# From -- ./inp_files/24228.got.cif
#   From: 2010.03.12/outbox.cif.g09.slc.cpg/sg20_13_cif.got.tgz:24228.got - 2010.04.14 01:38:04.
