data_PCOD8160740
_publ_section_title
;
Structure prediction by ZEFSAII (Michael W. Deem and Ramdas Pophale) SiO2 
 PCOD8160740
Probable space group: C 2 2 21
;
_chemical_formula_sum "Si O2"
_cell_formula_units_Z 24
_cell_length_a 14.071013
_cell_length_b 7.906792
_cell_length_c 8.778212
_cell_angle_alpha 90.000000
_cell_angle_beta 90.000000
_cell_angle_gamma 90.000000
_cell_volume 976.633784
_symmetry_space_group_name_H-M "C 2 2 21"
_symmetry_group_IT_number 20
_symmetry_cell_setting 'orthorhombic'
loop_
_space_group_symop_operation_xyz
x,y,z
-x,-y,1/2+z
x,-y,-z
-x,y,1/2-z
1/2+x,1/2+y,z
1/2-x,1/2-y,1/2+z
1/2+x,1/2-y,-z
1/2-x,1/2+y,1/2-z
loop_
_atom_site_type_symbol
_atom_site_label
_atom_site_fract_x
_atom_site_fract_y
_atom_site_fract_z
Si Si1 0.002589 0.686081 0.933725
Si Si2 0.678570 0.614876 0.124378
Si Si3 0.666196 0.372267 0.384961
O O1 0.098064 0.787387 0.971397
O O2 0.000000 0.677960 0.750000
O O3 0.009389 0.500000 0.000000
O O4 0.917245 0.781508 0.020196
O O5 0.628996 0.496288 0.251525
O O6 0.758517 0.742109 0.189377
O O7 0.733100 0.500000 0.000000
O O8 0.720504 0.500000 0.500000
#
# Coordination Sequence:
#
# PCOD8160740 Si02
#       3
#     8   8   8
#     4  12  29  50  81 117 159 209 267 331 397 469
#     4  12  28  47  81 117 157 211 263 328 395 472
#     4  12  26  52  80 116 162 205 268 325 398 472
#
# _framework density 24.574204999999999
#
# number of rings (size 3 to 8) (size 9 to 14) (size 15 to 20)
#    0.000    0.000    3.333    5.000    9.333    0.000 
#    0.000    0.000    0.000    0.000    0.000    0.000 
#    0.000    0.000    0.000    0.000    0.000    0.000 
#
# Total GULP energy -148677.983325 kJ/mol
# GULP energy per Si atom -12389.831944 kJ/mol
# Density = 2.451827 g / cm^3
# Si number density = 24.574205 Si / 1000 Ang^3
#
#
#
# Elastic Constant Matrix: (Units=GPa)
#
#
# Indices 1 2 3 4 5 6 
#
# 1 139.6671 81.9272 49.8255 0.0000 0.0000 0.0000
# 2 81.9272 192.2036 87.1425 0.0000 0.0000 0.0000
# 3 49.8255 87.1425 107.2880 0.0000 0.0000 0.0000
# 4 0.0000 0.0000 0.0000 53.5456 0.0000 0.0000
# 5 0.0000 0.0000 0.0000 0.0000 31.9512 0.0000
# 6 0.0000 0.0000 0.0000 0.0000 0.0000 31.8499
#
#
#
# Elastic Compliance Matrix: (Units=1/GPa)
#
#
# Indices 1 2 3 4 5 6 
#
# 1 0.009768 -0.003335 -0.001828 0.000000 0.000000 0.000000
# 2 -0.003335 0.009374 -0.006065 0.000000 0.000000 0.000000
# 3 -0.001828 -0.006065 0.015096 0.000000 0.000000 0.000000
# 4 0.000000 0.000000 0.000000 0.018676 0.000000 0.000000
# 5 0.000000 0.000000 0.000000 0.000000 0.031298 0.000000
# 6 0.000000 0.000000 0.000000 0.000000 0.000000 0.031397
#
#
# Mechanical properties :
#
#
# Convention : Reuss Voigt Hill
#
# Bulk Modulus (GPa) = 84.87166 97.43879 91.15522
# Shear Modulus (GPa) = 35.21318 38.15359 36.68339
#
# Velocity S-wave (km/s) = 3.78952 3.94456 3.86782
# Velocity P-wave (km/s) = 7.33206 7.77708 7.55785
#
# Compressibility (1/GPa) = 0.01178250
#
# Stress axis : x y z
#
# Youngs Moduli (GPa) = 102.37297 106.67436 66.24356
#
# Poissons Ratio (x) = 0.35577 0.12106
# Poissons Ratio (y) = 0.34143 0.40178
# Poissons Ratio (z) = 0.18709 0.64701
#
# Static dielectric constant tensor:
#      x y z
#    x 4.083310 0.000000 0.000000 
#    y 0.000000 4.881800 0.000000 
#    z 0.000000 0.000000 4.589980 
# 
# 
# High freq. dielectric constant tensor:
#      x y z
#    x 1.956530 0.000000 0.000000 
#    y 0.000000 2.012910 0.000000 
#    z 0.000000 0.000000 1.990700 
# 
# From -- ./inp_files/5466.got.cif
#   From: 2010.03.12/outbox.cif.g09.slc.cpg/sg20_3_cif.got.tgz:5466.got - 2010.04.14 01:38:04.
