data_PCOD8160821
_publ_section_title
;
Structure prediction by ZEFSAII (Michael W. Deem and Ramdas Pophale) SiO2 
 PCOD8160821
Probable space group: C 2 2 2
;
_chemical_formula_sum "Si O2"
_cell_formula_units_Z 36
_cell_length_a 9.641203
_cell_length_b 16.577812
_cell_length_c 11.413975
_cell_angle_alpha 90.000000
_cell_angle_beta 90.000000
_cell_angle_gamma 90.000000
_cell_volume 1824.296204
_symmetry_space_group_name_H-M "C 2 2 2"
_symmetry_group_IT_number 21
_symmetry_cell_setting 'orthorhombic'
loop_
_space_group_symop_operation_xyz
x,y,z
-x,-y,z
x,-y,-z
-x,y,-z
1/2+x,1/2+y,z
1/2-x,1/2-y,z
1/2+x,1/2-y,-z
1/2-x,1/2+y,-z
loop_
_atom_site_type_symbol
_atom_site_label
_atom_site_fract_x
_atom_site_fract_y
_atom_site_fract_z
Si Si1 0.382052 0.566093 0.209461
Si Si2 0.780040 0.500000 0.000000
Si Si3 0.668060 0.129706 0.823187
Si Si4 0.337647 0.006756 0.363884
Si Si5 0.955123 0.210656 0.867713
O O1 0.500000 0.500000 0.240524
O O2 0.322712 0.552038 0.080312
O O3 0.255914 0.561962 0.302620
O O4 0.441874 0.656877 0.211477
O O5 0.873246 0.558582 0.083616
O O6 0.806808 0.169090 0.870742
O O7 0.550052 0.198556 0.813898
O O8 0.700142 0.093059 0.694364
O O9 0.500000 0.000000 0.337330
O O10 0.303184 0.000000 0.500000
O O11 0.000000 0.219570 0.000000
#
# Coordination Sequence:
#
# PCOD8160821 Si02
#       5
#     8   4   8   8   8
#     4  11  18  35  65  92 122 165 218 257 314 391
#     4  10  17  34  61  94 127 170 205 258 319 396
#     4  10  22  35  60  93 129 168 209 264 323 378
#     4  10  23  43  64  84 121 166 221 274 319 372
#     4  11  20  36  59  95 138 164 200 270 324 389
#
# _framework density 19.733639
#
# number of rings (size 3 to 8) (size 9 to 14) (size 15 to 20)
#    0.000    1.556    6.667    0.333    0.000    4.000 
#    0.000    5.000   19.556    0.000    0.000    0.000 
#    0.000    0.000    0.000    0.000    0.000    0.000 
#
# Total GULP energy -223068.118528 kJ/mol
# GULP energy per Si atom -12392.673252 kJ/mol
# Density = 1.968872 g / cm^3
# Si number density = 19.733639 Si / 1000 Ang^3
#
#
#
# Elastic Constant Matrix: (Units=GPa)
#
#
# Indices 1 2 3 4 5 6 
#
# 1 75.0205 48.0895 48.7724 0.0000 0.0000 0.0000
# 2 48.0895 162.5559 65.7176 0.0000 0.0000 0.0000
# 3 48.7724 65.7176 138.2652 0.0000 0.0000 0.0000
# 4 0.0000 0.0000 0.0000 5.8256 0.0000 0.0000
# 5 0.0000 0.0000 0.0000 0.0000 27.4103 0.0000
# 6 0.0000 0.0000 0.0000 0.0000 0.0000 42.3090
#
#
#
# Elastic Compliance Matrix: (Units=1/GPa)
#
#
# Indices 1 2 3 4 5 6 
#
# 1 0.018835 -0.003573 -0.004946 0.000000 0.000000 0.000000
# 2 -0.003573 0.008293 -0.002681 0.000000 0.000000 0.000000
# 3 -0.004946 -0.002681 0.010252 0.000000 0.000000 0.000000
# 4 0.000000 0.000000 0.000000 0.171656 0.000000 0.000000
# 5 0.000000 0.000000 0.000000 0.000000 0.036483 0.000000
# 6 0.000000 0.000000 0.000000 0.000000 0.000000 0.023636
#
#
# Mechanical properties :
#
#
# Convention : Reuss Voigt Hill
#
# Bulk Modulus (GPa) = 66.75679 77.88896 72.32287
# Shear Modulus (GPa) = 16.86076 29.32645 23.09360
#
# Velocity S-wave (km/s) = 2.92621 3.85920 3.42463
# Velocity P-wave (km/s) = 6.73196 7.70803 7.23647
#
# Compressibility (1/GPa) = 0.01497975
#
# Stress axis : x y z
#
# Youngs Moduli (GPa) = 53.09193 120.58963 97.54592
#
# Poissons Ratio (x) = 0.43081 0.48246
# Poissons Ratio (y) = 0.18967 0.26155
# Poissons Ratio (z) = 0.26259 0.32334
#
# Static dielectric constant tensor:
#      x y z
#    x 3.688240 0.000000 0.000000 
#    y 0.000000 4.703210 0.000000 
#    z 0.000000 0.000000 3.377270 
# 
# 
# High freq. dielectric constant tensor:
#      x y z
#    x 1.771660 0.000000 0.000000 
#    y 0.000000 1.767420 0.000000 
#    z 0.000000 0.000000 1.742760 
# 
# From -- ./inp_files/23930.got.cif
#   From: 2010.03.12/outbox.cif.g09.slc.cpg/sg21_12_cif.got.tgz:23930.got - 2010.04.14 01:59:26.
