data_PCOD8160070
_publ_section_title
;
Structure prediction by ZEFSAII (Michael W. Deem and Ramdas Pophale) SiO2 
 PCOD8160070
Probable space group: C 2 2 21
;
_chemical_formula_sum "Si O2"
_cell_formula_units_Z 40
_cell_length_a 25.729930
_cell_length_b 8.921868
_cell_length_c 7.267021
_cell_angle_alpha 90.000000
_cell_angle_beta 90.000000
_cell_angle_gamma 90.000000
_cell_volume 1668.210358
_symmetry_space_group_name_H-M "C 2 2 21"
_symmetry_group_IT_number 20
_symmetry_cell_setting 'orthorhombic'
loop_
_space_group_symop_operation_xyz
x,y,z
-x,-y,1/2+z
x,-y,-z
-x,y,1/2-z
1/2+x,1/2+y,z
1/2-x,1/2-y,1/2+z
1/2+x,1/2-y,-z
1/2-x,1/2+y,1/2-z
loop_
_atom_site_type_symbol
_atom_site_label
_atom_site_fract_x
_atom_site_fract_y
_atom_site_fract_z
Si Si1 0.899556 0.168470 0.516689
Si Si2 0.869264 0.327545 0.153680
Si Si3 0.941811 0.562039 0.303838
Si Si4 0.276681 0.984633 0.302969
Si Si5 0.818157 0.212904 0.807553
O O1 0.897370 0.225882 0.306117
O O2 0.936874 0.259578 0.659665
O O3 0.842806 0.179891 0.608190
O O4 0.920672 0.000000 0.500000
O O5 0.901649 0.487774 0.154837
O O6 0.808836 0.361134 0.191027
O O7 0.864705 0.761908 0.040830
O O8 0.924933 0.500000 0.500000
O O9 0.000000 0.517310 0.250000
O O10 0.279814 0.143326 0.198472
O O11 0.305105 0.000000 0.500000
O O12 0.217563 0.932536 0.341325
#
# Coordination Sequence:
#
# PCOD8160070 Si02
#       5
#     8   8   8   8   8
#     4  11  26  46  67 103 149 182 232 304 355 430
#     4  11  24  47  68 106 140 187 244 302 350 432
#     4  10  23  46  80 108 138 181 243 303 364 433
#     4  12  24  43  61 100 141 187 245 296 343 426
#     4  12  27  42  71  95 147 198 242 289 364 423
#
# _framework density 23.977792000000001
#
# number of rings (size 3 to 8) (size 9 to 14) (size 15 to 20)
#    0.000    0.800    4.000    2.400    8.400    0.000 
#    0.000    4.000    0.000    0.000    0.000    0.000 
#    0.000    0.000    0.000    0.000    0.000    0.000 
#
# Total GULP energy -247798.395889 kJ/mol
# GULP energy per Si atom -12389.919794 kJ/mol
# Density = 2.392322 g / cm^3
# Si number density = 23.977792 Si / 1000 Ang^3
#
#
#
# Elastic Constant Matrix: (Units=GPa)
#
#
# Indices 1 2 3 4 5 6 
#
# 1 94.7481 24.7869 20.2046 0.0000 0.0000 0.0000
# 2 24.7869 112.3426 33.5579 0.0000 0.0000 0.0000
# 3 20.2046 33.5579 114.0786 0.0000 0.0000 0.0000
# 4 0.0000 0.0000 0.0000 27.1326 0.0000 0.0000
# 5 0.0000 0.0000 0.0000 0.0000 29.4125 0.0000
# 6 0.0000 0.0000 0.0000 0.0000 0.0000 26.3778
#
#
#
# Elastic Compliance Matrix: (Units=1/GPa)
#
#
# Indices 1 2 3 4 5 6 
#
# 1 0.011402 -0.002097 -0.001403 0.000000 0.000000 0.000000
# 2 -0.002097 0.010144 -0.002613 0.000000 0.000000 0.000000
# 3 -0.001403 -0.002613 0.009783 0.000000 0.000000 0.000000
# 4 0.000000 0.000000 0.000000 0.036856 0.000000 0.000000
# 5 0.000000 0.000000 0.000000 0.000000 0.033999 0.000000
# 6 0.000000 0.000000 0.000000 0.000000 0.000000 0.037911
#
#
# Mechanical properties :
#
#
# Convention : Reuss Voigt Hill
#
# Bulk Modulus (GPa) = 52.34229 53.14089 52.74159
# Shear Modulus (GPa) = 31.50845 32.75925 32.13385
#
# Velocity S-wave (km/s) = 3.62894 3.70027 3.66478
# Velocity P-wave (km/s) = 6.27979 6.36134 6.32070
#
# Compressibility (1/GPa) = 0.01910501
#
# Stress axis : x y z
#
# Youngs Moduli (GPa) = 87.70450 98.57642 102.21920
#
# Poissons Ratio (x) = 0.20669 0.14338
# Poissons Ratio (y) = 0.18389 0.26708
# Poissons Ratio (z) = 0.12302 0.25756
#
# Static dielectric constant tensor:
#      x y z
#    x 3.756080 0.000000 0.000000 
#    y 0.000000 4.385930 0.000000 
#    z 0.000000 0.000000 4.473920 
# 
# 
# High freq. dielectric constant tensor:
#      x y z
#    x 1.908590 0.000000 0.000000 
#    y 0.000000 1.944590 0.000000 
#    z 0.000000 0.000000 1.973780 
# 
# From -- ./inp_files/11340.got.cif
#   From: 2010.03.12/outbox.cif.g09.slc.cpg/sg20_6_cif.got.tgz:11340.got - 2010.04.14 01:38:04.
