data_PCOD8160695
_publ_section_title
;
Structure prediction by ZEFSAII (Michael W. Deem and Ramdas Pophale) SiO2 
 PCOD8160695
Probable space group: C 2 2 21
;
_chemical_formula_sum "Si O2"
_cell_formula_units_Z 40
_cell_length_a 16.633819
_cell_length_b 6.964894
_cell_length_c 15.676132
_cell_angle_alpha 90.000000
_cell_angle_beta 90.000000
_cell_angle_gamma 90.000000
_cell_volume 1816.123568
_symmetry_space_group_name_H-M "C 2 2 21"
_symmetry_group_IT_number 20
_symmetry_cell_setting 'orthorhombic'
loop_
_space_group_symop_operation_xyz
x,y,z
-x,-y,1/2+z
x,-y,-z
-x,y,1/2-z
1/2+x,1/2+y,z
1/2-x,1/2-y,1/2+z
1/2+x,1/2-y,-z
1/2-x,1/2+y,1/2-z
loop_
_atom_site_type_symbol
_atom_site_label
_atom_site_fract_x
_atom_site_fract_y
_atom_site_fract_z
Si Si1 0.450569 0.105173 0.909777
Si Si2 0.810392 0.500000 0.500000
Si Si3 0.792314 0.801487 0.860200
Si Si4 0.652325 0.412679 0.228050
Si Si5 0.000000 0.354910 0.750000
Si Si6 0.095249 0.846142 0.926277
O O1 0.488477 0.979632 0.834401
O O2 0.358110 0.146950 0.889196
O O3 0.500251 0.305514 0.914087
O O4 0.456989 0.000000 0.000000
O O5 0.755442 0.634685 0.442934
O O6 0.865976 0.360803 0.444551
O O7 0.732663 0.704271 0.792841
O O8 0.835085 0.985462 0.818579
O O9 0.577597 0.272380 0.233565
O O10 0.635517 0.576712 0.159041
O O11 0.110017 0.000000 0.000000
#
# Coordination Sequence:
#
# PCOD8160695 Si02
#       6
#     8   4   8   8   4   8
#     4  12  27  45  74 109 150 198 257 313 372 447
#     4  12  26  46  70 110 148 194 246 312 372 450
#     4  12  27  43  73 108 152 188 248 315 378 437
#     4  12  25  47  74 105 151 196 247 309 380 450
#     4  12  26  50  76 112 152 208 256 310 376 462
#     4  12  24  48  73 103 143 202 249 302 372 453
#
# _framework density 22.024933000000001
#
# number of rings (size 3 to 8) (size 9 to 14) (size 15 to 20)
#    0.000    0.000    3.000    7.200    7.000    0.000 
#    0.000    0.000    0.000    0.000    0.000    0.000 
#    0.000    0.000    0.000    0.000    0.000    0.000 
#
# Total GULP energy -248173.010763 kJ/mol
# GULP energy per Si atom -12408.650538 kJ/mol
# Density = 2.197480 g / cm^3
# Si number density = 22.024933 Si / 1000 Ang^3
#
#
#
# Elastic Constant Matrix: (Units=GPa)
#
#
# Indices 1 2 3 4 5 6 
#
# 1 132.5181 41.6574 29.9036 0.0000 0.0000 0.0000
# 2 41.6574 91.7401 30.3604 0.0000 0.0000 0.0000
# 3 29.9036 30.3604 111.9942 0.0000 0.0000 0.0000
# 4 0.0000 0.0000 0.0000 38.5223 0.0000 0.0000
# 5 0.0000 0.0000 0.0000 0.0000 36.5368 0.0000
# 6 0.0000 0.0000 0.0000 0.0000 0.0000 74.3718
#
#
#
# Elastic Compliance Matrix: (Units=1/GPa)
#
#
# Indices 1 2 3 4 5 6 
#
# 1 0.009005 -0.003618 -0.001424 0.000000 0.000000 0.000000
# 2 -0.003618 0.013428 -0.002674 0.000000 0.000000 0.000000
# 3 -0.001424 -0.002674 0.010034 0.000000 0.000000 0.000000
# 4 0.000000 0.000000 0.000000 0.025959 0.000000 0.000000
# 5 0.000000 0.000000 0.000000 0.000000 0.027370 0.000000
# 6 0.000000 0.000000 0.000000 0.000000 0.000000 0.013446
#
#
# Mechanical properties :
#
#
# Convention : Reuss Voigt Hill
#
# Bulk Modulus (GPa) = 58.70019 60.01059 59.35539
# Shear Modulus (GPa) = 41.54509 45.50823 43.52666
#
# Velocity S-wave (km/s) = 4.34784 4.55049 4.45032
# Velocity P-wave (km/s) = 7.20517 7.41048 7.30854
#
# Compressibility (1/GPa) = 0.01703572
#
# Stress axis : x y z
#
# Youngs Moduli (GPa) = 111.05410 74.47069 99.66004
#
# Poissons Ratio (x) = 0.26941 0.14188
# Poissons Ratio (y) = 0.40176 0.26652
# Poissons Ratio (z) = 0.15810 0.19915
#
# Static dielectric constant tensor:
#      x y z
#    x 4.203350 0.000000 0.000000 
#    y 0.000000 4.167610 0.000000 
#    z 0.000000 0.000000 4.111300 
# 
# 
# High freq. dielectric constant tensor:
#      x y z
#    x 1.888110 0.000000 0.000000 
#    y 0.000000 1.876240 0.000000 
#    z 0.000000 0.000000 1.879150 
# 
# From -- ./inp_files/25116.got.cif
#   From: 2010.03.12/outbox.cif.g09.slc.cpg/sg20_13_cif.got.tgz:25116.got - 2010.04.14 01:38:04.
