data_PCOD8160972
_publ_section_title
;
Structure prediction by ZEFSAII (Michael W. Deem and Ramdas Pophale) SiO2 
 PCOD8160972
Probable space group: C 2 2 2
;
_chemical_formula_sum "Si O2"
_cell_formula_units_Z 36
_cell_length_a 28.389783
_cell_length_b 4.922732
_cell_length_c 12.672748
_cell_angle_alpha 90.000000
_cell_angle_beta 90.000000
_cell_angle_gamma 90.000000
_cell_volume 1771.083613
_symmetry_space_group_name_H-M "C 2 2 2"
_symmetry_group_IT_number 21
_symmetry_cell_setting 'orthorhombic'
loop_
_space_group_symop_operation_xyz
x,y,z
-x,-y,z
x,-y,-z
-x,y,-z
1/2+x,1/2+y,z
1/2-x,1/2-y,z
1/2+x,1/2-y,-z
1/2-x,1/2+y,-z
loop_
_atom_site_type_symbol
_atom_site_label
_atom_site_fract_x
_atom_site_fract_y
_atom_site_fract_z
Si Si1 0.250000 0.750000 0.931303
Si Si2 0.842946 0.095520 0.825329
Si Si3 0.609450 0.568741 0.385755
Si Si4 0.600296 0.903320 0.887336
Si Si5 0.447368 0.076925 0.676986
O O1 0.211425 0.903812 0.859113
O O2 0.228120 0.500000 0.000000
O O3 0.849739 0.018073 0.701675
O O4 0.859487 0.399295 0.845244
O O5 0.874647 0.890572 0.895585
O O6 0.631647 0.500000 0.500000
O O7 0.564573 0.374206 0.366476
O O8 0.589535 0.872618 0.377735
O O9 0.557260 0.913620 0.804469
O O10 0.580230 0.000000 0.000000
O O11 0.500000 0.000000 0.644960
#
# Coordination Sequence:
#
# PCOD8160972 Si02
#       5
#     4   8   8   8   8
#     4  12  22  34  58  86 110 136 172 220 268 316
#     4  10  21  35  53  80 106 134 177 216 258 318
#     4  10  21  37  56  75 105 144 176 219 271 313
#     4  10  19  34  53  74 108 145 171 209 266 319
#     4  10  21  34  52  81 107 135 183 226 259 313
#
# _framework density 20.326539
#
# number of rings (size 3 to 8) (size 9 to 14) (size 15 to 20)
#    0.000    1.778    0.000    5.333    0.000    3.111 
#    0.000    0.000    0.000   17.333    0.000    0.000 
#    0.000    0.000    0.000    0.000    0.000    0.000 
#
# Total GULP energy -223159.670566 kJ/mol
# GULP energy per Si atom -12397.759476 kJ/mol
# Density = 2.028027 g / cm^3
# Si number density = 20.326539 Si / 1000 Ang^3
#
#
#
# Elastic Constant Matrix: (Units=GPa)
#
#
# Indices 1 2 3 4 5 6 
#
# 1 66.0050 12.8942 20.9095 0.0000 0.0000 0.0000
# 2 12.8942 76.2772 16.4541 0.0000 0.0000 0.0000
# 3 20.9095 16.4541 136.1297 0.0000 0.0000 0.0000
# 4 0.0000 0.0000 0.0000 27.5580 0.0000 0.0000
# 5 0.0000 0.0000 0.0000 0.0000 14.9626 0.0000
# 6 0.0000 0.0000 0.0000 0.0000 0.0000 23.7448
#
#
#
# Elastic Compliance Matrix: (Units=1/GPa)
#
#
# Indices 1 2 3 4 5 6 
#
# 1 0.016301 -0.002275 -0.002229 0.000000 0.000000 0.000000
# 2 -0.002275 0.013778 -0.001316 0.000000 0.000000 0.000000
# 3 -0.002229 -0.001316 0.007847 0.000000 0.000000 0.000000
# 4 0.000000 0.000000 0.000000 0.036287 0.000000 0.000000
# 5 0.000000 0.000000 0.000000 0.000000 0.066833 0.000000
# 6 0.000000 0.000000 0.000000 0.000000 0.000000 0.042114
#
#
# Mechanical properties :
#
#
# Convention : Reuss Voigt Hill
#
# Bulk Modulus (GPa) = 38.04099 42.10304 40.07202
# Shear Modulus (GPa) = 24.56242 28.46336 26.51289
#
# Velocity S-wave (km/s) = 3.47996 3.74613 3.61549
# Velocity P-wave (km/s) = 5.90783 6.28248 6.09803
#
# Compressibility (1/GPa) = 0.02628743
#
# Stress axis : x y z
#
# Youngs Moduli (GPa) = 61.34660 72.57689 127.43144
#
# Poissons Ratio (x) = 0.16509 0.28403
# Poissons Ratio (y) = 0.13955 0.16770
# Poissons Ratio (z) = 0.13673 0.09551
#
# Static dielectric constant tensor:
#      x y z
#    x 3.175690 0.000000 0.000000 
#    y 0.000000 3.892420 0.000000 
#    z 0.000000 0.000000 3.974450 
# 
# 
# High freq. dielectric constant tensor:
#      x y z
#    x 1.744460 0.000000 0.000000 
#    y 0.000000 1.818420 0.000000 
#    z 0.000000 0.000000 1.798890 
# 
# From -- ./inp_files/27911.got.cif
#   From: 2010.03.12/outbox.cif.g09.slc.cpg/sg21_14_cif.got.tgz:27911.got - 2010.04.14 01:59:26.
