data_PCOD8160088
_publ_section_title
;
Structure prediction by ZEFSAII (Michael W. Deem and Ramdas Pophale) SiO2 
 PCOD8160088
Probable space group: C 2 2 21
;
_chemical_formula_sum "Si O2"
_cell_formula_units_Z 56
_cell_length_a 8.525492
_cell_length_b 14.348727
_cell_length_c 19.100380
_cell_angle_alpha 90.000000
_cell_angle_beta 90.000000
_cell_angle_gamma 90.000000
_cell_volume 2336.548669
_symmetry_space_group_name_H-M "C 2 2 21"
_symmetry_group_IT_number 20
_symmetry_cell_setting 'orthorhombic'
loop_
_space_group_symop_operation_xyz
x,y,z
-x,-y,1/2+z
x,-y,-z
-x,y,1/2-z
1/2+x,1/2+y,z
1/2-x,1/2-y,1/2+z
1/2+x,1/2-y,-z
1/2-x,1/2+y,1/2-z
loop_
_atom_site_type_symbol
_atom_site_label
_atom_site_fract_x
_atom_site_fract_y
_atom_site_fract_z
Si Si1 0.938069 0.063704 0.564580
Si Si2 0.703837 0.305058 0.629361
Si Si3 0.858970 0.772562 0.018919
Si Si4 0.423543 0.917624 0.049040
Si Si5 0.119827 0.981001 0.697595
Si Si6 0.887826 0.288499 0.364200
Si Si7 0.820823 0.170743 0.739280
O O1 0.750833 0.058233 0.576969
O O2 0.992400 0.166866 0.543477
O O3 0.029725 0.033913 0.634646
O O4 0.990022 0.000000 0.500000
O O5 0.740146 0.314947 0.546942
O O6 0.742184 0.402824 0.669060
O O7 0.516325 0.292247 0.633763
O O8 0.783695 0.211392 0.661665
O O9 0.743696 0.758369 0.082266
O O10 0.927327 0.672818 0.999497
O O11 0.538576 0.891285 0.114875
O O12 0.491385 0.000000 0.000000
O O13 0.201814 0.060080 0.746548
O O14 0.000000 0.929104 0.750000
O O15 0.808118 0.282434 0.288643
O O16 0.000000 0.201539 0.750000
#
# Coordination Sequence:
#
# PCOD8160088 Si02
#       7
#     8   8   8   8   8   8   8
#     4  11  22  45  72 103 134 186 242 290 356 437
#     4  11  25  48  70 102 143 186 238 298 359 430
#     4  11  23  42  72 103 142 186 232 295 362 424
#     4  10  24  39  65 106 143 176 230 294 354 421
#     4  11  24  42  75  99 136 191 236 292 354 433
#     4  11  24  42  70 100 140 182 230 302 358 414
#     4  11  26  45  68  99 139 187 239 294 352 437
#
# _framework density 23.966974
#
# number of rings (size 3 to 8) (size 9 to 14) (size 15 to 20)
#    0.000    1.143    2.857    3.000   10.000    4.000 
#    0.000    1.429    0.000    0.000    0.000    0.000 
#    0.000    0.000    0.000    0.000    0.000    0.000 
#
# Total GULP energy -346941.542350 kJ/mol
# GULP energy per Si atom -12390.769370 kJ/mol
# Density = 2.391242 g / cm^3
# Si number density = 23.966974 Si / 1000 Ang^3
#
#
#
# Elastic Constant Matrix: (Units=GPa)
#
#
# Indices 1 2 3 4 5 6 
#
# 1 55.8251 -11.7730 -5.6777 0.0000 0.0000 0.0000
# 2 -11.7730 90.5313 8.4990 0.0000 0.0000 0.0000
# 3 -5.6777 8.4990 88.4209 0.0000 0.0000 0.0000
# 4 0.0000 0.0000 0.0000 34.1872 0.0000 0.0000
# 5 0.0000 0.0000 0.0000 0.0000 35.8592 0.0000
# 6 0.0000 0.0000 0.0000 0.0000 0.0000 31.5025
#
#
#
# Elastic Compliance Matrix: (Units=1/GPa)
#
#
# Indices 1 2 3 4 5 6 
#
# 1 0.018500 0.002315 0.000965 0.000000 0.000000 0.000000
# 2 0.002315 0.011436 -0.000951 0.000000 0.000000 0.000000
# 3 0.000965 -0.000951 0.011463 0.000000 0.000000 0.000000
# 4 0.000000 0.000000 0.000000 0.029251 0.000000 0.000000
# 5 0.000000 0.000000 0.000000 0.000000 0.027887 0.000000
# 6 0.000000 0.000000 0.000000 0.000000 0.000000 0.031743
#
#
# Mechanical properties :
#
#
# Convention : Reuss Voigt Hill
#
# Bulk Modulus (GPa) = 21.71158 24.09711 22.90435
# Shear Modulus (GPa) = 35.46788 36.55840 36.01314
#
# Velocity S-wave (km/s) = 3.85107 3.90983 3.88056
# Velocity P-wave (km/s) = 5.37150 5.51892 5.44571
#
# Compressibility (1/GPa) = 0.04605837
#
# Stress axis : x y z
#
# Youngs Moduli (GPa) = 54.05551 87.44159 87.23797
#
# Poissons Ratio (x) = -0.20244 -0.08422
# Poissons Ratio (y) = -0.12514 0.08293
# Poissons Ratio (z) = -0.05218 0.08312
#
# Static dielectric constant tensor:
#      x y z
#    x 4.290440 0.000000 0.000000 
#    y 0.000000 4.305700 0.000000 
#    z 0.000000 0.000000 4.749720 
# 
# 
# High freq. dielectric constant tensor:
#      x y z
#    x 1.935650 0.000000 0.000000 
#    y 0.000000 1.941920 0.000000 
#    z 0.000000 0.000000 1.968210 
# 
# From -- ./inp_files/26722.got.cif
#   From: 2010.03.12/outbox.cif.g09.slc.cpg/sg20_14_cif.got.tgz:26722.got - 2010.04.14 01:38:04.
