data_PCOD8160170
_publ_section_title
;
Structure prediction by ZEFSAII (Michael W. Deem and Ramdas Pophale) SiO2 
 PCOD8160170
Probable space group: C 2 2 21
;
_chemical_formula_sum "Si O2"
_cell_formula_units_Z 40
_cell_length_a 12.024842
_cell_length_b 7.847692
_cell_length_c 19.745558
_cell_angle_alpha 90.000000
_cell_angle_beta 90.000000
_cell_angle_gamma 90.000000
_cell_volume 1863.334134
_symmetry_space_group_name_H-M "C 2 2 21"
_symmetry_group_IT_number 20
_symmetry_cell_setting 'orthorhombic'
loop_
_space_group_symop_operation_xyz
x,y,z
-x,-y,1/2+z
x,-y,-z
-x,y,1/2-z
1/2+x,1/2+y,z
1/2-x,1/2-y,1/2+z
1/2+x,1/2-y,-z
1/2-x,1/2+y,1/2-z
loop_
_atom_site_type_symbol
_atom_site_label
_atom_site_fract_x
_atom_site_fract_y
_atom_site_fract_z
Si Si1 0.282664 0.805656 0.482887
Si Si2 0.542703 0.173069 0.089199
Si Si3 0.380227 0.000000 0.000000
Si Si4 0.566475 0.578048 0.687226
Si Si5 0.500000 0.741769 0.250000
Si Si6 0.181282 0.589114 0.837046
O O1 0.395576 0.758686 0.522358
O O2 0.190990 0.671799 0.508205
O O3 0.309212 0.787975 0.402878
O O4 0.243528 0.000000 0.500000
O O5 0.473239 0.330350 0.119043
O O6 0.634770 0.095663 0.140128
O O7 0.457050 0.023198 0.066979
O O8 0.500000 0.666640 0.750000
O O9 0.536485 0.377204 0.686403
O O10 0.698380 0.585226 0.697415
O O11 0.398308 0.852160 0.276680
#
# Coordination Sequence:
#
# PCOD8160170 Si02
#       6
#     8   8   4   8   4   8
#     4  10  24  45  69 106 139 175 230 290 345 421
#     4  11  24  45  66 104 137 175 227 291 348 409
#     4  12  22  44  72 102 138 182 218 276 366 404
#     4  10  26  43  65  96 134 181 232 273 338 412
#     4  10  28  40  64 102 122 188 234 268 348 408
#     4  11  23  46  66  96 139 173 232 287 338 410
#
# _framework density 21.466896999999999
#
# number of rings (size 3 to 8) (size 9 to 14) (size 15 to 20)
#    0.600    0.800    5.000    0.000    7.000    3.200 
#    1.800    0.000    0.000    0.000    0.000    0.000 
#    0.000    0.000    0.000    0.000    0.000    0.000 
#
# Total GULP energy -247842.905379 kJ/mol
# GULP energy per Si atom -12392.145269 kJ/mol
# Density = 2.141804 g / cm^3
# Si number density = 21.466897 Si / 1000 Ang^3
#
#
#
# Elastic Constant Matrix: (Units=GPa)
#
#
# Indices 1 2 3 4 5 6 
#
# 1 169.2847 43.9029 41.7178 0.0000 0.0000 0.0000
# 2 43.9029 64.5369 23.6218 0.0000 0.0000 0.0000
# 3 41.7178 23.6218 56.8210 0.0000 0.0000 0.0000
# 4 0.0000 0.0000 0.0000 33.3196 0.0000 0.0000
# 5 0.0000 0.0000 0.0000 0.0000 45.6847 0.0000
# 6 0.0000 0.0000 0.0000 0.0000 0.0000 28.4459
#
#
#
# Elastic Compliance Matrix: (Units=1/GPa)
#
#
# Indices 1 2 3 4 5 6 
#
# 1 0.007951 -0.003860 -0.004233 0.000000 0.000000 0.000000
# 2 -0.003860 0.020149 -0.005543 0.000000 0.000000 0.000000
# 3 -0.004233 -0.005543 0.023012 0.000000 0.000000 0.000000
# 4 0.000000 0.000000 0.000000 0.030012 0.000000 0.000000
# 5 0.000000 0.000000 0.000000 0.000000 0.021889 0.000000
# 6 0.000000 0.000000 0.000000 0.000000 0.000000 0.035155
#
#
# Mechanical properties :
#
#
# Convention : Reuss Voigt Hill
#
# Bulk Modulus (GPa) = 41.94516 56.56975 49.25746
# Shear Modulus (GPa) = 28.83721 33.58337 31.21029
#
# Velocity S-wave (km/s) = 3.66913 3.95957 3.81711
# Velocity P-wave (km/s) = 6.12633 6.87849 6.51327
#
# Compressibility (1/GPa) = 0.02384066
#
# Stress axis : x y z
#
# Youngs Moduli (GPa) = 125.76329 49.62916 43.45648
#
# Poissons Ratio (x) = 0.19155 0.18397
# Poissons Ratio (y) = 0.48541 0.24087
# Poissons Ratio (z) = 0.53240 0.27509
#
# Static dielectric constant tensor:
#      x y z
#    x 4.032250 0.000000 0.000000 
#    y 0.000000 3.589780 0.000000 
#    z 0.000000 0.000000 3.776450 
# 
# 
# High freq. dielectric constant tensor:
#      x y z
#    x 1.859620 0.000000 0.000000 
#    y 0.000000 1.820180 0.000000 
#    z 0.000000 0.000000 1.832810 
# 
# From -- ./inp_files/23209.got.cif
#   From: 2010.03.12/outbox.cif.g09.slc.cpg/sg20_12_cif.got.tgz:23209.got - 2010.04.14 01:38:04.
