data_PCOD8160455
_publ_section_title
;
Structure prediction by ZEFSAII (Michael W. Deem and Ramdas Pophale) SiO2 
 PCOD8160455
Probable space group: C 2 2 21
;
_chemical_formula_sum "Si O2"
_cell_formula_units_Z 64
_cell_length_a 11.943773
_cell_length_b 18.259491
_cell_length_c 13.774168
_cell_angle_alpha 90.000000
_cell_angle_beta 90.000000
_cell_angle_gamma 90.000000
_cell_volume 3003.969946
_symmetry_space_group_name_H-M "C 2 2 21"
_symmetry_group_IT_number 20
_symmetry_cell_setting 'orthorhombic'
loop_
_space_group_symop_operation_xyz
x,y,z
-x,-y,1/2+z
x,-y,-z
-x,y,1/2-z
1/2+x,1/2+y,z
1/2-x,1/2-y,1/2+z
1/2+x,1/2-y,-z
1/2-x,1/2+y,1/2-z
loop_
_atom_site_type_symbol
_atom_site_label
_atom_site_fract_x
_atom_site_fract_y
_atom_site_fract_z
Si Si1 0.254950 0.698275 0.114008
Si Si2 0.753680 0.575790 0.546789
Si Si3 0.008244 0.224745 0.146750
Si Si4 0.368832 0.665984 0.524601
Si Si5 0.345299 0.914664 0.993311
Si Si6 0.617037 0.178276 0.300578
Si Si7 0.569087 0.343510 0.345524
Si Si8 0.472054 0.111404 0.645618
O O1 0.383437 0.723512 0.101745
O O2 0.174804 0.765342 0.086264
O O3 0.218501 0.673191 0.222450
O O4 0.233387 0.633389 0.039408
O O5 0.711404 0.500000 0.500000
O O6 0.672609 0.602427 0.633957
O O7 0.874321 0.563993 0.596394
O O8 0.062527 0.304744 0.164384
O O9 0.000000 0.183737 0.250000
O O10 0.104446 0.185162 0.086133
O O11 0.281467 0.599952 0.526418
O O12 0.486233 0.640558 0.566546
O O13 0.365815 0.879928 0.887134
O O14 0.424296 0.879120 0.073354
O O15 0.369645 0.000000 0.000000
O O16 0.500000 0.158326 0.250000
O O17 0.612920 0.260083 0.344622
O O18 0.500000 0.365217 0.250000
O O19 0.500000 0.074166 0.750000
#
# Coordination Sequence:
#
# PCOD8160455 Si02
#       8
#     8   8   8   8   8   8   8   8
#     4  12  22  42  70  99 134 177 237 287 348 403
#     4  12  27  45  66 101 145 186 224 281 351 424
#     4  11  23  39  67 102 132 172 231 297 345 397
#     4  12  22  44  70  99 138 174 232 291 344 408
#     4  12  27  44  66 102 144 186 225 280 353 424
#     4  11  23  43  74 104 133 181 232 290 344 407
#     4  11  24  44  76 102 132 181 239 291 342 410
#     4  11  25  41  69  99 136 178 229 285 346 414
#
# _framework density 21.305139
#
# number of rings (size 3 to 8) (size 9 to 14) (size 15 to 20)
#    0.000    0.500    6.250    3.375    5.250    2.000 
#    0.000    0.625    0.000    0.000    0.000    0.000 
#    0.000    0.000    0.000    0.000    0.000    0.000 
#
# Total GULP energy -396801.370954 kJ/mol
# GULP energy per Si atom -12400.042842 kJ/mol
# Density = 2.125665 g / cm^3
# Si number density = 21.305139 Si / 1000 Ang^3
#
#
#
# Elastic Constant Matrix: (Units=GPa)
#
#
# Indices 1 2 3 4 5 6 
#
# 1 95.5196 24.8114 31.4223 0.0000 0.0000 0.0000
# 2 24.8114 76.4370 36.8243 0.0000 0.0000 0.0000
# 3 31.4223 36.8243 136.4224 0.0000 0.0000 0.0000
# 4 0.0000 0.0000 0.0000 21.9707 0.0000 0.0000
# 5 0.0000 0.0000 0.0000 0.0000 50.0723 0.0000
# 6 0.0000 0.0000 0.0000 0.0000 0.0000 18.8377
#
#
#
# Elastic Compliance Matrix: (Units=1/GPa)
#
#
# Indices 1 2 3 4 5 6 
#
# 1 0.011866 -0.002914 -0.001947 0.000000 0.000000 0.000000
# 2 -0.002914 0.015754 -0.003581 0.000000 0.000000 0.000000
# 3 -0.001947 -0.003581 0.008745 0.000000 0.000000 0.000000
# 4 0.000000 0.000000 0.000000 0.045515 0.000000 0.000000
# 5 0.000000 0.000000 0.000000 0.000000 0.019971 0.000000
# 6 0.000000 0.000000 0.000000 0.000000 0.000000 0.053085
#
#
# Mechanical properties :
#
#
# Convention : Reuss Voigt Hill
#
# Bulk Modulus (GPa) = 51.33021 54.94389 53.13705
# Shear Modulus (GPa) = 28.04039 32.53088 30.28564
#
# Velocity S-wave (km/s) = 3.63179 3.91180 3.77439
# Velocity P-wave (km/s) = 6.46001 6.80058 6.63248
#
# Compressibility (1/GPa) = 0.01948170
#
# Stress axis : x y z
#
# Youngs Moduli (GPa) = 84.27205 63.47662 114.34831
#
# Poissons Ratio (x) = 0.18497 0.22259
# Poissons Ratio (y) = 0.24557 0.40951
# Poissons Ratio (z) = 0.16404 0.22732
#
# Static dielectric constant tensor:
#      x y z
#    x 3.983450 0.000000 0.000000 
#    y 0.000000 3.507880 0.000000 
#    z 0.000000 0.000000 4.385740 
# 
# 
# High freq. dielectric constant tensor:
#      x y z
#    x 1.850690 0.000000 0.000000 
#    y 0.000000 1.799500 0.000000 
#    z 0.000000 0.000000 1.855330 
# 
# From -- ./inp_files/20283.got.cif
#   From: 2010.03.12/outbox.cif.g09.slc.cpg/sg20_11_cif.got.tgz:20283.got - 2010.04.14 01:38:04.
