data_PCOD8160572
_publ_section_title
;
Structure prediction by ZEFSAII (Michael W. Deem and Ramdas Pophale) SiO2 
 PCOD8160572
Probable space group: C 2 2 21
;
_chemical_formula_sum "Si O2"
_cell_formula_units_Z 28
_cell_length_a 16.759233
_cell_length_b 6.932845
_cell_length_c 11.404797
_cell_angle_alpha 90.000000
_cell_angle_beta 90.000000
_cell_angle_gamma 90.000000
_cell_volume 1325.113837
_symmetry_space_group_name_H-M "C 2 2 21"
_symmetry_group_IT_number 20
_symmetry_cell_setting 'orthorhombic'
loop_
_space_group_symop_operation_xyz
x,y,z
-x,-y,1/2+z
x,-y,-z
-x,y,1/2-z
1/2+x,1/2+y,z
1/2-x,1/2-y,1/2+z
1/2+x,1/2-y,-z
1/2-x,1/2+y,1/2-z
loop_
_atom_site_type_symbol
_atom_site_label
_atom_site_fract_x
_atom_site_fract_y
_atom_site_fract_z
Si Si1 0.971650 0.500000 0.000000
Si Si2 0.845803 0.532932 0.198257
Si Si3 0.818411 0.865538 0.363660
Si Si4 0.110472 0.744669 0.910673
O O1 0.919313 0.441943 0.888729
O O2 0.024055 0.684954 0.961271
O O3 0.827307 0.746266 0.245023
O O4 0.769481 0.455586 0.128792
O O5 0.866021 0.395548 0.306295
O O6 0.828880 0.729960 0.478342
O O7 0.885952 0.034458 0.364343
#
# Coordination Sequence:
#
# PCOD8160572 Si02
#       4
#     4   8   8   8
#     4  12  26  46  70 102 152 184 236 296 368 414
#     4  12  24  47  72 105 141 189 242 295 351 427
#     4  11  24  46  74 100 140 190 242 290 353 419
#     4  11  24  46  69 102 145 181 234 300 350 422
#
# _framework density 21.130261000000001
#
# number of rings (size 3 to 8) (size 9 to 14) (size 15 to 20)
#    0.000    0.571    5.714    2.571    0.000    0.000 
#   20.571    0.000    0.000    0.000    0.000    0.000 
#    0.000    0.000    0.000    0.000    0.000    0.000 
#
# Total GULP energy -173569.986072 kJ/mol
# GULP energy per Si atom -12397.856148 kJ/mol
# Density = 2.108217 g / cm^3
# Si number density = 21.130261 Si / 1000 Ang^3
#
#
#
# Elastic Constant Matrix: (Units=GPa)
#
#
# Indices 1 2 3 4 5 6 
#
# 1 149.9136 58.8594 74.6936 0.0000 0.0000 0.0000
# 2 58.8594 71.1587 45.4347 0.0000 0.0000 0.0000
# 3 74.6936 45.4347 121.7576 0.0000 0.0000 0.0000
# 4 0.0000 0.0000 0.0000 46.1864 0.0000 0.0000
# 5 0.0000 0.0000 0.0000 0.0000 49.6277 0.0000
# 6 0.0000 0.0000 0.0000 0.0000 0.0000 30.3822
#
#
#
# Elastic Compliance Matrix: (Units=1/GPa)
#
#
# Indices 1 2 3 4 5 6 
#
# 1 0.011577 -0.006618 -0.004632 0.000000 0.000000 0.000000
# 2 -0.006618 0.022232 -0.004236 0.000000 0.000000 0.000000
# 3 -0.004632 -0.004236 0.012636 0.000000 0.000000 0.000000
# 4 0.000000 0.000000 0.000000 0.021651 0.000000 0.000000
# 5 0.000000 0.000000 0.000000 0.000000 0.020150 0.000000
# 6 0.000000 0.000000 0.000000 0.000000 0.000000 0.032914
#
#
# Mechanical properties :
#
#
# Convention : Reuss Voigt Hill
#
# Bulk Modulus (GPa) = 64.63575 77.86728 71.25151
# Shear Modulus (GPa) = 31.78827 36.16208 33.97518
#
# Velocity S-wave (km/s) = 3.88286 4.14138 4.01420
# Velocity P-wave (km/s) = 7.12445 7.73299 7.43495
#
# Compressibility (1/GPa) = 0.01547132
#
# Stress axis : x y z
#
# Youngs Moduli (GPa) = 86.37773 44.97996 79.14165
#
# Poissons Ratio (x) = 0.29769 0.36662
# Poissons Ratio (y) = 0.57167 0.33525
# Poissons Ratio (z) = 0.40014 0.19054
#
# Static dielectric constant tensor:
#      x y z
#    x 3.840110 0.000000 0.000000 
#    y 0.000000 4.004890 0.000000 
#    z 0.000000 0.000000 4.038850 
# 
# 
# High freq. dielectric constant tensor:
#      x y z
#    x 1.819910 0.000000 0.000000 
#    y 0.000000 1.829050 0.000000 
#    z 0.000000 0.000000 1.850180 
# 
# From -- ./inp_files/14612.got.cif
#   From: 2010.03.12/outbox.cif.g09.slc.cpg/sg20_8_cif.got.tgz:14612.got - 2010.04.14 01:38:04.
