data_PCOD8160458
_publ_section_title
;
Structure prediction by ZEFSAII (Michael W. Deem and Ramdas Pophale) SiO2 
 PCOD8160458
Probable space group: C 2 2 21
;
_chemical_formula_sum "Si O2"
_cell_formula_units_Z 40
_cell_length_a 9.063001
_cell_length_b 18.245780
_cell_length_c 10.900714
_cell_angle_alpha 90.000000
_cell_angle_beta 90.000000
_cell_angle_gamma 90.000000
_cell_volume 1802.558662
_symmetry_space_group_name_H-M "C 2 2 21"
_symmetry_group_IT_number 20
_symmetry_cell_setting 'orthorhombic'
loop_
_space_group_symop_operation_xyz
x,y,z
-x,-y,1/2+z
x,-y,-z
-x,y,1/2-z
1/2+x,1/2+y,z
1/2-x,1/2-y,1/2+z
1/2+x,1/2-y,-z
1/2-x,1/2+y,1/2-z
loop_
_atom_site_type_symbol
_atom_site_label
_atom_site_fract_x
_atom_site_fract_y
_atom_site_fract_z
Si Si1 0.739047 0.970576 0.129620
Si Si2 0.318523 0.045519 0.113228
Si Si3 0.734743 0.323450 0.471318
Si Si4 0.989490 0.924256 0.883682
Si Si5 0.530837 0.198745 0.382832
O O1 0.724693 0.881762 0.137197
O O2 0.670476 0.003533 0.255048
O O3 0.911534 0.995302 0.122765
O O4 0.664667 0.000000 0.000000
O O5 0.416367 0.116274 0.129859
O O6 0.154318 0.066410 0.066284
O O7 0.387936 0.000000 0.000000
O O8 0.614466 0.367078 0.549165
O O9 0.662690 0.247544 0.434115
O O10 0.882056 0.298911 0.539490
O O11 0.000000 0.889128 0.750000
O O12 0.500000 0.232097 0.250000
#
# Coordination Sequence:
#
# PCOD8160458 Si02
#       5
#     8   8   8   8   8
#     4   9  19  39  66  92 126 172 220 269 328 398
#     4  11  23  40  66  99 132 173 227 282 338 402
#     4  11  24  42  65  96 135 180 224 275 339 409
#     4   9  18  37  65  94 129 174 223 276 335 399
#     4  12  27  44  65  95 136 179 226 286 343 402
#
# _framework density 22.190677999999998
#
# number of rings (size 3 to 8) (size 9 to 14) (size 15 to 20)
#    0.000    1.600    0.000    6.600    0.000    9.600 
#    0.000    2.000    0.000    0.000    0.000    0.000 
#    0.000    0.000    0.000    0.000    0.000    0.000 
#
# Total GULP energy -247789.201698 kJ/mol
# GULP energy per Si atom -12389.460085 kJ/mol
# Density = 2.214017 g / cm^3
# Si number density = 22.190678 Si / 1000 Ang^3
#
#
#
# Elastic Constant Matrix: (Units=GPa)
#
#
# Indices 1 2 3 4 5 6 
#
# 1 120.8926 50.6527 47.4432 0.0000 0.0000 0.0000
# 2 50.6527 122.8525 68.6903 0.0000 0.0000 0.0000
# 3 47.4432 68.6903 145.8601 0.0000 0.0000 0.0000
# 4 0.0000 0.0000 0.0000 24.9387 0.0000 0.0000
# 5 0.0000 0.0000 0.0000 0.0000 -2.9447 0.0000
# 6 0.0000 0.0000 0.0000 0.0000 0.0000 52.1021
#
#
#
# Elastic Compliance Matrix: (Units=1/GPa)
#
#
# Indices 1 2 3 4 5 6 
#
# 1 0.010351 -0.003238 -0.001842 0.000000 0.000000 0.000000
# 2 -0.003238 0.012062 -0.004627 0.000000 0.000000 0.000000
# 3 -0.001842 -0.004627 0.009634 0.000000 0.000000 0.000000
# 4 0.000000 0.000000 0.000000 0.040098 0.000000 0.000000
# 5 0.000000 0.000000 0.000000 0.000000 -0.339594 0.000000
# 6 0.000000 0.000000 0.000000 0.000000 0.000000 0.019193
#
#
# Mechanical properties :
#
#
# Convention : Reuss Voigt Hill
#
# Bulk Modulus (GPa) = 79.15731 80.35309 79.75520
# Shear Modulus (GPa) = -22.25891 29.67381 3.70745
#
# Velocity S-wave (km/s) = -3.17057 3.66077 1.29397
# Velocity P-wave (km/s) = 4.72710 7.35916 6.18477
#
# Compressibility (1/GPa) = 0.01263307
#
# Stress axis : x y z
#
# Youngs Moduli (GPa) = 96.60541 82.90433 103.79727
#
# Poissons Ratio (x) = 0.26844 0.19120
# Poissons Ratio (y) = 0.31281 0.48029
# Poissons Ratio (z) = 0.17795 0.38362
#
# Static dielectric constant tensor:
#      x y z
#    x 4.076630 0.000000 0.000000 
#    y 0.000000 4.075940 0.000000 
#    z 0.000000 0.000000 3.994120 
# 
# 
# High freq. dielectric constant tensor:
#      x y z
#    x 1.887330 0.000000 0.000000 
#    y 0.000000 1.863130 0.000000 
#    z 0.000000 0.000000 1.877330 
# 
# From -- ./inp_files/12708.got.cif
#   From: 2010.03.12/outbox.cif.g09.slc.cpg/sg20_7_cif.got.tgz:12708.got - 2010.04.14 01:38:04.
