data_PCOD8160404
_publ_section_title
;
Structure prediction by ZEFSAII (Michael W. Deem and Ramdas Pophale) SiO2 
 PCOD8160404
Probable space group: C 2 2 21
;
_chemical_formula_sum "Si O2"
_cell_formula_units_Z 64
_cell_length_a 11.841865
_cell_length_b 14.639686
_cell_length_c 18.779682
_cell_angle_alpha 90.000000
_cell_angle_beta 90.000000
_cell_angle_gamma 90.000000
_cell_volume 3255.667930
_symmetry_space_group_name_H-M "C 2 2 21"
_symmetry_group_IT_number 20
_symmetry_cell_setting 'orthorhombic'
loop_
_space_group_symop_operation_xyz
x,y,z
-x,-y,1/2+z
x,-y,-z
-x,y,1/2-z
1/2+x,1/2+y,z
1/2-x,1/2-y,1/2+z
1/2+x,1/2-y,-z
1/2-x,1/2+y,1/2-z
loop_
_atom_site_type_symbol
_atom_site_label
_atom_site_fract_x
_atom_site_fract_y
_atom_site_fract_z
Si Si1 0.249296 0.931551 0.396652
Si Si2 0.749620 0.129211 0.051672
Si Si3 0.476538 0.779630 0.576979
Si Si4 0.515138 0.703209 0.422170
Si Si5 0.511247 0.603231 0.665976
Si Si6 0.402799 0.968536 0.921158
Si Si7 0.364320 0.532410 0.421534
Si Si8 0.523614 0.878214 0.167568
O O1 0.237574 0.867479 0.466088
O O2 0.343239 0.891132 0.344586
O O3 0.131804 0.938055 0.355414
O O4 0.290803 0.030670 0.421725
O O5 0.657436 0.202819 0.075637
O O6 0.867659 0.150684 0.088944
O O7 0.514932 0.745017 0.500437
O O8 0.500456 0.705929 0.637550
O O9 0.545830 0.870117 0.596432
O O10 0.412866 0.633412 0.408739
O O11 0.512577 0.781732 0.364068
O O12 0.500000 0.604994 0.750000
O O13 0.413143 0.539564 0.634565
O O14 0.268999 0.963058 0.912421
O O15 0.450296 0.041388 0.866150
O O16 0.438743 0.000000 0.000000
O O17 0.401304 0.500000 0.500000
O O18 0.500000 0.876642 0.250000
#
# Coordination Sequence:
#
# PCOD8160404 Si02
#       8
#     8   8   8   8   8   8   8   8
#     4  11  22  45  70  95 131 186 223 273 326 404
#     4  11  22  41  74  98 131 171 240 275 315 395
#     4  12  24  41  70 104 130 174 228 277 328 396
#     4  12  24  41  70 104 130 174 228 277 328 396
#     4  12  28  45  67 100 141 178 218 276 346 402
#     4  11  24  44  69  99 134 176 226 278 330 393
#     4  11  24  44  69  99 134 176 226 278 330 393
#     4  12  28  45  67 100 141 178 218 276 346 402
#
# _framework density 19.658026
#
# number of rings (size 3 to 8) (size 9 to 14) (size 15 to 20)
#    0.000    0.500    7.500    0.000    7.000    1.000 
#    0.000    0.000    0.000    0.000    0.000    0.000 
#    0.000    0.000    0.000    0.000    0.000    0.000 
#
# Total GULP energy -397026.840076 kJ/mol
# GULP energy per Si atom -12407.088752 kJ/mol
# Density = 1.961328 g / cm^3
# Si number density = 19.658026 Si / 1000 Ang^3
#
#
#
# Elastic Constant Matrix: (Units=GPa)
#
#
# Indices 1 2 3 4 5 6 
#
# 1 97.7785 31.0607 36.3376 0.0000 0.0000 0.0000
# 2 31.0607 133.8216 58.8981 0.0000 0.0000 0.0000
# 3 36.3376 58.8981 150.4861 0.0000 0.0000 0.0000
# 4 0.0000 0.0000 0.0000 29.9710 0.0000 0.0000
# 5 0.0000 0.0000 0.0000 0.0000 18.7795 0.0000
# 6 0.0000 0.0000 0.0000 0.0000 0.0000 30.3435
#
#
#
# Elastic Compliance Matrix: (Units=1/GPa)
#
#
# Indices 1 2 3 4 5 6 
#
# 1 0.011568 -0.001759 -0.002105 0.000000 0.000000 0.000000
# 2 -0.001759 0.009295 -0.003213 0.000000 0.000000 0.000000
# 3 -0.002105 -0.003213 0.008411 0.000000 0.000000 0.000000
# 4 0.000000 0.000000 0.000000 0.033366 0.000000 0.000000
# 5 0.000000 0.000000 0.000000 0.000000 0.053250 0.000000
# 6 0.000000 0.000000 0.000000 0.000000 0.000000 0.032956
#
#
# Mechanical properties :
#
#
# Convention : Reuss Voigt Hill
#
# Bulk Modulus (GPa) = 66.13571 70.51989 68.32780
# Shear Modulus (GPa) = 29.75491 32.87145 31.31318
#
# Velocity S-wave (km/s) = 3.89476 4.09365 3.99544
# Velocity P-wave (km/s) = 7.34450 7.63513 7.49122
#
# Compressibility (1/GPa) = 0.01512042
#
# Stress axis : x y z
#
# Youngs Moduli (GPa) = 86.44441 107.58399 118.89065
#
# Poissons Ratio (x) = 0.18919 0.25027
# Poissons Ratio (y) = 0.15202 0.38203
# Poissons Ratio (z) = 0.18197 0.34570
#
# Static dielectric constant tensor:
#      x y z
#    x 3.702830 0.000000 0.000000 
#    y 0.000000 3.666550 0.000000 
#    z 0.000000 0.000000 3.385450 
# 
# 
# High freq. dielectric constant tensor:
#      x y z
#    x 1.785280 0.000000 0.000000 
#    y 0.000000 1.780780 0.000000 
#    z 0.000000 0.000000 1.746840 
# 
# From -- ./inp_files/24462.got.cif
#   From: 2010.03.12/outbox.cif.g09.slc.cpg/sg20_13_cif.got.tgz:24462.got - 2010.04.14 01:38:04.
