data_PCOD8160709
_publ_section_title
;
Structure prediction by ZEFSAII (Michael W. Deem and Ramdas Pophale) SiO2 
 PCOD8160709
Probable space group: C 2 2 21
;
_chemical_formula_sum "Si O2"
_cell_formula_units_Z 40
_cell_length_a 27.282112
_cell_length_b 4.882698
_cell_length_c 11.093018
_cell_angle_alpha 90.000000
_cell_angle_beta 90.000000
_cell_angle_gamma 90.000000
_cell_volume 1477.704408
_symmetry_space_group_name_H-M "C 2 2 21"
_symmetry_group_IT_number 20
_symmetry_cell_setting 'orthorhombic'
loop_
_space_group_symop_operation_xyz
x,y,z
-x,-y,1/2+z
x,-y,-z
-x,y,1/2-z
1/2+x,1/2+y,z
1/2-x,1/2-y,1/2+z
1/2+x,1/2-y,-z
1/2-x,1/2+y,1/2-z
loop_
_atom_site_type_symbol
_atom_site_label
_atom_site_fract_x
_atom_site_fract_y
_atom_site_fract_z
Si Si1 0.364022 0.298610 0.328906
Si Si2 0.617871 0.191833 0.667012
Si Si3 0.684653 0.500000 0.500000
Si Si4 0.990709 0.170230 0.120462
Si Si5 0.239988 0.596514 0.183971
Si Si6 0.932670 0.500000 0.500000
O O1 0.371389 0.608540 0.282339
O O2 0.374174 0.117288 0.210303
O O3 0.308708 0.230181 0.374463
O O4 0.399175 0.239832 0.442266
O O5 0.650888 0.255669 0.549869
O O6 0.562785 0.203277 0.618137
O O7 0.723150 0.591783 0.603446
O O8 0.000000 0.016786 0.250000
O O9 0.033214 0.400754 0.111114
O O10 0.999352 0.000000 0.000000
O O11 0.274156 0.857514 0.221156
#
# Coordination Sequence:
#
# PCOD8160709 Si02
#       6
#     8   8   4   8   8   4
#     4  12  26  52  74 115 156 205 258 327 397 477
#     4  12  27  47  79 107 158 202 264 322 398 474
#     4  12  25  48  76 110 148 210 249 326 392 480
#     4  12  27  49  77 115 155 215 268 334 403 481
#     4  12  25  46  76 112 151 196 256 319 388 472
#     4  12  29  46  82 110 162 206 269 322 410 476
#
# _framework density 27.069012000000001
#
# number of rings (size 3 to 8) (size 9 to 14) (size 15 to 20)
#    0.000    0.000    7.000    1.800    2.800    4.000 
#    0.000    4.000    0.000    0.000    0.000    0.000 
#    0.000    0.000    0.000    0.000    0.000    0.000 
#
# Total GULP energy -247859.974982 kJ/mol
# GULP energy per Si atom -12392.998749 kJ/mol
# Density = 2.700740 g / cm^3
# Si number density = 27.069012 Si / 1000 Ang^3
#
#
#
# Elastic Constant Matrix: (Units=GPa)
#
#
# Indices 1 2 3 4 5 6 
#
# 1 162.1875 -6.9555 27.0984 0.0000 0.0000 0.0000
# 2 -6.9555 59.1437 3.7018 0.0000 0.0000 0.0000
# 3 27.0984 3.7018 106.3562 0.0000 0.0000 0.0000
# 4 0.0000 0.0000 0.0000 29.0335 0.0000 0.0000
# 5 0.0000 0.0000 0.0000 0.0000 49.1813 0.0000
# 6 0.0000 0.0000 0.0000 0.0000 0.0000 27.1500
#
#
#
# Elastic Compliance Matrix: (Units=1/GPa)
#
#
# Indices 1 2 3 4 5 6 
#
# 1 0.006484 0.000868 -0.001682 0.000000 0.000000 0.000000
# 2 0.000868 0.017061 -0.000815 0.000000 0.000000 0.000000
# 3 -0.001682 -0.000815 0.009859 0.000000 0.000000 0.000000
# 4 0.000000 0.000000 0.000000 0.034443 0.000000 0.000000
# 5 0.000000 0.000000 0.000000 0.000000 0.020333 0.000000
# 6 0.000000 0.000000 0.000000 0.000000 0.000000 0.036832
#
#
# Mechanical properties :
#
#
# Convention : Reuss Voigt Hill
#
# Bulk Modulus (GPa) = 33.17228 41.70854 37.44041
# Shear Modulus (GPa) = 36.14810 41.32916 38.73863
#
# Velocity S-wave (km/s) = 3.65828 3.91168 3.78710
# Velocity P-wave (km/s) = 5.48866 5.98693 5.74320
#
# Compressibility (1/GPa) = 0.03014566
#
# Stress axis : x y z
#
# Youngs Moduli (GPa) = 154.22595 58.61312 101.42658
#
# Poissons Ratio (x) = -0.05087 0.17063
# Poissons Ratio (y) = -0.13384 0.08266
# Poissons Ratio (z) = 0.25945 0.04777
#
# Static dielectric constant tensor:
#      x y z
#    x 5.316260 0.000000 0.000000 
#    y 0.000000 4.556280 0.000000 
#    z 0.000000 0.000000 5.083930 
# 
# 
# High freq. dielectric constant tensor:
#      x y z
#    x 2.125210 0.000000 0.000000 
#    y 0.000000 2.065240 0.000000 
#    z 0.000000 0.000000 2.087100 
# 
# From -- ./inp_files/16901.got.cif
#   From: 2010.03.12/outbox.cif.g09.slc.cpg/sg20_9_cif.got.tgz:16901.got - 2010.04.14 01:38:04.
