data_PCOD8160182
_publ_section_title
;
Structure prediction by ZEFSAII (Michael W. Deem and Ramdas Pophale) SiO2 
 PCOD8160182
Probable space group: C 2 2 21
;
_chemical_formula_sum "Si O2"
_cell_formula_units_Z 28
_cell_length_a 7.754421
_cell_length_b 12.425147
_cell_length_c 13.851963
_cell_angle_alpha 90.000000
_cell_angle_beta 90.000000
_cell_angle_gamma 90.000000
_cell_volume 1334.634153
_symmetry_space_group_name_H-M "C 2 2 21"
_symmetry_group_IT_number 20
_symmetry_cell_setting 'orthorhombic'
loop_
_space_group_symop_operation_xyz
x,y,z
-x,-y,1/2+z
x,-y,-z
-x,y,1/2-z
1/2+x,1/2+y,z
1/2-x,1/2-y,1/2+z
1/2+x,1/2-y,-z
1/2-x,1/2+y,1/2-z
loop_
_atom_site_type_symbol
_atom_site_label
_atom_site_fract_x
_atom_site_fract_y
_atom_site_fract_z
Si Si1 0.803082 0.403341 0.769460
Si Si2 0.333796 0.273406 0.379384
Si Si3 0.913181 0.619298 0.024251
Si Si4 0.000000 0.936562 0.250000
O O1 0.764009 0.292140 0.713465
O O2 0.782100 0.382847 0.884181
O O3 0.669737 0.492100 0.731474
O O4 0.000000 0.442165 0.750000
O O5 0.177334 0.333108 0.430216
O O6 0.420823 0.191426 0.453876
O O7 0.472038 0.362264 0.344163
O O8 0.978980 0.500000 0.000000
#
# Coordination Sequence:
#
# PCOD8160182 Si02
#       4
#     8   8   8   4
#     4  10  24  46  66 100 137 175 224 277 331 392
#     4  11  25  44  65 102 134 174 226 272 333 401
#     4  11  23  42  65  99 133 169 227 274 322 401
#     4  12  22  46  72  92 140 178 220 272 334 400
#
# _framework density 20.979533
#
# number of rings (size 3 to 8) (size 9 to 14) (size 15 to 20)
#    0.000    1.143    7.143    0.000    4.000    4.571 
#    2.571    0.000    0.000    0.000    0.000    0.000 
#    0.000    0.000    0.000    0.000    0.000    0.000 
#
# Total GULP energy -173620.340038 kJ/mol
# GULP energy per Si atom -12401.452860 kJ/mol
# Density = 2.093178 g / cm^3
# Si number density = 20.979533 Si / 1000 Ang^3
#
#
#
# Elastic Constant Matrix: (Units=GPa)
#
#
# Indices 1 2 3 4 5 6 
#
# 1 70.4166 51.0549 14.7760 0.0000 0.0000 0.0000
# 2 51.0549 135.9392 25.3084 0.0000 0.0000 0.0000
# 3 14.7760 25.3084 72.7670 0.0000 0.0000 0.0000
# 4 0.0000 0.0000 0.0000 39.9324 0.0000 0.0000
# 5 0.0000 0.0000 0.0000 0.0000 28.6131 0.0000
# 6 0.0000 0.0000 0.0000 0.0000 0.0000 20.7682
#
#
#
# Elastic Compliance Matrix: (Units=1/GPa)
#
#
# Indices 1 2 3 4 5 6 
#
# 1 0.019672 -0.007105 -0.001524 0.000000 0.000000 0.000000
# 2 -0.007105 0.010431 -0.002185 0.000000 0.000000 0.000000
# 3 -0.001524 -0.002185 0.014812 0.000000 0.000000 0.000000
# 4 0.000000 0.000000 0.000000 0.025042 0.000000 0.000000
# 5 0.000000 0.000000 0.000000 0.000000 0.034949 0.000000
# 6 0.000000 0.000000 0.000000 0.000000 0.000000 0.048151
#
#
# Mechanical properties :
#
#
# Convention : Reuss Voigt Hill
#
# Bulk Modulus (GPa) = 42.94023 51.26683 47.10353
# Shear Modulus (GPa) = 27.40520 30.39497 28.90008
#
# Velocity S-wave (km/s) = 3.61817 3.81043 3.71555
# Velocity P-wave (km/s) = 6.16174 6.62184 6.39593
#
# Compressibility (1/GPa) = 0.02328818
#
# Stress axis : x y z
#
# Youngs Moduli (GPa) = 50.83362 95.86467 67.51304
#
# Poissons Ratio (x) = 0.68108 0.10286
# Poissons Ratio (y) = 0.36115 0.14754
# Poissons Ratio (z) = 0.07745 0.20950
#
# Static dielectric constant tensor:
#      x y z
#    x 3.422820 0.000000 0.000000 
#    y 0.000000 4.038790 0.000000 
#    z 0.000000 0.000000 3.989110 
# 
# 
# High freq. dielectric constant tensor:
#      x y z
#    x 1.793740 0.000000 0.000000 
#    y 0.000000 1.840020 0.000000 
#    z 0.000000 0.000000 1.827740 
# 
# From -- ./inp_files/12340.got.cif
#   From: 2010.03.12/outbox.cif.g09.slc.cpg/sg20_7_cif.got.tgz:12340.got - 2010.04.14 01:38:04.
