data_PCOD8160168
_publ_section_title
;
Structure prediction by ZEFSAII (Michael W. Deem and Ramdas Pophale) SiO2 
 PCOD8160168
Probable space group: C 2 2 21
;
_chemical_formula_sum "Si O2"
_cell_formula_units_Z 28
_cell_length_a 8.599135
_cell_length_b 11.971621
_cell_length_c 12.060407
_cell_angle_alpha 90.000000
_cell_angle_beta 90.000000
_cell_angle_gamma 90.000000
_cell_volume 1241.565656
_symmetry_space_group_name_H-M "C 2 2 21"
_symmetry_group_IT_number 20
_symmetry_cell_setting 'orthorhombic'
loop_
_space_group_symop_operation_xyz
x,y,z
-x,-y,1/2+z
x,-y,-z
-x,y,1/2-z
1/2+x,1/2+y,z
1/2-x,1/2-y,1/2+z
1/2+x,1/2-y,-z
1/2-x,1/2+y,1/2-z
loop_
_atom_site_type_symbol
_atom_site_label
_atom_site_fract_x
_atom_site_fract_y
_atom_site_fract_z
Si Si1 0.500000 0.582894 0.750000
Si Si2 0.003870 0.678680 0.626927
Si Si3 0.270746 0.978909 0.878298
Si Si4 0.665762 0.730682 0.577454
O O1 0.645367 0.506716 0.784106
O O2 0.541710 0.659330 0.645346
O O3 0.076119 0.555125 0.634639
O O4 0.107898 0.758853 0.549332
O O5 0.000000 0.732292 0.750000
O O6 0.831754 0.668877 0.576130
O O7 0.321085 0.851158 0.864045
O O8 0.196657 0.000000 0.000000
#
# Coordination Sequence:
#
# PCOD8160168 Si02
#       4
#     4   8   8   8
#     4  12  24  42  72 100 136 184 228 286 352 412
#     4  11  23  46  70 102 138 180 238 285 341 427
#     4  10  24  45  66 101 137 178 234 281 341 422
#     4  11  25  43  71  98 142 180 229 289 352 404
#
# _framework density 22.552168999999999
#
# number of rings (size 3 to 8) (size 9 to 14) (size 15 to 20)
#    0.000    1.143    2.857    3.429    4.000    0.000 
#    0.000   12.857    0.000    0.000    0.000    0.000 
#    0.000    0.000    0.000    0.000    0.000    0.000 
#
# Total GULP energy -173659.280691 kJ/mol
# GULP energy per Si atom -12404.234335 kJ/mol
# Density = 2.250084 g / cm^3
# Si number density = 22.552169 Si / 1000 Ang^3
#
#
#
# Elastic Constant Matrix: (Units=GPa)
#
#
# Indices 1 2 3 4 5 6 
#
# 1 137.2235 40.9775 51.9307 0.0000 0.0000 0.0000
# 2 40.9775 78.3164 47.0660 0.0000 0.0000 0.0000
# 3 51.9307 47.0660 148.0836 0.0000 0.0000 0.0000
# 4 0.0000 0.0000 0.0000 25.8512 0.0000 0.0000
# 5 0.0000 0.0000 0.0000 0.0000 52.0055 0.0000
# 6 0.0000 0.0000 0.0000 0.0000 0.0000 23.9260
#
#
#
# Elastic Compliance Matrix: (Units=1/GPa)
#
#
# Indices 1 2 3 4 5 6 
#
# 1 0.009127 -0.003526 -0.002080 0.000000 0.000000 0.000000
# 2 -0.003526 0.017145 -0.004213 0.000000 0.000000 0.000000
# 3 -0.002080 -0.004213 0.008822 0.000000 0.000000 0.000000
# 4 0.000000 0.000000 0.000000 0.038683 0.000000 0.000000
# 5 0.000000 0.000000 0.000000 0.000000 0.019229 0.000000
# 6 0.000000 0.000000 0.000000 0.000000 0.000000 0.041796
#
#
# Mechanical properties :
#
#
# Convention : Reuss Voigt Hill
#
# Bulk Modulus (GPa) = 64.69760 71.50797 68.10278
# Shear Modulus (GPa) = 31.33004 35.26651 33.29827
#
# Velocity S-wave (km/s) = 3.73127 3.95875 3.84669
# Velocity P-wave (km/s) = 6.87848 7.25756 7.07056
#
# Compressibility (1/GPa) = 0.01545652
#
# Stress axis : x y z
#
# Youngs Moduli (GPa) = 109.55964 58.32514 113.35930
#
# Poissons Ratio (x) = 0.20563 0.23582
# Poissons Ratio (y) = 0.38626 0.47758
# Poissons Ratio (z) = 0.22792 0.24572
#
# Static dielectric constant tensor:
#      x y z
#    x 4.145800 0.000000 0.000000 
#    y 0.000000 3.939230 0.000000 
#    z 0.000000 0.000000 4.304090 
# 
# 
# High freq. dielectric constant tensor:
#      x y z
#    x 1.894620 0.000000 0.000000 
#    y 0.000000 1.877790 0.000000 
#    z 0.000000 0.000000 1.896700 
# 
# From -- ./inp_files/12320.got.cif
#   From: 2010.03.12/outbox.cif.g09.slc.cpg/sg20_7_cif.got.tgz:12320.got - 2010.04.14 01:38:04.
