data_PCOD8160818
_publ_section_title
;
Structure prediction by ZEFSAII (Michael W. Deem and Ramdas Pophale) SiO2 
 PCOD8160818
Probable space group: C 2 2 2
;
_chemical_formula_sum "Si O2"
_cell_formula_units_Z 64
_cell_length_a 16.569353
_cell_length_b 20.440927
_cell_length_c 9.312241
_cell_angle_alpha 90.000000
_cell_angle_beta 90.000000
_cell_angle_gamma 90.000000
_cell_volume 3153.990237
_symmetry_space_group_name_H-M "C 2 2 2"
_symmetry_group_IT_number 21
_symmetry_cell_setting 'orthorhombic'
loop_
_space_group_symop_operation_xyz
x,y,z
-x,-y,z
x,-y,-z
-x,y,-z
1/2+x,1/2+y,z
1/2-x,1/2-y,z
1/2+x,1/2-y,-z
1/2-x,1/2+y,-z
loop_
_atom_site_type_symbol
_atom_site_label
_atom_site_fract_x
_atom_site_fract_y
_atom_site_fract_z
Si Si1 0.602225 0.130394 0.162886
Si Si2 0.169650 0.859576 0.988877
Si Si3 0.763132 0.534188 0.860773
Si Si4 0.232877 0.599231 0.730267
Si Si5 0.075623 0.645189 0.835258
Si Si6 0.627862 0.723727 0.760384
Si Si7 0.554786 0.295882 0.781667
Si Si8 0.186509 0.195451 0.451312
O O1 0.669438 0.079038 0.216723
O O2 0.510434 0.112549 0.206061
O O3 0.624768 0.198514 0.237402
O O4 0.607502 0.128294 0.992067
O O5 0.238524 0.856746 0.867137
O O6 0.085965 0.849421 0.899581
O O7 0.182646 0.926540 0.083089
O O8 0.178666 0.800585 0.101992
O O9 0.741224 0.476694 0.748033
O O10 0.803602 0.500000 0.000000
O O11 0.137095 0.613635 0.720165
O O12 0.275025 0.624662 0.585292
O O13 0.067107 0.723179 0.840838
O O14 0.539597 0.690139 0.759537
O O15 0.674624 0.699910 0.620288
O O16 0.601025 0.299032 0.629918
O O17 0.250000 0.250000 0.396207
#
# Coordination Sequence:
#
# PCOD8160818 Si02
#       8
#     8   8   8   8   8   8   8   8
#     4  10  20  31  55  90 123 153 195 254 306 359
#     4  10  20  33  60  84 115 150 196 250 305 343
#     4  10  20  35  52  85 124 161 199 247 294 366
#     4  10  21  38  56  81 123 162 202 237 300 371
#     4  10  17  32  55  85 122 159 191 240 311 366
#     4  11  23  36  58  91 121 144 202 257 306 352
#     4  10  20  38  58  87 120 156 184 250 311 368
#     4  11  23  36  61  86 118 158 202 242 306 356
#
# _framework density 20.291755999999999
#
# number of rings (size 3 to 8) (size 9 to 14) (size 15 to 20)
#    0.000    1.750    5.000    0.750    1.750    1.500 
#    0.000    0.625    0.000   23.250    0.000    7.000 
#    0.000    0.000    0.000    0.000    0.000    0.000 
#
# Total GULP energy -396530.881624 kJ/mol
# GULP energy per Si atom -12391.590051 kJ/mol
# Density = 2.024557 g / cm^3
# Si number density = 20.291756 Si / 1000 Ang^3
#
#
#
# Elastic Constant Matrix: (Units=GPa)
#
#
# Indices 1 2 3 4 5 6 
#
# 1 94.7218 47.4862 25.0759 0.0000 0.0000 0.0000
# 2 47.4862 88.8013 35.3622 0.0000 0.0000 0.0000
# 3 25.0759 35.3622 77.3518 0.0000 0.0000 0.0000
# 4 0.0000 0.0000 0.0000 20.7257 0.0000 0.0000
# 5 0.0000 0.0000 0.0000 0.0000 23.5978 0.0000
# 6 0.0000 0.0000 0.0000 0.0000 0.0000 25.2475
#
#
#
# Elastic Compliance Matrix: (Units=1/GPa)
#
#
# Indices 1 2 3 4 5 6 
#
# 1 0.014550 -0.007216 -0.001418 0.000000 0.000000 0.000000
# 2 -0.007216 0.017346 -0.005591 0.000000 0.000000 0.000000
# 3 -0.001418 -0.005591 0.015943 0.000000 0.000000 0.000000
# 4 0.000000 0.000000 0.000000 0.048249 0.000000 0.000000
# 5 0.000000 0.000000 0.000000 0.000000 0.042377 0.000000
# 6 0.000000 0.000000 0.000000 0.000000 0.000000 0.039608
#
#
# Mechanical properties :
#
#
# Convention : Reuss Voigt Hill
#
# Bulk Modulus (GPa) = 51.57188 52.96928 52.27058
# Shear Modulus (GPa) = 23.47565 24.11090 23.79327
#
# Velocity S-wave (km/s) = 3.40502 3.45078 3.42798
# Velocity P-wave (km/s) = 6.39760 6.48365 6.44077
#
# Compressibility (1/GPa) = 0.01939041
#
# Stress axis : x y z
#
# Youngs Moduli (GPa) = 68.72775 57.64974 62.72161
#
# Poissons Ratio (x) = 0.41600 0.08894
# Poissons Ratio (y) = 0.49594 0.35066
# Poissons Ratio (z) = 0.09746 0.32230
#
# Static dielectric constant tensor:
#      x y z
#    x 3.910490 0.000000 0.000000 
#    y 0.000000 3.690510 0.000000 
#    z 0.000000 0.000000 3.385350 
# 
# 
# High freq. dielectric constant tensor:
#      x y z
#    x 1.796600 0.000000 0.000000 
#    y 0.000000 1.772440 0.000000 
#    z 0.000000 0.000000 1.767050 
# 
# From -- ./inp_files/16848.got.cif
#   From: 2010.03.12/outbox.cif.g09.slc.cpg/sg21_9_cif.got.tgz:16848.got - 2010.04.14 01:59:26.
