data_PCOD8160238
_publ_section_title
;
Structure prediction by ZEFSAII (Michael W. Deem and Ramdas Pophale) SiO2 
 PCOD8160238
Probable space group: C 2 2 21
;
_chemical_formula_sum "Si O2"
_cell_formula_units_Z 32
_cell_length_a 12.319821
_cell_length_b 14.267833
_cell_length_c 7.587252
_cell_angle_alpha 90.000000
_cell_angle_beta 90.000000
_cell_angle_gamma 90.000000
_cell_volume 1333.665522
_symmetry_space_group_name_H-M "C 2 2 21"
_symmetry_group_IT_number 20
_symmetry_cell_setting 'orthorhombic'
loop_
_space_group_symop_operation_xyz
x,y,z
-x,-y,1/2+z
x,-y,-z
-x,y,1/2-z
1/2+x,1/2+y,z
1/2-x,1/2-y,1/2+z
1/2+x,1/2-y,-z
1/2-x,1/2+y,1/2-z
loop_
_atom_site_type_symbol
_atom_site_label
_atom_site_fract_x
_atom_site_fract_y
_atom_site_fract_z
Si Si1 0.568515 0.000000 0.500000
Si Si2 0.742804 0.979071 0.199944
Si Si3 0.872769 0.837233 0.767161
Si Si4 0.690535 0.277693 0.355580
Si Si5 0.000000 0.650407 0.250000
O O1 0.639434 0.976215 0.327483
O O2 0.497192 0.911740 0.568436
O O3 0.803580 0.880859 0.227428
O O4 0.829663 0.057417 0.254158
O O5 0.703762 0.000000 0.000000
O O6 0.808221 0.772525 0.628040
O O7 0.000000 0.838218 0.750000
O O8 0.851428 0.785857 0.949096
O O9 0.608542 0.213299 0.241498
#
# Coordination Sequence:
#
# PCOD8160238 Si02
#       5
#     4   8   8   8   4
#     4  12  26  48  76 110 160 208 264 322 402 470
#     4  10  25  50  75 111 155 202 261 334 396 478
#     4  11  26  49  77 114 153 208 262 331 406 473
#     4  11  26  48  73 114 156 200 266 325 403 483
#     4  12  28  46  74 116 152 220 256 330 402 476
#
# _framework density 23.994021
#
# number of rings (size 3 to 8) (size 9 to 14) (size 15 to 20)
#    0.000    1.000    2.500    1.500    7.000    0.000 
#    6.750    0.000    0.000    0.000    0.000    0.000 
#    0.000    0.000    0.000    0.000    0.000    0.000 
#
# Total GULP energy -198367.384873 kJ/mol
# GULP energy per Si atom -12397.961555 kJ/mol
# Density = 2.393941 g / cm^3
# Si number density = 23.994021 Si / 1000 Ang^3
#
#
#
# Elastic Constant Matrix: (Units=GPa)
#
#
# Indices 1 2 3 4 5 6 
#
# 1 127.7400 81.9293 46.0523 0.0000 0.0000 0.0000
# 2 81.9293 207.4919 70.0912 0.0000 0.0000 0.0000
# 3 46.0523 70.0912 104.0400 0.0000 0.0000 0.0000
# 4 0.0000 0.0000 0.0000 34.4650 0.0000 0.0000
# 5 0.0000 0.0000 0.0000 0.0000 37.9742 0.0000
# 6 0.0000 0.0000 0.0000 0.0000 0.0000 47.8383
#
#
#
# Elastic Compliance Matrix: (Units=1/GPa)
#
#
# Indices 1 2 3 4 5 6 
#
# 1 0.010966 -0.003483 -0.002508 0.000000 0.000000 0.000000
# 2 -0.003483 0.007346 -0.003407 0.000000 0.000000 0.000000
# 3 -0.002508 -0.003407 0.013017 0.000000 0.000000 0.000000
# 4 0.000000 0.000000 0.000000 0.029015 0.000000 0.000000
# 5 0.000000 0.000000 0.000000 0.000000 0.026334 0.000000
# 6 0.000000 0.000000 0.000000 0.000000 0.000000 0.020904
#
#
# Mechanical properties :
#
#
# Convention : Reuss Voigt Hill
#
# Bulk Modulus (GPa) = 79.78550 92.82418 86.30484
# Shear Modulus (GPa) = 38.29814 40.13543 39.21679
#
# Velocity S-wave (km/s) = 3.99952 4.09433 4.04721
# Velocity P-wave (km/s) = 7.39275 7.81804 7.60837
#
# Compressibility (1/GPa) = 0.01253361
#
# Stress axis : x y z
#
# Youngs Moduli (GPa) = 91.18770 136.13482 76.82290
#
# Poissons Ratio (x) = 0.47416 0.19265
# Poissons Ratio (y) = 0.31761 0.26174
# Poissons Ratio (z) = 0.22867 0.46381
#
# Static dielectric constant tensor:
#      x y z
#    x 4.956390 0.000000 0.000000 
#    y 0.000000 4.792680 0.000000 
#    z 0.000000 0.000000 4.449050 
# 
# 
# High freq. dielectric constant tensor:
#      x y z
#    x 1.952410 0.000000 0.000000 
#    y 0.000000 1.973600 0.000000 
#    z 0.000000 0.000000 1.952360 
# 
# From -- ./inp_files/6822.got.cif
#   From: 2010.03.12/outbox.cif.g09.slc.cpg/sg20_4_cif.got.tgz:6822.got - 2010.04.14 01:38:04.
