data_PCOD8160633
_publ_section_title
;
Structure prediction by ZEFSAII (Michael W. Deem and Ramdas Pophale) SiO2 
 PCOD8160633
Probable space group: C 2 2 21
;
_chemical_formula_sum "Si O2"
_cell_formula_units_Z 32
_cell_length_a 5.019384
_cell_length_b 29.619045
_cell_length_c 8.751854
_cell_angle_alpha 90.000000
_cell_angle_beta 90.000000
_cell_angle_gamma 90.000000
_cell_volume 1301.132538
_symmetry_space_group_name_H-M "C 2 2 21"
_symmetry_group_IT_number 20
_symmetry_cell_setting 'orthorhombic'
loop_
_space_group_symop_operation_xyz
x,y,z
-x,-y,1/2+z
x,-y,-z
-x,y,1/2-z
1/2+x,1/2+y,z
1/2-x,1/2-y,1/2+z
1/2+x,1/2-y,-z
1/2-x,1/2+y,1/2-z
loop_
_atom_site_type_symbol
_atom_site_label
_atom_site_fract_x
_atom_site_fract_y
_atom_site_fract_z
Si Si1 0.070823 0.457043 0.574308
Si Si2 0.753546 0.088206 0.851416
Si Si3 0.896664 0.232622 0.417625
Si Si4 0.911983 0.130543 0.418020
O O1 0.228520 0.500000 0.500000
O O2 0.204704 0.408695 0.539086
O O3 0.000000 0.465411 0.750000
O O4 0.807643 0.453347 0.467098
O O5 0.500000 0.103451 0.750000
O O6 0.000000 0.071474 0.750000
O O7 0.847559 0.130186 0.958665
O O8 0.140136 0.238058 0.536534
O O9 0.000000 0.247172 0.250000
O O10 0.792311 0.180827 0.417721
O O11 0.000000 0.116631 0.250000
#
# Coordination Sequence:
#
# PCOD8160633 Si02
#       4
#     8   8   8   8
#     4  12  27  50  79 114 154 206 261 316 374 452
#     4  12  26  47  74 113 149 196 254 316 374 440
#     4  11  27  49  80 116 153 197 252 314 386 457
#     4  11  26  50  81 108 157 207 252 307 390 460
#
# _framework density 24.593958000000001
#
# number of rings (size 3 to 8) (size 9 to 14) (size 15 to 20)
#    0.000    0.500    5.000    1.500    3.500    4.000 
#    4.500    0.000    0.000    0.000    0.000    0.000 
#    0.000    0.000    0.000    0.000    0.000    0.000 
#
# Total GULP energy -198265.015922 kJ/mol
# GULP energy per Si atom -12391.563495 kJ/mol
# Density = 2.453798 g / cm^3
# Si number density = 24.593958 Si / 1000 Ang^3
#
#
#
# Elastic Constant Matrix: (Units=GPa)
#
#
# Indices 1 2 3 4 5 6 
#
# 1 116.5016 38.5786 55.4784 0.0000 0.0000 0.0000
# 2 38.5786 124.1443 48.5599 0.0000 0.0000 0.0000
# 3 55.4784 48.5599 187.9645 0.0000 0.0000 0.0000
# 4 0.0000 0.0000 0.0000 30.1885 0.0000 0.0000
# 5 0.0000 0.0000 0.0000 0.0000 37.4502 0.0000
# 6 0.0000 0.0000 0.0000 0.0000 0.0000 118.9144
#
#
#
# Elastic Compliance Matrix: (Units=1/GPa)
#
#
# Indices 1 2 3 4 5 6 
#
# 1 0.010542 -0.002290 -0.002520 0.000000 0.000000 0.000000
# 2 -0.002290 0.009458 -0.001767 0.000000 0.000000 0.000000
# 3 -0.002520 -0.001767 0.006521 0.000000 0.000000 0.000000
# 4 0.000000 0.000000 0.000000 0.033125 0.000000 0.000000
# 5 0.000000 0.000000 0.000000 0.000000 0.026702 0.000000
# 6 0.000000 0.000000 0.000000 0.000000 0.000000 0.008409
#
#
# Mechanical properties :
#
#
# Convention : Reuss Voigt Hill
#
# Bulk Modulus (GPa) = 74.81989 79.31603 77.06796
# Shear Modulus (GPa) = 44.49673 56.37686 50.43679
#
# Velocity S-wave (km/s) = 4.25815 4.79300 4.53347
# Velocity P-wave (km/s) = 7.39350 7.93414 7.66859
#
# Compressibility (1/GPa) = 0.01336543
#
# Stress axis : x y z
#
# Youngs Moduli (GPa) = 94.85929 105.72778 153.36242
#
# Poissons Ratio (x) = 0.24215 0.38644
# Poissons Ratio (y) = 0.21726 0.27107
# Poissons Ratio (z) = 0.23903 0.18687
#
# Static dielectric constant tensor:
#      x y z
#    x 4.426980 0.000000 0.000000 
#    y 0.000000 4.283450 0.000000 
#    z 0.000000 0.000000 3.607600 
# 
# 
# High freq. dielectric constant tensor:
#      x y z
#    x 1.965550 0.000000 0.000000 
#    y 0.000000 1.965040 0.000000 
#    z 0.000000 0.000000 2.015590 
# 
# From -- ./inp_files/5135.got.cif
#   From: 2010.03.12/outbox.cif.g09.slc.cpg/sg20_3_cif.got.tgz:5135.got - 2010.04.14 01:38:04.
