data_PCOD8160443
_publ_section_title
;
Structure prediction by ZEFSAII (Michael W. Deem and Ramdas Pophale) SiO2 
 PCOD8160443
Probable space group: C 2 2 21
;
_chemical_formula_sum "Si O2"
_cell_formula_units_Z 48
_cell_length_a 6.441715
_cell_length_b 23.993881
_cell_length_c 13.468703
_cell_angle_alpha 90.000000
_cell_angle_beta 90.000000
_cell_angle_gamma 90.000000
_cell_volume 2081.746214
_symmetry_space_group_name_H-M "C 2 2 21"
_symmetry_group_IT_number 20
_symmetry_cell_setting 'orthorhombic'
loop_
_space_group_symop_operation_xyz
x,y,z
-x,-y,1/2+z
x,-y,-z
-x,y,1/2-z
1/2+x,1/2+y,z
1/2-x,1/2-y,1/2+z
1/2+x,1/2-y,-z
1/2-x,1/2+y,1/2-z
loop_
_atom_site_type_symbol
_atom_site_label
_atom_site_fract_x
_atom_site_fract_y
_atom_site_fract_z
Si Si1 0.455410 0.581024 0.546701
Si Si2 0.000000 0.724300 0.750000
Si Si3 0.193857 0.500000 0.000000
Si Si4 0.880933 0.492793 0.161310
Si Si5 0.662647 0.301851 0.104372
Si Si6 0.813459 0.285494 0.884991
Si Si7 0.178155 0.897976 0.824754
O O1 0.673296 0.548946 0.552164
O O2 0.277495 0.547548 0.604951
O O3 0.476699 0.642458 0.594046
O O4 0.410252 0.585094 0.431356
O O5 0.829560 0.687359 0.808184
O O6 0.892288 0.761311 0.665516
O O7 0.042692 0.521793 0.086010
O O8 0.774770 0.545185 0.217610
O O9 0.000000 0.459508 0.250000
O O10 0.517639 0.250550 0.138091
O O11 0.780390 0.287430 0.002997
O O12 0.843681 0.347783 0.840577
O O13 0.000000 0.877363 0.750000
#
# Coordination Sequence:
#
# PCOD8160443 Si02
#       7
#     8   4   4   8   8   8   8
#     4  11  25  47  69 106 152 186 248 297 370 436
#     4  12  24  48  70 102 146 190 244 292 368 432
#     4  12  22  48  72  98 148 182 232 314 348 434
#     4  12  26  43  72 108 142 195 240 295 376 441
#     4  11  26  45  74 104 146 196 237 306 359 446
#     4  11  24  46  73 106 144 185 249 300 368 428
#     4  11  22  46  74 106 140 192 244 311 363 435
#
# _framework density 23.057563999999999
#
# number of rings (size 3 to 8) (size 9 to 14) (size 15 to 20)
#    0.000    0.667    5.833    1.500    1.167    4.000 
#    3.000    0.000    0.000    0.000    0.000    0.000 
#    0.000    0.000    0.000    0.000    0.000    0.000 
#
# Total GULP energy -297536.914782 kJ/mol
# GULP energy per Si atom -12397.371449 kJ/mol
# Density = 2.300508 g / cm^3
# Si number density = 23.057564 Si / 1000 Ang^3
#
#
#
# Elastic Constant Matrix: (Units=GPa)
#
#
# Indices 1 2 3 4 5 6 
#
# 1 96.4181 33.2178 39.6977 0.0000 0.0000 0.0000
# 2 33.2178 111.1043 25.1895 0.0000 0.0000 0.0000
# 3 39.6977 25.1895 114.7006 0.0000 0.0000 0.0000
# 4 0.0000 0.0000 0.0000 14.0014 0.0000 0.0000
# 5 0.0000 0.0000 0.0000 0.0000 48.2174 0.0000
# 6 0.0000 0.0000 0.0000 0.0000 0.0000 22.2209
#
#
#
# Elastic Compliance Matrix: (Units=1/GPa)
#
#
# Indices 1 2 3 4 5 6 
#
# 1 0.012988 -0.003014 -0.003833 0.000000 0.000000 0.000000
# 2 -0.003014 0.010172 -0.001191 0.000000 0.000000 0.000000
# 3 -0.003833 -0.001191 0.010307 0.000000 0.000000 0.000000
# 4 0.000000 0.000000 0.000000 0.071421 0.000000 0.000000
# 5 0.000000 0.000000 0.000000 0.000000 0.020739 0.000000
# 6 0.000000 0.000000 0.000000 0.000000 0.000000 0.045003
#
#
# Mechanical properties :
#
#
# Convention : Reuss Voigt Hill
#
# Bulk Modulus (GPa) = 57.50319 57.60367 57.55343
# Shear Modulus (GPa) = 25.97367 31.82914 28.90140
#
# Velocity S-wave (km/s) = 3.35993 3.71943 3.54424
# Velocity P-wave (km/s) = 6.32814 6.59411 6.46249
#
# Compressibility (1/GPa) = 0.01739034
#
# Stress axis : x y z
#
# Youngs Moduli (GPa) = 76.99320 98.31256 97.02601
#
# Poissons Ratio (x) = 0.29632 0.37193
# Poissons Ratio (y) = 0.23207 0.11552
# Poissons Ratio (z) = 0.29513 0.11705
#
# Static dielectric constant tensor:
#      x y z
#    x 4.136630 0.000000 0.000000 
#    y 0.000000 4.193460 0.000000 
#    z 0.000000 0.000000 4.284640 
# 
# 
# High freq. dielectric constant tensor:
#      x y z
#    x 1.904760 0.000000 0.000000 
#    y 0.000000 1.903130 0.000000 
#    z 0.000000 0.000000 1.931650 
# 
# From -- ./inp_files/17814.got.cif
#   From: 2010.03.12/outbox.cif.g09.slc.cpg/sg20_9_cif.got.tgz:17814.got - 2010.04.14 01:38:04.
