data_PCOD8160722
_publ_section_title
;
Structure prediction by ZEFSAII (Michael W. Deem and Ramdas Pophale) SiO2 
 PCOD8160722
Probable space group: C 2 2 21
;
_chemical_formula_sum "Si O2"
_cell_formula_units_Z 32
_cell_length_a 20.893774
_cell_length_b 6.753862
_cell_length_c 9.997761
_cell_angle_alpha 90.000000
_cell_angle_beta 90.000000
_cell_angle_gamma 90.000000
_cell_volume 1410.820709
_symmetry_space_group_name_H-M "C 2 2 21"
_symmetry_group_IT_number 20
_symmetry_cell_setting 'orthorhombic'
loop_
_space_group_symop_operation_xyz
x,y,z
-x,-y,1/2+z
x,-y,-z
-x,y,1/2-z
1/2+x,1/2+y,z
1/2-x,1/2-y,1/2+z
1/2+x,1/2-y,-z
1/2-x,1/2+y,1/2-z
loop_
_atom_site_type_symbol
_atom_site_label
_atom_site_fract_x
_atom_site_fract_y
_atom_site_fract_z
Si Si1 0.500000 0.193675 0.250000
Si Si2 0.659286 0.213017 0.823752
Si Si3 0.390104 0.544290 0.855125
Si Si4 0.206699 0.616885 0.368487
Si Si5 0.563419 0.000000 0.000000
O O1 0.561178 0.328373 0.270136
O O2 0.483833 0.062985 0.380002
O O3 0.620920 0.333018 0.712097
O O4 0.717324 0.349291 0.874339
O O5 0.684981 0.006718 0.761687
O O6 0.610714 0.172361 0.946089
O O7 0.324365 0.666381 0.867495
O O8 0.419800 0.500000 0.000000
O O9 0.184870 0.500000 0.500000
#
# Coordination Sequence:
#
# PCOD8160722 Si02
#       5
#     4   8   8   8   4
#     4  12  32  52  78 108 154 208 264 314 376 460
#     4  12  28  48  76 114 155 198 254 319 393 459
#     4  12  28  49  77 109 149 208 256 315 385 455
#     4  12  26  47  75 113 156 194 253 321 389 463
#     4  12  32  52  80 112 156 206 266 322 378 460
#
# _framework density 22.681833999999998
#
# number of rings (size 3 to 8) (size 9 to 14) (size 15 to 20)
#    0.000    0.000    7.500    0.000   17.500    0.000 
#    0.000    0.000    0.000    0.000    0.000    0.000 
#    0.000    0.000    0.000    0.000    0.000    0.000 
#
# Total GULP energy -198491.553055 kJ/mol
# GULP energy per Si atom -12405.722066 kJ/mol
# Density = 2.263021 g / cm^3
# Si number density = 22.681834 Si / 1000 Ang^3
#
#
#
# Elastic Constant Matrix: (Units=GPa)
#
#
# Indices 1 2 3 4 5 6 
#
# 1 92.8724 25.6732 36.7830 0.0000 0.0000 0.0000
# 2 25.6732 96.9365 45.1345 0.0000 0.0000 0.0000
# 3 36.7830 45.1345 130.0894 0.0000 0.0000 0.0000
# 4 0.0000 0.0000 0.0000 52.2666 0.0000 0.0000
# 5 0.0000 0.0000 0.0000 0.0000 41.9999 0.0000
# 6 0.0000 0.0000 0.0000 0.0000 0.0000 23.7772
#
#
#
# Elastic Compliance Matrix: (Units=1/GPa)
#
#
# Indices 1 2 3 4 5 6 
#
# 1 0.012435 -0.001975 -0.002831 0.000000 0.000000 0.000000
# 2 -0.001975 0.012617 -0.003819 0.000000 0.000000 0.000000
# 3 -0.002831 -0.003819 0.009812 0.000000 0.000000 0.000000
# 4 0.000000 0.000000 0.000000 0.019133 0.000000 0.000000
# 5 0.000000 0.000000 0.000000 0.000000 0.023810 0.000000
# 6 0.000000 0.000000 0.000000 0.000000 0.000000 0.042057
#
#
# Mechanical properties :
#
#
# Convention : Reuss Voigt Hill
#
# Bulk Modulus (GPa) = 56.77157 59.45332 58.11244
# Shear Modulus (GPa) = 34.96867 37.76258 36.36562
#
# Velocity S-wave (km/s) = 3.93071 4.08472 4.00846
# Velocity P-wave (km/s) = 6.75903 6.96530 6.86294
#
# Compressibility (1/GPa) = 0.01761445
#
# Stress axis : x y z
#
# Youngs Moduli (GPa) = 80.42091 79.25574 101.91190
#
# Poissons Ratio (x) = 0.15655 0.28847
# Poissons Ratio (y) = 0.15886 0.38921
# Poissons Ratio (z) = 0.22764 0.30268
#
# Static dielectric constant tensor:
#      x y z
#    x 4.103270 0.000000 0.000000 
#    y 0.000000 4.034770 0.000000 
#    z 0.000000 0.000000 4.208000 
# 
# 
# High freq. dielectric constant tensor:
#      x y z
#    x 1.898150 0.000000 0.000000 
#    y 0.000000 1.899830 0.000000 
#    z 0.000000 0.000000 1.904070 
# 
# From -- ./inp_files/11950.got.cif
#   From: 2010.03.12/outbox.cif.g09.slc.cpg/sg20_6_cif.got.tgz:11950.got - 2010.04.14 01:38:04.
