data_PCOD8160418
_publ_section_title
;
Structure prediction by ZEFSAII (Michael W. Deem and Ramdas Pophale) SiO2 
 PCOD8160418
Probable space group: C 2 2 21
;
_chemical_formula_sum "Si O2"
_cell_formula_units_Z 60
_cell_length_a 17.008893
_cell_length_b 20.205785
_cell_length_c 8.040412
_cell_angle_alpha 90.000000
_cell_angle_beta 90.000000
_cell_angle_gamma 90.000000
_cell_volume 2763.312997
_symmetry_space_group_name_H-M "C 2 2 21"
_symmetry_group_IT_number 20
_symmetry_cell_setting 'orthorhombic'
loop_
_space_group_symop_operation_xyz
x,y,z
-x,-y,1/2+z
x,-y,-z
-x,y,1/2-z
1/2+x,1/2+y,z
1/2-x,1/2-y,1/2+z
1/2+x,1/2-y,-z
1/2-x,1/2+y,1/2-z
loop_
_atom_site_type_symbol
_atom_site_label
_atom_site_fract_x
_atom_site_fract_y
_atom_site_fract_z
Si Si1 0.923082 0.380249 0.152186
Si Si2 0.158687 0.723536 0.867510
Si Si3 0.669058 0.000000 0.500000
Si Si4 0.432621 0.221039 0.129676
Si Si5 0.763272 0.962408 0.821241
Si Si6 0.476235 0.310993 0.565141
Si Si7 0.075342 0.045922 0.150207
Si Si8 0.726777 0.812481 0.811773
O O1 0.862173 0.346371 0.280964
O O2 0.000000 0.408000 0.250000
O O3 0.885837 0.436683 0.034445
O O4 0.947719 0.320970 0.034772
O O5 0.090256 0.756893 0.978527
O O6 0.191217 0.780907 0.746705
O O7 0.226541 0.708028 0.997315
O O8 0.722301 0.999399 0.666551
O O9 0.500000 0.194197 0.250000
O O10 0.345450 0.215423 0.202354
O O11 0.453413 0.297189 0.068749
O O12 0.855547 0.951926 0.785998
O O13 0.723036 0.891256 0.813724
O O14 0.750739 0.000000 0.000000
O O15 0.500000 0.292350 0.750000
O O16 0.443938 0.385062 0.559402
O O17 0.000000 0.019115 0.250000
O O18 0.101333 0.000000 0.000000
#
# Coordination Sequence:
#
# PCOD8160418 Si02
#       8
#     8   8   4   8   8   8   8   8
#     4  12  24  47  72 102 141 189 245 299 371 440
#     4  12  23  43  69 104 137 184 234 302 362 433
#     4  12  28  48  74 104 152 202 244 310 376 450
#     4  12  22  41  69 104 141 180 235 300 357 437
#     4  12  26  49  74 107 151 199 251 308 369 454
#     4  11  22  42  70  95 137 183 226 294 362 409
#     4  11  25  46  71 103 147 194 247 304 369 449
#     4  12  26  42  71 107 145 184 242 297 374 441
#
# _framework density 21.713066000000001
#
# number of rings (size 3 to 8) (size 9 to 14) (size 15 to 20)
#    0.000    0.267    7.333    2.000    0.000    1.067 
#    6.000    0.000    0.000    0.000    0.000    0.000 
#    0.000    0.000    0.000    0.000    0.000    0.000 
#
# Total GULP energy -371766.110582 kJ/mol
# GULP energy per Si atom -12392.203686 kJ/mol
# Density = 2.166365 g / cm^3
# Si number density = 21.713066 Si / 1000 Ang^3
#
#
#
# Elastic Constant Matrix: (Units=GPa)
#
#
# Indices 1 2 3 4 5 6 
#
# 1 99.2728 36.7277 41.2100 0.0000 0.0000 0.0000
# 2 36.7277 101.5199 46.2084 0.0000 0.0000 0.0000
# 3 41.2100 46.2084 119.0704 0.0000 0.0000 0.0000
# 4 0.0000 0.0000 0.0000 33.1315 0.0000 0.0000
# 5 0.0000 0.0000 0.0000 0.0000 43.3372 0.0000
# 6 0.0000 0.0000 0.0000 0.0000 0.0000 29.8605
#
#
#
# Elastic Compliance Matrix: (Units=1/GPa)
#
#
# Indices 1 2 3 4 5 6 
#
# 1 0.012521 -0.003106 -0.003128 0.000000 0.000000 0.000000
# 2 -0.003106 0.012734 -0.003867 0.000000 0.000000 0.000000
# 3 -0.003128 -0.003867 0.010982 0.000000 0.000000 0.000000
# 4 0.000000 0.000000 0.000000 0.030183 0.000000 0.000000
# 5 0.000000 0.000000 0.000000 0.000000 0.023075 0.000000
# 6 0.000000 0.000000 0.000000 0.000000 0.000000 0.033489
#
#
# Mechanical properties :
#
#
# Convention : Reuss Voigt Hill
#
# Bulk Modulus (GPa) = 62.36441 63.12835 62.74638
# Shear Modulus (GPa) = 33.66329 34.31366 33.98848
#
# Velocity S-wave (km/s) = 3.94175 3.97964 3.96074
# Velocity P-wave (km/s) = 7.03569 7.08899 7.06239
#
# Compressibility (1/GPa) = 0.01603479
#
# Stress axis : x y z
#
# Youngs Moduli (GPa) = 79.86651 78.52997 91.06120
#
# Poissons Ratio (x) = 0.24391 0.28485
# Poissons Ratio (y) = 0.24806 0.35211
# Poissons Ratio (z) = 0.24983 0.30366
#
# Static dielectric constant tensor:
#      x y z
#    x 3.984940 0.000000 0.000000 
#    y 0.000000 4.000430 0.000000 
#    z 0.000000 0.000000 4.059870 
# 
# 
# High freq. dielectric constant tensor:
#      x y z
#    x 1.861080 0.000000 0.000000 
#    y 0.000000 1.844160 0.000000 
#    z 0.000000 0.000000 1.868930 
# 
# From -- ./inp_files/9605.got.cif
#   From: 2010.03.12/outbox.cif.g09.slc.cpg/sg20_5_cif.got.tgz:9605.got - 2010.04.14 01:38:04.
