data_PCOD8160174
_publ_section_title
;
Structure prediction by ZEFSAII (Michael W. Deem and Ramdas Pophale) SiO2 
 PCOD8160174
Probable space group: C 2 2 21
;
_chemical_formula_sum "Si O2"
_cell_formula_units_Z 32
_cell_length_a 14.830378
_cell_length_b 7.609718
_cell_length_c 10.765801
_cell_angle_alpha 90.000000
_cell_angle_beta 90.000000
_cell_angle_gamma 90.000000
_cell_volume 1214.974412
_symmetry_space_group_name_H-M "C 2 2 21"
_symmetry_group_IT_number 20
_symmetry_cell_setting 'orthorhombic'
loop_
_space_group_symop_operation_xyz
x,y,z
-x,-y,1/2+z
x,-y,-z
-x,y,1/2-z
1/2+x,1/2+y,z
1/2-x,1/2-y,1/2+z
1/2+x,1/2-y,-z
1/2-x,1/2+y,1/2-z
loop_
_atom_site_type_symbol
_atom_site_label
_atom_site_fract_x
_atom_site_fract_y
_atom_site_fract_z
Si Si1 0.097985 0.343529 0.908165
Si Si2 0.233718 0.818381 0.920424
Si Si3 0.921668 0.800884 0.005062
Si Si4 0.844296 0.593848 0.795525
O O1 0.123054 0.414237 0.771216
O O2 0.119373 0.500000 0.000000
O O3 0.161359 0.188432 0.964815
O O4 0.993014 0.291657 0.903846
O O5 0.190920 0.745110 0.794001
O O6 0.267451 0.021737 0.892676
O O7 0.320145 0.695915 0.945364
O O8 0.923412 0.690697 0.874869
O O9 0.955333 0.000000 0.000000
#
# Coordination Sequence:
#
# PCOD8160174 Si02
#       4
#     8   8   8   8
#     4  10  24  45  70 104 145 192 243 291 355 432
#     4  11  23  43  72 106 144 194 241 289 358 431
#     4  12  26  45  71 107 145 189 243 294 353 433
#     4  11  24  46  74 104 149 193 233 303 363 413
#
# _framework density 26.338003
#
# number of rings (size 3 to 8) (size 9 to 14) (size 15 to 20)
#    0.000    1.000    0.000    7.500    0.000   13.000 
#    0.000    5.000    0.000    0.000    0.000    0.000 
#    0.000    0.000    0.000    0.000    0.000    0.000 
#
# Total GULP energy -198308.019240 kJ/mol
# GULP energy per Si atom -12394.251203 kJ/mol
# Density = 2.627806 g / cm^3
# Si number density = 26.338003 Si / 1000 Ang^3
#
#
#
# Elastic Constant Matrix: (Units=GPa)
#
#
# Indices 1 2 3 4 5 6 
#
# 1 141.2143 26.1234 44.2970 0.0000 0.0000 0.0000
# 2 26.1234 132.5907 59.9453 0.0000 0.0000 0.0000
# 3 44.2970 59.9453 114.1242 0.0000 0.0000 0.0000
# 4 0.0000 0.0000 0.0000 38.0903 0.0000 0.0000
# 5 0.0000 0.0000 0.0000 0.0000 43.0487 0.0000
# 6 0.0000 0.0000 0.0000 0.0000 0.0000 34.7123
#
#
#
# Elastic Compliance Matrix: (Units=1/GPa)
#
#
# Indices 1 2 3 4 5 6 
#
# 1 0.008068 -0.000228 -0.003012 0.000000 0.000000 0.000000
# 2 -0.000228 0.009897 -0.005110 0.000000 0.000000 0.000000
# 3 -0.003012 -0.005110 0.012616 0.000000 0.000000 0.000000
# 4 0.000000 0.000000 0.000000 0.026253 0.000000 0.000000
# 5 0.000000 0.000000 0.000000 0.000000 0.023229 0.000000
# 6 0.000000 0.000000 0.000000 0.000000 0.000000 0.028808
#
#
# Mechanical properties :
#
#
# Convention : Reuss Voigt Hill
#
# Bulk Modulus (GPa) = 72.04035 72.07340 72.05687
# Shear Modulus (GPa) = 38.40250 40.34117 39.37184
#
# Velocity S-wave (km/s) = 3.82260 3.91790 3.87055
# Velocity P-wave (km/s) = 6.84797 6.92032 6.88424
#
# Compressibility (1/GPa) = 0.01388111
#
# Stress axis : x y z
#
# Youngs Moduli (GPa) = 123.93992 101.03783 79.26627
#
# Poissons Ratio (x) = 0.02303 0.23875
# Poissons Ratio (y) = 0.02825 0.40507
# Poissons Ratio (z) = 0.37331 0.51633
#
# Static dielectric constant tensor:
#      x y z
#    x 4.528060 0.000000 0.000000 
#    y 0.000000 4.812150 0.000000 
#    z 0.000000 0.000000 5.218860 
# 
# 
# High freq. dielectric constant tensor:
#      x y z
#    x 2.056880 0.000000 0.000000 
#    y 0.000000 2.063430 0.000000 
#    z 0.000000 0.000000 2.074720 
# 
# From -- ./inp_files/14650.got.cif
#   From: 2010.03.12/outbox.cif.g09.slc.cpg/sg20_8_cif.got.tgz:14650.got - 2010.04.14 01:38:04.
