data_PCOD8160549
_publ_section_title
;
Structure prediction by ZEFSAII (Michael W. Deem and Ramdas Pophale) SiO2 
 PCOD8160549
Probable space group: C 2 2 21
;
_chemical_formula_sum "Si O2"
_cell_formula_units_Z 40
_cell_length_a 14.331974
_cell_length_b 11.888637
_cell_length_c 11.086941
_cell_angle_alpha 90.000000
_cell_angle_beta 90.000000
_cell_angle_gamma 90.000000
_cell_volume 1889.077672
_symmetry_space_group_name_H-M "C 2 2 21"
_symmetry_group_IT_number 20
_symmetry_cell_setting 'orthorhombic'
loop_
_space_group_symop_operation_xyz
x,y,z
-x,-y,1/2+z
x,-y,-z
-x,y,1/2-z
1/2+x,1/2+y,z
1/2-x,1/2-y,1/2+z
1/2+x,1/2-y,-z
1/2-x,1/2+y,1/2-z
loop_
_atom_site_type_symbol
_atom_site_label
_atom_site_fract_x
_atom_site_fract_y
_atom_site_fract_z
Si Si1 0.332221 0.830209 0.473139
Si Si2 0.719288 0.109808 0.422810
Si Si3 0.754216 0.487559 0.664172
Si Si4 0.545750 0.451614 0.369390
Si Si5 0.017331 0.692878 0.383755
O O1 0.297134 0.703225 0.454215
O O2 0.260480 0.891230 0.563330
O O3 0.436195 0.841469 0.524083
O O4 0.327295 0.907753 0.351974
O O5 0.728624 0.077323 0.285618
O O6 0.614388 0.153965 0.443788
O O7 0.741202 0.000000 0.500000
O O8 0.654479 0.544537 0.654711
O O9 0.515240 0.500000 0.500000
O O10 0.500000 0.511849 0.250000
O O11 0.511883 0.325080 0.371147
O O12 0.000000 0.639360 0.250000
#
# Coordination Sequence:
#
# PCOD8160549 Si02
#       5
#     8   8   8   8   8
#     4  11  25  48  74  99 142 192 233 292 371 413
#     4  12  28  41  73 108 140 185 247 293 356 432
#     4  11  24  48  73  96 149 186 236 300 359 428
#     4  11  24  43  70 101 138 187 241 300 358 430
#     4  11  24  45  70  98 145 185 241 297 358 434
#
# _framework density 21.174354000000001
#
# number of rings (size 3 to 8) (size 9 to 14) (size 15 to 20)
#    0.000    0.800    6.000    0.000   14.000    0.000 
#    0.000    0.000    0.000    0.000    0.000    0.000 
#    0.000    0.000    0.000    0.000    0.000    0.000 
#
# Total GULP energy -247916.277235 kJ/mol
# GULP energy per Si atom -12395.813862 kJ/mol
# Density = 2.112616 g / cm^3
# Si number density = 21.174354 Si / 1000 Ang^3
#
#
#
# Elastic Constant Matrix: (Units=GPa)
#
#
# Indices 1 2 3 4 5 6 
#
# 1 82.0246 15.9764 53.2129 0.0000 0.0000 0.0000
# 2 15.9764 108.6397 46.9538 0.0000 0.0000 0.0000
# 3 53.2129 46.9538 98.8390 0.0000 0.0000 0.0000
# 4 0.0000 0.0000 0.0000 -30.3021 0.0000 0.0000
# 5 0.0000 0.0000 0.0000 0.0000 31.0905 0.0000
# 6 0.0000 0.0000 0.0000 0.0000 0.0000 33.6965
#
#
#
# Elastic Compliance Matrix: (Units=1/GPa)
#
#
# Indices 1 2 3 4 5 6 
#
# 1 0.019094 0.002057 -0.011257 0.000000 0.000000 0.000000
# 2 0.002057 0.011805 -0.006715 0.000000 0.000000 0.000000
# 3 -0.011257 -0.006715 0.019368 0.000000 0.000000 0.000000
# 4 0.000000 0.000000 0.000000 -0.033001 0.000000 0.000000
# 5 0.000000 0.000000 0.000000 0.000000 0.032164 0.000000
# 6 0.000000 0.000000 0.000000 0.000000 0.000000 0.029677
#
#
# Mechanical properties :
#
#
# Convention : Reuss Voigt Hill
#
# Bulk Modulus (GPa) = 54.24091 57.97659 56.10875
# Shear Modulus (GPa) = 42.70519 18.45431 30.57975
#
# Velocity S-wave (km/s) = 4.49579 2.95539 3.80437
# Velocity P-wave (km/s) = 7.25406 6.25186 6.77153
#
# Compressibility (1/GPa) = 0.01843627
#
# Stress axis : x y z
#
# Youngs Moduli (GPa) = 52.37351 84.71285 51.63108
#
# Poissons Ratio (x) = -0.17428 0.58121
# Poissons Ratio (y) = -0.10775 0.34673
# Poissons Ratio (z) = 0.58957 0.56888
#
# Static dielectric constant tensor:
#      x y z
#    x 3.843150 0.000000 0.000000 
#    y 0.000000 3.945150 0.000000 
#    z 0.000000 0.000000 3.947430 
# 
# 
# High freq. dielectric constant tensor:
#      x y z
#    x 1.832940 0.000000 0.000000 
#    y 0.000000 1.832280 0.000000 
#    z 0.000000 0.000000 1.836030 
# 
# From -- ./inp_files/13854.got.cif
#   From: 2010.03.12/outbox.cif.g09.slc.cpg/sg20_7_cif.got.tgz:13854.got - 2010.04.14 01:38:04.
