data_PCOD8160755
_publ_section_title
;
Structure prediction by ZEFSAII (Michael W. Deem and Ramdas Pophale) SiO2 
 PCOD8160755
Probable space group: C 2 2 21
;
_chemical_formula_sum "Si O2"
_cell_formula_units_Z 24
_cell_length_a 12.786045
_cell_length_b 8.028916
_cell_length_c 8.843281
_cell_angle_alpha 90.000000
_cell_angle_beta 90.000000
_cell_angle_gamma 90.000000
_cell_volume 907.834260
_symmetry_space_group_name_H-M "C 2 2 21"
_symmetry_group_IT_number 20
_symmetry_cell_setting 'orthorhombic'
loop_
_space_group_symop_operation_xyz
x,y,z
-x,-y,1/2+z
x,-y,-z
-x,y,1/2-z
1/2+x,1/2+y,z
1/2-x,1/2-y,1/2+z
1/2+x,1/2-y,-z
1/2-x,1/2+y,1/2-z
loop_
_atom_site_type_symbol
_atom_site_label
_atom_site_fract_x
_atom_site_fract_y
_atom_site_fract_z
Si Si1 0.700867 0.896105 0.861586
Si Si2 0.392177 0.184162 0.823835
Si Si3 0.986888 0.180003 0.573899
O O1 0.795911 0.803596 0.778256
O O2 0.624071 0.770272 0.950095
O O3 0.636932 0.999822 0.734374
O O4 0.750361 0.000000 0.000000
O O5 0.500000 0.249849 0.750000
O O6 0.420034 0.201976 0.003292
O O7 0.000000 0.157125 0.750000
O O8 0.986080 0.000000 0.500000
#
# Coordination Sequence:
#
# PCOD8160755 Si02
#       3
#     8   8   8
#     4  12  30  54  86 133 173 236 297 367 445 530
#     4  12  29  58  85 128 180 231 298 361 445 526
#     4  12  30  54  88 129 177 236 295 365 445 526
#
# _framework density 26.436541999999999
#
# number of rings (size 3 to 8) (size 9 to 14) (size 15 to 20)
#    0.000    0.000    3.333    3.000   14.000    0.000 
#    6.000    0.000    0.000    0.000    0.000    0.000 
#    0.000    0.000    0.000    0.000    0.000    0.000 
#
# Total GULP energy -148770.593892 kJ/mol
# GULP energy per Si atom -12397.549491 kJ/mol
# Density = 2.637637 g / cm^3
# Si number density = 26.436542 Si / 1000 Ang^3
#
#
#
# Elastic Constant Matrix: (Units=GPa)
#
#
# Indices 1 2 3 4 5 6 
#
# 1 179.9615 62.7379 36.3027 0.0000 0.0000 0.0000
# 2 62.7379 84.6965 55.3973 0.0000 0.0000 0.0000
# 3 36.3027 55.3973 144.8060 0.0000 0.0000 0.0000
# 4 0.0000 0.0000 0.0000 51.0096 0.0000 0.0000
# 5 0.0000 0.0000 0.0000 0.0000 46.0573 0.0000
# 6 0.0000 0.0000 0.0000 0.0000 0.0000 46.3963
#
#
#
# Elastic Compliance Matrix: (Units=1/GPa)
#
#
# Indices 1 2 3 4 5 6 
#
# 1 0.007503 -0.005772 0.000327 0.000000 0.000000 0.000000
# 2 -0.005772 0.020187 -0.006276 0.000000 0.000000 0.000000
# 3 0.000327 -0.006276 0.009225 0.000000 0.000000 0.000000
# 4 0.000000 0.000000 0.000000 0.019604 0.000000 0.000000
# 5 0.000000 0.000000 0.000000 0.000000 0.021712 0.000000
# 6 0.000000 0.000000 0.000000 0.000000 0.000000 0.021553
#
#
# Mechanical properties :
#
#
# Convention : Reuss Voigt Hill
#
# Bulk Modulus (GPa) = 74.21842 79.81554 77.01698
# Shear Modulus (GPa) = 39.14938 45.69439 42.42189
#
# Velocity S-wave (km/s) = 3.85240 4.16198 4.01018
# Velocity P-wave (km/s) = 6.92265 7.30432 7.11604
#
# Compressibility (1/GPa) = 0.01347374
#
# Stress axis : x y z
#
# Youngs Moduli (GPa) = 133.28288 49.53719 108.40467
#
# Poissons Ratio (x) = 0.28591 -0.03545
# Poissons Ratio (y) = 0.76925 0.68033
# Poissons Ratio (z) = -0.04359 0.31089
#
# Static dielectric constant tensor:
#      x y z
#    x 5.126450 0.000000 0.000000 
#    y 0.000000 4.802490 0.000000 
#    z 0.000000 0.000000 5.162820 
# 
# 
# High freq. dielectric constant tensor:
#      x y z
#    x 2.063460 0.000000 0.000000 
#    y 0.000000 2.063680 0.000000 
#    z 0.000000 0.000000 2.077470 
# 
# From -- ./inp_files/7740.got.cif
#   From: 2010.03.12/outbox.cif.g09.slc.cpg/sg20_4_cif.got.tgz:7740.got - 2010.04.14 01:38:04.
