data_PCOD8160000
_publ_section_title
;
Structure prediction by ZEFSAII (Michael W. Deem and Ramdas Pophale) SiO2 
 PCOD8160000
Probable space group: C 2 2 21
;
_chemical_formula_sum "Si O2"
_cell_formula_units_Z 36
_cell_length_a 20.230638
_cell_length_b 10.559305
_cell_length_c 7.670827
_cell_angle_alpha 90.000000
_cell_angle_beta 90.000000
_cell_angle_gamma 90.000000
_cell_volume 1638.653393
_symmetry_space_group_name_H-M "C 2 2 21"
_symmetry_group_IT_number 20
_symmetry_cell_setting 'orthorhombic'
loop_
_space_group_symop_operation_xyz
x,y,z
-x,-y,1/2+z
x,-y,-z
-x,y,1/2-z
1/2+x,1/2+y,z
1/2-x,1/2-y,1/2+z
1/2+x,1/2-y,-z
1/2-x,1/2+y,1/2-z
loop_
_atom_site_type_symbol
_atom_site_label
_atom_site_fract_x
_atom_site_fract_y
_atom_site_fract_z
Si Si1 0.754218 0.617763 0.617469
Si Si2 0.877329 0.510094 0.796843
Si Si3 0.522974 0.358822 0.054954
Si Si4 0.156270 0.246436 0.861546
Si Si5 0.000000 0.321840 0.250000
O O1 0.732237 0.500000 0.500000
O O2 0.806849 0.575719 0.763602
O O3 0.786043 0.727303 0.499691
O O4 0.687620 0.671569 0.700067
O O5 0.878877 0.374589 0.703097
O O6 0.935813 0.592619 0.712285
O O7 0.890398 0.500000 0.000000
O O8 0.500000 0.327187 0.250000
O O9 0.602037 0.341477 0.045641
O O10 0.503412 0.500000 0.000000
O O11 0.486942 0.264347 0.920283
#
# Coordination Sequence:
#
# PCOD8160000 Si02
#       5
#     8   8   8   8   4
#     4  10  23  43  68 102 142 183 235 284 353 420
#     4  11  24  42  73 104 137 184 232 294 355 414
#     4  12  27  47  71 103 143 189 239 289 353 422
#     4  11  24  44  69 103 141 181 236 289 351 420
#     4  12  26  48  74 106 144 184 238 294 356 424
#
# _framework density 21.969259999999998
#
# number of rings (size 3 to 8) (size 9 to 14) (size 15 to 20)
#    0.000    0.889    3.333    2.667    4.667    5.333 
#    4.000    0.000    0.000    0.000    0.000    0.000 
#    0.000    0.000    0.000    0.000    0.000    0.000 
#
# Total GULP energy -223343.764813 kJ/mol
# GULP energy per Si atom -12407.986934 kJ/mol
# Density = 2.191926 g / cm^3
# Si number density = 21.969260 Si / 1000 Ang^3
#
#
#
# Elastic Constant Matrix: (Units=GPa)
#
#
# Indices 1 2 3 4 5 6 
#
# 1 74.5853 48.6329 9.0211 0.0000 0.0000 0.0000
# 2 48.6329 108.2512 28.4344 0.0000 0.0000 0.0000
# 3 9.0211 28.4344 97.2082 0.0000 0.0000 0.0000
# 4 0.0000 0.0000 0.0000 34.3461 0.0000 0.0000
# 5 0.0000 0.0000 0.0000 0.0000 31.4965 0.0000
# 6 0.0000 0.0000 0.0000 0.0000 0.0000 28.3771
#
#
#
# Elastic Compliance Matrix: (Units=1/GPa)
#
#
# Indices 1 2 3 4 5 6 
#
# 1 0.019019 -0.008753 0.000795 0.000000 0.000000 0.000000
# 2 -0.008753 0.014035 -0.003293 0.000000 0.000000 0.000000
# 3 0.000795 -0.003293 0.011177 0.000000 0.000000 0.000000
# 4 0.000000 0.000000 0.000000 0.029115 0.000000 0.000000
# 5 0.000000 0.000000 0.000000 0.000000 0.031750 0.000000
# 6 0.000000 0.000000 0.000000 0.000000 0.000000 0.035240
#
#
# Mechanical properties :
#
#
# Convention : Reuss Voigt Hill
#
# Bulk Modulus (GPa) = 46.02199 50.24684 48.13441
# Shear Modulus (GPa) = 29.39786 31.77435 30.58610
#
# Velocity S-wave (km/s) = 3.66202 3.80716 3.73530
# Velocity P-wave (km/s) = 6.23493 6.49978 6.36873
#
# Compressibility (1/GPa) = 0.02172874
#
# Stress axis : x y z
#
# Youngs Moduli (GPa) = 52.57944 71.24886 89.47218
#
# Poissons Ratio (x) = 0.62367 -0.07117
# Poissons Ratio (y) = 0.46025 0.29465
# Poissons Ratio (z) = -0.04183 0.23463
#
# Static dielectric constant tensor:
#      x y z
#    x 3.802340 0.000000 0.000000 
#    y 0.000000 4.012240 0.000000 
#    z 0.000000 0.000000 4.074590 
# 
# 
# High freq. dielectric constant tensor:
#      x y z
#    x 1.858000 0.000000 0.000000 
#    y 0.000000 1.871860 0.000000 
#    z 0.000000 0.000000 1.875260 
# 
# From -- ./inp_files/9866.got.cif
#   From: 2010.03.12/outbox.cif.g09.slc.cpg/sg20_5_cif.got.tgz:9866.got - 2010.04.14 01:38:04.
