data_PCOD8160873
_publ_section_title
;
Structure prediction by ZEFSAII (Michael W. Deem and Ramdas Pophale) SiO2 
 PCOD8160873
Probable space group: C 2 2 2
;
_chemical_formula_sum "Si O2"
_cell_formula_units_Z 56
_cell_length_a 20.901485
_cell_length_b 14.713101
_cell_length_c 8.605655
_cell_angle_alpha 90.000000
_cell_angle_beta 90.000000
_cell_angle_gamma 90.000000
_cell_volume 2646.459732
_symmetry_space_group_name_H-M "C 2 2 2"
_symmetry_group_IT_number 21
_symmetry_cell_setting 'orthorhombic'
loop_
_space_group_symop_operation_xyz
x,y,z
-x,-y,z
x,-y,-z
-x,y,-z
1/2+x,1/2+y,z
1/2-x,1/2-y,z
1/2+x,1/2-y,-z
1/2-x,1/2+y,-z
loop_
_atom_site_type_symbol
_atom_site_label
_atom_site_fract_x
_atom_site_fract_y
_atom_site_fract_z
Si Si1 0.248960 0.351647 0.798491
Si Si2 0.509106 0.783147 0.815991
Si Si3 0.900261 0.402052 0.685014
Si Si4 0.771719 0.653756 0.164925
Si Si5 0.030203 0.085987 0.173116
Si Si6 0.826976 0.013646 0.823280
Si Si7 0.383465 0.107505 0.670345
O O1 0.250000 0.250000 0.727870
O O2 0.313571 0.411330 0.753373
O O3 0.189285 0.402358 0.723078
O O4 0.238459 0.346297 0.981501
O O5 0.465937 0.856329 0.732425
O O6 0.489310 0.682538 0.752316
O O7 0.581087 0.811775 0.767252
O O8 0.500000 0.786611 0.000000
O O9 0.845289 0.366919 0.799805
O O10 0.914037 0.509020 0.701890
O O11 0.884218 0.370386 0.511465
O O12 0.750000 0.750000 0.234809
O O13 0.726175 0.580213 0.249687
O O14 0.105233 0.064265 0.186563
O O15 0.000000 0.000000 0.265145
O O16 0.000000 0.086173 0.000000
O O17 0.809134 0.000000 0.000000
#
# Coordination Sequence:
#
# PCOD8160873 Si02
#       7
#     8   8   8   8   8   8   8
#     4  10  22  36  60  94 126 158 210 264 318 370
#     4  11  24  38  65  95 126 163 215 268 317 379
#     4  11  23  42  61  89 126 170 213 258 327 390
#     4  10  20  35  61  89 125 158 210 260 314 373
#     4  10  20  36  60  94 129 160 203 252 322 376
#     4  10  18  33  57  88 125 163 193 251 308 370
#     4  11  24  41  62  89 128 169 210 264 323 389
#
# _framework density 21.160345
#
# number of rings (size 3 to 8) (size 9 to 14) (size 15 to 20)
#    0.000    1.571    2.857    2.571    2.000    6.286 
#    0.000    0.000    0.000    1.714    0.000    0.000 
#    0.000    0.000    0.000    0.000    0.000    0.000 
#
# Total GULP energy -346902.827080 kJ/mol
# GULP energy per Si atom -12389.386681 kJ/mol
# Density = 2.111218 g / cm^3
# Si number density = 21.160345 Si / 1000 Ang^3
#
#
#
# Elastic Constant Matrix: (Units=GPa)
#
#
# Indices 1 2 3 4 5 6 
#
# 1 96.8693 38.5728 7.4006 0.0000 0.0000 0.0000
# 2 38.5728 156.2020 29.1592 0.0000 0.0000 0.0000
# 3 7.4006 29.1592 27.9502 0.0000 0.0000 0.0000
# 4 0.0000 0.0000 0.0000 19.6770 0.0000 0.0000
# 5 0.0000 0.0000 0.0000 0.0000 7.9739 0.0000
# 6 0.0000 0.0000 0.0000 0.0000 0.0000 41.9945
#
#
#
# Elastic Compliance Matrix: (Units=1/GPa)
#
#
# Indices 1 2 3 4 5 6 
#
# 1 0.011449 -0.002808 -0.000102 0.000000 0.000000 0.000000
# 2 -0.002808 0.008639 -0.008269 0.000000 0.000000 0.000000
# 3 -0.000102 -0.008269 0.044432 0.000000 0.000000 0.000000
# 4 0.000000 0.000000 0.000000 0.050821 0.000000 0.000000
# 5 0.000000 0.000000 0.000000 0.000000 0.125408 0.000000
# 6 0.000000 0.000000 0.000000 0.000000 0.000000 0.023813
#
#
# Mechanical properties :
#
#
# Convention : Reuss Voigt Hill
#
# Bulk Modulus (GPa) = 23.71825 47.92072 35.81948
# Shear Modulus (GPa) = 16.61272 27.65503 22.13387
#
# Velocity S-wave (km/s) = 2.80498 3.61907 3.23771
# Velocity P-wave (km/s) = 4.66087 6.33713 5.56250
#
# Compressibility (1/GPa) = 0.04216163
#
# Stress axis : x y z
#
# Youngs Moduli (GPa) = 87.34225 115.75252 22.50639
#
# Poissons Ratio (x) = 0.32507 0.00229
# Poissons Ratio (y) = 0.24528 0.18611
# Poissons Ratio (z) = 0.00889 0.95718
#
# Static dielectric constant tensor:
#      x y z
#    x 3.829450 0.000000 0.000000 
#    y 0.000000 4.663910 0.000000 
#    z 0.000000 0.000000 3.576310 
# 
# 
# High freq. dielectric constant tensor:
#      x y z
#    x 1.834750 0.000000 0.000000 
#    y 0.000000 1.856820 0.000000 
#    z 0.000000 0.000000 1.781640 
# 
# From -- ./inp_files/17670.got.cif
#   From: 2010.03.12/outbox.cif.g09.slc.cpg/sg21_9_cif.got.tgz:17670.got - 2010.04.14 01:59:26.
