data_PCOD8160928
_publ_section_title
;
Structure prediction by ZEFSAII (Michael W. Deem and Ramdas Pophale) SiO2 
 PCOD8160928
Probable space group: C 2 2 2
;
_chemical_formula_sum "Si O2"
_cell_formula_units_Z 34
_cell_length_a 20.656834
_cell_length_b 5.073739
_cell_length_c 15.906085
_cell_angle_alpha 90.000000
_cell_angle_beta 90.000000
_cell_angle_gamma 90.000000
_cell_volume 1667.075163
_symmetry_space_group_name_H-M "C 2 2 2"
_symmetry_group_IT_number 21
_symmetry_cell_setting 'orthorhombic'
loop_
_space_group_symop_operation_xyz
x,y,z
-x,-y,z
x,-y,-z
-x,y,-z
1/2+x,1/2+y,z
1/2-x,1/2-y,z
1/2+x,1/2-y,-z
1/2-x,1/2+y,-z
loop_
_atom_site_type_symbol
_atom_site_label
_atom_site_fract_x
_atom_site_fract_y
_atom_site_fract_z
Si Si1 0.422578 0.498385 0.904884
Si Si2 0.186345 0.123949 0.587515
Si Si3 0.000000 0.500000 0.500000
Si Si4 0.892700 0.619019 0.380920
Si Si5 0.424028 0.996727 0.808110
O O1 0.500000 0.500000 0.904847
O O2 0.393877 0.748882 0.856361
O O3 0.394151 0.252315 0.853051
O O4 0.396195 0.500000 0.000000
O O5 0.250000 0.250000 0.634196
O O6 0.139420 0.370464 0.570946
O O7 0.210194 0.000000 0.500000
O O8 0.150734 0.880952 0.634506
O O9 0.043703 0.315827 0.437522
O O10 0.908866 0.505682 0.289872
O O11 0.500000 0.000000 0.821499
#
# Coordination Sequence:
#
# PCOD8160928 Si02
#       5
#     8   8   2   8   8
#     4   9  17  30  49  73 109 155 193 223 277 351
#     4  12  24  42  61  81 107 158 213 260 294 332
#     4  12  24  42  56  94 122 170 196 240 304 374
#     4  12  24  39  60  86 122 156 204 245 296 360
#     4  10  19  32  50  80 116 150 186 238 286 354
#
# _framework density 20.395001000000001
#
# number of rings (size 3 to 8) (size 9 to 14) (size 15 to 20)
#    0.000    1.176    3.529    4.235    0.000    4.706 
#    0.000    0.000    0.000    0.000    0.000    0.000 
#    0.000   52.706    0.000    0.000    0.000    0.000 
#
# Total GULP energy -210657.628632 kJ/mol
# GULP energy per Si atom -12391.625214 kJ/mol
# Density = 2.034858 g / cm^3
# Si number density = 20.395001 Si / 1000 Ang^3
#
#
#
# Elastic Constant Matrix: (Units=GPa)
#
#
# Indices 1 2 3 4 5 6 
#
# 1 53.4895 45.7483 34.7160 0.0000 0.0000 0.0000
# 2 45.7483 184.9645 62.5815 0.0000 0.0000 0.0000
# 3 34.7160 62.5815 140.5542 0.0000 0.0000 0.0000
# 4 0.0000 0.0000 0.0000 37.5621 0.0000 0.0000
# 5 0.0000 0.0000 0.0000 0.0000 6.7263 0.0000
# 6 0.0000 0.0000 0.0000 0.0000 0.0000 16.7123
#
#
#
# Elastic Compliance Matrix: (Units=1/GPa)
#
#
# Indices 1 2 3 4 5 6 
#
# 1 0.025592 -0.004935 -0.004124 0.000000 0.000000 0.000000
# 2 -0.004935 0.007317 -0.002039 0.000000 0.000000 0.000000
# 3 -0.004124 -0.002039 0.009041 0.000000 0.000000 0.000000
# 4 0.000000 0.000000 0.000000 0.026623 0.000000 0.000000
# 5 0.000000 0.000000 0.000000 0.000000 0.148670 0.000000
# 6 0.000000 0.000000 0.000000 0.000000 0.000000 0.059836
#
#
# Mechanical properties :
#
#
# Convention : Reuss Voigt Hill
#
# Bulk Modulus (GPa) = 50.61987 73.89998 62.25992
# Shear Modulus (GPa) = 16.34740 27.93098 22.13919
#
# Velocity S-wave (km/s) = 2.83422 3.70469 3.29830
# Velocity P-wave (km/s) = 5.96523 7.39004 6.71553
#
# Compressibility (1/GPa) = 0.01975509
#
# Stress axis : x y z
#
# Youngs Moduli (GPa) = 39.07437 136.67158 110.60533
#
# Poissons Ratio (x) = 0.67441 0.45614
# Poissons Ratio (y) = 0.19281 0.22552
# Poissons Ratio (z) = 0.16114 0.27867
#
# Static dielectric constant tensor:
#      x y z
#    x 3.363900 0.000000 0.000000 
#    y 0.000000 4.010060 0.000000 
#    z 0.000000 0.000000 3.627510 
# 
# 
# High freq. dielectric constant tensor:
#      x y z
#    x 1.743850 0.000000 0.000000 
#    y 0.000000 1.816560 0.000000 
#    z 0.000000 0.000000 1.791260 
# 
# From -- ./inp_files/33097.got.cif
#   From: 2010.03.12/outbox.cif.g09.slc.cpg/sg21_17_cif.got.tgz:33097.got - 2010.04.14 01:59:26.
