data_PCOD8160548
_publ_section_title
;
Structure prediction by ZEFSAII (Michael W. Deem and Ramdas Pophale) SiO2 
 PCOD8160548
Probable space group: C 2 2 21
;
_chemical_formula_sum "Si O2"
_cell_formula_units_Z 32
_cell_length_a 35.764326
_cell_length_b 4.827639
_cell_length_c 7.988586
_cell_angle_alpha 90.000000
_cell_angle_beta 90.000000
_cell_angle_gamma 90.000000
_cell_volume 1379.287330
_symmetry_space_group_name_H-M "C 2 2 21"
_symmetry_group_IT_number 20
_symmetry_cell_setting 'orthorhombic'
loop_
_space_group_symop_operation_xyz
x,y,z
-x,-y,1/2+z
x,-y,-z
-x,y,1/2-z
1/2+x,1/2+y,z
1/2-x,1/2-y,1/2+z
1/2+x,1/2-y,-z
1/2-x,1/2+y,1/2-z
loop_
_atom_site_type_symbol
_atom_site_label
_atom_site_fract_x
_atom_site_fract_y
_atom_site_fract_z
Si Si1 0.112616 0.395141 0.686372
Si Si2 0.845918 0.881486 0.682961
Si Si3 0.031540 0.745965 0.382022
Si Si4 0.770262 0.383905 0.185659
O O1 0.119537 0.500000 0.500000
O O2 0.124076 0.631586 0.819900
O O3 0.069010 0.333169 0.718743
O O4 0.138348 0.126070 0.702347
O O5 0.808153 0.761705 0.759260
O O6 0.838509 0.000000 0.500000
O O7 0.016762 0.500000 0.500000
O O8 0.000000 0.829833 0.250000
O O9 0.041794 0.000000 0.500000
O O10 0.761810 0.647125 0.305690
O O11 0.773004 0.500000 0.000000
#
# Coordination Sequence:
#
# PCOD8160548 Si02
#       4
#     8   8   8   8
#     4  11  24  45  69  99 138 183 228 280 342 407
#     4  12  26  46  71 102 138 179 228 285 340 404
#     4  11  24  43  68 100 139 182 229 283 340 407
#     4  12  27  48  72 101 137 180 226 282 343 408
#
# _framework density 23.200389000000001
#
# number of rings (size 3 to 8) (size 9 to 14) (size 15 to 20)
#    0.000    0.500    0.000    9.000    0.000    7.000 
#    0.000    1.250    0.000    0.000    0.000    0.000 
#    0.000    0.000    0.000    0.000    0.000    0.000 
#
# Total GULP energy -198488.033141 kJ/mol
# GULP energy per Si atom -12405.502071 kJ/mol
# Density = 2.314758 g / cm^3
# Si number density = 23.200389 Si / 1000 Ang^3
#
#
#
# Elastic Constant Matrix: (Units=GPa)
#
#
# Indices 1 2 3 4 5 6 
#
# 1 162.1579 78.1281 94.7113 0.0000 0.0000 0.0000
# 2 78.1281 177.9092 63.1718 0.0000 0.0000 0.0000
# 3 94.7113 63.1718 112.9755 0.0000 0.0000 0.0000
# 4 0.0000 0.0000 0.0000 61.7904 0.0000 0.0000
# 5 0.0000 0.0000 0.0000 0.0000 48.2569 0.0000
# 6 0.0000 0.0000 0.0000 0.0000 0.0000 98.0329
#
#
#
# Elastic Compliance Matrix: (Units=1/GPa)
#
#
# Indices 1 2 3 4 5 6 
#
# 1 0.012769 -0.002254 -0.009444 0.000000 0.000000 0.000000
# 2 -0.002254 0.007411 -0.002255 0.000000 0.000000 0.000000
# 3 -0.009444 -0.002255 0.018030 0.000000 0.000000 0.000000
# 4 0.000000 0.000000 0.000000 0.016184 0.000000 0.000000
# 5 0.000000 0.000000 0.000000 0.000000 0.020722 0.000000
# 6 0.000000 0.000000 0.000000 0.000000 0.000000 0.010201
#
#
# Mechanical properties :
#
#
# Convention : Reuss Voigt Hill
#
# Bulk Modulus (GPa) = 97.04783 102.78498 99.91641
# Shear Modulus (GPa) = 42.86080 56.08479 49.47279
#
# Velocity S-wave (km/s) = 4.30282 4.92205 4.62281
# Velocity P-wave (km/s) = 8.16130 8.75793 8.46487
#
# Compressibility (1/GPa) = 0.01030420
#
# Stress axis : x y z
#
# Youngs Moduli (GPa) = 78.31532 134.93128 55.46437
#
# Poissons Ratio (x) = 0.30413 0.52382
# Poissons Ratio (y) = 0.17652 0.12504
# Poissons Ratio (z) = 0.73963 0.30420
#
# Static dielectric constant tensor:
#      x y z
#    x 4.332430 0.000000 0.000000 
#    y 0.000000 3.976090 0.000000 
#    z 0.000000 0.000000 3.990630 
# 
# 
# High freq. dielectric constant tensor:
#      x y z
#    x 1.923980 0.000000 0.000000 
#    y 0.000000 1.949830 0.000000 
#    z 0.000000 0.000000 1.911110 
# 
# From -- ./inp_files/11253.got.cif
#   From: 2010.03.12/outbox.cif.g09.slc.cpg/sg20_6_cif.got.tgz:11253.got - 2010.04.14 01:38:04.
