data_PCOD8160478
_publ_section_title
;
Structure prediction by ZEFSAII (Michael W. Deem and Ramdas Pophale) SiO2 
 PCOD8160478
Probable space group: C 2 2 21
;
_chemical_formula_sum "Si O2"
_cell_formula_units_Z 64
_cell_length_a 13.859191
_cell_length_b 14.021632
_cell_length_c 16.579233
_cell_angle_alpha 90.000000
_cell_angle_beta 90.000000
_cell_angle_gamma 90.000000
_cell_volume 3221.817082
_symmetry_space_group_name_H-M "C 2 2 21"
_symmetry_group_IT_number 20
_symmetry_cell_setting 'orthorhombic'
loop_
_space_group_symop_operation_xyz
x,y,z
-x,-y,1/2+z
x,-y,-z
-x,y,1/2-z
1/2+x,1/2+y,z
1/2-x,1/2-y,1/2+z
1/2+x,1/2-y,-z
1/2-x,1/2+y,1/2-z
loop_
_atom_site_type_symbol
_atom_site_label
_atom_site_fract_x
_atom_site_fract_y
_atom_site_fract_z
Si Si1 0.552291 0.190674 0.674055
Si Si2 0.697209 0.548647 0.183142
Si Si3 0.932050 0.827239 0.569941
Si Si4 0.274294 0.756180 0.533891
Si Si5 0.741624 0.776122 0.787556
Si Si6 0.832288 0.567133 0.928270
Si Si7 0.396152 0.617947 0.780762
Si Si8 0.888639 0.102813 0.970501
O O1 0.500000 0.142099 0.750000
O O2 0.487455 0.276870 0.642639
O O3 0.654199 0.230883 0.701601
O O4 0.568248 0.112318 0.604859
O O5 0.633443 0.591810 0.110863
O O6 0.749727 0.626833 0.238156
O O7 0.782681 0.488323 0.144513
O O8 0.631617 0.481151 0.238259
O O9 0.868297 0.747605 0.523049
O O10 0.007168 0.874662 0.508576
O O11 0.302339 0.795230 0.622993
O O12 0.239927 0.647063 0.538958
O O13 0.190244 0.819426 0.495494
O O14 0.677305 0.702877 0.737501
O O15 0.865091 0.500000 0.000000
O O16 0.500000 0.651438 0.750000
O O17 0.400082 0.600228 0.875360
O O18 0.851999 0.000000 0.000000
#
# Coordination Sequence:
#
# PCOD8160478 Si02
#       8
#     8   8   8   8   8   8   8   8
#     4  11  23  43  69  97 134 176 228 275 333 405
#     4  12  24  41  72  99 127 177 232 270 330 408
#     4  12  24  41  72  99 127 177 232 270 330 408
#     4  11  23  44  66  97 136 170 219 283 335 392
#     4  11  23  44  66  97 136 170 219 283 335 392
#     4  11  23  43  69  97 134 176 228 275 333 405
#     4  12  26  41  65 100 138 170 214 278 343 392
#     4  12  26  41  65 100 138 170 214 278 343 392
#
# _framework density 19.864567000000001
#
# number of rings (size 3 to 8) (size 9 to 14) (size 15 to 20)
#    0.000    0.500    7.500    3.000    3.500    0.000 
#    0.000    2.500    0.000    0.000    0.000    0.000 
#    0.000    0.000    0.000    0.000    0.000    0.000 
#
# Total GULP energy -396922.521380 kJ/mol
# GULP energy per Si atom -12403.828793 kJ/mol
# Density = 1.981935 g / cm^3
# Si number density = 19.864567 Si / 1000 Ang^3
#
#
#
# Elastic Constant Matrix: (Units=GPa)
#
#
# Indices 1 2 3 4 5 6 
#
# 1 71.5378 37.0854 28.6558 0.0000 0.0000 0.0000
# 2 37.0854 97.5158 32.5787 0.0000 0.0000 0.0000
# 3 28.6558 32.5787 121.2690 0.0000 0.0000 0.0000
# 4 0.0000 0.0000 0.0000 45.8007 0.0000 0.0000
# 5 0.0000 0.0000 0.0000 0.0000 34.8896 0.0000
# 6 0.0000 0.0000 0.0000 0.0000 0.0000 15.2917
#
#
#
# Elastic Compliance Matrix: (Units=1/GPa)
#
#
# Indices 1 2 3 4 5 6 
#
# 1 0.018170 -0.006015 -0.002677 0.000000 0.000000 0.000000
# 2 -0.006015 0.013257 -0.002140 0.000000 0.000000 0.000000
# 3 -0.002677 -0.002140 0.009454 0.000000 0.000000 0.000000
# 4 0.000000 0.000000 0.000000 0.021834 0.000000 0.000000
# 5 0.000000 0.000000 0.000000 0.000000 0.028662 0.000000
# 6 0.000000 0.000000 0.000000 0.000000 0.000000 0.065395
#
#
# Mechanical properties :
#
#
# Convention : Reuss Voigt Hill
#
# Bulk Modulus (GPa) = 52.04339 54.10694 53.07516
# Shear Modulus (GPa) = 27.05010 31.99656 29.52333
#
# Velocity S-wave (km/s) = 3.69416 4.01775 3.85935
# Velocity P-wave (km/s) = 6.66721 6.98714 6.82905
#
# Compressibility (1/GPa) = 0.01921474
#
# Stress axis : x y z
#
# Youngs Moduli (GPa) = 55.03723 75.42956 105.77809
#
# Poissons Ratio (x) = 0.45374 0.28321
# Poissons Ratio (y) = 0.33107 0.22638
# Poissons Ratio (z) = 0.14736 0.16143
#
# Static dielectric constant tensor:
#      x y z
#    x 3.672510 0.000000 0.000000 
#    y 0.000000 3.821710 0.000000 
#    z 0.000000 0.000000 3.016610 
# 
# 
# High freq. dielectric constant tensor:
#      x y z
#    x 1.770250 0.000000 0.000000 
#    y 0.000000 1.772810 0.000000 
#    z 0.000000 0.000000 1.800150 
# 
# From -- ./inp_files/24996.got.cif
#   From: 2010.03.12/outbox.cif.g09.slc.cpg/sg20_13_cif.got.tgz:24996.got - 2010.04.14 01:38:04.
