data_PCOD8160053
_publ_section_title
;
Structure prediction by ZEFSAII (Michael W. Deem and Ramdas Pophale) SiO2 
 PCOD8160053
Probable space group: C 2 2 21
;
_chemical_formula_sum "Si O2"
_cell_formula_units_Z 32
_cell_length_a 5.049069
_cell_length_b 19.157912
_cell_length_c 13.311709
_cell_angle_alpha 90.000000
_cell_angle_beta 90.000000
_cell_angle_gamma 90.000000
_cell_volume 1287.636548
_symmetry_space_group_name_H-M "C 2 2 21"
_symmetry_group_IT_number 20
_symmetry_cell_setting 'orthorhombic'
loop_
_space_group_symop_operation_xyz
x,y,z
-x,-y,1/2+z
x,-y,-z
-x,y,1/2-z
1/2+x,1/2+y,z
1/2-x,1/2-y,1/2+z
1/2+x,1/2-y,-z
1/2-x,1/2+y,1/2-z
loop_
_atom_site_type_symbol
_atom_site_label
_atom_site_fract_x
_atom_site_fract_y
_atom_site_fract_z
Si Si1 0.084399 0.603994 0.134827
Si Si2 0.745986 0.042127 0.818323
Si Si3 0.116857 0.189570 0.638855
Si Si4 0.402181 0.316795 0.567506
O O1 0.175653 0.524524 0.112419
O O2 0.321127 0.656076 0.110044
O O3 0.000000 0.612075 0.250000
O O4 0.825526 0.624171 0.071326
O O5 0.500000 0.062370 0.750000
O O6 0.786432 0.110651 0.887296
O O7 0.000000 0.023515 0.750000
O O8 0.341852 0.248474 0.634686
O O9 0.000000 0.189597 0.750000
O O10 0.911090 0.207114 0.549448
#
# Coordination Sequence:
#
# PCOD8160053 Si02
#       4
#     8   8   8   8
#     4  11  24  46  74 108 148 184 236 294 346 419
#     4  10  23  45  74 105 144 192 232 286 362 420
#     4  11  28  51  72 104 148 188 237 299 357 426
#     4  12  26  46  76 108 138 192 243 288 359 421
#
# _framework density 24.851732999999999
#
# number of rings (size 3 to 8) (size 9 to 14) (size 15 to 20)
#    0.000    1.000    0.000    6.000    0.000   17.000 
#    0.000   10.000    0.000    0.000    0.000    0.000 
#    0.000    0.000    0.000    0.000    0.000    0.000 
#
# Total GULP energy -198405.133025 kJ/mol
# GULP energy per Si atom -12400.320814 kJ/mol
# Density = 2.479517 g / cm^3
# Si number density = 24.851733 Si / 1000 Ang^3
#
#
#
# Elastic Constant Matrix: (Units=GPa)
#
#
# Indices 1 2 3 4 5 6 
#
# 1 127.8898 18.9192 41.9731 0.0000 0.0000 0.0000
# 2 18.9192 151.7412 57.5639 0.0000 0.0000 0.0000
# 3 41.9731 57.5639 111.9979 0.0000 0.0000 0.0000
# 4 0.0000 0.0000 0.0000 39.6918 0.0000 0.0000
# 5 0.0000 0.0000 0.0000 0.0000 38.6072 0.0000
# 6 0.0000 0.0000 0.0000 0.0000 0.0000 30.6860
#
#
#
# Elastic Compliance Matrix: (Units=1/GPa)
#
#
# Indices 1 2 3 4 5 6 
#
# 1 0.008920 0.000194 -0.003443 0.000000 0.000000 0.000000
# 2 0.000194 0.008191 -0.004282 0.000000 0.000000 0.000000
# 3 -0.003443 -0.004282 0.012420 0.000000 0.000000 0.000000
# 4 0.000000 0.000000 0.000000 0.025194 0.000000 0.000000
# 5 0.000000 0.000000 0.000000 0.000000 0.025902 0.000000
# 6 0.000000 0.000000 0.000000 0.000000 0.000000 0.032588
#
#
# Mechanical properties :
#
#
# Convention : Reuss Voigt Hill
#
# Bulk Modulus (GPa) = 69.11588 69.83794 69.47691
# Shear Modulus (GPa) = 37.56563 40.00851 38.78707
#
# Velocity S-wave (km/s) = 3.89213 4.01669 3.95490
# Velocity P-wave (km/s) = 6.93325 7.04802 6.99087
#
# Compressibility (1/GPa) = 0.01446845
#
# Stress axis : x y z
#
# Youngs Moduli (GPa) = 112.10199 122.09210 80.51558
#
# Poissons Ratio (x) = -0.02366 0.27719
# Poissons Ratio (y) = -0.02173 0.34480
# Poissons Ratio (z) = 0.38593 0.52284
#
# Static dielectric constant tensor:
#      x y z
#    x 4.340800 0.000000 0.000000 
#    y 0.000000 5.042470 0.000000 
#    z 0.000000 0.000000 4.322650 
# 
# 
# High freq. dielectric constant tensor:
#      x y z
#    x 1.997460 0.000000 0.000000 
#    y 0.000000 2.015370 0.000000 
#    z 0.000000 0.000000 1.979740 
# 
# From -- ./inp_files/11908.got.cif
#   From: 2010.03.12/outbox.cif.g09.slc.cpg/sg20_6_cif.got.tgz:11908.got - 2010.04.14 01:38:04.
