data_PCOD8160451
_publ_section_title
;
Structure prediction by ZEFSAII (Michael W. Deem and Ramdas Pophale) SiO2 
 PCOD8160451
Probable space group: C 2 2 21
;
_chemical_formula_sum "Si O2"
_cell_formula_units_Z 40
_cell_length_a 11.693404
_cell_length_b 35.965859
_cell_length_c 4.973618
_cell_angle_alpha 90.000000
_cell_angle_beta 90.000000
_cell_angle_gamma 90.000000
_cell_volume 2091.721296
_symmetry_space_group_name_H-M "C 2 2 21"
_symmetry_group_IT_number 20
_symmetry_cell_setting 'orthorhombic'
loop_
_space_group_symop_operation_xyz
x,y,z
-x,-y,1/2+z
x,-y,-z
-x,y,1/2-z
1/2+x,1/2+y,z
1/2-x,1/2-y,1/2+z
1/2+x,1/2-y,-z
1/2-x,1/2+y,1/2-z
loop_
_atom_site_type_symbol
_atom_site_label
_atom_site_fract_x
_atom_site_fract_y
_atom_site_fract_z
Si Si1 0.000000 0.722771 0.250000
Si Si2 0.251502 0.649411 0.689778
Si Si3 0.419193 0.539623 0.002698
Si Si4 0.134867 0.116011 0.308030
Si Si5 0.500000 0.829865 0.250000
Si Si6 0.708280 0.733872 0.883558
O O1 0.981152 0.695807 0.496606
O O2 0.104461 0.750680 0.298400
O O3 0.296443 0.619853 0.470750
O O4 0.114214 0.644749 0.719483
O O5 0.285370 0.689897 0.577893
O O6 0.316351 0.644884 0.973729
O O7 0.500000 0.548918 0.750000
O O8 0.349460 0.500000 0.000000
O O9 0.500000 0.532719 0.250000
O O10 0.339286 0.575067 0.066841
O O11 0.000000 0.122302 0.250000
O O12 0.807968 0.747342 0.677666
#
# Coordination Sequence:
#
# PCOD8160451 Si02
#       6
#     4   8   8   8   4   8
#     4  12  22  40  60  78 108 139 202 259 294 352
#     4  12  24  40  57  84 115 155 195 242 295 342
#     4   9  17  33  58  86 120 157 185 217 276 355
#     4  11  23  38  57  89 124 148 181 236 297 351
#     4  12  24  42  60  78 108 159 208 249 276 342
#     4  12  23  40  56  80 103 145 199 245 301 336
#
# _framework density 19.123004999999999
#
# number of rings (size 3 to 8) (size 9 to 14) (size 15 to 20)
#    0.000    0.800    4.000    5.400    2.800    0.000 
#    0.000    0.000    0.000    0.000    0.000    2.800 
#    0.000    1.600    0.000    0.000    0.000    0.000 
#
# Total GULP energy -247799.339959 kJ/mol
# GULP energy per Si atom -12389.966998 kJ/mol
# Density = 1.907948 g / cm^3
# Si number density = 19.123005 Si / 1000 Ang^3
#
#
#
# Elastic Constant Matrix: (Units=GPa)
#
#
# Indices 1 2 3 4 5 6 
#
# 1 108.1711 37.2614 34.4702 0.0000 0.0000 0.0000
# 2 37.2614 92.6126 26.1059 0.0000 0.0000 0.0000
# 3 34.4702 26.1059 119.0876 0.0000 0.0000 0.0000
# 4 0.0000 0.0000 0.0000 32.8356 0.0000 0.0000
# 5 0.0000 0.0000 0.0000 0.0000 23.2421 0.0000
# 6 0.0000 0.0000 0.0000 0.0000 0.0000 14.3170
#
#
#
# Elastic Compliance Matrix: (Units=1/GPa)
#
#
# Indices 1 2 3 4 5 6 
#
# 1 0.011359 -0.003883 -0.002437 0.000000 0.000000 0.000000
# 2 -0.003883 0.012836 -0.001690 0.000000 0.000000 0.000000
# 3 -0.002437 -0.001690 0.009473 0.000000 0.000000 0.000000
# 4 0.000000 0.000000 0.000000 0.030455 0.000000 0.000000
# 5 0.000000 0.000000 0.000000 0.000000 0.043025 0.000000
# 6 0.000000 0.000000 0.000000 0.000000 0.000000 0.069847
#
#
# Mechanical properties :
#
#
# Convention : Reuss Voigt Hill
#
# Bulk Modulus (GPa) = 56.66164 57.28292 56.97228
# Shear Modulus (GPa) = 25.13857 28.88118 27.00988
#
# Velocity S-wave (km/s) = 3.62964 3.89045 3.76231
# Velocity P-wave (km/s) = 6.87460 7.08526 6.98072
#
# Compressibility (1/GPa) = 0.01764863
#
# Stress axis : x y z
#
# Youngs Moduli (GPa) = 88.03830 77.90353 105.56418
#
# Poissons Ratio (x) = 0.30251 0.25721
# Poissons Ratio (y) = 0.34187 0.17840
# Poissons Ratio (z) = 0.21451 0.13165
#
# Static dielectric constant tensor:
#      x y z
#    x 3.497670 0.000000 0.000000 
#    y 0.000000 3.876340 0.000000 
#    z 0.000000 0.000000 4.534250 
# 
# 
# High freq. dielectric constant tensor:
#      x y z
#    x 1.712630 0.000000 0.000000 
#    y 0.000000 1.732260 0.000000 
#    z 0.000000 0.000000 1.777090 
# 
# From -- ./inp_files/1416.got.cif
#   From: 2010.03.12/outbox.cif.g09.slc.cpg/sg20_1_cif.got.tgz:1416.got - 2010.04.14 01:38:04.
