data_PCOD8160919
_publ_section_title
;
Structure prediction by ZEFSAII (Michael W. Deem and Ramdas Pophale) SiO2 
 PCOD8160919
Probable space group: C 2 2 2
;
_chemical_formula_sum "Si O2"
_cell_formula_units_Z 38
_cell_length_a 25.994124
_cell_length_b 5.117444
_cell_length_c 16.035220
_cell_angle_alpha 90.000000
_cell_angle_beta 90.000000
_cell_angle_gamma 90.000000
_cell_volume 2133.060669
_symmetry_space_group_name_H-M "C 2 2 2"
_symmetry_group_IT_number 21
_symmetry_cell_setting 'orthorhombic'
loop_
_space_group_symop_operation_xyz
x,y,z
-x,-y,z
x,-y,-z
-x,y,-z
1/2+x,1/2+y,z
1/2-x,1/2-y,z
1/2+x,1/2-y,-z
1/2-x,1/2+y,-z
loop_
_atom_site_type_symbol
_atom_site_label
_atom_site_fract_x
_atom_site_fract_y
_atom_site_fract_z
Si Si1 0.142094 0.114290 0.091518
Si Si2 0.438448 0.496770 0.405169
Si Si3 0.500000 0.000000 0.000000
Si Si4 0.081422 0.374000 0.871751
Si Si5 0.250000 0.250000 0.055862
Si Si6 0.558689 0.006152 0.315108
O O1 0.114866 0.392462 0.090881
O O2 0.202066 0.164073 0.115087
O O3 0.113565 0.892381 0.146683
O O4 0.140696 0.000000 0.000000
O O5 0.500000 0.500000 0.401329
O O6 0.418711 0.500000 0.500000
O O7 0.415191 0.252477 0.353551
O O8 0.414503 0.747086 0.358773
O O9 0.535010 0.820242 0.938030
O O10 0.060884 0.479019 0.784194
O O11 0.233058 0.500000 0.000000
O O12 0.500000 0.000000 0.343741
#
# Coordination Sequence:
#
# PCOD8160919 Si02
#       6
#     8   8   2   8   4   8
#     4  11  21  36  52  73  93 130 179 222 268 305
#     4   9  17  30  48  66  88 123 169 211 255 300
#     4  12  24  38  48  70 106 158 188 214 240 284
#     4  12  23  35  50  72 104 142 182 216 246 294
#     4  10  20  36  58  74  92 120 170 242 282 316
#     4  10  19  31  45  68  97 131 167 211 248 288
#
# _framework density 17.814775999999998
#
# number of rings (size 3 to 8) (size 9 to 14) (size 15 to 20)
#    0.000    1.474    3.158    4.421    0.000    4.211 
#    0.000    0.000    0.000    0.000    0.000    0.000 
#    0.000    0.000    0.000   53.053    0.000    0.632 
#
# Total GULP energy -235445.327152 kJ/mol
# GULP energy per Si atom -12391.859324 kJ/mol
# Density = 1.777423 g / cm^3
# Si number density = 17.814776 Si / 1000 Ang^3
#
#
#
# Elastic Constant Matrix: (Units=GPa)
#
#
# Indices 1 2 3 4 5 6 
#
# 1 71.4760 42.4653 20.3495 0.0000 0.0000 0.0000
# 2 42.4653 139.4278 38.6818 0.0000 0.0000 0.0000
# 3 20.3495 38.6818 107.8214 0.0000 0.0000 0.0000
# 4 0.0000 0.0000 0.0000 31.7866 0.0000 0.0000
# 5 0.0000 0.0000 0.0000 0.0000 6.1126 0.0000
# 6 0.0000 0.0000 0.0000 0.0000 0.0000 22.1004
#
#
#
# Elastic Compliance Matrix: (Units=1/GPa)
#
#
# Indices 1 2 3 4 5 6 
#
# 1 0.017305 -0.004847 -0.001527 0.000000 0.000000 0.000000
# 2 -0.004847 0.009322 -0.002430 0.000000 0.000000 0.000000
# 3 -0.001527 -0.002430 0.010435 0.000000 0.000000 0.000000
# 4 0.000000 0.000000 0.000000 0.031460 0.000000 0.000000
# 5 0.000000 0.000000 0.000000 0.000000 0.163597 0.000000
# 6 0.000000 0.000000 0.000000 0.000000 0.000000 0.045248
#
#
# Mechanical properties :
#
#
# Convention : Reuss Voigt Hill
#
# Bulk Modulus (GPa) = 51.40210 57.96871 54.68540
# Shear Modulus (GPa) = 16.58596 26.48183 21.53390
#
# Velocity S-wave (km/s) = 3.05458 3.85971 3.48050
# Velocity P-wave (km/s) = 6.43093 7.24386 6.84946
#
# Compressibility (1/GPa) = 0.01945446
#
# Stress axis : x y z
#
# Youngs Moduli (GPa) = 57.78628 107.26776 95.83580
#
# Poissons Ratio (x) = 0.51992 0.14636
# Poissons Ratio (y) = 0.28008 0.23286
# Poissons Ratio (z) = 0.08825 0.26063
#
# Static dielectric constant tensor:
#      x y z
#    x 3.306690 0.000000 0.000000 
#    y 0.000000 3.776060 0.000000 
#    z 0.000000 0.000000 3.119940 
# 
# 
# High freq. dielectric constant tensor:
#      x y z
#    x 1.635530 0.000000 0.000000 
#    y 0.000000 1.714900 0.000000 
#    z 0.000000 0.000000 1.668420 
# 
# From -- ./inp_files/33707.got.cif
#   From: 2010.03.12/outbox.cif.g09.slc.cpg/sg21_17_cif.got.tgz:33707.got - 2010.04.14 01:59:26.
