data_PCOD8160459
_publ_section_title
;
Structure prediction by ZEFSAII (Michael W. Deem and Ramdas Pophale) SiO2 
 PCOD8160459
Probable space group: C 2 2 21
;
_chemical_formula_sum "Si O2"
_cell_formula_units_Z 56
_cell_length_a 14.340368
_cell_length_b 14.717819
_cell_length_c 12.275990
_cell_angle_alpha 90.000000
_cell_angle_beta 90.000000
_cell_angle_gamma 90.000000
_cell_volume 2590.957444
_symmetry_space_group_name_H-M "C 2 2 21"
_symmetry_group_IT_number 20
_symmetry_cell_setting 'orthorhombic'
loop_
_space_group_symop_operation_xyz
x,y,z
-x,-y,1/2+z
x,-y,-z
-x,y,1/2-z
1/2+x,1/2+y,z
1/2-x,1/2-y,1/2+z
1/2+x,1/2-y,-z
1/2-x,1/2+y,1/2-z
loop_
_atom_site_type_symbol
_atom_site_label
_atom_site_fract_x
_atom_site_fract_y
_atom_site_fract_z
Si Si1 0.311930 0.170749 0.240762
Si Si2 0.500000 0.252734 0.750000
Si Si3 0.814629 0.662800 0.783611
Si Si4 0.057192 0.909382 0.900410
Si Si5 0.953406 0.927278 0.113066
Si Si6 0.734717 0.098050 0.483476
Si Si7 0.255073 0.005194 0.627092
Si Si8 0.000000 0.760231 0.250000
O O1 0.242496 0.254901 0.233088
O O2 0.323280 0.142069 0.114672
O O3 0.413733 0.197038 0.287539
O O4 0.268095 0.092961 0.317133
O O5 0.422455 0.188311 0.802824
O O6 0.552618 0.317011 0.834708
O O7 0.812322 0.578026 0.699596
O O8 0.771095 0.649606 0.902668
O O9 0.157043 0.912774 0.954814
O O10 0.034862 0.004879 0.836153
O O11 0.970850 0.912956 0.984672
O O12 0.851925 0.967025 0.135444
O O13 0.963101 0.825241 0.155383
O O14 0.688708 0.000000 0.500000
O O15 0.288394 0.000000 0.500000
#
# Coordination Sequence:
#
# PCOD8160459 Si02
#       8
#     8   4   8   8   8   8   8   4
#     4  12  28  47  75 108 153 200 249 312 384 454
#     4  12  27  45  72 108 150 200 260 308 382 458
#     4  12  28  48  74 108 154 202 254 312 383 460
#     4  11  23  40  73 109 139 186 248 323 391 429
#     4  11  23  40  73 109 140 179 248 324 378 435
#     4  12  25  49  72 107 153 197 246 312 383 458
#     4  12  27  49  72 109 151 196 249 320 382 451
#     4  12  27  43  72 108 146 194 252 304 380 446
#
# _framework density 21.613631999999999
#
# number of rings (size 3 to 8) (size 9 to 14) (size 15 to 20)
#    0.000    0.286    7.143    2.143    6.000    1.714 
#    0.000    0.000    0.000    0.000    0.000    0.000 
#    0.000    0.000    0.000    0.000    0.000    0.000 
#
# Total GULP energy -347073.869205 kJ/mol
# GULP energy per Si atom -12395.495329 kJ/mol
# Density = 2.156444 g / cm^3
# Si number density = 21.613632 Si / 1000 Ang^3
#
#
#
# Elastic Constant Matrix: (Units=GPa)
#
#
# Indices 1 2 3 4 5 6 
#
# 1 114.5466 41.4156 19.1904 0.0000 0.0000 0.0000
# 2 41.4156 116.3597 43.5562 0.0000 0.0000 0.0000
# 3 19.1904 43.5562 120.3365 0.0000 0.0000 0.0000
# 4 0.0000 0.0000 0.0000 33.9534 0.0000 0.0000
# 5 0.0000 0.0000 0.0000 0.0000 18.8090 0.0000
# 6 0.0000 0.0000 0.0000 0.0000 0.0000 39.2484
#
#
#
# Elastic Compliance Matrix: (Units=1/GPa)
#
#
# Indices 1 2 3 4 5 6 
#
# 1 0.010033 -0.003438 -0.000356 0.000000 0.000000 0.000000
# 2 -0.003438 0.011119 -0.003476 0.000000 0.000000 0.000000
# 3 -0.000356 -0.003476 0.009625 0.000000 0.000000 0.000000
# 4 0.000000 0.000000 0.000000 0.029452 0.000000 0.000000
# 5 0.000000 0.000000 0.000000 0.000000 0.053166 0.000000
# 6 0.000000 0.000000 0.000000 0.000000 0.000000 0.025479
#
#
# Mechanical properties :
#
#
# Convention : Reuss Voigt Hill
#
# Bulk Modulus (GPa) = 61.58715 62.17414 61.88064
# Shear Modulus (GPa) = 31.48118 34.87421 33.17770
#
# Velocity S-wave (km/s) = 3.82061 4.02123 3.92220
# Velocity P-wave (km/s) = 6.92959 7.09852 7.01456
#
# Compressibility (1/GPa) = 0.01623715
#
# Stress axis : x y z
#
# Youngs Moduli (GPa) = 99.67497 89.93698 103.89608
#
# Poissons Ratio (x) = 0.30918 0.03695
# Poissons Ratio (y) = 0.34266 0.36117
# Poissons Ratio (z) = 0.03545 0.31265
#
# Static dielectric constant tensor:
#      x y z
#    x 3.743000 0.000000 0.000000 
#    y 0.000000 4.281330 0.000000 
#    z 0.000000 0.000000 4.132310 
# 
# 
# High freq. dielectric constant tensor:
#      x y z
#    x 1.840350 0.000000 0.000000 
#    y 0.000000 1.862770 0.000000 
#    z 0.000000 0.000000 1.858190 
# 
# From -- ./inp_files/15191.got.cif
#   From: 2010.03.12/outbox.cif.g09.slc.cpg/sg20_8_cif.got.tgz:15191.got - 2010.04.14 01:38:04.
