data_PCOD8160601
_publ_section_title
;
Structure prediction by ZEFSAII (Michael W. Deem and Ramdas Pophale) SiO2 
 PCOD8160601
Probable space group: C 2 2 21
;
_chemical_formula_sum "Si O2"
_cell_formula_units_Z 48
_cell_length_a 8.971583
_cell_length_b 27.666683
_cell_length_c 8.897488
_cell_angle_alpha 90.000000
_cell_angle_beta 90.000000
_cell_angle_gamma 90.000000
_cell_volume 2208.480578
_symmetry_space_group_name_H-M "C 2 2 21"
_symmetry_group_IT_number 20
_symmetry_cell_setting 'orthorhombic'
loop_
_space_group_symop_operation_xyz
x,y,z
-x,-y,1/2+z
x,-y,-z
-x,y,1/2-z
1/2+x,1/2+y,z
1/2-x,1/2-y,1/2+z
1/2+x,1/2-y,-z
1/2-x,1/2+y,1/2-z
loop_
_atom_site_type_symbol
_atom_site_label
_atom_site_fract_x
_atom_site_fract_y
_atom_site_fract_z
Si Si1 0.166387 0.287215 0.215546
Si Si2 0.349343 0.644735 0.994973
Si Si3 0.847067 0.483581 0.829041
Si Si4 0.325171 0.122912 0.212040
Si Si5 0.670266 0.694226 0.014657
Si Si6 0.871246 0.037849 0.868673
O O1 0.236765 0.327313 0.110494
O O2 0.269274 0.281733 0.362580
O O3 0.000000 0.305122 0.250000
O O4 0.157779 0.235201 0.139324
O O5 0.509847 0.669841 0.990671
O O6 0.357931 0.590367 0.937185
O O7 0.280566 0.644994 0.160259
O O8 0.766435 0.431425 0.822805
O O9 0.775043 0.524580 0.725500
O O10 0.000000 0.472358 0.750000
O O11 0.863956 0.500000 0.000000
O O12 0.500000 0.126952 0.250000
O O13 0.291424 0.154236 0.063865
O O14 0.000000 0.034575 0.750000
O O15 0.904040 0.000000 0.000000
#
# Coordination Sequence:
#
# PCOD8160601 Si02
#       6
#     8   8   8   8   8   8
#     4  12  26  46  74 105 142 191 240 304 372 441
#     4  12  27  47  73 107 149 189 248 309 371 454
#     4  11  26  45  73 104 149 198 250 308 373 449
#     4  11  25  45  71 104 143 193 241 302 373 441
#     4  12  26  47  73 107 144 190 243 308 371 450
#     4  12  26  45  70 107 147 198 250 307 375 452
#
# _framework density 21.734400999999998
#
# number of rings (size 3 to 8) (size 9 to 14) (size 15 to 20)
#    0.000    0.333    1.667    7.000    9.333    2.000 
#    0.000    0.000    0.000    0.000    0.000    0.000 
#    0.000    0.000    0.000    0.000    0.000    0.000 
#
# Total GULP energy -297676.315921 kJ/mol
# GULP energy per Si atom -12403.179830 kJ/mol
# Density = 2.168493 g / cm^3
# Si number density = 21.734401 Si / 1000 Ang^3
#
#
#
# Elastic Constant Matrix: (Units=GPa)
#
#
# Indices 1 2 3 4 5 6 
#
# 1 142.3826 72.3762 85.7121 0.0000 0.0000 0.0000
# 2 72.3762 166.3304 79.2299 0.0000 0.0000 0.0000
# 3 85.7121 79.2299 210.1068 0.0000 0.0000 0.0000
# 4 0.0000 0.0000 0.0000 48.0917 0.0000 0.0000
# 5 0.0000 0.0000 0.0000 0.0000 30.4817 0.0000
# 6 0.0000 0.0000 0.0000 0.0000 0.0000 31.9953
#
#
#
# Elastic Compliance Matrix: (Units=1/GPa)
#
#
# Indices 1 2 3 4 5 6 
#
# 1 0.010454 -0.003069 -0.003107 0.000000 0.000000 0.000000
# 2 -0.003069 0.008229 -0.001851 0.000000 0.000000 0.000000
# 3 -0.003107 -0.001851 0.006725 0.000000 0.000000 0.000000
# 4 0.000000 0.000000 0.000000 0.020794 0.000000 0.000000
# 5 0.000000 0.000000 0.000000 0.000000 0.032807 0.000000
# 6 0.000000 0.000000 0.000000 0.000000 0.000000 0.031255
#
#
# Mechanical properties :
#
#
# Convention : Reuss Voigt Hill
#
# Bulk Modulus (GPa) = 106.91161 110.38401 108.64781
# Shear Modulus (GPa) = 38.62918 40.88051 39.75484
#
# Velocity S-wave (km/s) = 4.22041 4.34165 4.28146
# Velocity P-wave (km/s) = 8.54669 8.71959 8.63357
#
# Compressibility (1/GPa) = 0.00935352
#
# Stress axis : x y z
#
# Youngs Moduli (GPa) = 95.65898 121.51725 148.69261
#
# Poissons Ratio (x) = 0.37289 0.46205
# Poissons Ratio (y) = 0.29354 0.27529
# Poissons Ratio (z) = 0.29725 0.22497
#
# Static dielectric constant tensor:
#      x y z
#    x 4.062090 0.000000 0.000000 
#    y 0.000000 4.471020 0.000000 
#    z 0.000000 0.000000 4.162090 
# 
# 
# High freq. dielectric constant tensor:
#      x y z
#    x 1.863500 0.000000 0.000000 
#    y 0.000000 1.873810 0.000000 
#    z 0.000000 0.000000 1.873820 
# 
# From -- ./inp_files/6530.got.cif
#   From: 2010.03.12/outbox.cif.g09.slc.cpg/sg20_4_cif.got.tgz:6530.got - 2010.04.14 01:38:04.
