data_PCOD8160261
_publ_section_title
;
Structure prediction by ZEFSAII (Michael W. Deem and Ramdas Pophale) SiO2 
 PCOD8160261
Probable space group: C 2 2 21
;
_chemical_formula_sum "Si O2"
_cell_formula_units_Z 32
_cell_length_a 8.995526
_cell_length_b 18.585690
_cell_length_c 7.934341
_cell_angle_alpha 90.000000
_cell_angle_beta 90.000000
_cell_angle_gamma 90.000000
_cell_volume 1326.527060
_symmetry_space_group_name_H-M "C 2 2 21"
_symmetry_group_IT_number 20
_symmetry_cell_setting 'orthorhombic'
loop_
_space_group_symop_operation_xyz
x,y,z
-x,-y,1/2+z
x,-y,-z
-x,y,1/2-z
1/2+x,1/2+y,z
1/2-x,1/2-y,1/2+z
1/2+x,1/2-y,-z
1/2-x,1/2+y,1/2-z
loop_
_atom_site_type_symbol
_atom_site_label
_atom_site_fract_x
_atom_site_fract_y
_atom_site_fract_z
Si Si1 0.840037 0.615850 0.280639
Si Si2 0.500000 0.980188 0.250000
Si Si3 0.604098 0.285983 0.595009
Si Si4 0.786044 0.626779 0.912457
Si Si5 0.000000 0.840087 0.250000
O O1 0.875292 0.532923 0.336218
O O2 0.744344 0.658720 0.418464
O O3 0.000000 0.655338 0.250000
O O4 0.744305 0.618970 0.107903
O O5 0.579799 0.929503 0.385973
O O6 0.500000 0.309234 0.750000
O O7 0.661783 0.206652 0.633937
O O8 0.524246 0.289830 0.414196
O O9 0.642213 0.609778 0.795465
#
# Coordination Sequence:
#
# PCOD8160261 Si02
#       5
#     8   4   8   8   4
#     4  10  26  47  78 105 156 203 254 313 388 456
#     4  10  26  49  80 111 154 212 258 306 392 479
#     4  12  26  49  75 114 159 196 259 325 381 455
#     4  12  25  47  75 117 152 205 256 322 388 457
#     4  12  30  43  76 121 152 208 254 326 394 453
#
# _framework density 24.123142000000001
#
# number of rings (size 3 to 8) (size 9 to 14) (size 15 to 20)
#    0.750    0.000    3.750    2.250   10.500    0.000 
#    2.250    0.000    0.000    0.000    0.000    0.000 
#    0.000    0.000    0.000    0.000    0.000    0.000 
#
# Total GULP energy -198299.417221 kJ/mol
# GULP energy per Si atom -12393.713576 kJ/mol
# Density = 2.406824 g / cm^3
# Si number density = 24.123142 Si / 1000 Ang^3
#
#
#
# Elastic Constant Matrix: (Units=GPa)
#
#
# Indices 1 2 3 4 5 6 
#
# 1 109.2881 56.3513 58.3891 0.0000 0.0000 0.0000
# 2 56.3513 151.8579 26.6227 0.0000 0.0000 0.0000
# 3 58.3891 26.6227 128.0674 0.0000 0.0000 0.0000
# 4 0.0000 0.0000 0.0000 17.1386 0.0000 0.0000
# 5 0.0000 0.0000 0.0000 0.0000 45.9699 0.0000
# 6 0.0000 0.0000 0.0000 0.0000 0.0000 27.7776
#
#
#
# Elastic Compliance Matrix: (Units=1/GPa)
#
#
# Indices 1 2 3 4 5 6 
#
# 1 0.014428 -0.004360 -0.005672 0.000000 0.000000 0.000000
# 2 -0.004360 0.008152 0.000293 0.000000 0.000000 0.000000
# 3 -0.005672 0.000293 0.010333 0.000000 0.000000 0.000000
# 4 0.000000 0.000000 0.000000 0.058348 0.000000 0.000000
# 5 0.000000 0.000000 0.000000 0.000000 0.021753 0.000000
# 6 0.000000 0.000000 0.000000 0.000000 0.000000 0.036000
#
#
# Mechanical properties :
#
#
# Convention : Reuss Voigt Hill
#
# Bulk Modulus (GPa) = 74.42516 74.65997 74.54257
# Shear Modulus (GPa) = 28.90661 34.70056 31.80359
#
# Velocity S-wave (km/s) = 3.46539 3.79684 3.63490
# Velocity P-wave (km/s) = 6.85063 7.08788 6.97026
#
# Compressibility (1/GPa) = 0.01343632
#
# Stress axis : x y z
#
# Youngs Moduli (GPa) = 69.30747 122.67666 96.77316
#
# Poissons Ratio (x) = 0.53484 0.54890
# Poissons Ratio (y) = 0.30216 -0.02837
# Poissons Ratio (z) = 0.39311 -0.03596
#
# Static dielectric constant tensor:
#      x y z
#    x 4.589110 0.000000 0.000000 
#    y 0.000000 4.080110 0.000000 
#    z 0.000000 0.000000 4.156890 
# 
# 
# High freq. dielectric constant tensor:
#      x y z
#    x 1.957190 0.000000 0.000000 
#    y 0.000000 1.938620 0.000000 
#    z 0.000000 0.000000 1.957800 
# 
# From -- ./inp_files/5852.got.cif
#   From: 2010.03.12/outbox.cif.g09.slc.cpg/sg20_3_cif.got.tgz:5852.got - 2010.04.14 01:38:04.
