data_PCOD8160847
_publ_section_title
;
Structure prediction by ZEFSAII (Michael W. Deem and Ramdas Pophale) SiO2 
 PCOD8160847
Probable space group: C 2 2 2
;
_chemical_formula_sum "Si O2"
_cell_formula_units_Z 52
_cell_length_a 32.796367
_cell_length_b 20.163082
_cell_length_c 5.441652
_cell_angle_alpha 90.000000
_cell_angle_beta 90.000000
_cell_angle_gamma 90.000000
_cell_volume 3598.432982
_symmetry_space_group_name_H-M "C 2 2 2"
_symmetry_group_IT_number 21
_symmetry_cell_setting 'orthorhombic'
loop_
_space_group_symop_operation_xyz
x,y,z
-x,-y,z
x,-y,-z
-x,y,-z
1/2+x,1/2+y,z
1/2-x,1/2-y,z
1/2+x,1/2-y,-z
1/2-x,1/2+y,-z
loop_
_atom_site_type_symbol
_atom_site_label
_atom_site_fract_x
_atom_site_fract_y
_atom_site_fract_z
Si Si1 0.810354 0.500000 0.500000
Si Si2 0.299207 0.749358 0.333345
Si Si3 0.288043 0.300844 0.169332
Si Si4 0.954169 0.578617 0.503492
Si Si5 0.171105 0.386174 0.811954
Si Si6 0.745057 0.066599 0.883743
Si Si7 0.089906 0.421002 0.004165
O O1 0.840171 0.549033 0.647745
O O2 0.781224 0.451702 0.649725
O O3 0.250000 0.750000 0.337216
O O4 0.314212 0.713309 0.583620
O O5 0.322439 0.819572 0.342619
O O6 0.313290 0.711946 0.082512
O O7 0.250000 0.250000 0.167292
O O8 0.278109 0.378793 0.186955
O O9 0.955460 0.500000 0.500000
O O10 0.933162 0.603654 0.756302
O O11 0.000000 0.607352 0.500000
O O12 0.931815 0.603760 0.254403
O O13 0.134202 0.384444 0.006875
O O14 0.215230 0.398829 0.924314
O O15 0.765291 0.000000 0.000000
O O16 0.094282 0.500000 0.000000
#
# Coordination Sequence:
#
# PCOD8160847 Si02
#       7
#     4   8   8   8   8   8   8
#     4  10  20  28  42  54  89 104 126 172 228 276
#     4  10  19  31  46  56  77 109 143 166 202 271
#     4  10  18  31  45  57  74 106 140 167 205 268
#     4   9  18  32  46  59  78 107 137 165 206 270
#     4  11  21  30  42  64  84 110 137 176 228 272
#     4  10  20  30  42  62  80 106 137 180 226 271
#     4  10  20  29  44  63  84 104 133 174 223 266
#
# _framework density 14.450735
#
# number of rings (size 3 to 8) (size 9 to 14) (size 15 to 20)
#    0.000    2.000    3.077    3.692    7.538    1.846 
#    0.000    0.000    0.000    0.000    0.000    0.000 
#    0.000    0.000    0.000    0.000    0.000    0.000 
#
# Total GULP energy -322132.749728 kJ/mol
# GULP energy per Si atom -12389.721143 kJ/mol
# Density = 1.441784 g / cm^3
# Si number density = 14.450735 Si / 1000 Ang^3
#
#
#
# Elastic Constant Matrix: (Units=GPa)
#
#
# Indices 1 2 3 4 5 6 
#
# 1 39.6541 28.8564 22.5965 0.0000 0.0000 0.0000
# 2 28.8564 73.1474 36.7479 0.0000 0.0000 0.0000
# 3 22.5965 36.7479 126.9996 0.0000 0.0000 0.0000
# 4 0.0000 0.0000 0.0000 11.1852 0.0000 0.0000
# 5 0.0000 0.0000 0.0000 0.0000 12.9074 0.0000
# 6 0.0000 0.0000 0.0000 0.0000 0.0000 572.3093
#
#
#
# Elastic Compliance Matrix: (Units=1/GPa)
#
#
# Indices 1 2 3 4 5 6 
#
# 1 0.036146 -0.012904 -0.002697 0.000000 0.000000 0.000000
# 2 -0.012904 0.020603 -0.003666 0.000000 0.000000 0.000000
# 3 -0.002697 -0.003666 0.009415 0.000000 0.000000 0.000000
# 4 0.000000 0.000000 0.000000 0.089404 0.000000 0.000000
# 5 0.000000 0.000000 0.000000 0.000000 0.077475 0.000000
# 6 0.000000 0.000000 0.000000 0.000000 0.000000 0.001747
#
#
# Mechanical properties :
#
#
# Convention : Reuss Voigt Hill
#
# Bulk Modulus (GPa) = 36.19381 46.24477 41.21929
# Shear Modulus (GPa) = 17.69699 129.38705 73.54202
#
# Velocity S-wave (km/s) = 3.50329 9.47265 7.14157
# Velocity P-wave (km/s) = 6.43931 12.31716 9.82795
#
# Compressibility (1/GPa) = 0.02762903
#
# Stress axis : x y z
#
# Youngs Moduli (GPa) = 27.66591 48.53599 106.21761
#
# Poissons Ratio (x) = 0.62632 0.28650
# Poissons Ratio (y) = 0.35701 0.38936
# Poissons Ratio (z) = 0.07462 0.17792
#
# Static dielectric constant tensor:
#      x y z
#    x 2.510150 0.000000 0.000000 
#    y 0.000000 2.221570 0.000000 
#    z 0.000000 0.000000 1.830080 
# 
# 
# High freq. dielectric constant tensor:
#      x y z
#    x 1.491420 0.000000 0.000000 
#    y 0.000000 1.515760 0.000000 
#    z 0.000000 0.000000 1.584670 
# 
# From -- ./inp_files/8082.got.cif
#   From: 2010.03.12/outbox.cif.g09.slc.cpg/sg21_5_cif.got.tgz:8082.got - 2010.04.14 01:59:26.
