data_PCOD8160142
_publ_section_title
;
Structure prediction by ZEFSAII (Michael W. Deem and Ramdas Pophale) SiO2 
 PCOD8160142
Probable space group: C 2 2 21
;
_chemical_formula_sum "Si O2"
_cell_formula_units_Z 36
_cell_length_a 7.269150
_cell_length_b 11.824512
_cell_length_c 20.658226
_cell_angle_alpha 90.000000
_cell_angle_beta 90.000000
_cell_angle_gamma 90.000000
_cell_volume 1775.660285
_symmetry_space_group_name_H-M "C 2 2 21"
_symmetry_group_IT_number 20
_symmetry_cell_setting 'orthorhombic'
loop_
_space_group_symop_operation_xyz
x,y,z
-x,-y,1/2+z
x,-y,-z
-x,y,1/2-z
1/2+x,1/2+y,z
1/2-x,1/2-y,1/2+z
1/2+x,1/2-y,-z
1/2-x,1/2+y,1/2-z
loop_
_atom_site_type_symbol
_atom_site_label
_atom_site_fract_x
_atom_site_fract_y
_atom_site_fract_z
Si Si1 0.000000 0.295832 0.250000
Si Si2 0.342032 0.876159 0.526905
Si Si3 0.794169 0.288689 0.918245
Si Si4 0.135986 0.122941 0.693682
Si Si5 0.562354 0.624072 0.358531
O O1 0.153716 0.375755 0.218316
O O2 0.096114 0.218224 0.304061
O O3 0.311249 0.784665 0.471452
O O4 0.552043 0.868471 0.550370
O O5 0.205316 0.850243 0.585162
O O6 0.301774 0.000000 0.500000
O O7 0.891108 0.207201 0.866285
O O8 0.646341 0.370608 0.884663
O O9 0.000000 0.163481 0.750000
O O10 0.089462 0.997508 0.672246
#
# Coordination Sequence:
#
# PCOD8160142 Si02
#       5
#     4   8   8   8   8
#     4  10  24  44  66  98 130 166 218 270 326 390
#     4  12  24  41  64  95 128 172 219 267 325 387
#     4  11  25  42  66  94 132 172 215 273 324 384
#     4  11  23  44  68  95 134 171 214 273 328 389
#     4  11  23  44  67  96 130 171 220 265 329 388
#
# _framework density 20.274148
#
# number of rings (size 3 to 8) (size 9 to 14) (size 15 to 20)
#    0.000    0.889    5.556    1.333    0.000    4.444 
#    2.000    0.000    0.000    0.000    0.000    0.000 
#    0.000    0.000    0.000    0.000    0.000    0.000 
#
# Total GULP energy -223335.475457 kJ/mol
# GULP energy per Si atom -12407.526414 kJ/mol
# Density = 2.022800 g / cm^3
# Si number density = 20.274148 Si / 1000 Ang^3
#
#
#
# Elastic Constant Matrix: (Units=GPa)
#
#
# Indices 1 2 3 4 5 6 
#
# 1 96.8357 55.3999 46.4541 0.0000 0.0000 0.0000
# 2 55.3999 104.8712 49.5470 0.0000 0.0000 0.0000
# 3 46.4541 49.5470 124.5495 0.0000 0.0000 0.0000
# 4 0.0000 0.0000 0.0000 16.0781 0.0000 0.0000
# 5 0.0000 0.0000 0.0000 0.0000 24.6418 0.0000
# 6 0.0000 0.0000 0.0000 0.0000 0.0000 33.9654
#
#
#
# Elastic Compliance Matrix: (Units=1/GPa)
#
#
# Indices 1 2 3 4 5 6 
#
# 1 0.015747 -0.006827 -0.003158 0.000000 0.000000 0.000000
# 2 -0.006827 0.014702 -0.003302 0.000000 0.000000 0.000000
# 3 -0.003158 -0.003302 0.010520 0.000000 0.000000 0.000000
# 4 0.000000 0.000000 0.000000 0.062196 0.000000 0.000000
# 5 0.000000 0.000000 0.000000 0.000000 0.040581 0.000000
# 6 0.000000 0.000000 0.000000 0.000000 0.000000 0.029442
#
#
# Mechanical properties :
#
#
# Convention : Reuss Voigt Hill
#
# Bulk Modulus (GPa) = 69.46349 69.89537 69.67943
# Shear Modulus (GPa) = 24.44252 26.59410 25.51831
#
# Velocity S-wave (km/s) = 3.47594 3.62570 3.55161
# Velocity P-wave (km/s) = 7.10254 7.21648 7.15974
#
# Compressibility (1/GPa) = 0.01439605
#
# Stress axis : x y z
#
# Youngs Moduli (GPa) = 63.50338 68.01720 95.05397
#
# Poissons Ratio (x) = 0.46435 0.30013
# Poissons Ratio (y) = 0.43353 0.31390
# Poissons Ratio (z) = 0.20051 0.22462
#
# Static dielectric constant tensor:
#      x y z
#    x 3.695330 0.000000 0.000000 
#    y 0.000000 3.459660 0.000000 
#    z 0.000000 0.000000 3.932360 
# 
# 
# High freq. dielectric constant tensor:
#      x y z
#    x 1.799840 0.000000 0.000000 
#    y 0.000000 1.785670 0.000000 
#    z 0.000000 0.000000 1.818340 
# 
# From -- ./inp_files/26398.got.cif
#   From: 2010.03.12/outbox.cif.g09.slc.cpg/sg20_14_cif.got.tgz:26398.got - 2010.04.14 01:38:04.
