data_PCOD8160071
_publ_section_title
;
Structure prediction by ZEFSAII (Michael W. Deem and Ramdas Pophale) SiO2 
 PCOD8160071
Probable space group: C 2 2 21
;
_chemical_formula_sum "Si O2"
_cell_formula_units_Z 32
_cell_length_a 14.205432
_cell_length_b 4.933057
_cell_length_c 20.504515
_cell_angle_alpha 90.000000
_cell_angle_beta 90.000000
_cell_angle_gamma 90.000000
_cell_volume 1436.878612
_symmetry_space_group_name_H-M "C 2 2 21"
_symmetry_group_IT_number 20
_symmetry_cell_setting 'orthorhombic'
loop_
_space_group_symop_operation_xyz
x,y,z
-x,-y,1/2+z
x,-y,-z
-x,y,1/2-z
1/2+x,1/2+y,z
1/2-x,1/2-y,1/2+z
1/2+x,1/2-y,-z
1/2-x,1/2+y,1/2-z
loop_
_atom_site_type_symbol
_atom_site_label
_atom_site_fract_x
_atom_site_fract_y
_atom_site_fract_z
Si Si1 0.055476 0.745369 0.957173
Si Si2 0.545473 0.942218 0.339179
Si Si3 0.345098 0.445557 0.204148
Si Si4 0.852005 0.215321 0.328830
O O1 0.133660 0.857402 0.905305
O O2 0.967508 0.617282 0.916858
O O3 0.098627 0.500000 0.000000
O O4 0.022039 0.000000 0.000000
O O5 0.575785 0.251158 0.326499
O O6 0.629984 0.753153 0.314674
O O7 0.444168 0.887820 0.303989
O O8 0.241768 0.390408 0.177655
O O9 0.344818 0.444405 0.283786
#
# Coordination Sequence:
#
# PCOD8160071 Si02
#       4
#     8   8   8   8
#     4  10  23  47  68  94 137 185 231 277 336 403
#     4  10  26  42  70  96 138 179 217 286 342 393
#     4  12  23  45  66 108 136 170 234 273 359 407
#     4  10  27  41  72 101 143 174 222 290 341 410
#
# _framework density 22.270496000000001
#
# number of rings (size 3 to 8) (size 9 to 14) (size 15 to 20)
#    1.500    0.000    0.000    3.750    0.000   16.000 
#    0.000    7.500    0.000    0.000    0.000    0.000 
#    0.000    0.000    0.000    0.000    0.000    0.000 
#
# Total GULP energy -198288.202875 kJ/mol
# GULP energy per Si atom -12393.012680 kJ/mol
# Density = 2.221981 g / cm^3
# Si number density = 22.270496 Si / 1000 Ang^3
#
#
#
# Elastic Constant Matrix: (Units=GPa)
#
#
# Indices 1 2 3 4 5 6 
#
# 1 112.2977 -9.5904 26.3272 0.0000 0.0000 0.0000
# 2 -9.5904 54.0541 38.9174 0.0000 0.0000 0.0000
# 3 26.3272 38.9174 143.9223 0.0000 0.0000 0.0000
# 4 0.0000 0.0000 0.0000 51.2671 0.0000 0.0000
# 5 0.0000 0.0000 0.0000 0.0000 20.3414 0.0000
# 6 0.0000 0.0000 0.0000 0.0000 0.0000 25.1920
#
#
#
# Elastic Compliance Matrix: (Units=1/GPa)
#
#
# Indices 1 2 3 4 5 6 
#
# 1 0.009894 0.003798 -0.002837 0.000000 0.000000 0.000000
# 2 0.003798 0.024430 -0.007301 0.000000 0.000000 0.000000
# 3 -0.002837 -0.007301 0.009441 0.000000 0.000000 0.000000
# 4 0.000000 0.000000 0.000000 0.019506 0.000000 0.000000
# 5 0.000000 0.000000 0.000000 0.000000 0.049161 0.000000
# 6 0.000000 0.000000 0.000000 0.000000 0.000000 0.039695
#
#
# Mechanical properties :
#
#
# Convention : Reuss Voigt Hill
#
# Bulk Modulus (GPa) = 32.16847 46.84250 39.50549
# Shear Modulus (GPa) = 28.54385 36.33477 32.43931
#
# Velocity S-wave (km/s) = 3.58395 4.04359 3.82069
# Velocity P-wave (km/s) = 5.62157 6.54828 6.10254
#
# Compressibility (1/GPa) = 0.03108634
#
# Stress axis : x y z
#
# Youngs Moduli (GPa) = 101.06775 40.93295 105.91730
#
# Poissons Ratio (x) = -0.15546 0.30048
# Poissons Ratio (y) = -0.38385 0.77328
# Poissons Ratio (z) = 0.28672 0.29884
#
# Static dielectric constant tensor:
#      x y z
#    x 3.716850 0.000000 0.000000 
#    y 0.000000 3.727600 0.000000 
#    z 0.000000 0.000000 4.214310 
# 
# 
# High freq. dielectric constant tensor:
#      x y z
#    x 1.860390 0.000000 0.000000 
#    y 0.000000 1.873290 0.000000 
#    z 0.000000 0.000000 1.881630 
# 
# From -- ./inp_files/27361.got.cif
#   From: 2010.03.12/outbox.cif.g09.slc.cpg/sg20_14_cif.got.tgz:27361.got - 2010.04.14 01:38:04.
