data_PCOD8160851
_publ_section_title
;
Structure prediction by ZEFSAII (Michael W. Deem and Ramdas Pophale) SiO2 
 PCOD8160851
Probable space group: C 2 2 2
;
_chemical_formula_sum "Si O2"
_cell_formula_units_Z 56
_cell_length_a 25.291839
_cell_length_b 7.461657
_cell_length_c 16.374559
_cell_angle_alpha 90.000000
_cell_angle_beta 90.000000
_cell_angle_gamma 90.000000
_cell_volume 3090.190851
_symmetry_space_group_name_H-M "C 2 2 2"
_symmetry_group_IT_number 21
_symmetry_cell_setting 'orthorhombic'
loop_
_space_group_symop_operation_xyz
x,y,z
-x,-y,z
x,-y,-z
-x,y,-z
1/2+x,1/2+y,z
1/2-x,1/2-y,z
1/2+x,1/2-y,-z
1/2-x,1/2+y,-z
loop_
_atom_site_type_symbol
_atom_site_label
_atom_site_fract_x
_atom_site_fract_y
_atom_site_fract_z
Si Si1 0.443041 0.999996 0.650122
Si Si2 0.668559 0.999999 0.591680
Si Si3 0.500000 0.289230 0.910136
Si Si4 0.806294 0.795330 0.280530
Si Si5 0.582477 0.707953 0.221363
Si Si6 0.306294 0.704669 0.280531
Si Si7 0.417523 0.707961 0.221361
O O1 0.395335 0.000002 0.586020
O O2 0.440618 0.821810 0.704824
O O3 0.500000 0.000000 0.604793
O O4 0.440619 0.178172 0.704830
O O5 0.688629 0.176051 0.638364
O O6 0.691295 0.000000 0.500000
O O7 0.688629 0.823946 0.638363
O O8 0.500000 0.500000 0.920811
O O9 0.553212 0.229943 0.861770
O O10 0.446786 0.229942 0.861774
O O11 0.500000 0.198226 0.000000
O O12 0.750000 0.750000 0.237474
O O13 0.853975 0.756738 0.216314
O O14 0.808090 0.999999 0.309938
O O15 0.570035 0.499995 0.239324
O O16 0.250000 0.750000 0.237475
O O17 0.353974 0.743266 0.216314
#
# Coordination Sequence:
#
# PCOD8160851 Si02
#       7
#     8   8   8   8   8   8   8
#     4  10  18  31  52  72  94 130 169 196 236 293
#     4  10  22  35  48  72 102 127 159 207 255 294
#     4   9  16  29  51  79 104 128 158 196 246 289
#     4  10  19  34  52  72  94 128 170 204 242 290
#     4   9  18  31  49  72 100 129 161 201 240 283
#     4  10  19  34  52  72  94 128 170 204 242 290
#     4   9  18  31  49  72 100 129 161 201 240 283
#
# _framework density 18.121858
#
# number of rings (size 3 to 8) (size 9 to 14) (size 15 to 20)
#    0.000    2.429    2.857    0.000    0.000    1.429 
#    0.000    1.429    0.000    0.857    0.000    8.000 
#    0.000    0.000    0.000    0.000    0.000    0.000 
#
# Total GULP energy -346941.806683 kJ/mol
# GULP energy per Si atom -12390.778810 kJ/mol
# Density = 1.808061 g / cm^3
# Si number density = 18.121858 Si / 1000 Ang^3
#
#
#
# Elastic Constant Matrix: (Units=GPa)
#
#
# Indices 1 2 3 4 5 6 
#
# 1 166.3546 24.6363 43.0088 0.0000 0.0000 0.0000
# 2 24.6363 86.1332 22.9284 0.0000 0.0000 0.0000
# 3 43.0088 22.9284 88.3011 0.0000 0.0000 0.0000
# 4 0.0000 0.0000 0.0000 8.9606 0.0000 0.0000
# 5 0.0000 0.0000 0.0000 0.0000 16.4653 0.0000
# 6 0.0000 0.0000 0.0000 0.0000 0.0000 7.6497
#
#
#
# Elastic Compliance Matrix: (Units=1/GPa)
#
#
# Indices 1 2 3 4 5 6 
#
# 1 0.006986 -0.001174 -0.003098 0.000000 0.000000 0.000000
# 2 -0.001174 0.012669 -0.002718 0.000000 0.000000 0.000000
# 3 -0.003098 -0.002718 0.013540 0.000000 0.000000 0.000000
# 4 0.000000 0.000000 0.000000 0.111600 0.000000 0.000000
# 5 0.000000 0.000000 0.000000 0.000000 0.060734 0.000000
# 6 0.000000 0.000000 0.000000 0.000000 0.000000 0.130724
#
#
# Mechanical properties :
#
#
# Convention : Reuss Voigt Hill
#
# Bulk Modulus (GPa) = 52.04108 57.99287 55.01697
# Shear Modulus (GPa) = 14.01989 23.29615 18.65802
#
# Velocity S-wave (km/s) = 2.78447 3.58932 3.21220
# Velocity P-wave (km/s) = 6.25438 7.01774 6.64703
#
# Compressibility (1/GPa) = 0.01921559
#
# Stress axis : x y z
#
# Youngs Moduli (GPa) = 143.14387 78.93200 73.85751
#
# Poissons Ratio (x) = 0.09263 0.22881
# Poissons Ratio (y) = 0.16798 0.20075
# Poissons Ratio (z) = 0.44345 0.21455
#
# Static dielectric constant tensor:
#      x y z
#    x 3.907700 0.000000 0.000000 
#    y 0.000000 3.453310 0.000000 
#    z 0.000000 0.000000 3.016580 
# 
# 
# High freq. dielectric constant tensor:
#      x y z
#    x 1.723560 0.000000 0.000000 
#    y 0.000000 1.716540 0.000000 
#    z 0.000000 0.000000 1.641660 
# 
# From -- ./inp_files/37123.got.cif
#   From: 2010.03.12/outbox.cif.g09.slc.cpg/sg21_19_cif.got.tgz:37123.got - 2010.04.14 01:59:26.
