data_PCOD8160194
_publ_section_title
;
Structure prediction by ZEFSAII (Michael W. Deem and Ramdas Pophale) SiO2 
 PCOD8160194
Probable space group: C 2 2 21
;
_chemical_formula_sum "Si O2"
_cell_formula_units_Z 28
_cell_length_a 8.888547
_cell_length_b 9.876817
_cell_length_c 12.447467
_cell_angle_alpha 90.000000
_cell_angle_beta 90.000000
_cell_angle_gamma 90.000000
_cell_volume 1092.770000
_symmetry_space_group_name_H-M "C 2 2 21"
_symmetry_group_IT_number 20
_symmetry_cell_setting 'orthorhombic'
loop_
_space_group_symop_operation_xyz
x,y,z
-x,-y,1/2+z
x,-y,-z
-x,y,1/2-z
1/2+x,1/2+y,z
1/2-x,1/2-y,1/2+z
1/2+x,1/2-y,-z
1/2-x,1/2+y,1/2-z
loop_
_atom_site_type_symbol
_atom_site_label
_atom_site_fract_x
_atom_site_fract_y
_atom_site_fract_z
Si Si1 0.280412 0.071448 0.816039
Si Si2 0.005784 0.500000 0.500000
Si Si3 0.217843 0.222140 0.141891
Si Si4 0.458102 0.725794 0.561179
O O1 0.347415 0.154997 0.714628
O O2 0.122800 0.145290 0.843533
O O3 0.257750 0.912092 0.788195
O O4 0.390170 0.084677 0.917560
O O5 0.908011 0.386184 0.561200
O O6 0.363356 0.281599 0.079861
O O7 0.092687 0.170810 0.056170
#
# Coordination Sequence:
#
# PCOD8160194 Si02
#       4
#     8   4   8   8
#     4  11  23  51  72 108 148 195 253 307 369 453
#     4  10  24  46  74 104 152 190 244 316 374 440
#     4  11  26  47  79 106 151 198 252 308 380 446
#     4  11  22  50  70 105 152 191 243 318 362 448
#
# _framework density 25.622958000000001
#
# number of rings (size 3 to 8) (size 9 to 14) (size 15 to 20)
#    0.000    1.143    5.714    0.857    4.000    1.143 
#   20.571    0.000    0.000    0.000    0.000    0.000 
#    0.000    0.000    0.000    0.000    0.000    0.000 
#
# Total GULP energy -173504.382464 kJ/mol
# GULP energy per Si atom -12393.170176 kJ/mol
# Density = 2.556464 g / cm^3
# Si number density = 25.622958 Si / 1000 Ang^3
#
#
#
# Elastic Constant Matrix: (Units=GPa)
#
#
# Indices 1 2 3 4 5 6 
#
# 1 76.6981 26.5558 38.2693 0.0000 0.0000 0.0000
# 2 26.5558 124.0230 19.4595 0.0000 0.0000 0.0000
# 3 38.2693 19.4595 104.0972 0.0000 0.0000 0.0000
# 4 0.0000 0.0000 0.0000 60.3978 0.0000 0.0000
# 5 0.0000 0.0000 0.0000 0.0000 23.5303 0.0000
# 6 0.0000 0.0000 0.0000 0.0000 0.0000 37.5500
#
#
#
# Elastic Compliance Matrix: (Units=1/GPa)
#
#
# Indices 1 2 3 4 5 6 
#
# 1 0.016806 -0.002709 -0.005672 0.000000 0.000000 0.000000
# 2 -0.002709 0.008743 -0.000639 0.000000 0.000000 0.000000
# 3 -0.005672 -0.000639 0.011811 0.000000 0.000000 0.000000
# 4 0.000000 0.000000 0.000000 0.016557 0.000000 0.000000
# 5 0.000000 0.000000 0.000000 0.000000 0.042498 0.000000
# 6 0.000000 0.000000 0.000000 0.000000 0.000000 0.026631
#
#
# Mechanical properties :
#
#
# Convention : Reuss Voigt Hill
#
# Bulk Modulus (GPa) = 51.75540 52.59862 52.17701
# Shear Modulus (GPa) = 33.89234 38.99786 36.44510
#
# Velocity S-wave (km/s) = 3.64089 3.90550 3.77551
# Velocity P-wave (km/s) = 6.15771 6.39607 6.27802
#
# Compressibility (1/GPa) = 0.01932166
#
# Stress axis : x y z
#
# Youngs Moduli (GPa) = 59.50223 114.37476 84.66659
#
# Poissons Ratio (x) = 0.30979 0.48024
# Poissons Ratio (y) = 0.16117 0.05407
# Poissons Ratio (z) = 0.33750 0.07305
#
# Static dielectric constant tensor:
#      x y z
#    x 4.343860 0.000000 0.000000 
#    y 0.000000 4.796610 0.000000 
#    z 0.000000 0.000000 4.557520 
# 
# 
# High freq. dielectric constant tensor:
#      x y z
#    x 2.003120 0.000000 0.000000 
#    y 0.000000 2.032660 0.000000 
#    z 0.000000 0.000000 2.016670 
# 
# From -- ./inp_files/18134.got.cif
#   From: 2010.03.12/outbox.cif.g09.slc.cpg/sg20_10_cif.got.tgz:18134.got - 2010.04.14 01:38:04.
