data_PCOD8160690
_publ_section_title
;
Structure prediction by ZEFSAII (Michael W. Deem and Ramdas Pophale) SiO2 
 PCOD8160690
Probable space group: C 2 2 21
;
_chemical_formula_sum "Si O2"
_cell_formula_units_Z 60
_cell_length_a 16.188717
_cell_length_b 18.229344
_cell_length_c 8.307107
_cell_angle_alpha 90.000000
_cell_angle_beta 90.000000
_cell_angle_gamma 90.000000
_cell_volume 2451.507781
_symmetry_space_group_name_H-M "C 2 2 21"
_symmetry_group_IT_number 20
_symmetry_cell_setting 'orthorhombic'
loop_
_space_group_symop_operation_xyz
x,y,z
-x,-y,1/2+z
x,-y,-z
-x,y,1/2-z
1/2+x,1/2+y,z
1/2-x,1/2-y,1/2+z
1/2+x,1/2-y,-z
1/2-x,1/2+y,1/2-z
loop_
_atom_site_type_symbol
_atom_site_label
_atom_site_fract_x
_atom_site_fract_y
_atom_site_fract_z
Si Si1 0.610100 0.159423 0.598360
Si Si2 0.153687 0.191946 0.549834
Si Si3 0.000000 0.447383 0.250000
Si Si4 0.151655 0.310013 0.041923
Si Si5 0.247919 0.922884 0.941940
Si Si6 0.464686 0.420344 0.930457
Si Si7 0.891383 0.836040 0.412392
Si Si8 0.651989 0.047319 0.135225
O O1 0.609113 0.228080 0.474054
O O2 0.526601 0.109761 0.606390
O O3 0.677164 0.098527 0.555906
O O4 0.632637 0.192081 0.770729
O O5 0.250362 0.201402 0.512485
O O6 0.138459 0.159839 0.728300
O O7 0.116417 0.131525 0.426731
O O8 0.924080 0.499148 0.298188
O O9 0.096014 0.248053 0.958857
O O10 0.116932 0.381865 0.954977
O O11 0.279558 0.928180 0.760982
O O12 0.176324 0.863983 0.959526
O O13 0.210564 0.000000 0.000000
O O14 0.500000 0.425956 0.750000
O O15 0.442482 0.500000 0.000000
O O16 0.526094 0.382091 0.058735
O O17 0.700015 0.000000 0.000000
#
# Coordination Sequence:
#
# PCOD8160690 Si02
#       8
#     8   8   4   8   8   8   8   8
#     4  12  26  47  75 114 159 207 255 322 391 474
#     4  12  26  49  80 112 157 204 261 323 396 468
#     4  12  28  52  74 116 172 208 262 312 402 488
#     4  12  25  48  75 115 154 203 265 318 390 467
#     4  12  24  45  75 107 149 203 266 313 391 468
#     4  12  29  53  78 113 153 203 258 328 398 461
#     4  12  27  50  77 114 151 199 265 328 388 473
#     4  12  28  46  72 114 159 210 255 324 391 482
#
# _framework density 24.474734000000002
#
# number of rings (size 3 to 8) (size 9 to 14) (size 15 to 20)
#    0.000    0.000    5.333    3.200    8.400    0.533 
#    2.400    0.000    0.000    0.000    0.000    0.000 
#    0.000    0.000    0.000    0.000    0.000    0.000 
#
# Total GULP energy -371938.157321 kJ/mol
# GULP energy per Si atom -12397.938577 kJ/mol
# Density = 2.441903 g / cm^3
# Si number density = 24.474734 Si / 1000 Ang^3
#
#
#
# Elastic Constant Matrix: (Units=GPa)
#
#
# Indices 1 2 3 4 5 6 
#
# 1 80.8852 27.0629 14.8111 0.0000 0.0000 0.0000
# 2 27.0629 151.9734 23.9783 0.0000 0.0000 0.0000
# 3 14.8111 23.9783 78.6281 0.0000 0.0000 0.0000
# 4 0.0000 0.0000 0.0000 45.0703 0.0000 0.0000
# 5 0.0000 0.0000 0.0000 0.0000 25.0582 0.0000
# 6 0.0000 0.0000 0.0000 0.0000 0.0000 27.8432
#
#
#
# Elastic Compliance Matrix: (Units=1/GPa)
#
#
# Indices 1 2 3 4 5 6 
#
# 1 0.013408 -0.002090 -0.001888 0.000000 0.000000 0.000000
# 2 -0.002090 0.007238 -0.001814 0.000000 0.000000 0.000000
# 3 -0.001888 -0.001814 0.013627 0.000000 0.000000 0.000000
# 4 0.000000 0.000000 0.000000 0.022188 0.000000 0.000000
# 5 0.000000 0.000000 0.000000 0.000000 0.039907 0.000000
# 6 0.000000 0.000000 0.000000 0.000000 0.000000 0.035915
#
#
# Mechanical properties :
#
#
# Convention : Reuss Voigt Hill
#
# Bulk Modulus (GPa) = 44.07281 49.24347 46.65814
# Shear Modulus (GPa) = 33.01840 35.96995 34.49418
#
# Velocity S-wave (km/s) = 3.67697 3.83780 3.75824
# Velocity P-wave (km/s) = 6.00611 6.30889 6.15936
#
# Compressibility (1/GPa) = 0.02268972
#
# Stress axis : x y z
#
# Youngs Moduli (GPa) = 74.58128 138.15192 73.38402
#
# Poissons Ratio (x) = 0.28870 0.13858
# Poissons Ratio (y) = 0.15586 0.13310
# Poissons Ratio (z) = 0.14084 0.25058
#
# Static dielectric constant tensor:
#      x y z
#    x 4.460190 0.000000 0.000000 
#    y 0.000000 0.493600 0.000000 
#    z 0.000000 0.000000 4.539730 
# 
# 
# High freq. dielectric constant tensor:
#      x y z
#    x 1.966990 0.000000 0.000000 
#    y 0.000000 1.996850 0.000000 
#    z 0.000000 0.000000 1.977160 
# 
# From -- ./inp_files/9582.got.cif
#   From: 2010.03.12/outbox.cif.g09.slc.cpg/sg20_5_cif.got.tgz:9582.got - 2010.04.14 01:38:04.
