data_PCOD8160882
_publ_section_title
;
Structure prediction by ZEFSAII (Michael W. Deem and Ramdas Pophale) SiO2 
 PCOD8160882
Probable space group: C 2 2 2
;
_chemical_formula_sum "Si O2"
_cell_formula_units_Z 42
_cell_length_a 10.660769
_cell_length_b 23.710113
_cell_length_c 7.294385
_cell_angle_alpha 90.000000
_cell_angle_beta 90.000000
_cell_angle_gamma 90.000000
_cell_volume 1843.787382
_symmetry_space_group_name_H-M "C 2 2 2"
_symmetry_group_IT_number 21
_symmetry_cell_setting 'orthorhombic'
loop_
_space_group_symop_operation_xyz
x,y,z
-x,-y,z
x,-y,-z
-x,y,-z
1/2+x,1/2+y,z
1/2-x,1/2-y,z
1/2+x,1/2-y,-z
1/2-x,1/2+y,-z
loop_
_atom_site_type_symbol
_atom_site_label
_atom_site_fract_x
_atom_site_fract_y
_atom_site_fract_z
Si Si1 0.880609 0.090498 0.912273
Si Si2 0.692881 0.913881 0.372803
Si Si3 0.000000 0.500000 0.500000
Si Si4 0.523791 0.818454 0.286053
Si Si5 0.512383 0.692274 0.713470
Si Si6 0.763040 0.363260 0.233509
O O1 0.812597 0.060942 0.738766
O O2 0.934216 0.150007 0.838692
O O3 0.777503 0.095318 0.071426
O O4 0.000000 0.056721 0.000000
O O5 0.584836 0.960862 0.370371
O O6 0.644624 0.858768 0.255619
O O7 0.733543 0.898889 0.578385
O O8 0.500000 0.824492 0.500000
O O9 0.545287 0.753388 0.234617
O O10 0.399581 0.839186 0.179610
O O11 0.500000 0.678088 0.500000
O O12 0.661566 0.687512 0.752938
#
# Coordination Sequence:
#
# PCOD8160882 Si02
#       6
#     8   8   2   8   8   8
#     4  10  23  39  63  99 132 179 215 256 322 394
#     4  11  22  44  67  94 129 161 225 282 330 398
#     4  12  24  48  78  98 112 178 224 282 378 394
#     4   9  19  35  59  93 130 174 214 259 317 377
#     4  10  18  34  61  89 132 184 212 244 310 387
#     4  10  19  39  60  91 136 171 210 264 312 385
#
# _framework density 22.779198000000001
#
# number of rings (size 3 to 8) (size 9 to 14) (size 15 to 20)
#    0.000    1.905    4.762    0.571    0.000    1.524 
#   17.143    1.905    0.000   12.571    0.000    0.000 
#    0.000    0.000    0.000    0.000    0.000    0.000 
#
# Total GULP energy -260218.776179 kJ/mol
# GULP energy per Si atom -12391.370294 kJ/mol
# Density = 2.272735 g / cm^3
# Si number density = 22.779198 Si / 1000 Ang^3
#
#
#
# Elastic Constant Matrix: (Units=GPa)
#
#
# Indices 1 2 3 4 5 6 
#
# 1 114.7782 24.9048 42.0392 0.0000 0.0000 0.0000
# 2 24.9048 68.6531 15.6638 0.0000 0.0000 0.0000
# 3 42.0392 15.6638 91.1589 0.0000 0.0000 0.0000
# 4 0.0000 0.0000 0.0000 5.9844 0.0000 0.0000
# 5 0.0000 0.0000 0.0000 0.0000 52.8759 0.0000
# 6 0.0000 0.0000 0.0000 0.0000 0.0000 13.7083
#
#
#
# Elastic Compliance Matrix: (Units=1/GPa)
#
#
# Indices 1 2 3 4 5 6 
#
# 1 0.011031 -0.002957 -0.004579 0.000000 0.000000 0.000000
# 2 -0.002957 0.015953 -0.001378 0.000000 0.000000 0.000000
# 3 -0.004579 -0.001378 0.013318 0.000000 0.000000 0.000000
# 4 0.000000 0.000000 0.000000 0.167101 0.000000 0.000000
# 5 0.000000 0.000000 0.000000 0.000000 0.018912 0.000000
# 6 0.000000 0.000000 0.000000 0.000000 0.000000 0.072949
#
#
# Mechanical properties :
#
#
# Convention : Reuss Voigt Hill
#
# Bulk Modulus (GPa) = 44.49341 48.86731 46.68036
# Shear Modulus (GPa) = 15.40438 27.31255 21.35846
#
# Velocity S-wave (km/s) = 2.60330 3.46643 3.06540
# Velocity P-wave (km/s) = 5.34893 6.12542 5.75030
#
# Compressibility (1/GPa) = 0.02247524
#
# Stress axis : x y z
#
# Youngs Moduli (GPa) = 90.65171 62.68426 75.08480
#
# Poissons Ratio (x) = 0.18535 0.34382
# Poissons Ratio (y) = 0.26805 0.10343
# Poissons Ratio (z) = 0.41510 0.08635
#
# Static dielectric constant tensor:
#      x y z
#    x 4.709370 0.000000 0.000000 
#    y 0.000000 3.778210 0.000000 
#    z 0.000000 0.000000 4.199360 
# 
# 
# High freq. dielectric constant tensor:
#      x y z
#    x 1.911000 0.000000 0.000000 
#    y 0.000000 1.855800 0.000000 
#    z 0.000000 0.000000 1.903840 
# 
# From -- ./inp_files/13259.got.cif
#   From: 2010.03.12/outbox.cif.g09.slc.cpg/sg21_7_cif.got.tgz:13259.got - 2010.04.14 01:59:26.
