data_PCOD8160037
_publ_section_title
;
Structure prediction by ZEFSAII (Michael W. Deem and Ramdas Pophale) SiO2 
 PCOD8160037
Probable space group: C 2 2 21
;
_chemical_formula_sum "Si O2"
_cell_formula_units_Z 40
_cell_length_a 11.633359
_cell_length_b 8.521709
_cell_length_c 18.856916
_cell_angle_alpha 90.000000
_cell_angle_beta 90.000000
_cell_angle_gamma 90.000000
_cell_volume 1869.401112
_symmetry_space_group_name_H-M "C 2 2 21"
_symmetry_group_IT_number 20
_symmetry_cell_setting 'orthorhombic'
loop_
_space_group_symop_operation_xyz
x,y,z
-x,-y,1/2+z
x,-y,-z
-x,y,1/2-z
1/2+x,1/2+y,z
1/2-x,1/2-y,1/2+z
1/2+x,1/2-y,-z
1/2-x,1/2+y,1/2-z
loop_
_atom_site_type_symbol
_atom_site_label
_atom_site_fract_x
_atom_site_fract_y
_atom_site_fract_z
Si Si1 0.575353 0.632868 0.314800
Si Si2 0.937722 0.418962 0.570731
Si Si3 0.894249 0.887329 0.364944
Si Si4 0.669516 0.906936 0.787789
Si Si5 0.645573 0.958651 0.361704
O O1 0.500000 0.697516 0.250000
O O2 0.504320 0.498244 0.355645
O O3 0.693492 0.563852 0.282859
O O4 0.609643 0.775131 0.366750
O O5 0.888369 0.500000 0.500000
O O6 0.917971 0.230704 0.568730
O O7 0.876073 0.495265 0.640726
O O8 0.073925 0.449604 0.578812
O O9 0.866217 0.778114 0.295261
O O10 0.779127 0.986424 0.380902
O O11 0.613580 0.973977 0.716297
#
# Coordination Sequence:
#
# PCOD8160037 Si02
#       5
#     8   8   8   8   8
#     4  11  20  36  64  94 121 152 196 262 310 351
#     4  10  23  45  60  84 130 170 199 252 311 366
#     4   9  23  39  60  92 123 148 208 249 302 369
#     4   9  21  37  65  88 125 155 198 261 303 363
#     4  11  21  40  64  93 118 160 207 251 305 364
#
# _framework density 21.397226
#
# number of rings (size 3 to 8) (size 9 to 14) (size 15 to 20)
#    1.200    0.800    2.000    1.800    2.800    0.000 
#    7.200    1.000    0.000    0.000    0.000    0.000 
#    0.000    0.000    0.000    0.000    0.000    0.000 
#
# Total GULP energy -247838.928968 kJ/mol
# GULP energy per Si atom -12391.946448 kJ/mol
# Density = 2.134853 g / cm^3
# Si number density = 21.397226 Si / 1000 Ang^3
#
#
#
# Elastic Constant Matrix: (Units=GPa)
#
#
# Indices 1 2 3 4 5 6 
#
# 1 89.4785 25.4697 11.7447 0.0000 0.0000 0.0000
# 2 25.4697 44.4517 -4.7789 0.0000 0.0000 0.0000
# 3 11.7447 -4.7789 52.9907 0.0000 0.0000 0.0000
# 4 0.0000 0.0000 0.0000 18.3276 0.0000 0.0000
# 5 0.0000 0.0000 0.0000 0.0000 12.9593 0.0000
# 6 0.0000 0.0000 0.0000 0.0000 0.0000 43.7737
#
#
#
# Elastic Compliance Matrix: (Units=1/GPa)
#
#
# Indices 1 2 3 4 5 6 
#
# 1 0.014107 -0.008501 -0.003893 0.000000 0.000000 0.000000
# 2 -0.008501 0.027840 0.004395 0.000000 0.000000 0.000000
# 3 -0.003893 0.004395 0.020131 0.000000 0.000000 0.000000
# 4 0.000000 0.000000 0.000000 0.054562 0.000000 0.000000
# 5 0.000000 0.000000 0.000000 0.000000 0.077165 0.000000
# 6 0.000000 0.000000 0.000000 0.000000 0.000000 0.022845
#
#
# Mechanical properties :
#
#
# Convention : Reuss Voigt Hill
#
# Bulk Modulus (GPa) = 21.70247 27.97688 24.83968
# Shear Modulus (GPa) = 20.16067 25.31115 22.73591
#
# Velocity S-wave (km/s) = 3.07287 3.44309 3.26324
# Velocity P-wave (km/s) = 4.77019 5.37679 5.08255
#
# Compressibility (1/GPa) = 0.04607770
#
# Stress axis : x y z
#
# Youngs Moduli (GPa) = 70.88793 35.91970 49.67585
#
# Poissons Ratio (x) = 0.30537 0.19340
# Poissons Ratio (y) = 0.60264 -0.21832
# Poissons Ratio (z) = 0.27599 -0.15786
#
# Static dielectric constant tensor:
#      x y z
#    x 3.956960 0.000000 0.000000 
#    y 0.000000 3.614920 0.000000 
#    z 0.000000 0.000000 3.313950 
# 
# 
# High freq. dielectric constant tensor:
#      x y z
#    x 1.856040 0.000000 0.000000 
#    y 0.000000 1.823910 0.000000 
#    z 0.000000 0.000000 1.789750 
# 
# From -- ./inp_files/27080.got.cif
#   From: 2010.03.12/outbox.cif.g09.slc.cpg/sg20_14_cif.got.tgz:27080.got - 2010.04.14 01:38:04.
