data_PCOD8160841
_publ_section_title
;
Structure prediction by ZEFSAII (Michael W. Deem and Ramdas Pophale) SiO2 
 PCOD8160841
Probable space group: C 2 2 2
;
_chemical_formula_sum "Si O2"
_cell_formula_units_Z 64
_cell_length_a 15.130772
_cell_length_b 19.328693
_cell_length_c 11.569676
_cell_angle_alpha 90.000000
_cell_angle_beta 90.000000
_cell_angle_gamma 90.000000
_cell_volume 3383.644846
_symmetry_space_group_name_H-M "C 2 2 2"
_symmetry_group_IT_number 21
_symmetry_cell_setting 'orthorhombic'
loop_
_space_group_symop_operation_xyz
x,y,z
-x,-y,z
x,-y,-z
-x,y,-z
1/2+x,1/2+y,z
1/2-x,1/2-y,z
1/2+x,1/2-y,-z
1/2-x,1/2+y,-z
loop_
_atom_site_type_symbol
_atom_site_label
_atom_site_fract_x
_atom_site_fract_y
_atom_site_fract_z
Si Si1 0.598957 0.257300 0.511647
Si Si2 0.512279 0.267112 0.869670
Si Si3 0.807658 0.438341 0.750259
Si Si4 0.135663 0.580488 0.269710
Si Si5 0.318229 0.311212 0.266167
Si Si6 0.154351 0.734728 0.254616
Si Si7 0.025882 0.604041 0.871962
Si Si8 0.903030 0.398789 0.524611
O O1 0.500000 0.288437 0.500000
O O2 0.656218 0.304357 0.598463
O O3 0.648959 0.250801 0.390753
O O4 0.590631 0.180853 0.567701
O O5 0.594350 0.307235 0.812200
O O6 0.420383 0.282867 0.803714
O O7 0.526296 0.186057 0.858442
O O8 0.500000 0.293242 0.000000
O O9 0.793045 0.521436 0.770321
O O10 0.722409 0.388372 0.750829
O O11 0.872584 0.415028 0.851416
O O12 0.855693 0.440072 0.625755
O O13 0.149370 0.655319 0.213610
O O14 0.149385 0.591340 0.406249
O O15 0.036116 0.564196 0.222317
O O16 0.250000 0.250000 0.231544
O O17 0.250000 0.750000 0.205140
O O18 0.000000 0.579802 0.000000
O O19 0.000000 0.428872 0.500000
#
# Coordination Sequence:
#
# PCOD8160841 Si02
#       8
#     8   8   8   8   8   8   8   8
#     4  10  18  33  56  81 115 144 187 236 278 338
#     4  10  21  39  58  84 114 147 193 243 282 329
#     4  12  22  33  53  82 118 156 187 227 284 349
#     4  10  22  34  50  81 116 148 186 230 284 349
#     4  12  21  35  57  86 117 154 193 232 280 346
#     4  10  21  38  60  83 108 146 189 240 291 333
#     4  10  20  36  55  78 116 159 191 225 279 339
#     4  10  18  30  50  76 111 150 183 221 281 339
#
# _framework density 18.914515000000002
#
# number of rings (size 3 to 8) (size 9 to 14) (size 15 to 20)
#    0.000    1.500    5.000    1.125    1.750    2.000 
#    2.250    0.000    0.000    0.750    0.000    1.750 
#    0.000    0.000    0.000    0.000    0.000    0.000 
#
# Total GULP energy -396506.702969 kJ/mol
# GULP energy per Si atom -12390.834468 kJ/mol
# Density = 1.887146 g / cm^3
# Si number density = 18.914515 Si / 1000 Ang^3
#
#
#
# Elastic Constant Matrix: (Units=GPa)
#
#
# Indices 1 2 3 4 5 6 
#
# 1 127.2772 49.1666 39.6239 0.0000 0.0000 0.0000
# 2 49.1666 78.1221 22.4803 0.0000 0.0000 0.0000
# 3 39.6239 22.4803 103.2104 0.0000 0.0000 0.0000
# 4 0.0000 0.0000 0.0000 8.5068 0.0000 0.0000
# 5 0.0000 0.0000 0.0000 0.0000 21.1056 0.0000
# 6 0.0000 0.0000 0.0000 0.0000 0.0000 26.2647
#
#
#
# Elastic Compliance Matrix: (Units=1/GPa)
#
#
# Indices 1 2 3 4 5 6 
#
# 1 0.011158 -0.006177 -0.002938 0.000000 0.000000 0.000000
# 2 -0.006177 0.017076 -0.001348 0.000000 0.000000 0.000000
# 3 -0.002938 -0.001348 0.011111 0.000000 0.000000 0.000000
# 4 0.000000 0.000000 0.000000 0.117553 0.000000 0.000000
# 5 0.000000 0.000000 0.000000 0.000000 0.047381 0.000000
# 6 0.000000 0.000000 0.000000 0.000000 0.000000 0.038074
#
#
# Mechanical properties :
#
#
# Convention : Reuss Voigt Hill
#
# Bulk Modulus (GPa) = 54.29406 59.01680 56.65543
# Shear Modulus (GPa) = 18.55862 24.33136 21.44499
#
# Velocity S-wave (km/s) = 3.13578 3.59051 3.37082
# Velocity P-wave (km/s) = 6.47133 6.96122 6.72074
#
# Compressibility (1/GPa) = 0.01841822
#
# Stress axis : x y z
#
# Youngs Moduli (GPa) = 89.62515 58.56300 90.00436
#
# Poissons Ratio (x) = 0.36172 0.26445
# Poissons Ratio (y) = 0.55358 0.12132
# Poissons Ratio (z) = 0.26334 0.07894
#
# Static dielectric constant tensor:
#      x y z
#    x 3.422980 0.000000 0.000000 
#    y 0.000000 3.334390 0.000000 
#    z 0.000000 0.000000 3.438850 
# 
# 
# High freq. dielectric constant tensor:
#      x y z
#    x 1.712720 0.000000 0.000000 
#    y 0.000000 1.707580 0.000000 
#    z 0.000000 0.000000 1.735270 
# 
# From -- ./inp_files/25495.got.cif
#   From: 2010.03.12/outbox.cif.g09.slc.cpg/sg21_13_cif.got.tgz:25495.got - 2010.04.14 01:59:26.
