data_PCOD8160375
_publ_section_title
;
Structure prediction by ZEFSAII (Michael W. Deem and Ramdas Pophale) SiO2 
 PCOD8160375
Probable space group: C 2 2 21
;
_chemical_formula_sum "Si O2"
_cell_formula_units_Z 40
_cell_length_a 20.817532
_cell_length_b 9.349805
_cell_length_c 9.274778
_cell_angle_alpha 90.000000
_cell_angle_beta 90.000000
_cell_angle_gamma 90.000000
_cell_volume 1805.241536
_symmetry_space_group_name_H-M "C 2 2 21"
_symmetry_group_IT_number 20
_symmetry_cell_setting 'orthorhombic'
loop_
_space_group_symop_operation_xyz
x,y,z
-x,-y,1/2+z
x,-y,-z
-x,y,1/2-z
1/2+x,1/2+y,z
1/2-x,1/2-y,1/2+z
1/2+x,1/2-y,-z
1/2-x,1/2+y,1/2-z
loop_
_atom_site_type_symbol
_atom_site_label
_atom_site_fract_x
_atom_site_fract_y
_atom_site_fract_z
Si Si1 0.420531 0.340703 0.504355
Si Si2 0.000000 0.264505 0.750000
Si Si3 0.786694 0.281381 0.423441
Si Si4 0.779254 0.421490 0.714183
Si Si5 0.500000 0.223194 0.750000
Si Si6 0.592234 0.981824 0.655551
O O1 0.392398 0.500000 0.500000
O O2 0.448303 0.322341 0.342624
O O3 0.363100 0.234452 0.551219
O O4 0.479220 0.323797 0.616967
O O5 0.035677 0.366666 0.635089
O O6 0.757582 0.321633 0.580097
O O7 0.766047 0.410583 0.315953
O O8 0.757739 0.135261 0.356524
O O9 0.856008 0.415345 0.735076
O O10 0.562594 0.129957 0.711242
O O11 0.625503 0.000000 0.500000
#
# Coordination Sequence:
#
# PCOD8160375 Si02
#       6
#     8   4   8   8   4   8
#     4  12  25  44  70 103 149 188 237 302 375 438
#     4  11  23  42  68 108 141 181 230 308 372 440
#     4  11  27  46  72 104 142 197 247 305 364 438
#     4  11  26  46  70 103 142 189 253 300 364 437
#     4  11  23  42  68 110 137 183 232 304 370 440
#     4  11  22  38  74  99 138 182 239 298 362 433
#
# _framework density 22.157699000000001
#
# number of rings (size 3 to 8) (size 9 to 14) (size 15 to 20)
#    0.000    0.800    6.000    0.600    5.600    0.000 
#    0.000    0.000    0.000    0.000    0.000    0.000 
#    0.000    0.000    0.000    0.000    0.000    0.000 
#
# Total GULP energy -247881.774959 kJ/mol
# GULP energy per Si atom -12394.088748 kJ/mol
# Density = 2.210727 g / cm^3
# Si number density = 22.157699 Si / 1000 Ang^3
#
#
#
# Elastic Constant Matrix: (Units=GPa)
#
#
# Indices 1 2 3 4 5 6 
#
# 1 80.3053 26.2414 34.3102 0.0000 0.0000 0.0000
# 2 26.2414 94.9142 50.1139 0.0000 0.0000 0.0000
# 3 34.3102 50.1139 104.3775 0.0000 0.0000 0.0000
# 4 0.0000 0.0000 0.0000 37.9307 0.0000 0.0000
# 5 0.0000 0.0000 0.0000 0.0000 42.0249 0.0000
# 6 0.0000 0.0000 0.0000 0.0000 0.0000 35.8615
#
#
#
# Elastic Compliance Matrix: (Units=1/GPa)
#
#
# Indices 1 2 3 4 5 6 
#
# 1 0.014775 -0.002037 -0.003879 0.000000 0.000000 0.000000
# 2 -0.002037 0.014394 -0.006242 0.000000 0.000000 0.000000
# 3 -0.003879 -0.006242 0.013852 0.000000 0.000000 0.000000
# 4 0.000000 0.000000 0.000000 0.026364 0.000000 0.000000
# 5 0.000000 0.000000 0.000000 0.000000 0.023795 0.000000
# 6 0.000000 0.000000 0.000000 0.000000 0.000000 0.027885
#
#
# Mechanical properties :
#
#
# Convention : Reuss Voigt Hill
#
# Bulk Modulus (GPa) = 53.45475 55.65870 54.55672
# Shear Modulus (GPa) = 32.97783 34.42551 33.70167
#
# Velocity S-wave (km/s) = 3.86207 3.94592 3.90422
# Velocity P-wave (km/s) = 6.63811 6.77749 6.70816
#
# Compressibility (1/GPa) = 0.01870741
#
# Stress axis : x y z
#
# Youngs Moduli (GPa) = 67.68033 69.47105 72.19014
#
# Poissons Ratio (x) = 0.14151 0.28001
# Poissons Ratio (y) = 0.13787 0.45058
# Poissons Ratio (z) = 0.26252 0.43360
#
# Static dielectric constant tensor:
#      x y z
#    x 3.602060 0.000000 0.000000 
#    y 0.000000 3.791920 0.000000 
#    z 0.000000 0.000000 3.915740 
# 
# 
# High freq. dielectric constant tensor:
#      x y z
#    x 1.854040 0.000000 0.000000 
#    y 0.000000 1.865590 0.000000 
#    z 0.000000 0.000000 1.881750 
# 
# From -- ./inp_files/10541.got.cif
#   From: 2010.03.12/outbox.cif.g09.slc.cpg/sg20_6_cif.got.tgz:10541.got - 2010.04.14 01:38:04.
