data_PCOD8160880
_publ_section_title
;
Structure prediction by ZEFSAII (Michael W. Deem and Ramdas Pophale) SiO2 
 PCOD8160880
Probable space group: C 2 2 2
;
_chemical_formula_sum "Si O2"
_cell_formula_units_Z 48
_cell_length_a 11.038378
_cell_length_b 22.284347
_cell_length_c 9.937884
_cell_angle_alpha 90.000000
_cell_angle_beta 90.000000
_cell_angle_gamma 90.000000
_cell_volume 2444.550974
_symmetry_space_group_name_H-M "C 2 2 2"
_symmetry_group_IT_number 21
_symmetry_cell_setting 'orthorhombic'
loop_
_space_group_symop_operation_xyz
x,y,z
-x,-y,z
x,-y,-z
-x,y,-z
1/2+x,1/2+y,z
1/2-x,1/2-y,z
1/2+x,1/2-y,-z
1/2-x,1/2+y,-z
loop_
_atom_site_type_symbol
_atom_site_label
_atom_site_fract_x
_atom_site_fract_y
_atom_site_fract_z
Si Si1 0.247335 0.578388 0.626368
Si Si2 0.750445 0.561320 0.672156
Si Si3 0.818427 0.661485 0.155971
Si Si4 0.060047 0.220145 0.140084
Si Si5 0.638202 0.063934 0.046622
Si Si6 0.494165 0.371541 0.654183
O O1 0.233085 0.509083 0.656654
O O2 0.215064 0.592471 0.470303
O O3 0.157112 0.619602 0.713604
O O4 0.382100 0.592935 0.678269
O O5 0.840201 0.577774 0.794970
O O6 0.612385 0.582505 0.697259
O O7 0.933050 0.707145 0.149330
O O8 0.695372 0.697920 0.161076
O O9 0.800680 0.619691 0.026531
O O10 0.980622 0.189230 0.257637
O O11 0.000000 0.200877 0.000000
O O12 0.500000 0.063319 0.000000
O O13 0.696917 0.000000 0.000000
O O14 0.500000 0.350660 0.500000
#
# Coordination Sequence:
#
# PCOD8160880 Si02
#       6
#     8   8   8   8   8   8
#     4   9  18  33  57  86 115 148 184 233 306 358
#     4  10  18  34  58  84 116 147 186 241 298 358
#     4  10  20  37  55  77 114 150 188 241 287 339
#     4  10  20  35  56  80 110 150 192 232 284 352
#     4  11  22  36  54  76 109 152 196 237 285 334
#     4   9  18  33  57  88 116 143 183 239 299 358
#
# _framework density 19.635507
#
# number of rings (size 3 to 8) (size 9 to 14) (size 15 to 20)
#    0.000    2.167    1.667    2.000    0.000    2.000 
#    0.000    4.167    0.000    8.000    0.000    0.000 
#    0.000    0.000    0.000    0.000    0.000    0.000 
#
# Total GULP energy -297345.193124 kJ/mol
# GULP energy per Si atom -12389.383047 kJ/mol
# Density = 1.959082 g / cm^3
# Si number density = 19.635507 Si / 1000 Ang^3
#
#
#
# Elastic Constant Matrix: (Units=GPa)
#
#
# Indices 1 2 3 4 5 6 
#
# 1 35.7748 4.4316 34.0140 0.0000 0.0000 0.0000
# 2 4.4316 88.8662 45.0486 0.0000 0.0000 0.0000
# 3 34.0140 45.0486 153.8712 0.0000 0.0000 0.0000
# 4 0.0000 0.0000 0.0000 32.3313 0.0000 0.0000
# 5 0.0000 0.0000 0.0000 0.0000 29.3751 0.0000
# 6 0.0000 0.0000 0.0000 0.0000 0.0000 10.4750
#
#
#
# Elastic Compliance Matrix: (Units=1/GPa)
#
#
# Indices 1 2 3 4 5 6 
#
# 1 0.035904 0.002622 -0.008704 0.000000 0.000000 0.000000
# 2 0.002622 0.013405 -0.004504 0.000000 0.000000 0.000000
# 3 -0.008704 -0.004504 0.009742 0.000000 0.000000 0.000000
# 4 0.000000 0.000000 0.000000 0.030930 0.000000 0.000000
# 5 0.000000 0.000000 0.000000 0.000000 0.034042 0.000000
# 6 0.000000 0.000000 0.000000 0.000000 0.000000 0.095465
#
#
# Mechanical properties :
#
#
# Convention : Reuss Voigt Hill
#
# Bulk Modulus (GPa) = 26.40072 49.50007 37.95040
# Shear Modulus (GPa) = 19.74040 27.43748 23.58894
#
# Velocity S-wave (km/s) = 3.17415 3.74216 3.46980
# Velocity P-wave (km/s) = 5.18732 6.62841 5.95164
#
# Compressibility (1/GPa) = 0.03787776
#
# Stress axis : x y z
#
# Youngs Moduli (GPa) = 27.85219 74.59647 102.65041
#
# Poissons Ratio (x) = -0.19559 0.89351
# Poissons Ratio (y) = -0.07303 0.46237
# Poissons Ratio (z) = 0.24244 0.33600
#
# Static dielectric constant tensor:
#      x y z
#    x 3.338010 0.000000 0.000000 
#    y 0.000000 3.995990 0.000000 
#    z 0.000000 0.000000 3.830110 
# 
# 
# High freq. dielectric constant tensor:
#      x y z
#    x 1.737220 0.000000 0.000000 
#    y 0.000000 1.769770 0.000000 
#    z 0.000000 0.000000 1.774030 
# 
# From -- ./inp_files/13320.got.cif
#   From: 2010.03.12/outbox.cif.g09.slc.cpg/sg21_7_cif.got.tgz:13320.got - 2010.04.14 01:59:26.
