data_PCOD8160546
_publ_section_title
;
Structure prediction by ZEFSAII (Michael W. Deem and Ramdas Pophale) SiO2 
 PCOD8160546
Probable space group: C 2 2 21
;
_chemical_formula_sum "Si O2"
_cell_formula_units_Z 56
_cell_length_a 12.385303
_cell_length_b 13.037324
_cell_length_c 14.795859
_cell_angle_alpha 90.000000
_cell_angle_beta 90.000000
_cell_angle_gamma 90.000000
_cell_volume 2389.105227
_symmetry_space_group_name_H-M "C 2 2 21"
_symmetry_group_IT_number 20
_symmetry_cell_setting 'orthorhombic'
loop_
_space_group_symop_operation_xyz
x,y,z
-x,-y,1/2+z
x,-y,-z
-x,y,1/2-z
1/2+x,1/2+y,z
1/2-x,1/2-y,1/2+z
1/2+x,1/2-y,-z
1/2-x,1/2+y,1/2-z
loop_
_atom_site_type_symbol
_atom_site_label
_atom_site_fract_x
_atom_site_fract_y
_atom_site_fract_z
Si Si1 0.335990 0.099767 0.562049
Si Si2 0.450939 0.617453 0.480314
Si Si3 0.274497 0.805633 0.950877
Si Si4 0.796071 0.413836 0.233195
Si Si5 0.907763 0.812806 0.326547
Si Si6 0.938246 0.303744 0.100396
Si Si7 0.121384 0.368492 0.725987
O O1 0.270713 0.194163 0.519768
O O2 0.283905 0.086102 0.659953
O O3 0.461261 0.124603 0.576200
O O4 0.321271 0.000000 0.500000
O O5 0.489169 0.500000 0.500000
O O6 0.329817 0.619596 0.439250
O O7 0.458204 0.679793 0.574480
O O8 0.530769 0.682078 0.412533
O O9 0.352331 0.800735 0.863331
O O10 0.343956 0.843417 0.034925
O O11 0.679608 0.400250 0.187620
O O12 0.889165 0.332605 0.199699
O O13 0.816481 0.529337 0.205111
O O14 0.844649 0.703289 0.311529
O O15 0.000000 0.816001 0.250000
O O16 0.000000 0.400722 0.750000
#
# Coordination Sequence:
#
# PCOD8160546 Si02
#       7
#     8   8   8   8   8   8   8
#     4  11  27  45  71 105 150 194 252 315 387 448
#     4  11  25  47  73 108 146 204 249 306 398 458
#     4  11  24  45  69 107 143 191 247 310 372 464
#     4  12  25  46  73 114 148 191 256 320 383 438
#     4  11  24  49  72 103 150 199 255 303 382 476
#     4  11  25  44  73 104 148 184 251 318 370 460
#     4  11  24  42  76 103 144 195 251 306 382 457
#
# _framework density 23.439738999999999
#
# number of rings (size 3 to 8) (size 9 to 14) (size 15 to 20)
#    0.000    0.857    2.857    3.857    8.000    0.571 
#    2.571    0.000    0.000    0.000    0.000    0.000 
#    0.000    0.000    0.000    0.000    0.000    0.000 
#
# Total GULP energy -346915.870615 kJ/mol
# GULP energy per Si atom -12389.852522 kJ/mol
# Density = 2.338639 g / cm^3
# Si number density = 23.439739 Si / 1000 Ang^3
#
#
#
# Elastic Constant Matrix: (Units=GPa)
#
#
# Indices 1 2 3 4 5 6 
#
# 1 77.4207 13.8360 4.2619 0.0000 0.0000 0.0000
# 2 13.8360 137.8372 17.0573 0.0000 0.0000 0.0000
# 3 4.2619 17.0573 82.4254 0.0000 0.0000 0.0000
# 4 0.0000 0.0000 0.0000 27.0329 0.0000 0.0000
# 5 0.0000 0.0000 0.0000 0.0000 32.1182 0.0000
# 6 0.0000 0.0000 0.0000 0.0000 0.0000 25.3191
#
#
#
# Elastic Compliance Matrix: (Units=1/GPa)
#
#
# Indices 1 2 3 4 5 6 
#
# 1 0.013166 -0.001270 -0.000418 0.000000 0.000000 0.000000
# 2 -0.001270 0.007568 -0.001500 0.000000 0.000000 0.000000
# 3 -0.000418 -0.001500 0.012464 0.000000 0.000000 0.000000
# 4 0.000000 0.000000 0.000000 0.036992 0.000000 0.000000
# 5 0.000000 0.000000 0.000000 0.000000 0.031135 0.000000
# 6 0.000000 0.000000 0.000000 0.000000 0.000000 0.039496
#
#
# Mechanical properties :
#
#
# Convention : Reuss Voigt Hill
#
# Bulk Modulus (GPa) = 37.28278 40.88818 39.08548
# Shear Modulus (GPa) = 32.02275 34.39593 33.20934
#
# Velocity S-wave (km/s) = 3.70019 3.83485 3.76812
# Velocity P-wave (km/s) = 5.84769 6.09015 5.97015
#
# Compressibility (1/GPa) = 0.02682203
#
# Stress axis : x y z
#
# Youngs Moduli (GPa) = 75.95088 132.13367 80.22910
#
# Poissons Ratio (x) = 0.16780 0.03353
# Poissons Ratio (y) = 0.09645 0.12038
# Poissons Ratio (z) = 0.03175 0.19827
#
# Static dielectric constant tensor:
#      x y z
#    x 4.342260 0.000000 0.000000 
#    y 0.000000 4.414940 0.000000 
#    z 0.000000 0.000000 4.224710 
# 
# 
# High freq. dielectric constant tensor:
#      x y z
#    x 1.932490 0.000000 0.000000 
#    y 0.000000 1.925140 0.000000 
#    z 0.000000 0.000000 1.927070 
# 
# From -- ./inp_files/20020.got.cif
#   From: 2010.03.12/outbox.cif.g09.slc.cpg/sg20_11_cif.got.tgz:20020.got - 2010.04.14 01:38:04.
