data_PCOD8160008
_publ_section_title
;
Structure prediction by ZEFSAII (Michael W. Deem and Ramdas Pophale) SiO2 
 PCOD8160008
Probable space group: C 2 2 21
;
_chemical_formula_sum "Si O2"
_cell_formula_units_Z 48
_cell_length_a 16.071178
_cell_length_b 9.127000
_cell_length_c 14.563669
_cell_angle_alpha 90.000000
_cell_angle_beta 90.000000
_cell_angle_gamma 90.000000
_cell_volume 2136.222877
_symmetry_space_group_name_H-M "C 2 2 21"
_symmetry_group_IT_number 20
_symmetry_cell_setting 'orthorhombic'
loop_
_space_group_symop_operation_xyz
x,y,z
-x,-y,1/2+z
x,-y,-z
-x,y,1/2-z
1/2+x,1/2+y,z
1/2-x,1/2-y,1/2+z
1/2+x,1/2-y,-z
1/2-x,1/2+y,1/2-z
loop_
_atom_site_type_symbol
_atom_site_label
_atom_site_fract_x
_atom_site_fract_y
_atom_site_fract_z
Si Si1 0.030427 0.000000 0.000000
Si Si2 0.729463 0.227584 0.689735
Si Si3 0.477693 0.010687 0.145652
Si Si4 0.821310 0.208939 0.502310
Si Si5 0.394083 0.000000 0.500000
Si Si6 0.299240 0.096701 0.151742
Si Si7 0.550716 0.673718 0.339730
O O1 0.092129 0.868657 0.028189
O O2 0.970818 0.053781 0.082496
O O3 0.773372 0.249048 0.593660
O O4 0.786664 0.275376 0.774621
O O5 0.647479 0.329461 0.688060
O O6 0.710432 0.056884 0.704901
O O7 0.500000 0.046067 0.250000
O O8 0.550654 0.070627 0.081211
O O9 0.471441 0.836892 0.126370
O O10 0.394146 0.098027 0.115216
O O11 0.839732 0.367568 0.456908
O O12 0.765389 0.111521 0.432847
O O13 0.500000 0.627996 0.250000
#
# Coordination Sequence:
#
# PCOD8160008 Si02
#       7
#     4   8   8   8   4   8   8
#     4  12  22  46  68 102 136 180 224 278 350 404
#     4  11  25  45  69 102 137 183 227 284 341 410
#     4  10  23  44  70 100 135 182 229 279 336 408
#     4  12  26  44  71 100 141 180 227 287 343 407
#     4  12  26  44  74 102 134 182 240 280 338 412
#     4  11  25  45  72 100 140 180 229 282 347 402
#     4  10  23  43  71  98 139 181 225 279 344 404
#
# _framework density 22.469563999999998
#
# number of rings (size 3 to 8) (size 9 to 14) (size 15 to 20)
#    0.000    1.000    3.333    2.000   11.667    0.667 
#    3.000    0.833    0.000    0.000    0.000    0.000 
#    0.000    0.000    0.000    0.000    0.000    0.000 
#
# Total GULP energy -297636.002629 kJ/mol
# GULP energy per Si atom -12401.500110 kJ/mol
# Density = 2.241842 g / cm^3
# Si number density = 22.469564 Si / 1000 Ang^3
#
#
#
# Elastic Constant Matrix: (Units=GPa)
#
#
# Indices 1 2 3 4 5 6 
#
# 1 66.4258 31.2668 13.7505 0.0000 0.0000 0.0000
# 2 31.2668 80.7121 13.9426 0.0000 0.0000 0.0000
# 3 13.7505 13.9426 101.7927 0.0000 0.0000 0.0000
# 4 0.0000 0.0000 0.0000 36.6068 0.0000 0.0000
# 5 0.0000 0.0000 0.0000 0.0000 41.0956 0.0000
# 6 0.0000 0.0000 0.0000 0.0000 0.0000 13.1622
#
#
#
# Elastic Compliance Matrix: (Units=1/GPa)
#
#
# Indices 1 2 3 4 5 6 
#
# 1 0.018653 -0.006955 -0.001567 0.000000 0.000000 0.000000
# 2 -0.006955 0.015283 -0.001154 0.000000 0.000000 0.000000
# 3 -0.001567 -0.001154 0.010194 0.000000 0.000000 0.000000
# 4 0.000000 0.000000 0.000000 0.027317 0.000000 0.000000
# 5 0.000000 0.000000 0.000000 0.000000 0.024333 0.000000
# 6 0.000000 0.000000 0.000000 0.000000 0.000000 0.075975
#
#
# Mechanical properties :
#
#
# Convention : Reuss Voigt Hill
#
# Bulk Modulus (GPa) = 40.35897 40.76116 40.56006
# Shear Modulus (GPa) = 25.07942 30.83763 27.95853
#
# Velocity S-wave (km/s) = 3.34451 3.70864 3.53127
# Velocity P-wave (km/s) = 5.73715 6.04306 5.89209
#
# Compressibility (1/GPa) = 0.02477764
#
# Stress axis : x y z
#
# Youngs Moduli (GPa) = 53.61200 65.43070 98.10068
#
# Poissons Ratio (x) = 0.45507 0.15372
# Poissons Ratio (y) = 0.37287 0.11319
# Poissons Ratio (z) = 0.08401 0.07550
#
# Static dielectric constant tensor:
#      x y z
#    x 4.265900 0.000000 0.000000 
#    y 0.000000 4.004100 0.000000 
#    z 0.000000 0.000000 3.846390 
# 
# 
# High freq. dielectric constant tensor:
#      x y z
#    x 1.894920 0.000000 0.000000 
#    y 0.000000 1.879820 0.000000 
#    z 0.000000 0.000000 1.882940 
# 
# From -- ./inp_files/21320.got.cif
#   From: 2010.03.12/outbox.cif.g09.slc.cpg/sg20_11_cif.got.tgz:21320.got - 2010.04.14 01:38:04.
