data_PCOD8160865
_publ_section_title
;
Structure prediction by ZEFSAII (Michael W. Deem and Ramdas Pophale) SiO2 
 PCOD8160865
Probable space group: C 2 2 2
;
_chemical_formula_sum "Si O2"
_cell_formula_units_Z 48
_cell_length_a 16.513940
_cell_length_b 14.869787
_cell_length_c 9.693968
_cell_angle_alpha 90.000000
_cell_angle_beta 90.000000
_cell_angle_gamma 90.000000
_cell_volume 2380.438862
_symmetry_space_group_name_H-M "C 2 2 2"
_symmetry_group_IT_number 21
_symmetry_cell_setting 'orthorhombic'
loop_
_space_group_symop_operation_xyz
x,y,z
-x,-y,z
x,-y,-z
-x,y,-z
1/2+x,1/2+y,z
1/2-x,1/2-y,z
1/2+x,1/2-y,-z
1/2-x,1/2+y,-z
loop_
_atom_site_type_symbol
_atom_site_label
_atom_site_fract_x
_atom_site_fract_y
_atom_site_fract_z
Si Si1 0.406192 0.217196 0.524831
Si Si2 0.659595 0.064491 0.886454
Si Si3 0.194925 0.552013 0.367498
Si Si4 0.153889 0.750444 0.778010
Si Si5 0.156767 0.097681 0.027794
Si Si6 0.820477 0.822582 0.746284
O O1 0.500000 0.201992 0.500000
O O2 0.369375 0.126441 0.586460
O O3 0.365246 0.247915 0.383168
O O4 0.390280 0.294402 0.638661
O O5 0.618484 0.162442 0.859626
O O6 0.748989 0.081128 0.944788
O O7 0.653485 0.014724 0.740390
O O8 0.614625 0.000000 0.000000
O O9 0.224972 0.500000 0.500000
O O10 0.278268 0.586165 0.302347
O O11 0.250000 0.750000 0.794645
O O12 0.119417 0.843457 0.845444
O O13 0.140884 0.160435 0.895007
O O14 0.114454 0.000000 0.000000
O O15 0.750000 0.750000 0.756709
#
# Coordination Sequence:
#
# PCOD8160865 Si02
#       6
#     8   8   8   8   8   8
#     4  11  25  40  55  83 127 175 207 240 303 379
#     4  10  18  32  57  97 124 143 188 258 319 360
#     4  11  20  35  62  94 121 151 201 258 308 365
#     4  10  20  36  60  90 122 150 203 259 307 360
#     4  10  19  33  59  94 117 145 194 265 321 360
#     4  10  20  35  60  87 115 154 201 252 306 358
#
# _framework density 20.164349000000001
#
# number of rings (size 3 to 8) (size 9 to 14) (size 15 to 20)
#    0.000    1.667    5.000    3.000    4.667    0.333 
#    0.000    0.833    0.000    6.500    0.000    0.000 
#    0.000    0.000    0.000    0.000    0.000    0.000 
#
# Total GULP energy -297421.672296 kJ/mol
# GULP energy per Si atom -12392.569679 kJ/mol
# Density = 2.011845 g / cm^3
# Si number density = 20.164349 Si / 1000 Ang^3
#
#
#
# Elastic Constant Matrix: (Units=GPa)
#
#
# Indices 1 2 3 4 5 6 
#
# 1 29.9428 1.3414 -0.6910 0.0000 0.0000 0.0000
# 2 1.3414 110.1966 51.3819 0.0000 0.0000 0.0000
# 3 -0.6910 51.3819 140.5039 0.0000 0.0000 0.0000
# 4 0.0000 0.0000 0.0000 48.5153 0.0000 0.0000
# 5 0.0000 0.0000 0.0000 0.0000 4.0801 0.0000
# 6 0.0000 0.0000 0.0000 0.0000 0.0000 10.2140
#
#
#
# Elastic Compliance Matrix: (Units=1/GPa)
#
#
# Indices 1 2 3 4 5 6 
#
# 1 0.033432 -0.000583 0.000378 0.000000 0.000000 0.000000
# 2 -0.000583 0.010950 -0.004007 0.000000 0.000000 0.000000
# 3 0.000378 -0.004007 0.008585 0.000000 0.000000 0.000000
# 4 0.000000 0.000000 0.000000 0.020612 0.000000 0.000000
# 5 0.000000 0.000000 0.000000 0.000000 0.245091 0.000000
# 6 0.000000 0.000000 0.000000 0.000000 0.000000 0.097905
#
#
# Mechanical properties :
#
#
# Convention : Reuss Voigt Hill
#
# Bulk Modulus (GPa) = 22.45111 42.74532 32.59821
# Shear Modulus (GPa) = 11.36758 27.80262 19.58510
#
# Velocity S-wave (km/s) = 2.37691 3.71725 3.11991
# Velocity P-wave (km/s) = 4.32333 6.29829 5.40183
#
# Compressibility (1/GPa) = 0.04454124
#
# Stress axis : x y z
#
# Youngs Moduli (GPa) = 29.91158 91.32148 116.48793
#
# Poissons Ratio (x) = 0.05324 -0.04399
# Poissons Ratio (y) = 0.01744 0.46681
# Poissons Ratio (z) = -0.01130 0.36596
#
# Static dielectric constant tensor:
#      x y z
#    x 3.015040 0.000000 0.000000 
#    y 0.000000 4.238960 0.000000 
#    z 0.000000 0.000000 4.068700 
# 
# 
# High freq. dielectric constant tensor:
#      x y z
#    x 1.707930 0.000000 0.000000 
#    y 0.000000 1.808630 0.000000 
#    z 0.000000 0.000000 1.811820 
# 
# From -- ./inp_files/15013.got.cif
#   From: 2010.03.12/outbox.cif.g09.slc.cpg/sg21_8_cif.got.tgz:15013.got - 2010.04.14 01:59:26.
