data_PCOD8160252
_publ_section_title
;
Structure prediction by ZEFSAII (Michael W. Deem and Ramdas Pophale) SiO2 
 PCOD8160252
Probable space group: C 2 2 21
;
_chemical_formula_sum "Si O2"
_cell_formula_units_Z 40
_cell_length_a 16.198340
_cell_length_b 16.227369
_cell_length_c 7.224276
_cell_angle_alpha 90.000000
_cell_angle_beta 90.000000
_cell_angle_gamma 90.000000
_cell_volume 1898.947474
_symmetry_space_group_name_H-M "C 2 2 21"
_symmetry_group_IT_number 20
_symmetry_cell_setting 'orthorhombic'
loop_
_space_group_symop_operation_xyz
x,y,z
-x,-y,1/2+z
x,-y,-z
-x,y,1/2-z
1/2+x,1/2+y,z
1/2-x,1/2-y,1/2+z
1/2+x,1/2-y,-z
1/2-x,1/2+y,1/2-z
loop_
_atom_site_type_symbol
_atom_site_label
_atom_site_fract_x
_atom_site_fract_y
_atom_site_fract_z
Si Si1 0.500000 0.819944 0.750000
Si Si2 0.698288 0.842266 0.152907
Si Si3 0.348772 0.275273 0.342086
Si Si4 0.937400 0.581892 0.909455
Si Si5 0.910379 0.049089 0.680417
Si Si6 0.205809 0.000000 0.500000
O O1 0.578385 0.761040 0.718494
O O2 0.505529 0.873176 0.562408
O O3 0.764022 0.775896 0.228993
O O4 0.640112 0.869159 0.323501
O O5 0.737003 0.919124 0.034714
O O6 0.647076 0.784946 0.016705
O O7 0.362339 0.370578 0.388531
O O8 0.000000 0.555278 0.750000
O O9 0.898274 0.500000 0.000000
O O10 0.000000 0.075357 0.750000
O O11 0.928593 0.000000 0.500000
O O12 0.855077 0.994560 0.822579
#
# Coordination Sequence:
#
# PCOD8160252 Si02
#       6
#     4   8   8   8   8   4
#     4  12  24  46  74 100 142 176 242 288 348 420
#     4  11  26  46  70 103 144 185 229 292 356 415
#     4  11  25  45  69 103 138 180 234 289 346 417
#     4  12  26  45  73 104 138 187 233 290 351 422
#     4  11  23  45  71 101 134 182 232 289 347 412
#     4  10  26  44  70 104 138 180 234 280 356 424
#
# _framework density 21.064302000000001
#
# number of rings (size 3 to 8) (size 9 to 14) (size 15 to 20)
#    0.000    0.800    5.000    1.200    7.000    3.200 
#    3.600    0.000    0.000    0.000    0.000    0.000 
#    0.000    0.000    0.000    0.000    0.000    0.000 
#
# Total GULP energy -247817.250057 kJ/mol
# GULP energy per Si atom -12390.862503 kJ/mol
# Density = 2.101636 g / cm^3
# Si number density = 21.064302 Si / 1000 Ang^3
#
#
#
# Elastic Constant Matrix: (Units=GPa)
#
#
# Indices 1 2 3 4 5 6 
#
# 1 104.4586 31.7383 46.1292 0.0000 0.0000 0.0000
# 2 31.7383 94.3552 57.4019 0.0000 0.0000 0.0000
# 3 46.1292 57.4019 107.0715 0.0000 0.0000 0.0000
# 4 0.0000 0.0000 0.0000 42.7518 0.0000 0.0000
# 5 0.0000 0.0000 0.0000 0.0000 29.2676 0.0000
# 6 0.0000 0.0000 0.0000 0.0000 0.0000 37.3946
#
#
#
# Elastic Compliance Matrix: (Units=1/GPa)
#
#
# Indices 1 2 3 4 5 6 
#
# 1 0.011931 -0.001315 -0.004435 0.000000 0.000000 0.000000
# 2 -0.001315 0.015873 -0.007943 0.000000 0.000000 0.000000
# 3 -0.004435 -0.007943 0.015509 0.000000 0.000000 0.000000
# 4 0.000000 0.000000 0.000000 0.023391 0.000000 0.000000
# 5 0.000000 0.000000 0.000000 0.000000 0.034168 0.000000
# 6 0.000000 0.000000 0.000000 0.000000 0.000000 0.026742
#
#
# Mechanical properties :
#
#
# Convention : Reuss Voigt Hill
#
# Bulk Modulus (GPa) = 62.78994 64.04714 63.41854
# Shear Modulus (GPa) = 31.18987 33.25719 32.22353
#
# Velocity S-wave (km/s) = 3.85216 3.97777 3.91547
# Velocity P-wave (km/s) = 7.04691 7.18112 7.11433
#
# Compressibility (1/GPa) = 0.01592612
#
# Stress axis : x y z
#
# Youngs Moduli (GPa) = 83.81249 63.00096 64.48001
#
# Poissons Ratio (x) = 0.08285 0.28599
# Poissons Ratio (y) = 0.11022 0.51216
# Poissons Ratio (z) = 0.37174 0.50041
#
# Static dielectric constant tensor:
#      x y z
#    x 4.054240 0.000000 0.000000 
#    y 0.000000 4.061760 0.000000 
#    z 0.000000 0.000000 3.666210 
# 
# 
# High freq. dielectric constant tensor:
#      x y z
#    x 1.842400 0.000000 0.000000 
#    y 0.000000 1.827080 0.000000 
#    z 0.000000 0.000000 1.825270 
# 
# From -- ./inp_files/2537.got.cif
#   From: 2010.03.12/outbox.cif.g09.slc.cpg/sg20_2_cif.got.tgz:2537.got - 2010.04.14 01:38:04.
