data_PCOD8160764
_publ_section_title
;
Structure prediction by ZEFSAII (Michael W. Deem and Ramdas Pophale) SiO2 
 PCOD8160764
Probable space group: C 2 2 2
;
_chemical_formula_sum "Si O2"
_cell_formula_units_Z 48
_cell_length_a 5.648945
_cell_length_b 19.080900
_cell_length_c 23.024690
_cell_angle_alpha 90.000000
_cell_angle_beta 90.000000
_cell_angle_gamma 90.000000
_cell_volume 2481.761217
_symmetry_space_group_name_H-M "C 2 2 2"
_symmetry_group_IT_number 21
_symmetry_cell_setting 'orthorhombic'
loop_
_space_group_symop_operation_xyz
x,y,z
-x,-y,z
x,-y,-z
-x,y,-z
1/2+x,1/2+y,z
1/2-x,1/2-y,z
1/2+x,1/2-y,-z
1/2-x,1/2+y,-z
loop_
_atom_site_type_symbol
_atom_site_label
_atom_site_fract_x
_atom_site_fract_y
_atom_site_fract_z
Si Si1 0.532094 0.421920 0.118232
Si Si2 0.251009 0.541079 0.351822
Si Si3 0.343635 0.177533 0.949097
Si Si4 0.750041 0.580172 0.521856
Si Si5 0.361626 0.177933 0.161975
Si Si6 0.362634 0.073307 0.771264
O O1 0.500000 0.500000 0.094298
O O2 0.651697 0.380983 0.065325
O O3 0.293592 0.381324 0.131436
O O4 0.671099 0.426637 0.178432
O O5 0.500000 0.500000 0.354136
O O6 0.249488 0.589360 0.408635
O O7 0.258032 0.584451 0.291635
O O8 0.000000 0.500000 0.353097
O O9 0.250000 0.250000 0.976692
O O10 0.460356 0.200742 0.888398
O O11 0.500000 0.143110 0.000000
O O12 0.750094 0.500000 0.500000
O O13 0.500000 0.615243 0.500000
O O14 0.000000 0.615277 0.500000
O O15 0.250000 0.250000 0.185238
O O16 0.473513 0.141182 0.218467
O O17 0.500000 0.000000 0.773657
#
# Coordination Sequence:
#
# PCOD8160764 Si02
#       6
#     8   8   8   8   8   8
#     4  11  22  41  63  85 120 150 190 245 302 357
#     4  11  19  29  48  76 113 160 207 240 304 367
#     4  11  24  40  66  89 111 150 198 242 294 367
#     4  10  15  26  40  67 106 157 202 242 294 364
#     4  11  22  41  62  86 112 155 196 240 302 355
#     4  10  22  34  57  85 114 159 197 244 296 365
#
# _framework density 19.341103
#
# number of rings (size 3 to 8) (size 9 to 14) (size 15 to 20)
#    0.000    1.333    6.667    1.000    2.333    0.000 
#    0.000    2.500    0.000    0.000    0.000    0.000 
#    0.000    0.000    5.667    0.333    0.000    0.000 
#
# Total GULP energy -297315.678804 kJ/mol
# GULP energy per Si atom -12388.153283 kJ/mol
# Density = 1.929708 g / cm^3
# Si number density = 19.341103 Si / 1000 Ang^3
#
#
#
# Elastic Constant Matrix: (Units=GPa)
#
#
# Indices 1 2 3 4 5 6 
#
# 1 123.7468 24.3722 26.3100 0.0000 0.0000 0.0000
# 2 24.3722 97.7705 19.8124 0.0000 0.0000 0.0000
# 3 26.3100 19.8124 117.6951 0.0000 0.0000 0.0000
# 4 0.0000 0.0000 0.0000 9.5349 0.0000 0.0000
# 5 0.0000 0.0000 0.0000 0.0000 27.0337 0.0000
# 6 0.0000 0.0000 0.0000 0.0000 0.0000 23.0135
#
#
#
# Elastic Compliance Matrix: (Units=1/GPa)
#
#
# Indices 1 2 3 4 5 6 
#
# 1 0.008799 -0.001858 -0.001654 0.000000 0.000000 0.000000
# 2 -0.001858 0.010982 -0.001433 0.000000 0.000000 0.000000
# 3 -0.001654 -0.001433 0.009108 0.000000 0.000000 0.000000
# 4 0.000000 0.000000 0.000000 0.104878 0.000000 0.000000
# 5 0.000000 0.000000 0.000000 0.000000 0.036991 0.000000
# 6 0.000000 0.000000 0.000000 0.000000 0.000000 0.043453
#
#
# Mechanical properties :
#
#
# Convention : Reuss Voigt Hill
#
# Bulk Modulus (GPa) = 52.64007 53.35574 52.99790
# Shear Modulus (GPa) = 21.69829 29.83094 25.76462
#
# Velocity S-wave (km/s) = 3.35307 3.93155 3.65378
# Velocity P-wave (km/s) = 6.50127 6.94666 6.72765
#
# Compressibility (1/GPa) = 0.01899694
#
# Stress axis : x y z
#
# Youngs Moduli (GPa) = 113.65372 91.06091 109.79888
#
# Poissons Ratio (x) = 0.16920 0.18162
# Poissons Ratio (y) = 0.21118 0.15737
# Poissons Ratio (z) = 0.18799 0.13051
#
# Static dielectric constant tensor:
#      x y z
#    x 4.078830 0.000000 0.000000 
#    y 0.000000 3.071610 0.000000 
#    z 0.000000 0.000000 3.842510 
# 
# 
# High freq. dielectric constant tensor:
#      x y z
#    x 1.776400 0.000000 0.000000 
#    y 0.000000 1.699680 0.000000 
#    z 0.000000 0.000000 1.758140 
# 
# From -- ./inp_files/38235.got.cif
#   From: 2010.03.12/outbox.cif.g09.slc.cpg/sg21_20_cif.got.tgz:38235.got - 2010.04.14 01:59:26.
