data_PCOD8160552
_publ_section_title
;
Structure prediction by ZEFSAII (Michael W. Deem and Ramdas Pophale) SiO2 
 PCOD8160552
Probable space group: C 2 2 21
;
_chemical_formula_sum "Si O2"
_cell_formula_units_Z 48
_cell_length_a 7.717803
_cell_length_b 15.757665
_cell_length_c 18.620325
_cell_angle_alpha 90.000000
_cell_angle_beta 90.000000
_cell_angle_gamma 90.000000
_cell_volume 2264.502524
_symmetry_space_group_name_H-M "C 2 2 21"
_symmetry_group_IT_number 20
_symmetry_cell_setting 'orthorhombic'
loop_
_space_group_symop_operation_xyz
x,y,z
-x,-y,1/2+z
x,-y,-z
-x,y,1/2-z
1/2+x,1/2+y,z
1/2-x,1/2-y,1/2+z
1/2+x,1/2-y,-z
1/2-x,1/2+y,1/2-z
loop_
_atom_site_type_symbol
_atom_site_label
_atom_site_fract_x
_atom_site_fract_y
_atom_site_fract_z
Si Si1 0.148862 0.872510 0.196004
Si Si2 0.599841 0.921737 0.545520
Si Si3 0.396545 0.333057 0.464560
Si Si4 0.324105 0.305139 0.790963
Si Si5 0.663453 0.043843 0.289665
Si Si6 0.754327 0.844928 0.948610
O O1 0.099494 0.880330 0.112141
O O2 0.285270 0.795440 0.205165
O O3 0.000000 0.843631 0.250000
O O4 0.201033 0.967242 0.220060
O O5 0.729346 0.849997 0.515112
O O6 0.633370 0.935942 0.628225
O O7 0.391267 0.915387 0.534326
O O8 0.667156 0.000000 0.500000
O O9 0.377504 0.233824 0.452918
O O10 0.584486 0.353710 0.497900
O O11 0.500000 0.317141 0.750000
O O12 0.194296 0.365161 0.747488
O O13 0.338509 0.346310 0.869835
O O14 0.500000 0.003356 0.250000
#
# Coordination Sequence:
#
# PCOD8160552 Si02
#       6
#     8   8   8   8   8   8
#     4  11  26  44  68 103 137 181 234 287 354 414
#     4  12  25  46  70 102 141 182 230 288 352 420
#     4  11  24  44  71 101 139 183 231 286 343 422
#     4  11  24  44  69 100 136 182 230 287 351 416
#     4  12  24  45  70  99 141 180 228 289 345 414
#     4  11  24  43  72 101 134 184 233 283 349 418
#
# _framework density 21.196708000000001
#
# number of rings (size 3 to 8) (size 9 to 14) (size 15 to 20)
#    0.000    0.667    5.000    2.500    2.333    3.333 
#    3.000    0.000    0.000    0.000    0.000    0.000 
#    0.000    0.000    0.000    0.000    0.000    0.000 
#
# Total GULP energy -297327.538988 kJ/mol
# GULP energy per Si atom -12388.647458 kJ/mol
# Density = 2.114846 g / cm^3
# Si number density = 21.196708 Si / 1000 Ang^3
#
#
#
# Elastic Constant Matrix: (Units=GPa)
#
#
# Indices 1 2 3 4 5 6 
#
# 1 106.5891 9.2902 34.2580 0.0000 0.0000 0.0000
# 2 9.2902 74.6543 28.6615 0.0000 0.0000 0.0000
# 3 34.2580 28.6615 140.6729 0.0000 0.0000 0.0000
# 4 0.0000 0.0000 0.0000 28.2431 0.0000 0.0000
# 5 0.0000 0.0000 0.0000 0.0000 46.8838 0.0000
# 6 0.0000 0.0000 0.0000 0.0000 0.0000 31.1289
#
#
#
# Elastic Compliance Matrix: (Units=1/GPa)
#
#
# Indices 1 2 3 4 5 6 
#
# 1 0.010187 -0.000342 -0.002411 0.000000 0.000000 0.000000
# 2 -0.000342 0.014543 -0.002880 0.000000 0.000000 0.000000
# 3 -0.002411 -0.002880 0.008283 0.000000 0.000000 0.000000
# 4 0.000000 0.000000 0.000000 0.035407 0.000000 0.000000
# 5 0.000000 0.000000 0.000000 0.000000 0.021329 0.000000
# 6 0.000000 0.000000 0.000000 0.000000 0.000000 0.032124
#
#
# Mechanical properties :
#
#
# Convention : Reuss Voigt Hill
#
# Bulk Modulus (GPa) = 45.98407 51.81507 48.89957
# Shear Modulus (GPa) = 35.61563 37.89825 36.75694
#
# Velocity S-wave (km/s) = 4.10352 4.23298 4.16876
# Velocity P-wave (km/s) = 6.64778 6.95620 6.80374
#
# Compressibility (1/GPa) = 0.02174666
#
# Stress axis : x y z
#
# Youngs Moduli (GPa) = 98.16870 68.76038 120.73495
#
# Poissons Ratio (x) = 0.02352 0.29110
# Poissons Ratio (y) = 0.03357 0.34770
# Poissons Ratio (z) = 0.23669 0.19802
#
# Static dielectric constant tensor:
#      x y z
#    x 3.949590 0.000000 0.000000 
#    y 0.000000 3.489240 0.000000 
#    z 0.000000 0.000000 3.559670 
# 
# 
# High freq. dielectric constant tensor:
#      x y z
#    x 1.834710 0.000000 0.000000 
#    y 0.000000 1.837530 0.000000 
#    z 0.000000 0.000000 1.846430 
# 
# From -- ./inp_files/23467.got.cif
#   From: 2010.03.12/outbox.cif.g09.slc.cpg/sg20_12_cif.got.tgz:23467.got - 2010.04.14 01:38:04.
