data_PCOD8160393
_publ_section_title
;
Structure prediction by ZEFSAII (Michael W. Deem and Ramdas Pophale) SiO2 
 PCOD8160393
Probable space group: C 2 2 21
;
_chemical_formula_sum "Si O2"
_cell_formula_units_Z 48
_cell_length_a 13.913373
_cell_length_b 18.710201
_cell_length_c 8.354818
_cell_angle_alpha 90.000000
_cell_angle_beta 90.000000
_cell_angle_gamma 90.000000
_cell_volume 2174.942977
_symmetry_space_group_name_H-M "C 2 2 21"
_symmetry_group_IT_number 20
_symmetry_cell_setting 'orthorhombic'
loop_
_space_group_symop_operation_xyz
x,y,z
-x,-y,1/2+z
x,-y,-z
-x,y,1/2-z
1/2+x,1/2+y,z
1/2-x,1/2-y,1/2+z
1/2+x,1/2-y,-z
1/2-x,1/2+y,1/2-z
loop_
_atom_site_type_symbol
_atom_site_label
_atom_site_fract_x
_atom_site_fract_y
_atom_site_fract_z
Si Si1 0.933525 0.063800 0.892618
Si Si2 0.081485 0.557086 0.634620
Si Si3 0.047676 0.683764 0.410592
Si Si4 0.242808 0.224224 0.026648
Si Si5 0.254224 0.143515 0.708762
Si Si6 0.039207 0.816659 0.922447
O O1 0.849132 0.108292 0.810965
O O2 0.000000 0.033834 0.750000
O O3 0.997145 0.109767 0.013956
O O4 0.890344 0.000000 0.000000
O O5 0.115228 0.500000 0.500000
O O6 0.034953 0.625664 0.549834
O O7 0.171329 0.580941 0.745281
O O8 0.000000 0.523319 0.750000
O O9 0.160003 0.701157 0.381564
O O10 0.000000 0.652642 0.250000
O O11 0.989634 0.754772 0.454692
O O12 0.221622 0.309846 0.049168
O O13 0.154316 0.177008 0.091955
O O14 0.254480 0.206732 0.839998
O O15 0.000000 0.796404 0.750000
#
# Coordination Sequence:
#
# PCOD8160393 Si02
#       6
#     8   8   8   8   8   8
#     4  12  26  49  70 101 147 196 237 295 361 441
#     4  11  25  46  68  99 145 187 236 288 358 430
#     4  11  22  41  70 105 138 184 237 298 357 416
#     4  11  22  40  71 100 143 175 239 303 351 419
#     4  11  24  45  70 109 136 184 239 296 365 422
#     4  12  23  42  67 104 142 184 239 296 359 423
#
# _framework density 22.069542999999999
#
# number of rings (size 3 to 8) (size 9 to 14) (size 15 to 20)
#    0.000    0.667    3.333    6.000    0.000    1.333 
#    6.000    0.000    0.000    0.000    0.000    0.000 
#    0.000    0.000    0.000    0.000    0.000    0.000 
#
# Total GULP energy -297638.290115 kJ/mol
# GULP energy per Si atom -12401.595421 kJ/mol
# Density = 2.201931 g / cm^3
# Si number density = 22.069543 Si / 1000 Ang^3
#
#
#
# Elastic Constant Matrix: (Units=GPa)
#
#
# Indices 1 2 3 4 5 6 
#
# 1 148.7103 29.4757 47.6055 0.0000 0.0000 0.0000
# 2 29.4757 93.3910 26.0722 0.0000 0.0000 0.0000
# 3 47.6055 26.0722 78.8394 0.0000 0.0000 0.0000
# 4 0.0000 0.0000 0.0000 45.3311 0.0000 0.0000
# 5 0.0000 0.0000 0.0000 0.0000 33.9211 0.0000
# 6 0.0000 0.0000 0.0000 0.0000 0.0000 24.8488
#
#
#
# Elastic Compliance Matrix: (Units=1/GPa)
#
#
# Indices 1 2 3 4 5 6 
#
# 1 0.008493 -0.001376 -0.004673 0.000000 0.000000 0.000000
# 2 -0.001376 0.012020 -0.003144 0.000000 0.000000 0.000000
# 3 -0.004673 -0.003144 0.016546 0.000000 0.000000 0.000000
# 4 0.000000 0.000000 0.000000 0.022060 0.000000 0.000000
# 5 0.000000 0.000000 0.000000 0.000000 0.029480 0.000000
# 6 0.000000 0.000000 0.000000 0.000000 0.000000 0.040243
#
#
# Mechanical properties :
#
#
# Convention : Reuss Voigt Hill
#
# Bulk Modulus (GPa) = 53.55687 58.58305 56.06996
# Shear Modulus (GPa) = 32.58325 35.33935 33.96130
#
# Velocity S-wave (km/s) = 3.84655 4.00593 3.92705
# Velocity P-wave (km/s) = 6.63686 6.92813 6.78406
#
# Compressibility (1/GPa) = 0.01867174
#
# Stress axis : x y z
#
# Youngs Moduli (GPa) = 117.74006 83.19693 60.43853
#
# Poissons Ratio (x) = 0.11447 0.28246
# Poissons Ratio (y) = 0.16200 0.19002
# Poissons Ratio (z) = 0.55026 0.26158
#
# Static dielectric constant tensor:
#      x y z
#    x 4.073600 0.000000 0.000000 
#    y 0.000000 3.805420 0.000000 
#    z 0.000000 0.000000 4.085760 
# 
# 
# High freq. dielectric constant tensor:
#      x y z
#    x 1.877530 0.000000 0.000000 
#    y 0.000000 1.853850 0.000000 
#    z 0.000000 0.000000 1.875250 
# 
# From -- ./inp_files/8385.got.cif
#   From: 2010.03.12/outbox.cif.g09.slc.cpg/sg20_5_cif.got.tgz:8385.got - 2010.04.14 01:38:04.
