data_PCOD8160899
_publ_section_title
;
Structure prediction by ZEFSAII (Michael W. Deem and Ramdas Pophale) SiO2 
 PCOD8160899
Probable space group: C 2 2 2
;
_chemical_formula_sum "Si O2"
_cell_formula_units_Z 56
_cell_length_a 20.608483
_cell_length_b 10.034838
_cell_length_c 13.623229
_cell_angle_alpha 90.000000
_cell_angle_beta 90.000000
_cell_angle_gamma 90.000000
_cell_volume 2817.321743
_symmetry_space_group_name_H-M "C 2 2 2"
_symmetry_group_IT_number 21
_symmetry_cell_setting 'orthorhombic'
loop_
_space_group_symop_operation_xyz
x,y,z
-x,-y,z
x,-y,-z
-x,y,-z
1/2+x,1/2+y,z
1/2-x,1/2-y,z
1/2+x,1/2-y,-z
1/2-x,1/2+y,-z
loop_
_atom_site_type_symbol
_atom_site_label
_atom_site_fract_x
_atom_site_fract_y
_atom_site_fract_z
Si Si1 0.909650 0.756249 0.709032
Si Si2 0.748150 0.593872 0.089632
Si Si3 0.867007 0.973991 0.217859
Si Si4 0.439573 0.758199 0.695268
Si Si5 0.844892 0.486329 0.737102
Si Si6 0.877431 0.146797 0.502165
Si Si7 0.234736 0.893673 0.628748
O O1 0.868667 0.635713 0.755384
O O2 0.883488 0.780469 0.600346
O O3 0.984343 0.718104 0.699164
O O4 0.900053 0.880597 0.782678
O O5 0.750000 0.750000 0.060313
O O6 0.674813 0.553225 0.120419
O O7 0.797676 0.563039 0.177010
O O8 0.769065 0.500000 0.000000
O O9 0.922155 0.862084 0.230680
O O10 0.821110 0.970924 0.312922
O O11 0.407447 0.893430 0.733160
O O12 0.414917 0.730633 0.584945
O O13 0.802287 0.476104 0.634993
O O14 0.798844 0.133346 0.522763
O O15 0.909934 0.000000 0.500000
O O16 0.250000 0.750000 0.679316
#
# Coordination Sequence:
#
# PCOD8160899 Si02
#       7
#     8   8   8   8   8   8   8
#     4  12  25  36  62  95 125 170 224 263 287 372
#     4  11  24  44  75  98 127 156 193 264 328 391
#     4  10  20  40  64  92 120 164 208 248 315 378
#     4  11  21  43  63  82 130 183 209 250 316 363
#     4  11  23  43  62  93 127 161 204 257 329 383
#     4  11  22  37  57  89 118 171 230 272 303 347
#     4  10  18  38  60  77 119 163 204 254 321 358
#
# _framework density 19.877034999999999
#
# number of rings (size 3 to 8) (size 9 to 14) (size 15 to 20)
#    0.000    1.143    7.143    2.143    2.000    4.000 
#    0.000    1.429    0.000    5.143    0.000    0.000 
#    0.000    0.000    0.000    0.000    0.000    0.000 
#
# Total GULP energy -347081.655192 kJ/mol
# GULP energy per Si atom -12395.773400 kJ/mol
# Density = 1.983179 g / cm^3
# Si number density = 19.877035 Si / 1000 Ang^3
#
#
#
# Elastic Constant Matrix: (Units=GPa)
#
#
# Indices 1 2 3 4 5 6 
#
# 1 114.9868 36.0615 25.8424 0.0000 0.0000 0.0000
# 2 36.0615 121.3683 24.2175 0.0000 0.0000 0.0000
# 3 25.8424 24.2175 60.7659 0.0000 0.0000 0.0000
# 4 0.0000 0.0000 0.0000 24.7557 0.0000 0.0000
# 5 0.0000 0.0000 0.0000 0.0000 14.6868 0.0000
# 6 0.0000 0.0000 0.0000 0.0000 0.0000 31.6551
#
#
#
# Elastic Compliance Matrix: (Units=1/GPa)
#
#
# Indices 1 2 3 4 5 6 
#
# 1 0.010198 -0.002352 -0.003400 0.000000 0.000000 0.000000
# 2 -0.002352 0.009494 -0.002783 0.000000 0.000000 0.000000
# 3 -0.003400 -0.002783 0.019012 0.000000 0.000000 0.000000
# 4 0.000000 0.000000 0.000000 0.040395 0.000000 0.000000
# 5 0.000000 0.000000 0.000000 0.000000 0.068088 0.000000
# 6 0.000000 0.000000 0.000000 0.000000 0.000000 0.031590
#
#
# Mechanical properties :
#
#
# Convention : Reuss Voigt Hill
#
# Bulk Modulus (GPa) = 46.22437 52.15154 49.18796
# Shear Modulus (GPa) = 24.62348 28.28615 26.45481
#
# Velocity S-wave (km/s) = 3.52346 3.77644 3.65214
# Velocity P-wave (km/s) = 6.31338 6.73122 6.52564
#
# Compressibility (1/GPa) = 0.02163361
#
# Stress axis : x y z
#
# Youngs Moduli (GPa) = 98.05561 105.33471 52.59897
#
# Poissons Ratio (x) = 0.24772 0.17883
# Poissons Ratio (y) = 0.23060 0.14640
# Poissons Ratio (z) = 0.33337 0.29319
#
# Static dielectric constant tensor:
#      x y z
#    x 3.709970 0.000000 0.000000 
#    y 0.000000 3.769270 0.000000 
#    z 0.000000 0.000000 3.350110 
# 
# 
# High freq. dielectric constant tensor:
#      x y z
#    x 1.775840 0.000000 0.000000 
#    y 0.000000 1.787740 0.000000 
#    z 0.000000 0.000000 1.733830 
# 
# From -- ./inp_files/33288.got.cif
#   From: 2010.03.12/outbox.cif.g09.slc.cpg/sg21_17_cif.got.tgz:33288.got - 2010.04.14 01:59:26.
