data_PCOD8160220
_publ_section_title
;
Structure prediction by ZEFSAII (Michael W. Deem and Ramdas Pophale) SiO2 
 PCOD8160220
Probable space group: C 2 2 21
;
_chemical_formula_sum "Si O2"
_cell_formula_units_Z 56
_cell_length_a 8.142744
_cell_length_b 13.719120
_cell_length_c 22.187179
_cell_angle_alpha 90.000000
_cell_angle_beta 90.000000
_cell_angle_gamma 90.000000
_cell_volume 2478.558212
_symmetry_space_group_name_H-M "C 2 2 21"
_symmetry_group_IT_number 20
_symmetry_cell_setting 'orthorhombic'
loop_
_space_group_symop_operation_xyz
x,y,z
-x,-y,1/2+z
x,-y,-z
-x,y,1/2-z
1/2+x,1/2+y,z
1/2-x,1/2-y,1/2+z
1/2+x,1/2-y,-z
1/2-x,1/2+y,1/2-z
loop_
_atom_site_type_symbol
_atom_site_label
_atom_site_fract_x
_atom_site_fract_y
_atom_site_fract_z
Si Si1 0.601285 0.384171 0.659853
Si Si2 0.298609 0.086213 0.874593
Si Si3 0.806750 0.741100 0.046059
Si Si4 0.886205 0.054364 0.443671
Si Si5 0.329179 0.778398 0.575148
Si Si6 0.614746 0.193057 0.844030
Si Si7 0.820833 0.937534 0.243698
O O1 0.513095 0.452317 0.611134
O O2 0.769444 0.345481 0.630362
O O3 0.476097 0.294141 0.677158
O O4 0.655341 0.454293 0.714656
O O5 0.174923 0.168875 0.899127
O O6 0.483498 0.123653 0.875815
O O7 0.253220 0.044842 0.809160
O O8 0.282027 0.998393 0.922039
O O9 0.663467 0.661719 0.036479
O O10 0.758689 0.797569 0.106773
O O11 0.986480 0.695992 0.055132
O O12 0.793912 0.798669 0.982183
O O13 0.969065 0.000000 0.500000
O O14 0.697277 0.138247 0.787878
O O15 0.000000 0.887619 0.250000
#
# Coordination Sequence:
#
# PCOD8160220 Si02
#       7
#     8   8   8   8   8   8   8
#     4  10  25  44  68 103 140 184 234 294 354 433
#     4  11  23  43  67  94 136 179 232 285 359 417
#     4  11  23  42  69  99 139 177 237 286 366 435
#     4  11  22  40  67  98 138 176 224 292 347 426
#     4  11  23  43  68 101 136 182 227 295 359 430
#     4  10  25  46  69 100 137 186 235 298 361 426
#     4  12  24  44  72  97 138 186 237 290 355 437
#
# _framework density 22.593779000000001
#
# number of rings (size 3 to 8) (size 9 to 14) (size 15 to 20)
#    0.000    1.143    2.857    3.857    2.000    2.286 
#    0.000    0.714    0.000    0.000    0.000    0.000 
#    0.000    0.000    0.000    0.000    0.000    0.000 
#
# Total GULP energy -347089.333638 kJ/mol
# GULP energy per Si atom -12396.047630 kJ/mol
# Density = 2.254235 g / cm^3
# Si number density = 22.593779 Si / 1000 Ang^3
#
#
#
# Elastic Constant Matrix: (Units=GPa)
#
#
# Indices 1 2 3 4 5 6 
#
# 1 96.4904 14.0621 10.9825 0.0000 0.0000 0.0000
# 2 14.0621 67.8741 32.5238 0.0000 0.0000 0.0000
# 3 10.9825 32.5238 100.5264 0.0000 0.0000 0.0000
# 4 0.0000 0.0000 0.0000 24.9207 0.0000 0.0000
# 5 0.0000 0.0000 0.0000 0.0000 39.7457 0.0000
# 6 0.0000 0.0000 0.0000 0.0000 0.0000 26.7703
#
#
#
# Elastic Compliance Matrix: (Units=1/GPa)
#
#
# Indices 1 2 3 4 5 6 
#
# 1 0.010711 -0.001963 -0.000535 0.000000 0.000000 0.000000
# 2 -0.001963 0.017796 -0.005543 0.000000 0.000000 0.000000
# 3 -0.000535 -0.005543 0.011800 0.000000 0.000000 0.000000
# 4 0.000000 0.000000 0.000000 0.040127 0.000000 0.000000
# 5 0.000000 0.000000 0.000000 0.000000 0.025160 0.000000
# 6 0.000000 0.000000 0.000000 0.000000 0.000000 0.037355
#
#
# Mechanical properties :
#
#
# Convention : Reuss Voigt Hill
#
# Bulk Modulus (GPa) = 41.28102 42.22532 41.75317
# Shear Modulus (GPa) = 29.92132 32.10883 31.01507
#
# Velocity S-wave (km/s) = 3.64306 3.77389 3.70905
# Velocity P-wave (km/s) = 6.00054 6.14159 6.07148
#
# Compressibility (1/GPa) = 0.02422421
#
# Stress axis : x y z
#
# Youngs Moduli (GPa) = 93.36495 56.19254 84.74920
#
# Poissons Ratio (x) = 0.11028 0.04536
# Poissons Ratio (y) = 0.18324 0.46978
# Poissons Ratio (z) = 0.04997 0.31149
#
# Static dielectric constant tensor:
#      x y z
#    x 3.993470 0.000000 0.000000 
#    y 0.000000 4.059710 0.000000 
#    z 0.000000 0.000000 4.216490 
# 
# 
# High freq. dielectric constant tensor:
#      x y z
#    x 1.886630 0.000000 0.000000 
#    y 0.000000 1.878360 0.000000 
#    z 0.000000 0.000000 1.908590 
# 
# From -- ./inp_files/26734.got.cif
#   From: 2010.03.12/outbox.cif.g09.slc.cpg/sg20_14_cif.got.tgz:26734.got - 2010.04.14 01:38:04.
