data_PCOD8160438
_publ_section_title
;
Structure prediction by ZEFSAII (Michael W. Deem and Ramdas Pophale) SiO2 
 PCOD8160438
Probable space group: C 2 2 21
;
_chemical_formula_sum "Si O2"
_cell_formula_units_Z 64
_cell_length_a 8.324345
_cell_length_b 20.062336
_cell_length_c 18.049642
_cell_angle_alpha 90.000000
_cell_angle_beta 90.000000
_cell_angle_gamma 90.000000
_cell_volume 3014.395017
_symmetry_space_group_name_H-M "C 2 2 21"
_symmetry_group_IT_number 20
_symmetry_cell_setting 'orthorhombic'
loop_
_space_group_symop_operation_xyz
x,y,z
-x,-y,1/2+z
x,-y,-z
-x,y,1/2-z
1/2+x,1/2+y,z
1/2-x,1/2-y,1/2+z
1/2+x,1/2-y,-z
1/2-x,1/2+y,1/2-z
loop_
_atom_site_type_symbol
_atom_site_label
_atom_site_fract_x
_atom_site_fract_y
_atom_site_fract_z
Si Si1 0.662327 0.753190 0.074105
Si Si2 0.865314 0.947845 0.940869
Si Si3 0.314219 0.860326 0.832144
Si Si4 0.633019 0.369283 0.192101
Si Si5 0.982687 0.170023 0.961199
Si Si6 0.601147 0.518904 0.180282
Si Si7 0.900242 0.732396 0.820331
Si Si8 0.824386 0.350915 0.657221
O O1 0.697400 0.692160 0.129619
O O2 0.808988 0.802053 0.060530
O O3 0.520957 0.793776 0.115824
O O4 0.596098 0.726885 0.995881
O O5 0.731850 0.916167 0.887191
O O6 0.985029 0.990445 0.889877
O O7 0.962894 0.889724 0.981301
O O8 0.788415 0.000000 0.000000
O O9 0.247973 0.934642 0.846641
O O10 0.314238 0.855837 0.744604
O O11 0.489429 0.844278 0.866216
O O12 0.500000 0.343467 0.250000
O O13 0.573258 0.356289 0.110035
O O14 0.670663 0.447239 0.204129
O O15 0.795445 0.329358 0.208914
O O16 0.500000 0.549725 0.250000
O O17 0.786273 0.787159 0.861260
O O18 0.000000 0.761149 0.750000
#
# Coordination Sequence:
#
# PCOD8160438 Si02
#       8
#     8   8   8   8   8   8   8   8
#     4  12  25  41  68 100 140 172 224 282 345 406
#     4  12  24  46  70  99 137 182 230 279 348 412
#     4  11  23  42  73 103 133 173 236 291 328 409
#     4  11  26  45  66  95 138 180 227 280 340 412
#     4  12  25  42  66  99 135 180 220 280 346 410
#     4  11  22  45  71  97 132 181 231 274 335 409
#     4  12  23  43  68 100 136 179 224 284 346 409
#     4  11  24  42  71 105 132 175 235 288 337 400
#
# _framework density 21.231458
#
# number of rings (size 3 to 8) (size 9 to 14) (size 15 to 20)
#    0.000    0.500    6.250    2.250    3.500    0.000 
#    4.500    0.625    0.000    0.000    0.000    0.000 
#    0.000    0.000    0.000    0.000    0.000    0.000 
#
# Total GULP energy -396813.288063 kJ/mol
# GULP energy per Si atom -12400.415252 kJ/mol
# Density = 2.118313 g / cm^3
# Si number density = 21.231458 Si / 1000 Ang^3
#
#
#
# Elastic Constant Matrix: (Units=GPa)
#
#
# Indices 1 2 3 4 5 6 
#
# 1 112.3882 40.4589 27.3985 0.0000 0.0000 0.0000
# 2 40.4589 85.2763 10.2404 0.0000 0.0000 0.0000
# 3 27.3985 10.2404 85.1580 0.0000 0.0000 0.0000
# 4 0.0000 0.0000 0.0000 28.4074 0.0000 0.0000
# 5 0.0000 0.0000 0.0000 0.0000 5.4258 0.0000
# 6 0.0000 0.0000 0.0000 0.0000 0.0000 34.2901
#
#
#
# Elastic Compliance Matrix: (Units=1/GPa)
#
#
# Indices 1 2 3 4 5 6 
#
# 1 0.011476 -0.005075 -0.003082 0.000000 0.000000 0.000000
# 2 -0.005075 0.014142 -0.000068 0.000000 0.000000 0.000000
# 3 -0.003082 -0.000068 0.012743 0.000000 0.000000 0.000000
# 4 0.000000 0.000000 0.000000 0.035202 0.000000 0.000000
# 5 0.000000 0.000000 0.000000 0.000000 0.184304 0.000000
# 6 0.000000 0.000000 0.000000 0.000000 0.000000 0.029163
#
#
# Mechanical properties :
#
#
# Convention : Reuss Voigt Hill
#
# Bulk Modulus (GPa) = 45.63745 48.77976 47.20860
# Shear Modulus (GPa) = 16.08842 27.27297 21.68070
#
# Velocity S-wave (km/s) = 2.75574 3.58796 3.19902
# Velocity P-wave (km/s) = 5.62737 6.33953 5.99404
#
# Compressibility (1/GPa) = 0.02191183
#
# Stress axis : x y z
#
# Youngs Moduli (GPa) = 87.13929 70.70964 78.47668
#
# Poissons Ratio (x) = 0.35882 0.24186
# Poissons Ratio (y) = 0.44219 0.00533
# Poissons Ratio (z) = 0.26856 0.00481
#
# Static dielectric constant tensor:
#      x y z
#    x 4.097590 0.000000 0.000000 
#    y 0.000000 3.738550 0.000000 
#    z 0.000000 0.000000 3.966240 
# 
# 
# High freq. dielectric constant tensor:
#      x y z
#    x 1.830250 0.000000 0.000000 
#    y 0.000000 1.820610 0.000000 
#    z 0.000000 0.000000 1.849710 
# 
# From -- ./inp_files/23887.got.cif
#   From: 2010.03.12/outbox.cif.g09.slc.cpg/sg20_12_cif.got.tgz:23887.got - 2010.04.14 01:38:04.
