data_PCOD8160057
_publ_section_title
;
Structure prediction by ZEFSAII (Michael W. Deem and Ramdas Pophale) SiO2 
 PCOD8160057
Probable space group: C 2 2 21
;
_chemical_formula_sum "Si O2"
_cell_formula_units_Z 28
_cell_length_a 12.085570
_cell_length_b 7.337392
_cell_length_c 15.757613
_cell_angle_alpha 90.000000
_cell_angle_beta 90.000000
_cell_angle_gamma 90.000000
_cell_volume 1397.330988
_symmetry_space_group_name_H-M "C 2 2 21"
_symmetry_group_IT_number 20
_symmetry_cell_setting 'orthorhombic'
loop_
_space_group_symop_operation_xyz
x,y,z
-x,-y,1/2+z
x,-y,-z
-x,y,1/2-z
1/2+x,1/2+y,z
1/2-x,1/2-y,1/2+z
1/2+x,1/2-y,-z
1/2-x,1/2+y,1/2-z
loop_
_atom_site_type_symbol
_atom_site_label
_atom_site_fract_x
_atom_site_fract_y
_atom_site_fract_z
Si Si1 0.075393 0.453006 0.410499
Si Si2 0.365287 0.000000 0.500000
Si Si3 0.728422 0.357556 0.643967
Si Si4 0.612931 0.712103 0.711147
O O1 0.136578 0.500000 0.500000
O O2 0.129648 0.286692 0.361049
O O3 0.078078 0.631983 0.353699
O O4 0.946944 0.397892 0.432090
O O5 0.289616 0.860274 0.552857
O O6 0.678738 0.555399 0.662531
O O7 0.811418 0.298499 0.716759
O O8 0.500000 0.629475 0.750000
#
# Coordination Sequence:
#
# PCOD8160057 Si02
#       4
#     8   4   8   8
#     4  10  23  46  64  95 137 170 220 276 323 391
#     4  10  24  44  68  92 138 170 224 272 318 400
#     4  12  24  43  70  97 131 181 216 272 335 387
#     4  12  24  42  67 101 132 173 224 268 333 395
#
# _framework density 20.038201999999998
#
# number of rings (size 3 to 8) (size 9 to 14) (size 15 to 20)
#    0.857    0.000    5.714    1.714    0.000    3.429 
#    5.143    0.000    0.000    0.000    0.000    0.000 
#    0.000    0.000    0.000    0.000    0.000    0.000 
#
# Total GULP energy -173536.127106 kJ/mol
# GULP energy per Si atom -12395.437650 kJ/mol
# Density = 1.999259 g / cm^3
# Si number density = 20.038202 Si / 1000 Ang^3
#
#
#
# Elastic Constant Matrix: (Units=GPa)
#
#
# Indices 1 2 3 4 5 6 
#
# 1 115.2759 50.4217 33.4414 0.0000 0.0000 0.0000
# 2 50.4217 101.1156 35.0335 0.0000 0.0000 0.0000
# 3 33.4414 35.0335 83.7334 0.0000 0.0000 0.0000
# 4 0.0000 0.0000 0.0000 31.5758 0.0000 0.0000
# 5 0.0000 0.0000 0.0000 0.0000 43.9305 0.0000
# 6 0.0000 0.0000 0.0000 0.0000 0.0000 14.2237
#
#
#
# Elastic Compliance Matrix: (Units=1/GPa)
#
#
# Indices 1 2 3 4 5 6 
#
# 1 0.011551 -0.004867 -0.002577 0.000000 0.000000 0.000000
# 2 -0.004867 0.013617 -0.003753 0.000000 0.000000 0.000000
# 3 -0.002577 -0.003753 0.014542 0.000000 0.000000 0.000000
# 4 0.000000 0.000000 0.000000 0.031670 0.000000 0.000000
# 5 0.000000 0.000000 0.000000 0.000000 0.022763 0.000000
# 6 0.000000 0.000000 0.000000 0.000000 0.000000 0.070305
#
#
# Mechanical properties :
#
#
# Convention : Reuss Voigt Hill
#
# Bulk Modulus (GPa) = 57.75181 59.76867 58.76024
# Shear Modulus (GPa) = 25.95835 30.02789 27.99312
#
# Velocity S-wave (km/s) = 3.60313 3.87529 3.74168
# Velocity P-wave (km/s) = 6.79658 7.06512 6.93215
#
# Compressibility (1/GPa) = 0.01731547
#
# Stress axis : x y z
#
# Youngs Moduli (GPa) = 86.56991 73.43639 68.76508
#
# Poissons Ratio (x) = 0.35744 0.17720
# Poissons Ratio (y) = 0.42136 0.25811
# Poissons Ratio (z) = 0.22308 0.27564
#
# Static dielectric constant tensor:
#      x y z
#    x 3.781360 0.000000 0.000000 
#    y 0.000000 3.341850 0.000000 
#    z 0.000000 0.000000 3.920310 
# 
# 
# High freq. dielectric constant tensor:
#      x y z
#    x 1.792350 0.000000 0.000000 
#    y 0.000000 1.760920 0.000000 
#    z 0.000000 0.000000 1.800180 
# 
# From -- ./inp_files/18140.got.cif
#   From: 2010.03.12/outbox.cif.g09.slc.cpg/sg20_10_cif.got.tgz:18140.got - 2010.04.14 01:38:04.
