data_PCOD8160256
_publ_section_title
;
Structure prediction by ZEFSAII (Michael W. Deem and Ramdas Pophale) SiO2 
 PCOD8160256
Probable space group: C 2 2 21
;
_chemical_formula_sum "Si O2"
_cell_formula_units_Z 56
_cell_length_a 13.383393
_cell_length_b 5.770108
_cell_length_c 29.767347
_cell_angle_alpha 90.000000
_cell_angle_beta 90.000000
_cell_angle_gamma 90.000000
_cell_volume 2298.742383
_symmetry_space_group_name_H-M "C 2 2 21"
_symmetry_group_IT_number 20
_symmetry_cell_setting 'orthorhombic'
loop_
_space_group_symop_operation_xyz
x,y,z
-x,-y,1/2+z
x,-y,-z
-x,y,1/2-z
1/2+x,1/2+y,z
1/2-x,1/2-y,1/2+z
1/2+x,1/2-y,-z
1/2-x,1/2+y,1/2-z
loop_
_atom_site_type_symbol
_atom_site_label
_atom_site_fract_x
_atom_site_fract_y
_atom_site_fract_z
Si Si1 0.840005 0.500000 0.000000
Si Si2 0.517711 0.830289 0.575718
Si Si3 0.500000 0.674990 0.250000
Si Si4 0.161361 0.017368 0.618663
Si Si5 0.506916 0.183509 0.653186
Si Si6 0.201577 0.094029 0.139680
Si Si7 0.296255 0.451480 0.264499
Si Si8 0.703710 0.256620 0.060171
O O1 0.910524 0.529348 0.042824
O O2 0.763831 0.291398 0.013333
O O3 0.569427 0.588023 0.586543
O O4 0.412989 0.786154 0.550830
O O5 0.507810 0.947556 0.624888
O O6 0.505323 0.848491 0.206999
O O7 0.407841 0.497653 0.247337
O O8 0.114783 0.809490 0.647634
O O9 0.253704 0.962094 0.586204
O O10 0.211754 0.214545 0.649654
O O11 0.411817 0.321615 0.635259
O O12 0.207116 0.917661 0.181503
O O13 0.225178 0.976962 0.092111
O O14 0.260157 0.200821 0.246048
#
# Coordination Sequence:
#
# PCOD8160256 Si02
#       8
#     4   8   4   8   8   8   8   8
#     4  12  28  48  70 112 136 190 242 306 382 446
#     4  12  27  46  75 108 144 190 244 304 373 454
#     4  10  26  46  70 112 156 196 256 314 370 456
#     4  12  23  44  77  98 143 194 234 304 370 441
#     4  11  23  47  72 106 145 196 243 298 369 440
#     4  11  24  44  74 105 141 195 243 292 371 435
#     4  11  27  46  72 111 155 200 254 317 373 444
#     4  12  27  47  74 104 143 181 247 298 371 455
#
# _framework density 24.361146000000002
#
# number of rings (size 3 to 8) (size 9 to 14) (size 15 to 20)
#    0.000    0.571    5.714    0.857    6.000    4.571 
#    0.000    0.000    0.000    0.000    0.000    0.000 
#    0.000    0.000    0.000    0.000    0.000    0.000 
#
# Total GULP energy -346928.727636 kJ/mol
# GULP energy per Si atom -12390.311701 kJ/mol
# Density = 2.430570 g / cm^3
# Si number density = 24.361146 Si / 1000 Ang^3
#
#
#
# Elastic Constant Matrix: (Units=GPa)
#
#
# Indices 1 2 3 4 5 6 
#
# 1 163.3225 19.7607 20.9359 0.0000 0.0000 0.0000
# 2 19.7607 61.9963 8.9187 0.0000 0.0000 0.0000
# 3 20.9359 8.9187 83.7680 0.0000 0.0000 0.0000
# 4 0.0000 0.0000 0.0000 15.5261 0.0000 0.0000
# 5 0.0000 0.0000 0.0000 0.0000 32.8477 0.0000
# 6 0.0000 0.0000 0.0000 0.0000 0.0000 35.1049
#
#
#
# Elastic Compliance Matrix: (Units=1/GPa)
#
#
# Indices 1 2 3 4 5 6 
#
# 1 0.006534 -0.001876 -0.001433 0.000000 0.000000 0.000000
# 2 -0.001876 0.016920 -0.001332 0.000000 0.000000 0.000000
# 3 -0.001433 -0.001332 0.012438 0.000000 0.000000 0.000000
# 4 0.000000 0.000000 0.000000 0.064408 0.000000 0.000000
# 5 0.000000 0.000000 0.000000 0.000000 0.030443 0.000000
# 6 0.000000 0.000000 0.000000 0.000000 0.000000 0.028486
#
#
# Mechanical properties :
#
#
# Convention : Reuss Voigt Hill
#
# Bulk Modulus (GPa) = 37.58386 45.36862 41.47624
# Shear Modulus (GPa) = 28.18788 33.99386 31.09087
#
# Velocity S-wave (km/s) = 3.40528 3.73958 3.57634
# Velocity P-wave (km/s) = 5.56081 6.10816 5.84090
#
# Compressibility (1/GPa) = 0.02660716
#
# Stress axis : x y z
#
# Youngs Moduli (GPa) = 153.05520 59.10257 80.40019
#
# Poissons Ratio (x) = 0.11090 0.11523
# Poissons Ratio (y) = 0.28718 0.10713
# Poissons Ratio (z) = 0.21935 0.07875
#
# Static dielectric constant tensor:
#      x y z
#    x 4.893640 0.000000 0.000000 
#    y 0.000000 4.044120 0.000000 
#    z 0.000000 0.000000 4.417310 
# 
# 
# High freq. dielectric constant tensor:
#      x y z
#    x 1.999820 0.000000 0.000000 
#    y 0.000000 1.943030 0.000000 
#    z 0.000000 0.000000 1.966240 
# 
# From -- ./inp_files/30777.got.cif
#   From: 2010.03.12/outbox.cif.g09.slc.cpg/sg20_16_cif.got.tgz:30777.got - 2010.04.14 01:38:04.
