data_PCOD8160083
_publ_section_title
;
Structure prediction by ZEFSAII (Michael W. Deem and Ramdas Pophale) SiO2 
 PCOD8160083
Probable space group: C 2 2 21
;
_chemical_formula_sum "Si O2"
_cell_formula_units_Z 56
_cell_length_a 14.624243
_cell_length_b 30.159144
_cell_length_c 7.878289
_cell_angle_alpha 90.000000
_cell_angle_beta 90.000000
_cell_angle_gamma 90.000000
_cell_volume 3474.756002
_symmetry_space_group_name_H-M "C 2 2 21"
_symmetry_group_IT_number 20
_symmetry_cell_setting 'orthorhombic'
loop_
_space_group_symop_operation_xyz
x,y,z
-x,-y,1/2+z
x,-y,-z
-x,y,1/2-z
1/2+x,1/2+y,z
1/2-x,1/2-y,1/2+z
1/2+x,1/2-y,-z
1/2-x,1/2+y,1/2-z
loop_
_atom_site_type_symbol
_atom_site_label
_atom_site_fract_x
_atom_site_fract_y
_atom_site_fract_z
Si Si1 0.500000 0.292854 0.250000
Si Si2 0.135492 0.649962 0.890941
Si Si3 0.059086 0.456432 0.581555
Si Si4 0.689790 0.791362 0.570467
Si Si5 0.109015 0.627087 0.248934
Si Si6 0.000926 0.269257 0.433277
Si Si7 0.697341 0.698236 0.756290
Si Si8 0.000000 0.588263 0.750000
O O1 0.478444 0.263023 0.413430
O O2 0.406395 0.320691 0.227963
O O3 0.236679 0.664345 0.838854
O O4 0.089518 0.620200 0.743446
O O5 0.072530 0.691738 0.938122
O O6 0.141488 0.618880 0.057129
O O7 0.108906 0.500000 0.500000
O O8 0.128390 0.417336 0.639043
O O9 0.000000 0.468558 0.750000
O O10 0.996610 0.439638 0.424284
O O11 0.672650 0.833027 0.690099
O O12 0.603315 0.788352 0.445441
O O13 0.704361 0.747649 0.681555
O O14 0.779166 0.799335 0.455681
O O15 0.000000 0.638341 0.250000
O O16 0.000000 0.244625 0.250000
#
# Coordination Sequence:
#
# PCOD8160083 Si02
#       8
#     4   8   8   8   8   8   8   4
#     4  10  24  36  42  63  94 132 170 225 264 306
#     4  12  19  33  50  75  97 132 180 221 259 308
#     4  11  21  34  50  77 108 144 175 201 251 322
#     4  11  20  32  48  71  94 132 174 223 265 305
#     4  11  20  33  52  75 101 134 173 211 254 313
#     4  11  18  30  49  65  90 122 166 219 266 296
#     4  11  22  32  47  67  97 132 179 229 266 301
#     4  12  20  32  56  75 106 140 178 213 256 302
#
# _framework density 16.116239
#
# number of rings (size 3 to 8) (size 9 to 14) (size 15 to 20)
#    0.000    0.857    7.143    4.286    1.000    0.000 
#    0.000    0.000    0.000    0.000    0.000    0.000 
#    0.000    0.000    0.000   25.714    0.000    3.000 
#
# Total GULP energy -346938.055862 kJ/mol
# GULP energy per Si atom -12390.644852 kJ/mol
# Density = 1.607956 g / cm^3
# Si number density = 16.116239 Si / 1000 Ang^3
#
#
#
# Elastic Constant Matrix: (Units=GPa)
#
#
# Indices 1 2 3 4 5 6 
#
# 1 87.6363 28.9895 23.6143 0.0000 0.0000 0.0000
# 2 28.9895 66.8761 32.4351 0.0000 0.0000 0.0000
# 3 23.6143 32.4351 104.3809 0.0000 0.0000 0.0000
# 4 0.0000 0.0000 0.0000 11.6368 0.0000 0.0000
# 5 0.0000 0.0000 0.0000 0.0000 23.0866 0.0000
# 6 0.0000 0.0000 0.0000 0.0000 0.0000 11.4444
#
#
#
# Elastic Compliance Matrix: (Units=1/GPa)
#
#
# Indices 1 2 3 4 5 6 
#
# 1 0.013506 -0.005149 -0.001456 0.000000 0.000000 0.000000
# 2 -0.005149 0.019569 -0.004916 0.000000 0.000000 0.000000
# 3 -0.001456 -0.004916 0.011437 0.000000 0.000000 0.000000
# 4 0.000000 0.000000 0.000000 0.085934 0.000000 0.000000
# 5 0.000000 0.000000 0.000000 0.000000 0.043315 0.000000
# 6 0.000000 0.000000 0.000000 0.000000 0.000000 0.087379
#
#
# Mechanical properties :
#
#
# Convention : Reuss Voigt Hill
#
# Bulk Modulus (GPa) = 46.57276 47.66345 47.11810
# Shear Modulus (GPa) = 17.16213 20.82385 18.99299
#
# Velocity S-wave (km/s) = 3.26682 3.59848 3.43665
# Velocity P-wave (km/s) = 6.57193 6.84868 6.71173
#
# Compressibility (1/GPa) = 0.02147178
#
# Stress axis : x y z
#
# Youngs Moduli (GPa) = 74.04023 51.10068 87.43376
#
# Poissons Ratio (x) = 0.26310 0.12727
# Poissons Ratio (y) = 0.38121 0.42983
# Poissons Ratio (z) = 0.10778 0.25122
#
# Static dielectric constant tensor:
#      x y z
#    x 3.021420 0.000000 0.000000 
#    y 0.000000 2.961430 0.000000 
#    z 0.000000 0.000000 3.494070 
# 
# 
# High freq. dielectric constant tensor:
#      x y z
#    x 1.581050 0.000000 0.000000 
#    y 0.000000 1.581320 0.000000 
#    z 0.000000 0.000000 1.652960 
# 
# From -- ./inp_files/8926.got.cif
#   From: 2010.03.12/outbox.cif.g09.slc.cpg/sg20_5_cif.got.tgz:8926.got - 2010.04.14 01:38:04.
