data_PCOD8160702
_publ_section_title
;
Structure prediction by ZEFSAII (Michael W. Deem and Ramdas Pophale) SiO2 
 PCOD8160702
Probable space group: C 2 2 21
;
_chemical_formula_sum "Si O2"
_cell_formula_units_Z 36
_cell_length_a 11.649277
_cell_length_b 20.740348
_cell_length_c 6.654513
_cell_angle_alpha 90.000000
_cell_angle_beta 90.000000
_cell_angle_gamma 90.000000
_cell_volume 1607.797278
_symmetry_space_group_name_H-M "C 2 2 21"
_symmetry_group_IT_number 20
_symmetry_cell_setting 'orthorhombic'
loop_
_space_group_symop_operation_xyz
x,y,z
-x,-y,1/2+z
x,-y,-z
-x,y,1/2-z
1/2+x,1/2+y,z
1/2-x,1/2-y,1/2+z
1/2+x,1/2-y,-z
1/2-x,1/2+y,1/2-z
loop_
_atom_site_type_symbol
_atom_site_label
_atom_site_fract_x
_atom_site_fract_y
_atom_site_fract_z
Si Si1 0.000000 0.602428 0.250000
Si Si2 0.094924 0.787738 0.895841
Si Si3 0.788845 0.329129 0.608284
Si Si4 0.273726 0.554890 0.840909
Si Si5 0.000000 0.874465 0.250000
Si Si6 0.609707 0.000000 0.500000
O O1 0.893364 0.650024 0.254096
O O2 0.977876 0.556770 0.059068
O O3 0.176177 0.829611 0.748319
O O4 0.000000 0.753743 0.750000
O O5 0.180883 0.739416 0.008900
O O6 0.021351 0.830127 0.053685
O O7 0.781416 0.381092 0.432518
O O8 0.393775 0.577320 0.752191
O O9 0.189999 0.524238 0.677902
O O10 0.299691 0.500000 0.000000
#
# Coordination Sequence:
#
# PCOD8160702 Si02
#       6
#     4   8   8   8   4   4
#     4  12  25  44  78 102 146 197 246 306 380 456
#     4  12  28  51  76 114 153 201 259 320 386 451
#     4  12  27  48  77 110 151 198 256 314 383 457
#     4  12  27  48  73 114 149 202 250 310 386 455
#     4  12  27  48  80 106 156 201 256 318 376 460
#     4  12  26  48  70 110 154 192 250 310 384 460
#
# _framework density 22.390884
#
# number of rings (size 3 to 8) (size 9 to 14) (size 15 to 20)
#    0.000    0.000    4.444    4.667    7.778    0.000 
#    0.000    0.000    0.000    0.000    0.000    0.000 
#    0.000    0.000    0.000    0.000    0.000    0.000 
#
# Total GULP energy -223145.211519 kJ/mol
# GULP energy per Si atom -12396.956195 kJ/mol
# Density = 2.233992 g / cm^3
# Si number density = 22.390884 Si / 1000 Ang^3
#
#
#
# Elastic Constant Matrix: (Units=GPa)
#
#
# Indices 1 2 3 4 5 6 
#
# 1 90.4741 13.0794 25.9274 0.0000 0.0000 0.0000
# 2 13.0794 87.3526 31.2464 0.0000 0.0000 0.0000
# 3 25.9274 31.2464 103.1191 0.0000 0.0000 0.0000
# 4 0.0000 0.0000 0.0000 53.3556 0.0000 0.0000
# 5 0.0000 0.0000 0.0000 0.0000 38.4524 0.0000
# 6 0.0000 0.0000 0.0000 0.0000 0.0000 37.9315
#
#
#
# Elastic Compliance Matrix: (Units=1/GPa)
#
#
# Indices 1 2 3 4 5 6 
#
# 1 0.011961 -0.000802 -0.002764 0.000000 0.000000 0.000000
# 2 -0.000802 0.012893 -0.003705 0.000000 0.000000 0.000000
# 3 -0.002764 -0.003705 0.011515 0.000000 0.000000 0.000000
# 4 0.000000 0.000000 0.000000 0.018742 0.000000 0.000000
# 5 0.000000 0.000000 0.000000 0.000000 0.026006 0.000000
# 6 0.000000 0.000000 0.000000 0.000000 0.000000 0.026363
#
#
# Mechanical properties :
#
#
# Convention : Reuss Voigt Hill
#
# Bulk Modulus (GPa) = 45.81610 46.82804 46.32207
# Shear Modulus (GPa) = 38.66977 39.99407 39.33192
#
# Velocity S-wave (km/s) = 4.16027 4.23090 4.19573
# Velocity P-wave (km/s) = 6.60178 6.69527 6.64869
#
# Compressibility (1/GPa) = 0.02182639
#
# Stress axis : x y z
#
# Youngs Moduli (GPa) = 83.60487 77.55963 86.84118
#
# Poissons Ratio (x) = 0.06221 0.24006
# Poissons Ratio (y) = 0.06706 0.32176
# Poissons Ratio (z) = 0.23111 0.28737
#
# Static dielectric constant tensor:
#      x y z
#    x 4.251630 0.000000 0.000000 
#    y 0.000000 4.179860 0.000000 
#    z 0.000000 0.000000 3.861100 
# 
# 
# High freq. dielectric constant tensor:
#      x y z
#    x 1.907820 0.000000 0.000000 
#    y 0.000000 1.884350 0.000000 
#    z 0.000000 0.000000 1.891830 
# 
# From -- ./inp_files/1274.got.cif
#   From: 2010.03.12/outbox.cif.g09.slc.cpg/sg20_1_cif.got.tgz:1274.got - 2010.04.14 01:38:04.
