data_PCOD8160073
_publ_section_title
;
Structure prediction by ZEFSAII (Michael W. Deem and Ramdas Pophale) SiO2 
 PCOD8160073
Probable space group: C 2 2 21
;
_chemical_formula_sum "Si O2"
_cell_formula_units_Z 64
_cell_length_a 9.338624
_cell_length_b 10.943739
_cell_length_c 28.832395
_cell_angle_alpha 90.000000
_cell_angle_beta 90.000000
_cell_angle_gamma 90.000000
_cell_volume 2946.655305
_symmetry_space_group_name_H-M "C 2 2 21"
_symmetry_group_IT_number 20
_symmetry_cell_setting 'orthorhombic'
loop_
_space_group_symop_operation_xyz
x,y,z
-x,-y,1/2+z
x,-y,-z
-x,y,1/2-z
1/2+x,1/2+y,z
1/2-x,1/2-y,1/2+z
1/2+x,1/2-y,-z
1/2-x,1/2+y,1/2-z
loop_
_atom_site_type_symbol
_atom_site_label
_atom_site_fract_x
_atom_site_fract_y
_atom_site_fract_z
Si Si1 0.841857 0.183668 0.362184
Si Si2 0.077807 0.907640 0.701281
Si Si3 0.817215 0.316505 0.457634
Si Si4 0.188633 0.926505 0.109472
Si Si5 0.660829 0.255553 0.196663
Si Si6 0.371585 0.216267 0.962889
Si Si7 0.580280 0.489815 0.551894
Si Si8 0.860717 0.820201 0.203960
O O1 0.857289 0.243544 0.411749
O O2 0.763869 0.278171 0.329055
O O3 0.997195 0.162480 0.339796
O O4 0.758418 0.054741 0.368393
O O5 0.242953 0.865458 0.700684
O O6 0.000000 0.881014 0.750000
O O7 0.075150 0.049943 0.688260
O O8 0.723795 0.231179 0.491130
O O9 0.733418 0.441070 0.446170
O O10 0.975014 0.339738 0.479387
O O11 0.191771 0.827262 0.149774
O O12 0.297630 0.881920 0.070407
O O13 0.030008 0.948661 0.087788
O O14 0.491650 0.222815 0.198905
O O15 0.695254 0.334746 0.243168
O O16 0.388767 0.347864 0.937113
O O17 0.515025 0.500000 0.500000
#
# Coordination Sequence:
#
# PCOD8160073 Si02
#       8
#     8   8   8   8   8   8   8   8
#     4  12  25  44  70 103 137 184 232 282 349 419
#     4  12  23  48  73  96 140 184 227 284 351 416
#     4  11  24  44  72 101 138 185 235 289 352 414
#     4  12  24  44  72  99 142 180 233 285 352 417
#     4  11  24  42  70 101 129 179 226 281 344 409
#     4  11  24  47  67 102 142 181 235 290 350 417
#     4  10  23  47  70  99 139 186 232 287 352 416
#     4  11  24  47  67  99 140 175 229 283 343 412
#
# _framework density 21.719539999999999
#
# number of rings (size 3 to 8) (size 9 to 14) (size 15 to 20)
#    0.000    0.750    5.000    3.000    0.000    0.000 
#   15.750    0.000    0.000    0.000    0.000    0.000 
#    0.000    0.000    0.000    0.000    0.000    0.000 
#
# Total GULP energy -396703.453955 kJ/mol
# GULP energy per Si atom -12396.982936 kJ/mol
# Density = 2.167011 g / cm^3
# Si number density = 21.719540 Si / 1000 Ang^3
#
#
#
# Elastic Constant Matrix: (Units=GPa)
#
#
# Indices 1 2 3 4 5 6 
#
# 1 143.8147 41.0257 50.8689 0.0000 0.0000 0.0000
# 2 41.0257 66.8191 23.0553 0.0000 0.0000 0.0000
# 3 50.8689 23.0553 116.3113 0.0000 0.0000 0.0000
# 4 0.0000 0.0000 0.0000 35.2044 0.0000 0.0000
# 5 0.0000 0.0000 0.0000 0.0000 38.0511 0.0000
# 6 0.0000 0.0000 0.0000 0.0000 0.0000 42.0717
#
#
#
# Elastic Compliance Matrix: (Units=1/GPa)
#
#
# Indices 1 2 3 4 5 6 
#
# 1 0.009417 -0.004681 -0.003191 0.000000 0.000000 0.000000
# 2 -0.004681 0.018391 -0.001598 0.000000 0.000000 0.000000
# 3 -0.003191 -0.001598 0.010310 0.000000 0.000000 0.000000
# 4 0.000000 0.000000 0.000000 0.028406 0.000000 0.000000
# 5 0.000000 0.000000 0.000000 0.000000 0.026280 0.000000
# 6 0.000000 0.000000 0.000000 0.000000 0.000000 0.023769
#
#
# Mechanical properties :
#
#
# Convention : Reuss Voigt Hill
#
# Bulk Modulus (GPa) = 52.14229 61.87166 57.00698
# Shear Modulus (GPa) = 35.23439 37.19846 36.21642
#
# Velocity S-wave (km/s) = 4.03208 4.14293 4.08788
# Velocity P-wave (km/s) = 6.76285 7.17173 6.97029
#
# Compressibility (1/GPa) = 0.01917829
#
# Stress axis : x y z
#
# Youngs Moduli (GPa) = 106.18644 54.37330 96.99387
#
# Poissons Ratio (x) = 0.25453 0.30949
# Poissons Ratio (y) = 0.49707 0.15502
# Poissons Ratio (z) = 0.33882 0.08690
#
# Static dielectric constant tensor:
#      x y z
#    x 4.078480 0.000000 0.000000 
#    y 0.000000 3.887520 0.000000 
#    z 0.000000 0.000000 4.184570 
# 
# 
# High freq. dielectric constant tensor:
#      x y z
#    x 1.852300 0.000000 0.000000 
#    y 0.000000 1.837960 0.000000 
#    z 0.000000 0.000000 1.874760 
# 
# From -- ./inp_files/31089.got.cif
#   From: 2010.03.12/outbox.cif.g09.slc.cpg/sg20_16_cif.got.tgz:31089.got - 2010.04.14 01:38:04.
