data_PCOD8160839
_publ_section_title
;
Structure prediction by ZEFSAII (Michael W. Deem and Ramdas Pophale) SiO2 
 PCOD8160839
Probable space group: C 2 2 2
;
_chemical_formula_sum "Si O2"
_cell_formula_units_Z 40
_cell_length_a 8.445562
_cell_length_b 16.703513
_cell_length_c 14.434519
_cell_angle_alpha 90.000000
_cell_angle_beta 90.000000
_cell_angle_gamma 90.000000
_cell_volume 2036.285602
_symmetry_space_group_name_H-M "C 2 2 2"
_symmetry_group_IT_number 21
_symmetry_cell_setting 'orthorhombic'
loop_
_space_group_symop_operation_xyz
x,y,z
-x,-y,z
x,-y,-z
-x,y,-z
1/2+x,1/2+y,z
1/2-x,1/2-y,z
1/2+x,1/2-y,-z
1/2-x,1/2+y,-z
loop_
_atom_site_type_symbol
_atom_site_label
_atom_site_fract_x
_atom_site_fract_y
_atom_site_fract_z
Si Si1 0.422390 0.353470 0.403557
Si Si2 0.065727 0.336425 0.401508
Si Si3 0.068023 0.769752 0.898949
Si Si4 0.354235 0.173352 0.765848
Si Si5 0.951519 0.088234 0.216249
O O1 0.500000 0.381101 0.500000
O O2 0.237978 0.376759 0.394093
O O3 0.433046 0.258780 0.391709
O O4 0.519353 0.399430 0.325245
O O5 0.000000 0.364312 0.500000
O O6 0.951897 0.365896 0.318858
O O7 0.250000 0.750000 0.906353
O O8 0.972079 0.698722 0.848247
O O9 0.059265 0.851325 0.841526
O O10 0.000000 0.783764 0.000000
O O11 0.250000 0.250000 0.732048
O O12 0.234463 0.105296 0.803788
O O13 0.000000 0.000000 0.184365
#
# Coordination Sequence:
#
# PCOD8160839 Si02
#       5
#     8   8   8   8   8
#     4  10  19  32  53  81 116 154 194 240 294 343
#     4  10  18  29  55  84 110 147 201 251 282 333
#     4  11  22  41  66  89 113 146 193 242 292 353
#     4  10  19  35  57  85 115 148 196 238 286 345
#     4  11  23  38  58  86 121 156 189 237 295 350
#
# _framework density 19.643609000000001
#
# number of rings (size 3 to 8) (size 9 to 14) (size 15 to 20)
#    0.000    1.600    4.000    4.200    2.800    0.800 
#    0.000    4.000    0.000    2.400    0.000    0.000 
#    0.000    0.000    0.000    0.000    0.000    0.000 
#
# Total GULP energy -248023.662894 kJ/mol
# GULP energy per Si atom -12401.183145 kJ/mol
# Density = 1.959890 g / cm^3
# Si number density = 19.643609 Si / 1000 Ang^3
#
#
#
# Elastic Constant Matrix: (Units=GPa)
#
#
# Indices 1 2 3 4 5 6 
#
# 1 145.4374 41.2577 34.1628 0.0000 0.0000 0.0000
# 2 41.2577 76.6084 27.7146 0.0000 0.0000 0.0000
# 3 34.1628 27.7146 106.5706 0.0000 0.0000 0.0000
# 4 0.0000 0.0000 0.0000 6.4614 0.0000 0.0000
# 5 0.0000 0.0000 0.0000 0.0000 40.8900 0.0000
# 6 0.0000 0.0000 0.0000 0.0000 0.0000 21.0072
#
#
#
# Elastic Compliance Matrix: (Units=1/GPa)
#
#
# Indices 1 2 3 4 5 6 
#
# 1 0.008376 -0.003907 -0.001669 0.000000 0.000000 0.000000
# 2 -0.003907 0.016232 -0.002969 0.000000 0.000000 0.000000
# 3 -0.001669 -0.002969 0.010690 0.000000 0.000000 0.000000
# 4 0.000000 0.000000 0.000000 0.154764 0.000000 0.000000
# 5 0.000000 0.000000 0.000000 0.000000 0.024456 0.000000
# 6 0.000000 0.000000 0.000000 0.000000 0.000000 0.047603
#
#
# Mechanical properties :
#
#
# Convention : Reuss Voigt Hill
#
# Bulk Modulus (GPa) = 54.91927 59.43186 57.17556
# Shear Modulus (GPa) = 17.52661 28.70382 23.11521
#
# Velocity S-wave (km/s) = 2.99026 3.82675 3.43407
# Velocity P-wave (km/s) = 6.31987 7.06018 6.70026
#
# Compressibility (1/GPa) = 0.01820855
#
# Stress axis : x y z
#
# Youngs Moduli (GPa) = 119.38485 61.60804 93.54101
#
# Poissons Ratio (x) = 0.24072 0.15612
# Poissons Ratio (y) = 0.46647 0.27769
# Poissons Ratio (z) = 0.19926 0.18289
#
# Static dielectric constant tensor:
#      x y z
#    x 3.983660 0.000000 0.000000 
#    y 0.000000 3.175910 0.000000 
#    z 0.000000 0.000000 3.630410 
# 
# 
# High freq. dielectric constant tensor:
#      x y z
#    x 1.786660 0.000000 0.000000 
#    y 0.000000 1.712550 0.000000 
#    z 0.000000 0.000000 1.767590 
# 
# From -- ./inp_files/22298.got.cif
#   From: 2010.03.12/outbox.cif.g09.slc.cpg/sg21_12_cif.got.tgz:22298.got - 2010.04.14 01:59:26.
