data_PCOD8160215
_publ_section_title
;
Structure prediction by ZEFSAII (Michael W. Deem and Ramdas Pophale) SiO2 
 PCOD8160215
Probable space group: C 2 2 21
;
_chemical_formula_sum "Si O2"
_cell_formula_units_Z 64
_cell_length_a 8.569787
_cell_length_b 10.826633
_cell_length_c 31.826932
_cell_angle_alpha 90.000000
_cell_angle_beta 90.000000
_cell_angle_gamma 90.000000
_cell_volume 2952.964455
_symmetry_space_group_name_H-M "C 2 2 21"
_symmetry_group_IT_number 20
_symmetry_cell_setting 'orthorhombic'
loop_
_space_group_symop_operation_xyz
x,y,z
-x,-y,1/2+z
x,-y,-z
-x,y,1/2-z
1/2+x,1/2+y,z
1/2-x,1/2-y,1/2+z
1/2+x,1/2-y,-z
1/2-x,1/2+y,1/2-z
loop_
_atom_site_type_symbol
_atom_site_label
_atom_site_fract_x
_atom_site_fract_y
_atom_site_fract_z
Si Si1 0.625923 0.468642 0.809086
Si Si2 0.574600 0.151172 0.104309
Si Si3 0.766199 0.189439 0.386196
Si Si4 0.241607 0.635038 0.018233
Si Si5 0.251743 0.285831 0.328851
Si Si6 0.393452 0.374761 0.526879
Si Si7 0.071894 0.407369 0.154281
Si Si8 0.222977 0.946941 0.716731
O O1 0.711952 0.383468 0.842631
O O2 0.619823 0.608251 0.824997
O O3 0.726972 0.468886 0.766239
O O4 0.449694 0.429153 0.802064
O O5 0.413023 0.226369 0.104770
O O6 0.628851 0.133069 0.057601
O O7 0.718800 0.219764 0.126650
O O8 0.525311 0.025733 0.127537
O O9 0.835856 0.109159 0.424948
O O10 0.849090 0.320170 0.380268
O O11 0.423006 0.650207 0.028570
O O12 0.210171 0.500000 0.000000
O O13 0.193126 0.752327 0.990044
O O14 0.078824 0.341893 0.325874
O O15 0.294527 0.187982 0.292260
O O16 0.354267 0.500000 0.500000
O O17 0.185005 0.442979 0.193256
#
# Coordination Sequence:
#
# PCOD8160215 Si02
#       8
#     8   8   8   8   8   8   8   8
#     4  11  24  42  66  97 134 176 227 275 341 402
#     4  11  25  42  68 100 134 176 228 275 343 400
#     4  12  24  43  69  99 134 182 222 277 343 408
#     4  11  25  47  71 101 138 178 227 289 341 416
#     4  11  23  44  65  97 133 175 225 279 332 402
#     4  11  27  45  71 103 138 182 228 284 351 414
#     4  11  23  43  69  96 133 179 225 280 335 406
#     4  10  25  43  65  97 133 182 222 285 340 398
#
# _framework density 21.673136
#
# number of rings (size 3 to 8) (size 9 to 14) (size 15 to 20)
#    0.000    1.000    2.500    3.000    5.250    4.500 
#    0.000    0.000    0.000    0.000    0.000    0.000 
#    0.000    0.000    0.000    0.000    0.000    0.000 
#
# Total GULP energy -396752.080330 kJ/mol
# GULP energy per Si atom -12398.502510 kJ/mol
# Density = 2.162381 g / cm^3
# Si number density = 21.673136 Si / 1000 Ang^3
#
#
#
# Elastic Constant Matrix: (Units=GPa)
#
#
# Indices 1 2 3 4 5 6 
#
# 1 90.0143 23.0105 36.5317 0.0000 0.0000 0.0000
# 2 23.0105 102.5962 21.8319 0.0000 0.0000 0.0000
# 3 36.5317 21.8319 119.7011 0.0000 0.0000 0.0000
# 4 0.0000 0.0000 0.0000 20.4801 0.0000 0.0000
# 5 0.0000 0.0000 0.0000 0.0000 30.7279 0.0000
# 6 0.0000 0.0000 0.0000 0.0000 0.0000 30.8339
#
#
#
# Elastic Compliance Matrix: (Units=1/GPa)
#
#
# Indices 1 2 3 4 5 6 
#
# 1 0.013131 -0.002177 -0.003610 0.000000 0.000000 0.000000
# 2 -0.002177 0.010501 -0.001251 0.000000 0.000000 0.000000
# 3 -0.003610 -0.001251 0.009684 0.000000 0.000000 0.000000
# 4 0.000000 0.000000 0.000000 0.048828 0.000000 0.000000
# 5 0.000000 0.000000 0.000000 0.000000 0.032544 0.000000
# 6 0.000000 0.000000 0.000000 0.000000 0.000000 0.032432
#
#
# Mechanical properties :
#
#
# Convention : Reuss Voigt Hill
#
# Bulk Modulus (GPa) = 51.97456 52.78442 52.37949
# Shear Modulus (GPa) = 29.83119 31.80423 30.81771
#
# Velocity S-wave (km/s) = 3.71403 3.83489 3.77494
# Velocity P-wave (km/s) = 6.51346 6.63446 6.57424
#
# Compressibility (1/GPa) = 0.01924018
#
# Stress axis : x y z
#
# Youngs Moduli (GPa) = 76.15512 95.22573 103.26111
#
# Poissons Ratio (x) = 0.20729 0.37282
# Poissons Ratio (y) = 0.16577 0.12918
# Poissons Ratio (z) = 0.27496 0.11913
#
# Static dielectric constant tensor:
#      x y z
#    x 3.876680 0.000000 0.000000 
#    y 0.000000 4.114970 0.000000 
#    z 0.000000 0.000000 3.940600 
# 
# 
# High freq. dielectric constant tensor:
#      x y z
#    x 1.858990 0.000000 0.000000 
#    y 0.000000 1.864140 0.000000 
#    z 0.000000 0.000000 1.855280 
# 
# From -- ./inp_files/31092.got.cif
#   From: 2010.03.12/outbox.cif.g09.slc.cpg/sg20_16_cif.got.tgz:31092.got - 2010.04.14 01:38:04.
