data_PCOD8160711
_publ_section_title
;
Structure prediction by ZEFSAII (Michael W. Deem and Ramdas Pophale) SiO2 
 PCOD8160711
Probable space group: C 2 2 21
;
_chemical_formula_sum "Si O2"
_cell_formula_units_Z 48
_cell_length_a 17.479431
_cell_length_b 8.430156
_cell_length_c 14.320003
_cell_angle_alpha 90.000000
_cell_angle_beta 90.000000
_cell_angle_gamma 90.000000
_cell_volume 2110.114449
_symmetry_space_group_name_H-M "C 2 2 21"
_symmetry_group_IT_number 20
_symmetry_cell_setting 'orthorhombic'
loop_
_space_group_symop_operation_xyz
x,y,z
-x,-y,1/2+z
x,-y,-z
-x,y,1/2-z
1/2+x,1/2+y,z
1/2-x,1/2-y,1/2+z
1/2+x,1/2-y,-z
1/2-x,1/2+y,1/2-z
loop_
_atom_site_type_symbol
_atom_site_label
_atom_site_fract_x
_atom_site_fract_y
_atom_site_fract_z
Si Si1 0.581877 0.902143 0.667073
Si Si2 0.500000 0.382740 0.250000
Si Si3 0.974863 0.500000 0.500000
Si Si4 0.233048 0.557408 0.597702
Si Si5 0.638464 0.441196 0.781709
Si Si6 0.873180 0.588413 0.657513
Si Si7 0.217613 0.923032 0.599077
O O1 0.562561 0.722013 0.694787
O O2 0.526145 0.922380 0.579166
O O3 0.667050 0.935607 0.630913
O O4 0.572329 0.009160 0.762003
O O5 0.446797 0.501810 0.311019
O O6 0.919270 0.615678 0.560319
O O7 0.266181 0.500000 0.500000
O O8 0.301666 0.555805 0.669595
O O9 0.206314 0.736066 0.587330
O O10 0.654965 0.259167 0.808403
O O11 0.651013 0.469172 0.671272
O O12 0.800686 0.474196 0.638756
O O13 0.199689 0.000000 0.500000
#
# Coordination Sequence:
#
# PCOD8160711 Si02
#       7
#     8   4   4   8   8   8   8
#     4  12  25  47  76 105 152 204 255 317 393 465
#     4  12  30  46  76 112 158 202 250 322 394 454
#     4  12  26  44  78 106 152 200 266 316 402 464
#     4  12  27  45  77 113 149 201 264 318 387 473
#     4  12  28  48  76 110 161 201 263 325 393 471
#     4  12  25  49  77 111 157 207 259 323 402 468
#     4  12  25  46  79 114 151 203 264 323 390 467
#
# _framework density 22.747581
#
# number of rings (size 3 to 8) (size 9 to 14) (size 15 to 20)
#    0.000    0.000    6.667    2.000    7.000    0.000 
#    0.000    0.833    0.000    0.000    0.000    0.000 
#    0.000    0.000    0.000    0.000    0.000    0.000 
#
# Total GULP energy -297378.542174 kJ/mol
# GULP energy per Si atom -12390.772591 kJ/mol
# Density = 2.269581 g / cm^3
# Si number density = 22.747581 Si / 1000 Ang^3
#
#
#
# Elastic Constant Matrix: (Units=GPa)
#
#
# Indices 1 2 3 4 5 6 
#
# 1 110.8335 40.5248 35.0180 0.0000 0.0000 0.0000
# 2 40.5248 95.1848 40.0987 0.0000 0.0000 0.0000
# 3 35.0180 40.0987 160.2054 0.0000 0.0000 0.0000
# 4 0.0000 0.0000 0.0000 28.2804 0.0000 0.0000
# 5 0.0000 0.0000 0.0000 0.0000 32.3911 0.0000
# 6 0.0000 0.0000 0.0000 0.0000 0.0000 40.8595
#
#
#
# Elastic Compliance Matrix: (Units=1/GPa)
#
#
# Indices 1 2 3 4 5 6 
#
# 1 0.010949 -0.004084 -0.001371 0.000000 0.000000 0.000000
# 2 -0.004084 0.013268 -0.002428 0.000000 0.000000 0.000000
# 3 -0.001371 -0.002428 0.007149 0.000000 0.000000 0.000000
# 4 0.000000 0.000000 0.000000 0.035360 0.000000 0.000000
# 5 0.000000 0.000000 0.000000 0.000000 0.030873 0.000000
# 6 0.000000 0.000000 0.000000 0.000000 0.000000 0.024474
#
#
# Mechanical properties :
#
#
# Convention : Reuss Voigt Hill
#
# Bulk Modulus (GPa) = 64.10384 66.38962 65.24673
# Shear Modulus (GPa) = 34.95550 37.01167 35.98359
#
# Velocity S-wave (km/s) = 3.92429 4.03806 3.98158
# Velocity P-wave (km/s) = 6.98392 7.14072 7.06276
#
# Compressibility (1/GPa) = 0.01559969
#
# Stress axis : x y z
#
# Youngs Moduli (GPa) = 91.33288 75.37212 139.87140
#
# Poissons Ratio (x) = 0.30781 0.19177
# Poissons Ratio (y) = 0.37300 0.33963
# Poissons Ratio (z) = 0.12522 0.18301
#
# Static dielectric constant tensor:
#      x y z
#    x 4.348870 0.000000 0.000000 
#    y 0.000000 4.032310 0.000000 
#    z 0.000000 0.000000 4.829530 
# 
# 
# High freq. dielectric constant tensor:
#      x y z
#    x 1.905030 0.000000 0.000000 
#    y 0.000000 1.891280 0.000000 
#    z 0.000000 0.000000 1.913350 
# 
# From -- ./inp_files/21313.got.cif
#   From: 2010.03.12/outbox.cif.g09.slc.cpg/sg20_11_cif.got.tgz:21313.got - 2010.04.14 01:38:04.
