data_PCOD8160751
_publ_section_title
;
Structure prediction by ZEFSAII (Michael W. Deem and Ramdas Pophale) SiO2 
 PCOD8160751
Probable space group: C 2 2 21
;
_chemical_formula_sum "Si O2"
_cell_formula_units_Z 32
_cell_length_a 18.397427
_cell_length_b 4.602105
_cell_length_c 13.770657
_cell_angle_alpha 90.000000
_cell_angle_beta 90.000000
_cell_angle_gamma 90.000000
_cell_volume 1165.918712
_symmetry_space_group_name_H-M "C 2 2 21"
_symmetry_group_IT_number 20
_symmetry_cell_setting 'orthorhombic'
loop_
_space_group_symop_operation_xyz
x,y,z
-x,-y,1/2+z
x,-y,-z
-x,y,1/2-z
1/2+x,1/2+y,z
1/2-x,1/2-y,1/2+z
1/2+x,1/2-y,-z
1/2-x,1/2+y,1/2-z
loop_
_atom_site_type_symbol
_atom_site_label
_atom_site_fract_x
_atom_site_fract_y
_atom_site_fract_z
Si Si1 0.662717 0.825789 0.242038
Si Si2 0.210094 0.901551 0.396829
Si Si3 0.000153 0.000000 0.000000
Si Si4 0.430831 0.337808 0.310563
Si Si5 0.100950 0.500000 0.500000
O O1 0.730756 0.745588 0.171771
O O2 0.679996 0.701135 0.349442
O O3 0.589519 0.672942 0.204480
O O4 0.641694 0.165631 0.227335
O O5 0.147080 0.661015 0.414938
O O6 0.244165 0.000000 0.500000
O O7 0.948407 0.246197 0.049853
O O8 0.049686 0.820276 0.075802
O O9 0.500000 0.236752 0.250000
#
# Coordination Sequence:
#
# PCOD8160751 Si02
#       5
#     8   8   4   8   4
#     4  12  30  52  81 125 164 217 283 338 432 493
#     4  12  31  51  89 122 171 221 277 360 421 503
#     4  12  28  49  84 121 170 226 282 344 426 496
#     4  12  29  50  82 118 171 220 274 346 407 511
#     4  12  28  51  84 123 168 222 284 340 428 502
#
# _framework density 27.446166000000002
#
# number of rings (size 3 to 8) (size 9 to 14) (size 15 to 20)
#    0.000    0.000    1.250    5.250   17.500    0.000 
#    0.000    0.000    0.000    0.000    0.000    0.000 
#    0.000    0.000    0.000    0.000    0.000    0.000 
#
# Total GULP energy -198366.257195 kJ/mol
# GULP energy per Si atom -12397.891075 kJ/mol
# Density = 2.738370 g / cm^3
# Si number density = 27.446166 Si / 1000 Ang^3
#
#
#
# Elastic Constant Matrix: (Units=GPa)
#
#
# Indices 1 2 3 4 5 6 
#
# 1 110.0391 31.4283 56.7268 0.0000 0.0000 0.0000
# 2 31.4283 133.5755 48.6634 0.0000 0.0000 0.0000
# 3 56.7268 48.6634 198.9579 0.0000 0.0000 0.0000
# 4 0.0000 0.0000 0.0000 53.7985 0.0000 0.0000
# 5 0.0000 0.0000 0.0000 0.0000 44.2401 0.0000
# 6 0.0000 0.0000 0.0000 0.0000 0.0000 50.2445
#
#
#
# Elastic Compliance Matrix: (Units=1/GPa)
#
#
# Indices 1 2 3 4 5 6 
#
# 1 0.010949 -0.001580 -0.002735 0.000000 0.000000 0.000000
# 2 -0.001580 0.008447 -0.001616 0.000000 0.000000 0.000000
# 3 -0.002735 -0.001616 0.006201 0.000000 0.000000 0.000000
# 4 0.000000 0.000000 0.000000 0.018588 0.000000 0.000000
# 5 0.000000 0.000000 0.000000 0.000000 0.022604 0.000000
# 6 0.000000 0.000000 0.000000 0.000000 0.000000 0.019903
#
#
# Mechanical properties :
#
#
# Convention : Reuss Voigt Hill
#
# Bulk Modulus (GPa) = 72.80307 79.57883 76.19095
# Shear Modulus (GPa) = 48.48198 50.04023 49.26110
#
# Velocity S-wave (km/s) = 4.20746 4.27454 4.24114
# Velocity P-wave (km/s) = 7.08428 7.30888 7.19746
#
# Compressibility (1/GPa) = 0.01373569
#
# Stress axis : x y z
#
# Youngs Moduli (GPa) = 91.33281 118.39019 161.25726
#
# Poissons Ratio (x) = 0.18701 0.44111
# Poissons Ratio (y) = 0.14427 0.26053
# Poissons Ratio (z) = 0.24983 0.19127
#
# Static dielectric constant tensor:
#      x y z
#    x 4.850350 0.000000 0.000000 
#    y 0.000000 5.042710 0.000000 
#    z 0.000000 0.000000 4.834730 
# 
# 
# High freq. dielectric constant tensor:
#      x y z
#    x 2.103490 0.000000 0.000000 
#    y 0.000000 2.134180 0.000000 
#    z 0.000000 0.000000 2.110800 
# 
# From -- ./inp_files/21064.got.cif
#   From: 2010.03.12/outbox.cif.g09.slc.cpg/sg20_11_cif.got.tgz:21064.got - 2010.04.14 01:38:04.
