data_PCOD8160850
_publ_section_title
;
Structure prediction by ZEFSAII (Michael W. Deem and Ramdas Pophale) SiO2 
 PCOD8160850
Probable space group: C 2 2 2
;
_chemical_formula_sum "Si O2"
_cell_formula_units_Z 40
_cell_length_a 8.324876
_cell_length_b 27.776212
_cell_length_c 8.946190
_cell_angle_alpha 90.000000
_cell_angle_beta 90.000000
_cell_angle_gamma 90.000000
_cell_volume 2068.659010
_symmetry_space_group_name_H-M "C 2 2 2"
_symmetry_group_IT_number 21
_symmetry_cell_setting 'orthorhombic'
loop_
_space_group_symop_operation_xyz
x,y,z
-x,-y,z
x,-y,-z
-x,y,-z
1/2+x,1/2+y,z
1/2-x,1/2-y,z
1/2+x,1/2-y,-z
1/2-x,1/2+y,-z
loop_
_atom_site_type_symbol
_atom_site_label
_atom_site_fract_x
_atom_site_fract_y
_atom_site_fract_z
Si Si1 0.022982 0.332823 0.326923
Si Si2 0.652254 0.360487 0.816166
Si Si3 0.550563 0.449705 0.169368
Si Si4 0.936344 0.241920 0.841887
Si Si5 0.655388 0.896484 0.906375
O O1 0.202771 0.350831 0.296088
O O2 0.993289 0.276357 0.288038
O O3 0.000000 0.342143 0.500000
O O4 0.897047 0.362327 0.228132
O O5 0.549468 0.405836 0.756554
O O6 0.530267 0.314686 0.814755
O O7 0.722202 0.368219 0.983654
O O8 0.500000 0.500000 0.250988
O O9 0.743796 0.440213 0.170594
O O10 0.500000 0.454149 0.000000
O O11 0.750000 0.250000 0.847832
O O12 0.000000 0.260720 0.000000
O O13 0.500000 0.915534 0.000000
#
# Coordination Sequence:
#
# PCOD8160850 Si02
#       5
#     8   8   8   8   8
#     4  10  20  34  50  73 105 138 176 219 259 308
#     4   9  18  34  52  75 104 136 171 213 264 319
#     4   9  17  32  55  82 105 127 168 223 266 307
#     4  10  18  31  51  74 101 135 171 208 255 314
#     4   9  17  33  56  78 105 139 172 211 264 317
#
# _framework density 19.336198
#
# number of rings (size 3 to 8) (size 9 to 14) (size 15 to 20)
#    0.000    2.600    0.000    4.800    0.000    0.000 
#    0.000   33.000    0.000    3.600    0.000    0.000 
#    0.000    0.000    0.000    0.000    0.000    0.000 
#
# Total GULP energy -247824.802224 kJ/mol
# GULP energy per Si atom -12391.240111 kJ/mol
# Density = 1.929219 g / cm^3
# Si number density = 19.336198 Si / 1000 Ang^3
#
#
#
# Elastic Constant Matrix: (Units=GPa)
#
#
# Indices 1 2 3 4 5 6 
#
# 1 89.3085 68.2992 30.8949 0.0000 0.0000 0.0000
# 2 68.2992 160.6753 35.3522 0.0000 0.0000 0.0000
# 3 30.8949 35.3522 90.0591 0.0000 0.0000 0.0000
# 4 0.0000 0.0000 0.0000 3.7052 0.0000 0.0000
# 5 0.0000 0.0000 0.0000 0.0000 13.1826 0.0000
# 6 0.0000 0.0000 0.0000 0.0000 0.0000 29.1038
#
#
#
# Elastic Compliance Matrix: (Units=1/GPa)
#
#
# Indices 1 2 3 4 5 6 
#
# 1 0.017478 -0.006688 -0.003370 0.000000 0.000000 0.000000
# 2 -0.006688 0.009371 -0.001384 0.000000 0.000000 0.000000
# 3 -0.003370 -0.001384 0.012803 0.000000 0.000000 0.000000
# 4 0.000000 0.000000 0.000000 0.269890 0.000000 0.000000
# 5 0.000000 0.000000 0.000000 0.000000 0.075858 0.000000
# 6 0.000000 0.000000 0.000000 0.000000 0.000000 0.034360
#
#
# Mechanical properties :
#
#
# Convention : Reuss Voigt Hill
#
# Bulk Modulus (GPa) = 59.64065 67.68172 63.66118
# Shear Modulus (GPa) = 11.15491 22.89811 17.02651
#
# Velocity S-wave (km/s) = 2.40446 3.44497 2.97063
# Velocity P-wave (km/s) = 6.21447 7.13459 6.69036
#
# Compressibility (1/GPa) = 0.01676709
#
# Stress axis : x y z
#
# Youngs Moduli (GPa) = 57.21618 106.71098 78.10372
#
# Poissons Ratio (x) = 0.71365 0.26325
# Poissons Ratio (y) = 0.38265 0.10812
# Poissons Ratio (z) = 0.19285 0.14773
#
# Static dielectric constant tensor:
#      x y z
#    x 3.731580 0.000000 0.000000 
#    y 0.000000 4.744020 0.000000 
#    z 0.000000 0.000000 3.028040 
# 
# 
# High freq. dielectric constant tensor:
#      x y z
#    x 1.758760 0.000000 0.000000 
#    y 0.000000 1.752840 0.000000 
#    z 0.000000 0.000000 1.701460 
# 
# From -- ./inp_files/11209.got.cif
#   From: 2010.03.12/outbox.cif.g09.slc.cpg/sg21_6_cif.got.tgz:11209.got - 2010.04.14 01:59:26.
