data_PCOD8160631
_publ_section_title
;
Structure prediction by ZEFSAII (Michael W. Deem and Ramdas Pophale) SiO2 
 PCOD8160631
Probable space group: C 2 2 21
;
_chemical_formula_sum "Si O2"
_cell_formula_units_Z 40
_cell_length_a 17.514982
_cell_length_b 18.135131
_cell_length_c 4.983381
_cell_angle_alpha 90.000000
_cell_angle_beta 90.000000
_cell_angle_gamma 90.000000
_cell_volume 1582.903664
_symmetry_space_group_name_H-M "C 2 2 21"
_symmetry_group_IT_number 20
_symmetry_cell_setting 'orthorhombic'
loop_
_space_group_symop_operation_xyz
x,y,z
-x,-y,1/2+z
x,-y,-z
-x,y,1/2-z
1/2+x,1/2+y,z
1/2-x,1/2-y,1/2+z
1/2+x,1/2-y,-z
1/2-x,1/2+y,1/2-z
loop_
_atom_site_type_symbol
_atom_site_label
_atom_site_fract_x
_atom_site_fract_y
_atom_site_fract_z
Si Si1 0.070305 0.671030 0.948079
Si Si2 0.351962 0.948279 0.749087
Si Si3 0.801963 0.913746 0.517487
Si Si4 0.548264 0.668228 0.991111
Si Si5 0.233981 0.298869 0.182901
O O1 0.147812 0.671551 0.773751
O O2 0.000000 0.653801 0.750000
O O3 0.078635 0.607632 0.177745
O O4 0.069096 0.749065 0.107800
O O5 0.273293 0.901509 0.797475
O O6 0.333939 0.000000 0.500000
O O7 0.374928 0.000000 0.000000
O O8 0.881304 0.878309 0.611427
O O9 0.787121 0.870724 0.235923
O O10 0.816201 0.000000 0.500000
O O11 0.500000 0.628974 0.750000
O O12 0.500000 0.682637 0.250000
O O13 0.249460 0.232387 0.389227
#
# Coordination Sequence:
#
# PCOD8160631 Si02
#       5
#     8   8   8   8   8
#     4  11  26  48  80 115 163 203 264 329 399 470
#     4  11  26  51  78 117 155 206 269 332 404 482
#     4  11  26  48  78 111 153 201 262 327 390 472
#     4  11  28  45  71 110 153 201 259 313 392 468
#     4  12  26  46  77 112 152 206 265 322 389 470
#
# _framework density 25.270015000000001
#
# number of rings (size 3 to 8) (size 9 to 14) (size 15 to 20)
#    0.000    0.800    2.000    3.600    5.600    7.200 
#    0.000    5.000    0.000    0.000    0.000    0.000 
#    0.000    0.000    0.000    0.000    0.000    0.000 
#
# Total GULP energy -247851.284136 kJ/mol
# GULP energy per Si atom -12392.564207 kJ/mol
# Density = 2.521250 g / cm^3
# Si number density = 25.270015 Si / 1000 Ang^3
#
#
#
# Elastic Constant Matrix: (Units=GPa)
#
#
# Indices 1 2 3 4 5 6 
#
# 1 122.1191 56.2786 18.7429 0.0000 0.0000 0.0000
# 2 56.2786 168.7695 38.2423 0.0000 0.0000 0.0000
# 3 18.7429 38.2423 91.7578 0.0000 0.0000 0.0000
# 4 0.0000 0.0000 0.0000 18.9055 0.0000 0.0000
# 5 0.0000 0.0000 0.0000 0.0000 40.8476 0.0000
# 6 0.0000 0.0000 0.0000 0.0000 0.0000 491.5185
#
#
#
# Elastic Compliance Matrix: (Units=1/GPa)
#
#
# Indices 1 2 3 4 5 6 
#
# 1 0.009716 -0.003081 -0.000700 0.000000 0.000000 0.000000
# 2 -0.003081 0.007520 -0.002505 0.000000 0.000000 0.000000
# 3 -0.000700 -0.002505 0.012085 0.000000 0.000000 0.000000
# 4 0.000000 0.000000 0.000000 0.052895 0.000000 0.000000
# 5 0.000000 0.000000 0.000000 0.000000 0.024481 0.000000
# 6 0.000000 0.000000 0.000000 0.000000 0.000000 0.002035
#
#
# Mechanical properties :
#
#
# Convention : Reuss Voigt Hill
#
# Bulk Modulus (GPa) = 59.70658 67.68601 63.69629
# Shear Modulus (GPa) = 39.40464 128.21315 83.80889
#
# Velocity S-wave (km/s) = 3.95314 7.13074 5.76518
# Velocity P-wave (km/s) = 6.67196 9.72830 8.34131
#
# Compressibility (1/GPa) = 0.01674857
#
# Stress axis : x y z
#
# Youngs Moduli (GPa) = 102.92025 132.97273 82.74507
#
# Poissons Ratio (x) = 0.40973 0.05796
# Poissons Ratio (y) = 0.31713 0.20727
# Poissons Ratio (z) = 0.07209 0.33308
#
# Static dielectric constant tensor:
#      x y z
#    x 5.134330 0.000000 0.000000 
#    y 0.000000 4.881420 0.000000 
#    z 0.000000 0.000000 0.275540 
# 
# 
# High freq. dielectric constant tensor:
#      x y z
#    x 2.015230 0.000000 0.000000 
#    y 0.000000 2.020190 0.000000 
#    z 0.000000 0.000000 1.999940 
# 
# From -- ./inp_files/2485.got.cif
#   From: 2010.03.12/outbox.cif.g09.slc.cpg/sg20_2_cif.got.tgz:2485.got - 2010.04.14 01:38:04.
