data_PCOD8160824
_publ_section_title
;
Structure prediction by ZEFSAII (Michael W. Deem and Ramdas Pophale) SiO2 
 PCOD8160824
Probable space group: C 2 2 2
;
_chemical_formula_sum "Si O2"
_cell_formula_units_Z 64
_cell_length_a 21.158230
_cell_length_b 27.790848
_cell_length_c 7.698767
_cell_angle_alpha 90.000000
_cell_angle_beta 90.000000
_cell_angle_gamma 90.000000
_cell_volume 4526.914675
_symmetry_space_group_name_H-M "C 2 2 2"
_symmetry_group_IT_number 21
_symmetry_cell_setting 'orthorhombic'
loop_
_space_group_symop_operation_xyz
x,y,z
-x,-y,z
x,-y,-z
-x,y,-z
1/2+x,1/2+y,z
1/2-x,1/2-y,z
1/2+x,1/2-y,-z
1/2-x,1/2+y,-z
loop_
_atom_site_type_symbol
_atom_site_label
_atom_site_fract_x
_atom_site_fract_y
_atom_site_fract_z
Si Si1 0.427403 0.734728 0.449924
Si Si2 0.848705 0.858968 0.557600
Si Si3 0.651044 0.228623 0.750000
Si Si4 0.427403 0.734728 0.050076
Si Si5 0.428032 0.553952 0.951278
Si Si6 0.228294 0.173566 0.250000
Si Si7 0.428032 0.446048 0.451278
Si Si8 0.151295 0.141032 0.942399
O O1 0.500000 0.734001 0.500000
O O2 0.401008 0.681378 0.485227
O O3 0.391536 0.772388 0.575619
O O4 0.417568 0.750667 0.250000
O O5 0.791215 0.856334 0.421330
O O6 0.882415 0.910498 0.554435
O O7 0.820267 0.850955 0.750000
O O8 0.696086 0.181635 0.750000
O O9 0.693981 0.275582 0.749999
O O10 0.608465 0.227612 0.924381
O O11 0.401008 0.681378 0.014773
O O12 0.500000 0.734001 0.000000
O O13 0.417998 0.563564 0.750000
O O14 0.408594 0.500000 0.000000
O O15 0.500000 0.564426 0.000000
O O16 0.382415 0.589502 0.054435
O O17 0.208786 0.143666 0.078669
O O18 0.408594 0.500000 0.500000
O O19 0.500000 0.435574 0.500000
#
# Coordination Sequence:
#
# PCOD8160824 Si02
#       8
#     8   8   8   8   8   8   8   8
#     4  10  18  27  43  63  84 109 138 176 214 251
#     4  10  19  30  44  61  81 110 147 179 211 250
#     4   9  18  30  44  60  84 105 141 175 211 252
#     4  10  18  27  43  63  84 109 138 176 214 251
#     4  11  20  30  42  60  84 110 143 183 223 253
#     4   9  18  32  44  59  80 112 139 178 211 246
#     4  11  20  30  42  60  84 110 143 183 223 253
#     4  10  19  30  44  61  81 110 147 179 211 250
#
# _framework density 14.137665
#
# number of rings (size 3 to 8) (size 9 to 14) (size 15 to 20)
#    0.000    2.000    2.500    3.750    0.000    3.000 
#    0.000    5.000    0.000    0.000    0.000    0.000 
#    0.000    0.000    0.000    0.000    0.000    3.750 
#
# Total GULP energy -396792.125259 kJ/mol
# GULP energy per Si atom -12399.753914 kJ/mol
# Density = 1.410549 g / cm^3
# Si number density = 14.137665 Si / 1000 Ang^3
#
#
#
# Elastic Constant Matrix: (Units=GPa)
#
#
# Indices 1 2 3 4 5 6 
#
# 1 73.1252 40.9531 47.4198 0.0000 0.0000 0.0000
# 2 40.9531 50.9940 27.8182 0.0000 0.0000 0.0000
# 3 47.4198 27.8182 121.0031 0.0000 0.0000 0.0000
# 4 0.0000 0.0000 0.0000 6.6753 0.0000 0.0000
# 5 0.0000 0.0000 0.0000 0.0000 18.7084 0.0000
# 6 0.0000 0.0000 0.0000 0.0000 0.0000 21.3659
#
#
#
# Elastic Compliance Matrix: (Units=1/GPa)
#
#
# Indices 1 2 3 4 5 6 
#
# 1 0.029161 -0.019649 -0.006911 0.000000 0.000000 0.000000
# 2 -0.019649 0.035662 -0.000498 0.000000 0.000000 0.000000
# 3 -0.006911 -0.000498 0.011087 0.000000 0.000000 0.000000
# 4 0.000000 0.000000 0.000000 0.149806 0.000000 0.000000
# 5 0.000000 0.000000 0.000000 0.000000 0.053452 0.000000
# 6 0.000000 0.000000 0.000000 0.000000 0.000000 0.046804
#
#
# Mechanical properties :
#
#
# Convention : Reuss Voigt Hill
#
# Bulk Modulus (GPa) = 45.88429 53.05606 49.47018
# Shear Modulus (GPa) = 12.90817 17.94533 15.42675
#
# Velocity S-wave (km/s) = 3.02492 3.56663 3.30689
# Velocity P-wave (km/s) = 6.68775 7.38720 7.04616
#
# Compressibility (1/GPa) = 0.02179395
#
# Stress axis : x y z
#
# Youngs Moduli (GPa) = 34.29264 28.04096 90.19591
#
# Poissons Ratio (x) = 0.55098 0.62330
# Poissons Ratio (y) = 0.67382 0.04495
# Poissons Ratio (z) = 0.23698 0.01397
#
# Static dielectric constant tensor:
#      x y z
#    x 2.677910 0.000000 0.000000 
#    y 0.000000 2.567810 0.000000 
#    z 0.000000 0.000000 3.086160 
# 
# 
# High freq. dielectric constant tensor:
#      x y z
#    x 1.510460 0.000000 0.000000 
#    y 0.000000 1.498410 0.000000 
#    z 0.000000 0.000000 1.566940 
# 
# From -- ./inp_files/16941.got.cif
#   From: 2010.03.12/outbox.cif.g09.slc.cpg/sg21_9_cif.got.tgz:16941.got - 2010.04.14 01:59:26.
