data_PCOD8160285
_publ_section_title
;
Structure prediction by ZEFSAII (Michael W. Deem and Ramdas Pophale) SiO2 
 PCOD8160285
Probable space group: C 2 2 21
;
_chemical_formula_sum "Si O2"
_cell_formula_units_Z 64
_cell_length_a 12.574467
_cell_length_b 15.114468
_cell_length_c 17.043980
_cell_angle_alpha 90.000000
_cell_angle_beta 90.000000
_cell_angle_gamma 90.000000
_cell_volume 3239.317124
_symmetry_space_group_name_H-M "C 2 2 21"
_symmetry_group_IT_number 20
_symmetry_cell_setting 'orthorhombic'
loop_
_space_group_symop_operation_xyz
x,y,z
-x,-y,1/2+z
x,-y,-z
-x,y,1/2-z
1/2+x,1/2+y,z
1/2-x,1/2-y,1/2+z
1/2+x,1/2-y,-z
1/2-x,1/2+y,1/2-z
loop_
_atom_site_type_symbol
_atom_site_label
_atom_site_fract_x
_atom_site_fract_y
_atom_site_fract_z
Si Si1 0.729508 0.663984 0.798494
Si Si2 0.768721 0.164806 0.300027
Si Si3 0.082658 0.098048 0.318136
Si Si4 0.040834 0.227480 0.907520
Si Si5 0.956733 0.773233 0.590174
Si Si6 0.416652 0.595216 0.816994
Si Si7 0.958458 0.397516 0.162631
Si Si8 0.457020 0.901032 0.837094
O O1 0.741648 0.745233 0.741287
O O2 0.644074 0.686943 0.865470
O O3 0.692966 0.592599 0.732581
O O4 0.834612 0.629093 0.841214
O O5 0.805026 0.103388 0.226703
O O6 0.856355 0.182287 0.367005
O O7 0.668258 0.119395 0.341265
O O8 0.000000 0.118477 0.250000
O O9 0.063878 0.172941 0.384254
O O10 0.067663 0.001052 0.356446
O O11 0.934732 0.171473 0.882397
O O12 0.021915 0.331418 0.890263
O O13 0.061417 0.215385 0.998739
O O14 0.973025 0.669370 0.609243
O O15 0.500000 0.618027 0.750000
O O16 0.975007 0.498307 0.132457
O O17 0.000000 0.385855 0.250000
O O18 0.500000 0.889178 0.750000
#
# Coordination Sequence:
#
# PCOD8160285 Si02
#       8
#     8   8   8   8   8   8   8   8
#     4  11  19  38  63  87 115 158 206 248 292 357
#     4  11  19  38  63  87 115 158 206 248 292 357
#     4   9  18  35  60  86 113 149 196 245 290 349
#     4  11  23  38  58  88 126 158 193 252 314 362
#     4  11  23  38  58  88 126 158 193 252 314 362
#     4   9  18  35  60  86 113 149 196 245 290 349
#     4  11  22  39  64  91 118 158 208 252 299 362
#     4  11  22  39  64  91 118 158 208 252 299 362
#
# _framework density 19.757252000000001
#
# number of rings (size 3 to 8) (size 9 to 14) (size 15 to 20)
#    0.000    1.500    5.000    1.500    0.000    3.000 
#    0.000    0.000    0.000    0.000    0.000    0.000 
#    0.000    0.000    0.000    0.000    0.000    0.000 
#
# Total GULP energy -396522.356085 kJ/mol
# GULP energy per Si atom -12391.323628 kJ/mol
# Density = 1.971228 g / cm^3
# Si number density = 19.757252 Si / 1000 Ang^3
#
#
#
# Elastic Constant Matrix: (Units=GPa)
#
#
# Indices 1 2 3 4 5 6 
#
# 1 80.9433 23.8654 32.5224 0.0000 0.0000 0.0000
# 2 23.8654 134.2601 53.1001 0.0000 0.0000 0.0000
# 3 32.5224 53.1001 105.8705 0.0000 0.0000 0.0000
# 4 0.0000 0.0000 0.0000 16.3707 0.0000 0.0000
# 5 0.0000 0.0000 0.0000 0.0000 19.5602 0.0000
# 6 0.0000 0.0000 0.0000 0.0000 0.0000 24.6060
#
#
#
# Elastic Compliance Matrix: (Units=1/GPa)
#
#
# Indices 1 2 3 4 5 6 
#
# 1 0.014200 -0.000997 -0.003862 0.000000 0.000000 0.000000
# 2 -0.000997 0.009361 -0.004389 0.000000 0.000000 0.000000
# 3 -0.003862 -0.004389 0.012833 0.000000 0.000000 0.000000
# 4 0.000000 0.000000 0.000000 0.061085 0.000000 0.000000
# 5 0.000000 0.000000 0.000000 0.000000 0.051124 0.000000
# 6 0.000000 0.000000 0.000000 0.000000 0.000000 0.040641
#
#
# Mechanical properties :
#
#
# Convention : Reuss Voigt Hill
#
# Bulk Modulus (GPa) = 55.86982 60.00551 57.93767
# Shear Modulus (GPa) = 23.39659 26.21310 24.80485
#
# Velocity S-wave (km/s) = 3.44496 3.64642 3.54712
# Velocity P-wave (km/s) = 6.64554 6.94016 6.79445
#
# Compressibility (1/GPa) = 0.01789875
#
# Stress axis : x y z
#
# Youngs Moduli (GPa) = 70.42263 106.82326 77.92224
#
# Poissons Ratio (x) = 0.10646 0.30096
# Poissons Ratio (y) = 0.07018 0.34201
# Poissons Ratio (z) = 0.27199 0.46885
#
# Static dielectric constant tensor:
#      x y z
#    x 4.749230 0.000000 0.000000 
#    y 0.000000 3.679430 0.000000 
#    z 0.000000 0.000000 3.371720 
# 
# 
# High freq. dielectric constant tensor:
#      x y z
#    x 1.768230 0.000000 0.000000 
#    y 0.000000 1.786340 0.000000 
#    z 0.000000 0.000000 1.734660 
# 
# From -- ./inp_files/24454.got.cif
#   From: 2010.03.12/outbox.cif.g09.slc.cpg/sg20_13_cif.got.tgz:24454.got - 2010.04.14 01:38:04.
