data_PCOD8160811
_publ_section_title
;
Structure prediction by ZEFSAII (Michael W. Deem and Ramdas Pophale) SiO2 
 PCOD8160811
Probable space group: C 2 2 2
;
_chemical_formula_sum "Si O2"
_cell_formula_units_Z 48
_cell_length_a 14.554903
_cell_length_b 24.559281
_cell_length_c 7.781075
_cell_angle_alpha 90.000000
_cell_angle_beta 90.000000
_cell_angle_gamma 90.000000
_cell_volume 2781.407139
_symmetry_space_group_name_H-M "C 2 2 2"
_symmetry_group_IT_number 21
_symmetry_cell_setting 'orthorhombic'
loop_
_space_group_symop_operation_xyz
x,y,z
-x,-y,z
x,-y,-z
-x,y,-z
1/2+x,1/2+y,z
1/2-x,1/2-y,z
1/2+x,1/2-y,-z
1/2-x,1/2+y,-z
loop_
_atom_site_type_symbol
_atom_site_label
_atom_site_fract_x
_atom_site_fract_y
_atom_site_fract_z
Si Si1 0.750246 0.187248 0.681658
Si Si2 0.827357 0.296045 0.346380
Si Si3 0.226539 0.845828 0.050775
Si Si4 0.943430 0.220961 0.153549
Si Si5 0.604288 0.561262 0.043907
Si Si6 0.436287 0.632961 0.656738
O O1 0.750000 0.250000 0.732455
O O2 0.672488 0.174773 0.534481
O O3 0.728930 0.155856 0.859692
O O4 0.849107 0.169417 0.599302
O O5 0.750000 0.250000 0.366190
O O6 0.923880 0.266437 0.300519
O O7 0.803970 0.339965 0.197193
O O8 0.173106 0.902892 0.071949
O O9 0.153690 0.796994 0.071974
O O10 0.000041 0.169494 0.220795
O O11 0.000000 0.249310 0.000000
O O12 0.606505 0.580216 0.244420
O O13 0.633664 0.500000 0.000000
O O14 0.500000 0.572533 0.000000
O O15 0.500000 0.612912 0.500000
#
# Coordination Sequence:
#
# PCOD8160811 Si02
#       6
#     8   8   8   8   8   8
#     4  10  18  28  42  66  90 123 163 193 232 288
#     4   9  19  28  44  64  93 120 161 197 233 288
#     4  10  17  31  48  60  88 127 162 195 246 283
#     4  11  17  31  45  70  94 130 163 196 245 301
#     4  10  19  32  47  62  90 124 166 209 246 280
#     4  11  19  29  50  67  97 128 167 206 246 293
#
# _framework density 17.257452000000001
#
# number of rings (size 3 to 8) (size 9 to 14) (size 15 to 20)
#    0.000    1.833    5.000    4.500    0.000    0.000 
#    0.000    1.667    0.000    0.000    0.000    0.000 
#    0.000    0.667    0.000    0.000   42.000    0.167 
#
# Total GULP energy -297320.143631 kJ/mol
# GULP energy per Si atom -12388.339318 kJ/mol
# Density = 1.721817 g / cm^3
# Si number density = 17.257452 Si / 1000 Ang^3
#
#
#
# Elastic Constant Matrix: (Units=GPa)
#
#
# Indices 1 2 3 4 5 6 
#
# 1 24.6365 22.3663 15.5869 0.0000 0.0000 0.0000
# 2 22.3663 78.1054 25.5963 0.0000 0.0000 0.0000
# 3 15.5869 25.5963 95.9515 0.0000 0.0000 0.0000
# 4 0.0000 0.0000 0.0000 14.0823 0.0000 0.0000
# 5 0.0000 0.0000 0.0000 0.0000 28.2874 0.0000
# 6 0.0000 0.0000 0.0000 0.0000 0.0000 21.4359
#
#
#
# Elastic Compliance Matrix: (Units=1/GPa)
#
#
# Indices 1 2 3 4 5 6 
#
# 1 0.057297 -0.014637 -0.005403 0.000000 0.000000 0.000000
# 2 -0.014637 0.017769 -0.002362 0.000000 0.000000 0.000000
# 3 -0.005403 -0.002362 0.011930 0.000000 0.000000 0.000000
# 4 0.000000 0.000000 0.000000 0.071011 0.000000 0.000000
# 5 0.000000 0.000000 0.000000 0.000000 0.035351 0.000000
# 6 0.000000 0.000000 0.000000 0.000000 0.000000 0.046651
#
#
# Mechanical properties :
#
#
# Convention : Reuss Voigt Hill
#
# Bulk Modulus (GPa) = 23.70183 36.19916 29.95050
# Shear Modulus (GPa) = 16.72930 21.77071 19.25001
#
# Velocity S-wave (km/s) = 3.11689 3.55565 3.34347
# Velocity P-wave (km/s) = 5.16889 6.15454 5.68312
#
# Compressibility (1/GPa) = 0.04219084
#
# Stress axis : x y z
#
# Youngs Moduli (GPa) = 17.45300 56.27842 83.82356
#
# Poissons Ratio (x) = 0.82374 0.45290
# Poissons Ratio (y) = 0.25546 0.19802
# Poissons Ratio (z) = 0.09430 0.13295
#
# Static dielectric constant tensor:
#      x y z
#    x 3.113170 0.000000 0.000000 
#    y 0.000000 2.932830 0.000000 
#    z 0.000000 0.000000 3.704310 
# 
# 
# High freq. dielectric constant tensor:
#      x y z
#    x 1.631390 0.000000 0.000000 
#    y 0.000000 1.612790 0.000000 
#    z 0.000000 0.000000 1.684930 
# 
# From -- ./inp_files/16711.got.cif
#   From: 2010.03.12/outbox.cif.g09.slc.cpg/sg21_9_cif.got.tgz:16711.got - 2010.04.14 01:59:26.
