data_PCOD8160315
_publ_section_title
;
Structure prediction by ZEFSAII (Michael W. Deem and Ramdas Pophale) SiO2 
 PCOD8160315
Probable space group: C 2 2 21
;
_chemical_formula_sum "Si O2"
_cell_formula_units_Z 40
_cell_length_a 24.606452
_cell_length_b 12.573823
_cell_length_c 6.056978
_cell_angle_alpha 90.000000
_cell_angle_beta 90.000000
_cell_angle_gamma 90.000000
_cell_volume 1874.011865
_symmetry_space_group_name_H-M "C 2 2 21"
_symmetry_group_IT_number 20
_symmetry_cell_setting 'orthorhombic'
loop_
_space_group_symop_operation_xyz
x,y,z
-x,-y,1/2+z
x,-y,-z
-x,y,1/2-z
1/2+x,1/2+y,z
1/2-x,1/2-y,1/2+z
1/2+x,1/2-y,-z
1/2-x,1/2+y,1/2-z
loop_
_atom_site_type_symbol
_atom_site_label
_atom_site_fract_x
_atom_site_fract_y
_atom_site_fract_z
Si Si1 0.111082 0.676810 0.780378
Si Si2 0.175034 0.222379 0.577112
Si Si3 0.258840 0.382932 0.724541
Si Si4 0.819970 0.500000 0.500000
Si Si5 0.136726 0.116036 0.977963
Si Si6 0.500000 0.057241 0.750000
O O1 0.144099 0.681950 0.551201
O O2 0.143122 0.603209 0.955249
O O3 0.107502 0.798584 0.864122
O O4 0.052094 0.631382 0.735121
O O5 0.224887 0.274320 0.708812
O O6 0.198484 0.130530 0.422738
O O7 0.131643 0.162989 0.732737
O O8 0.217601 0.479200 0.783815
O O9 0.297814 0.400666 0.514690
O O10 0.108120 0.000000 0.000000
O O11 0.497939 0.000000 0.500000
#
# Coordination Sequence:
#
# PCOD8160315 Si02
#       6
#     8   8   8   4   8   4
#     4  11  27  44  70 103 138 178 243 304 370 437
#     4  11  21  39  61  95 138 187 234 289 348 433
#     4  11  21  34  58  95 141 186 232 282 346 428
#     4  12  22  40  62 102 140 186 234 290 360 442
#     4  11  24  41  65  96 142 195 239 291 351 437
#     4  12  30  54  84 114 140 184 236 320 390 446
#
# _framework density 21.344580000000001
#
# number of rings (size 3 to 8) (size 9 to 14) (size 15 to 20)
#    0.000    0.800    5.000    2.400    8.400    2.400 
#    0.000    0.000    4.400    0.000    0.000    0.000 
#    0.000    0.000    0.000    0.000    0.000    0.000 
#
# Total GULP energy -247777.425189 kJ/mol
# GULP energy per Si atom -12388.871259 kJ/mol
# Density = 2.129600 g / cm^3
# Si number density = 21.344580 Si / 1000 Ang^3
#
#
#
# Elastic Constant Matrix: (Units=GPa)
#
#
# Indices 1 2 3 4 5 6 
#
# 1 90.9785 34.0218 19.6316 0.0000 0.0000 0.0000
# 2 34.0218 128.5699 28.7990 0.0000 0.0000 0.0000
# 3 19.6316 28.7990 91.1725 0.0000 0.0000 0.0000
# 4 0.0000 0.0000 0.0000 26.6713 0.0000 0.0000
# 5 0.0000 0.0000 0.0000 0.0000 16.6331 0.0000
# 6 0.0000 0.0000 0.0000 0.0000 0.0000 30.2922
#
#
#
# Elastic Compliance Matrix: (Units=1/GPa)
#
#
# Indices 1 2 3 4 5 6 
#
# 1 0.012457 -0.002901 -0.001766 0.000000 0.000000 0.000000
# 2 -0.002901 0.009046 -0.002233 0.000000 0.000000 0.000000
# 3 -0.001766 -0.002233 0.012054 0.000000 0.000000 0.000000
# 4 0.000000 0.000000 0.000000 0.037493 0.000000 0.000000
# 5 0.000000 0.000000 0.000000 0.000000 0.060121 0.000000
# 6 0.000000 0.000000 0.000000 0.000000 0.000000 0.033012
#
#
# Mechanical properties :
#
#
# Convention : Reuss Voigt Hill
#
# Bulk Modulus (GPa) = 50.61339 52.84732 51.73035
# Shear Modulus (GPa) = 27.09024 29.93722 28.51373
#
# Velocity S-wave (km/s) = 3.56643 3.74915 3.65893
# Velocity P-wave (km/s) = 6.38147 6.59957 6.49144
#
# Compressibility (1/GPa) = 0.01975762
#
# Stress axis : x y z
#
# Youngs Moduli (GPa) = 80.27296 110.55109 82.96189
#
# Poissons Ratio (x) = 0.32069 0.14652
# Poissons Ratio (y) = 0.23286 0.18522
# Poissons Ratio (z) = 0.14177 0.24682
#
# Static dielectric constant tensor:
#      x y z
#    x 3.519400 0.000000 0.000000 
#    y 0.000000 3.869850 0.000000 
#    z 0.000000 0.000000 4.401030 
# 
# 
# High freq. dielectric constant tensor:
#      x y z
#    x 1.788540 0.000000 0.000000 
#    y 0.000000 1.843640 0.000000 
#    z 0.000000 0.000000 1.850930 
# 
# From -- ./inp_files/3658.got.cif
#   From: 2010.03.12/outbox.cif.g09.slc.cpg/sg20_2_cif.got.tgz:3658.got - 2010.04.14 01:38:04.
