data_PCOD8160026
_publ_section_title
;
Structure prediction by ZEFSAII (Michael W. Deem and Ramdas Pophale) SiO2 
 PCOD8160026
Probable space group: C 2 2 21
;
_chemical_formula_sum "Si O2"
_cell_formula_units_Z 64
_cell_length_a 8.294623
_cell_length_b 11.709108
_cell_length_c 28.543113
_cell_angle_alpha 90.000000
_cell_angle_beta 90.000000
_cell_angle_gamma 90.000000
_cell_volume 2772.182389
_symmetry_space_group_name_H-M "C 2 2 21"
_symmetry_group_IT_number 20
_symmetry_cell_setting 'orthorhombic'
loop_
_space_group_symop_operation_xyz
x,y,z
-x,-y,1/2+z
x,-y,-z
-x,y,1/2-z
1/2+x,1/2+y,z
1/2-x,1/2-y,1/2+z
1/2+x,1/2-y,-z
1/2-x,1/2+y,1/2-z
loop_
_atom_site_type_symbol
_atom_site_label
_atom_site_fract_x
_atom_site_fract_y
_atom_site_fract_z
Si Si1 0.953057 0.508749 0.591623
Si Si2 0.610434 0.765253 0.904368
Si Si3 0.043970 0.041400 0.140679
Si Si4 0.370140 0.000315 0.817546
Si Si5 0.141626 0.752494 0.678987
Si Si6 0.661401 0.218782 0.268222
Si Si7 0.712681 0.456001 0.050612
Si Si8 0.693457 0.342934 0.363381
O O1 0.857815 0.393528 0.574965
O O2 0.847443 0.621284 0.604270
O O3 0.036325 0.454993 0.637368
O O4 0.092807 0.541660 0.555283
O O5 0.712203 0.738944 0.857620
O O6 0.663443 0.676374 0.944344
O O7 0.421889 0.740383 0.893085
O O8 0.177802 0.995134 0.175914
O O9 0.997061 0.170261 0.155280
O O10 0.116327 0.034792 0.088028
O O11 0.887162 0.964522 0.147795
O O12 0.404523 0.909204 0.777578
O O13 0.433223 0.128571 0.808466
O O14 0.203470 0.798516 0.728683
O O15 0.500000 0.285580 0.250000
O O16 0.737125 0.280556 0.314128
O O17 0.660527 0.500000 0.000000
#
# Coordination Sequence:
#
# PCOD8160026 Si02
#       8
#     8   8   8   8   8   8   8   8
#     4  11  22  42  73  98 138 187 230 285 375 424
#     4  11  21  45  66  99 143 182 228 291 364 416
#     4  10  23  44  69  96 135 188 229 288 376 421
#     4  11  24  42  62  98 141 186 244 294 346 410
#     4  12  23  41  67  97 142 196 239 288 348 424
#     4  12  25  40  62  98 148 188 249 300 334 408
#     4  10  24  50  73 105 144 174 237 308 366 452
#     4  11  22  41  69  96 137 189 236 287 350 415
#
# _framework density 23.086504999999999
#
# number of rings (size 3 to 8) (size 9 to 14) (size 15 to 20)
#    0.000    1.000    7.500    0.000    3.500    0.500 
#    2.250    2.500    0.000    0.000    0.000    0.000 
#    0.000    0.000    0.000    0.000    0.000    0.000 
#
# Total GULP energy -396566.316054 kJ/mol
# GULP energy per Si atom -12392.697377 kJ/mol
# Density = 2.303396 g / cm^3
# Si number density = 23.086505 Si / 1000 Ang^3
#
#
#
# Elastic Constant Matrix: (Units=GPa)
#
#
# Indices 1 2 3 4 5 6 
#
# 1 71.7386 26.0670 23.5702 0.0000 0.0000 0.0000
# 2 26.0670 134.7574 17.7027 0.0000 0.0000 0.0000
# 3 23.5702 17.7027 74.9148 0.0000 0.0000 0.0000
# 4 0.0000 0.0000 0.0000 21.3507 0.0000 0.0000
# 5 0.0000 0.0000 0.0000 0.0000 22.0650 0.0000
# 6 0.0000 0.0000 0.0000 0.0000 0.0000 35.9257
#
#
#
# Elastic Compliance Matrix: (Units=1/GPa)
#
#
# Indices 1 2 3 4 5 6 
#
# 1 0.016365 -0.002569 -0.004542 0.000000 0.000000 0.000000
# 2 -0.002569 0.008062 -0.001097 0.000000 0.000000 0.000000
# 3 -0.004542 -0.001097 0.015037 0.000000 0.000000 0.000000
# 4 0.000000 0.000000 0.000000 0.046837 0.000000 0.000000
# 5 0.000000 0.000000 0.000000 0.000000 0.045321 0.000000
# 6 0.000000 0.000000 0.000000 0.000000 0.000000 0.027835
#
#
# Mechanical properties :
#
#
# Convention : Reuss Voigt Hill
#
# Bulk Modulus (GPa) = 43.38693 46.23229 44.80961
# Shear Modulus (GPa) = 27.23984 30.13965 28.68975
#
# Velocity S-wave (km/s) = 3.43870 3.61710 3.52903
# Velocity P-wave (km/s) = 5.88219 6.12485 6.00475
#
# Compressibility (1/GPa) = 0.02304842
#
# Stress axis : x y z
#
# Youngs Moduli (GPa) = 61.10515 124.04248 66.50414
#
# Poissons Ratio (x) = 0.31866 0.30205
# Poissons Ratio (y) = 0.15698 0.07294
# Poissons Ratio (z) = 0.27753 0.13604
#
# Static dielectric constant tensor:
#      x y z
#    x 4.225970 0.000000 0.000000 
#    y 0.000000 4.303240 0.000000 
#    z 0.000000 0.000000 3.711400 
# 
# 
# High freq. dielectric constant tensor:
#      x y z
#    x 1.919060 0.000000 0.000000 
#    y 0.000000 1.924890 0.000000 
#    z 0.000000 0.000000 1.868630 
# 
# From -- ./inp_files/31088.got.cif
#   From: 2010.03.12/outbox.cif.g09.slc.cpg/sg20_16_cif.got.tgz:31088.got - 2010.04.14 01:38:04.
