data_PCOD8160431
_publ_section_title
;
Structure prediction by ZEFSAII (Michael W. Deem and Ramdas Pophale) SiO2 
 PCOD8160431
Probable space group: C 2 2 21
;
_chemical_formula_sum "Si O2"
_cell_formula_units_Z 56
_cell_length_a 6.494491
_cell_length_b 16.022741
_cell_length_c 26.122196
_cell_angle_alpha 90.000000
_cell_angle_beta 90.000000
_cell_angle_gamma 90.000000
_cell_volume 2718.263888
_symmetry_space_group_name_H-M "C 2 2 21"
_symmetry_group_IT_number 20
_symmetry_cell_setting 'orthorhombic'
loop_
_space_group_symop_operation_xyz
x,y,z
-x,-y,1/2+z
x,-y,-z
-x,y,1/2-z
1/2+x,1/2+y,z
1/2-x,1/2-y,1/2+z
1/2+x,1/2-y,-z
1/2-x,1/2+y,1/2-z
loop_
_atom_site_type_symbol
_atom_site_label
_atom_site_fract_x
_atom_site_fract_y
_atom_site_fract_z
Si Si1 0.461831 0.854432 0.969110
Si Si2 0.379689 0.509189 0.800615
Si Si3 0.602190 0.394381 0.406398
Si Si4 0.652999 0.733183 0.100543
Si Si5 0.627335 0.345843 0.796669
Si Si6 0.746996 0.289128 0.059190
Si Si7 0.500000 0.936922 0.750000
Si Si8 0.239875 0.500000 0.000000
O O1 0.295381 0.841029 0.923251
O O2 0.602985 0.772327 0.973310
O O3 0.340095 0.858525 0.021933
O O4 0.597195 0.938165 0.965751
O O5 0.500000 0.546168 0.750000
O O6 0.378817 0.564807 0.850984
O O7 0.489864 0.423107 0.816685
O O8 0.140395 0.494755 0.786536
O O9 0.779201 0.325998 0.414915
O O10 0.385710 0.345141 0.401975
O O11 0.619245 0.454750 0.456514
O O12 0.660251 0.724453 0.161330
O O13 0.413211 0.728088 0.085404
O O14 0.500000 0.304221 0.750000
O O15 0.853882 0.377317 0.782828
#
# Coordination Sequence:
#
# PCOD8160431 Si02
#       8
#     8   8   8   8   8   8   4   4
#     4  11  23  41  65  90 129 171 217 263 322 388
#     4   9  21  42  63  95 126 171 216 268 326 387
#     4  11  26  41  62  97 135 167 219 271 332 393
#     4  11  24  42  65  92 127 179 212 266 333 386
#     4   9  21  39  64  95 120 163 218 264 319 390
#     4  11  22  44  62  88 132 172 212 264 316 397
#     4   8  18  40  68  90 128 158 216 270 320 384
#     4  12  26  42  62 106 130 166 226 278 332 398
#
# _framework density 20.601383999999999
#
# number of rings (size 3 to 8) (size 9 to 14) (size 15 to 20)
#    0.000    2.000    2.857    0.857    4.000    7.429 
#    5.143    0.000    0.000    0.000    0.000    0.000 
#    0.000    0.000    0.000    0.000    0.000    0.000 
#
# Total GULP energy -346970.936324 kJ/mol
# GULP energy per Si atom -12391.819154 kJ/mol
# Density = 2.055449 g / cm^3
# Si number density = 20.601384 Si / 1000 Ang^3
#
#
#
# Elastic Constant Matrix: (Units=GPa)
#
#
# Indices 1 2 3 4 5 6 
#
# 1 130.6147 29.7148 43.5989 0.0000 0.0000 0.0000
# 2 29.7148 68.2219 37.1032 0.0000 0.0000 0.0000
# 3 43.5989 37.1032 128.8426 0.0000 0.0000 0.0000
# 4 0.0000 0.0000 0.0000 43.9871 0.0000 0.0000
# 5 0.0000 0.0000 0.0000 0.0000 22.0772 0.0000
# 6 0.0000 0.0000 0.0000 0.0000 0.0000 18.1588
#
#
#
# Elastic Compliance Matrix: (Units=1/GPa)
#
#
# Indices 1 2 3 4 5 6 
#
# 1 0.009030 -0.002693 -0.002280 0.000000 0.000000 0.000000
# 2 -0.002693 0.018183 -0.004325 0.000000 0.000000 0.000000
# 3 -0.002280 -0.004325 0.009778 0.000000 0.000000 0.000000
# 4 0.000000 0.000000 0.000000 0.022734 0.000000 0.000000
# 5 0.000000 0.000000 0.000000 0.000000 0.045296 0.000000
# 6 0.000000 0.000000 0.000000 0.000000 0.000000 0.055070
#
#
# Mechanical properties :
#
#
# Convention : Reuss Voigt Hill
#
# Bulk Modulus (GPa) = 54.36160 60.94590 57.65375
# Shear Modulus (GPa) = 27.05353 31.32876 29.19114
#
# Velocity S-wave (km/s) = 3.62773 3.90386 3.76832
# Velocity P-wave (km/s) = 6.63264 7.06879 6.85418
#
# Compressibility (1/GPa) = 0.01839534
#
# Stress axis : x y z
#
# Youngs Moduli (GPa) = 110.74385 54.99578 102.26575
#
# Poissons Ratio (x) = 0.14810 0.23317
# Poissons Ratio (y) = 0.29823 0.44230
# Poissons Ratio (z) = 0.25251 0.23786
#
# Static dielectric constant tensor:
#      x y z
#    x 4.027250 0.000000 0.000000 
#    y 0.000000 3.476960 0.000000 
#    z 0.000000 0.000000 3.638870 
# 
# 
# High freq. dielectric constant tensor:
#      x y z
#    x 1.824100 0.000000 0.000000 
#    y 0.000000 1.782230 0.000000 
#    z 0.000000 0.000000 1.804010 
# 
# From -- ./inp_files/30789.got.cif
#   From: 2010.03.12/outbox.cif.g09.slc.cpg/sg20_16_cif.got.tgz:30789.got - 2010.04.14 01:38:04.
