data_PCOD8160292
_publ_section_title
;
Structure prediction by ZEFSAII (Michael W. Deem and Ramdas Pophale) SiO2 
 PCOD8160292
Probable space group: C 2 2 21
;
_chemical_formula_sum "Si O2"
_cell_formula_units_Z 40
_cell_length_a 20.793737
_cell_length_b 11.940855
_cell_length_c 8.229730
_cell_angle_alpha 90.000000
_cell_angle_beta 90.000000
_cell_angle_gamma 90.000000
_cell_volume 2043.400797
_symmetry_space_group_name_H-M "C 2 2 21"
_symmetry_group_IT_number 20
_symmetry_cell_setting 'orthorhombic'
loop_
_space_group_symop_operation_xyz
x,y,z
-x,-y,1/2+z
x,-y,-z
-x,y,1/2-z
1/2+x,1/2+y,z
1/2-x,1/2-y,1/2+z
1/2+x,1/2-y,-z
1/2-x,1/2+y,1/2-z
loop_
_atom_site_type_symbol
_atom_site_label
_atom_site_fract_x
_atom_site_fract_y
_atom_site_fract_z
Si Si1 0.684908 0.486196 0.185018
Si Si2 0.294438 0.283516 0.801343
Si Si3 0.430884 0.061199 0.171438
Si Si4 0.815995 0.444280 0.331067
Si Si5 0.663513 0.256343 0.337184
O O1 0.666374 0.602080 0.272433
O O2 0.762169 0.469935 0.194274
O O3 0.649329 0.382960 0.275543
O O4 0.662954 0.500000 0.000000
O O5 0.319244 0.191472 0.669217
O O6 0.217074 0.300600 0.780156
O O7 0.306988 0.248105 0.984357
O O8 0.500000 0.070820 0.250000
O O9 0.402311 0.186465 0.161856
O O10 0.386057 0.988379 0.288070
O O11 0.435580 0.000000 0.000000
O O12 0.792450 0.500000 0.500000
#
# Coordination Sequence:
#
# PCOD8160292 Si02
#       5
#     8   8   8   8   8
#     4  11  22  35  59  97 133 167 207 271 344 398
#     4  11  20  37  61  94 135 169 206 280 348 392
#     4  12  25  46  65  92 132 179 226 274 321 399
#     4  11  22  36  63  94 131 168 220 270 332 395
#     4  11  23  37  64  95 133 171 219 274 336 407
#
# _framework density 19.575209999999998
#
# number of rings (size 3 to 8) (size 9 to 14) (size 15 to 20)
#    0.000    0.800    4.000    6.600    2.800    0.000 
#    0.000    0.000    0.000    3.600    0.000    0.000 
#    0.000    0.000    0.000    0.000    0.000    0.000 
#
# Total GULP energy -247951.536491 kJ/mol
# GULP energy per Si atom -12397.576825 kJ/mol
# Density = 1.953066 g / cm^3
# Si number density = 19.575210 Si / 1000 Ang^3
#
#
#
# Elastic Constant Matrix: (Units=GPa)
#
#
# Indices 1 2 3 4 5 6 
#
# 1 100.2798 42.1899 32.5057 0.0000 0.0000 0.0000
# 2 42.1899 168.6153 42.7345 0.0000 0.0000 0.0000
# 3 32.5057 42.7345 93.6849 0.0000 0.0000 0.0000
# 4 0.0000 0.0000 0.0000 36.0584 0.0000 0.0000
# 5 0.0000 0.0000 0.0000 0.0000 20.9946 0.0000
# 6 0.0000 0.0000 0.0000 0.0000 0.0000 23.6917
#
#
#
# Elastic Compliance Matrix: (Units=1/GPa)
#
#
# Indices 1 2 3 4 5 6 
#
# 1 0.011908 -0.002185 -0.003135 0.000000 0.000000 0.000000
# 2 -0.002185 0.007107 -0.002484 0.000000 0.000000 0.000000
# 3 -0.003135 -0.002484 0.012895 0.000000 0.000000 0.000000
# 4 0.000000 0.000000 0.000000 0.027733 0.000000 0.000000
# 5 0.000000 0.000000 0.000000 0.000000 0.047631 0.000000
# 6 0.000000 0.000000 0.000000 0.000000 0.000000 0.042209
#
#
# Mechanical properties :
#
#
# Convention : Reuss Voigt Hill
#
# Bulk Modulus (GPa) = 61.34183 66.38226 63.86204
# Shear Modulus (GPa) = 29.32155 32.49227 30.90691
#
# Velocity S-wave (km/s) = 3.87446 4.07857 3.97782
# Velocity P-wave (km/s) = 7.17076 7.49431 7.33432
#
# Compressibility (1/GPa) = 0.01630209
#
# Stress axis : x y z
#
# Youngs Moduli (GPa) = 83.98059 140.70973 77.55111
#
# Poissons Ratio (x) = 0.30744 0.24311
# Poissons Ratio (y) = 0.18349 0.19261
# Poissons Ratio (z) = 0.26327 0.34948
#
# Static dielectric constant tensor:
#      x y z
#    x 3.099010 0.000000 0.000000 
#    y 0.000000 4.165010 0.000000 
#    z 0.000000 0.000000 3.646340 
# 
# 
# High freq. dielectric constant tensor:
#      x y z
#    x 1.698220 0.000000 0.000000 
#    y 0.000000 1.790710 0.000000 
#    z 0.000000 0.000000 1.776830 
# 
# From -- ./inp_files/7210.got.cif
#   From: 2010.03.12/outbox.cif.g09.slc.cpg/sg20_4_cif.got.tgz:7210.got - 2010.04.14 01:38:04.
