data_PCOD8160309
_publ_section_title
;
Structure prediction by ZEFSAII (Michael W. Deem and Ramdas Pophale) SiO2 
 PCOD8160309
Probable space group: C 2 2 21
;
_chemical_formula_sum "Si O2"
_cell_formula_units_Z 48
_cell_length_a 23.925722
_cell_length_b 9.888718
_cell_length_c 9.901800
_cell_angle_alpha 90.000000
_cell_angle_beta 90.000000
_cell_angle_gamma 90.000000
_cell_volume 2342.713577
_symmetry_space_group_name_H-M "C 2 2 21"
_symmetry_group_IT_number 20
_symmetry_cell_setting 'orthorhombic'
loop_
_space_group_symop_operation_xyz
x,y,z
-x,-y,1/2+z
x,-y,-z
-x,y,1/2-z
1/2+x,1/2+y,z
1/2-x,1/2-y,1/2+z
1/2+x,1/2-y,-z
1/2-x,1/2+y,1/2-z
loop_
_atom_site_type_symbol
_atom_site_label
_atom_site_fract_x
_atom_site_fract_y
_atom_site_fract_z
Si Si1 0.190071 0.487597 0.843943
Si Si2 0.630544 0.249429 0.773337
Si Si3 0.044175 0.840588 0.983416
Si Si4 0.793127 0.982460 0.652345
Si Si5 0.416220 0.660560 0.001075
Si Si6 0.374972 0.719886 0.710524
O O1 0.141362 0.592290 0.803923
O O2 0.244443 0.518825 0.755691
O O3 0.169068 0.337932 0.813728
O O4 0.207021 0.500000 0.000000
O O5 0.573806 0.296129 0.845674
O O6 0.684649 0.330039 0.828252
O O7 0.623143 0.274246 0.614522
O O8 0.980019 0.796735 0.973725
O O9 0.072509 0.764993 0.110105
O O10 0.049630 0.000000 0.000000
O O11 0.845647 0.078291 0.679572
O O12 0.770600 0.000000 0.500000
O O13 0.408513 0.500000 0.000000
O O14 0.396870 0.725835 0.861886
#
# Coordination Sequence:
#
# PCOD8160309 Si02
#       6
#     8   8   8   8   8   8
#     4  12  28  44  67  93 136 176 215 267 331 388
#     4  12  23  44  66  99 135 170 215 271 324 384
#     4  11  20  43  70  98 129 170 223 269 324 376
#     4  12  24  44  69  95 126 176 225 271 317 380
#     4  11  24  39  72 104 127 170 219 271 318 390
#     4  12  23  44  66  99 135 170 215 271 324 384
#
# _framework density 20.489059999999998
#
# number of rings (size 3 to 8) (size 9 to 14) (size 15 to 20)
#    0.000    0.333    6.667    2.000    4.667    2.667 
#    0.000    5.000    0.000    0.000    0.000    0.000 
#    0.000    0.000    0.000    0.000    0.000    0.000 
#
# Total GULP energy -297807.929321 kJ/mol
# GULP energy per Si atom -12408.663722 kJ/mol
# Density = 2.044243 g / cm^3
# Si number density = 20.489060 Si / 1000 Ang^3
#
#
#
# Elastic Constant Matrix: (Units=GPa)
#
#
# Indices 1 2 3 4 5 6 
#
# 1 81.1992 13.4426 41.6416 0.0000 0.0000 0.0000
# 2 13.4426 50.8270 14.0518 0.0000 0.0000 0.0000
# 3 41.6416 14.0518 151.4311 0.0000 0.0000 0.0000
# 4 0.0000 0.0000 0.0000 28.8316 0.0000 0.0000
# 5 0.0000 0.0000 0.0000 0.0000 6.2226 0.0000
# 6 0.0000 0.0000 0.0000 0.0000 0.0000 6.7060
#
#
#
# Elastic Compliance Matrix: (Units=1/GPa)
#
#
# Indices 1 2 3 4 5 6 
#
# 1 0.014728 -0.002849 -0.003786 0.000000 0.000000 0.000000
# 2 -0.002849 0.020744 -0.001142 0.000000 0.000000 0.000000
# 3 -0.003786 -0.001142 0.007751 0.000000 0.000000 0.000000
# 4 0.000000 0.000000 0.000000 0.034684 0.000000 0.000000
# 5 0.000000 0.000000 0.000000 0.000000 0.160704 0.000000
# 6 0.000000 0.000000 0.000000 0.000000 0.000000 0.149119
#
#
# Mechanical properties :
#
#
# Convention : Reuss Voigt Hill
#
# Bulk Modulus (GPa) = 36.13935 46.85879 41.49907
# Shear Modulus (GPa) = 12.12104 22.64014 17.38059
#
# Velocity S-wave (km/s) = 2.43489 3.32774 2.91570
# Velocity P-wave (km/s) = 5.05783 6.13881 5.62435
#
# Compressibility (1/GPa) = 0.02767067
#
# Stress axis : x y z
#
# Youngs Moduli (GPa) = 67.89568 48.20770 129.02175
#
# Poissons Ratio (x) = 0.13733 0.48845
# Poissons Ratio (y) = 0.19341 0.14728
# Poissons Ratio (z) = 0.25704 0.05503
#
# Static dielectric constant tensor:
#      x y z
#    x 3.656500 0.000000 0.000000 
#    y 0.000000 3.751280 0.000000 
#    z 0.000000 0.000000 3.996690 
# 
# 
# High freq. dielectric constant tensor:
#      x y z
#    x 1.800830 0.000000 0.000000 
#    y 0.000000 1.790430 0.000000 
#    z 0.000000 0.000000 1.821630 
# 
# From -- ./inp_files/11434.got.cif
#   From: 2010.03.12/outbox.cif.g09.slc.cpg/sg20_6_cif.got.tgz:11434.got - 2010.04.14 01:38:04.
