data_PCOD8160639
_publ_section_title
;
Structure prediction by ZEFSAII (Michael W. Deem and Ramdas Pophale) SiO2 
 PCOD8160639
Probable space group: C 2 2 21
;
_chemical_formula_sum "Si O2"
_cell_formula_units_Z 28
_cell_length_a 4.985815
_cell_length_b 12.492013
_cell_length_c 17.932629
_cell_angle_alpha 90.000000
_cell_angle_beta 90.000000
_cell_angle_gamma 90.000000
_cell_volume 1116.895525
_symmetry_space_group_name_H-M "C 2 2 21"
_symmetry_group_IT_number 20
_symmetry_cell_setting 'orthorhombic'
loop_
_space_group_symop_operation_xyz
x,y,z
-x,-y,1/2+z
x,-y,-z
-x,y,1/2-z
1/2+x,1/2+y,z
1/2-x,1/2-y,1/2+z
1/2+x,1/2-y,-z
1/2-x,1/2+y,1/2-z
loop_
_atom_site_type_symbol
_atom_site_label
_atom_site_fract_x
_atom_site_fract_y
_atom_site_fract_z
Si Si1 0.000000 0.256384 0.750000
Si Si2 0.000000 0.097383 0.250000
Si Si3 0.675755 0.000000 0.500000
Si Si4 0.965312 0.082543 0.866661
Si Si5 0.351415 0.814347 0.484076
O O1 0.249901 0.329731 0.726260
O O2 0.908096 0.179133 0.682030
O O3 0.095019 0.022495 0.318333
O O4 0.486223 0.093355 0.464506
O O5 0.843472 0.053668 0.565195
O O6 0.692723 0.132020 0.902403
O O7 0.566083 0.717452 0.479012
#
# Coordination Sequence:
#
# PCOD8160639 Si02
#       5
#     4   4   4   8   8
#     4  11  30  49  80 106 154 207 264 315 386 454
#     4  11  30  53  80 108 154 213 254 325 372 452
#     4  12  28  48  80 118 160 200 254 328 382 468
#     4  11  29  51  78 116 154 201 267 309 391 466
#     4  12  28  46  75 118 157 199 246 317 390 457
#
# _framework density 25.069489999999998
#
# number of rings (size 3 to 8) (size 9 to 14) (size 15 to 20)
#    0.000    0.571    2.857    0.857   12.000    4.571 
#    0.000    0.000    0.000    0.000    0.000    0.000 
#    0.000    0.000    0.000    0.000    0.000    0.000 
#
# Total GULP energy -173543.514062 kJ/mol
# GULP energy per Si atom -12395.965290 kJ/mol
# Density = 2.501243 g / cm^3
# Si number density = 25.069490 Si / 1000 Ang^3
#
#
#
# Elastic Constant Matrix: (Units=GPa)
#
#
# Indices 1 2 3 4 5 6 
#
# 1 147.3208 68.9452 62.4510 0.0000 0.0000 0.0000
# 2 68.9452 169.8576 85.7202 0.0000 0.0000 0.0000
# 3 62.4510 85.7202 132.0130 0.0000 0.0000 0.0000
# 4 0.0000 0.0000 0.0000 32.9748 0.0000 0.0000
# 5 0.0000 0.0000 0.0000 0.0000 25.9732 0.0000
# 6 0.0000 0.0000 0.0000 0.0000 0.0000 30.4257
#
#
#
# Elastic Compliance Matrix: (Units=1/GPa)
#
#
# Indices 1 2 3 4 5 6 
#
# 1 0.009032 -0.002246 -0.002815 0.000000 0.000000 0.000000
# 2 -0.002246 0.009315 -0.004986 0.000000 0.000000 0.000000
# 3 -0.002815 -0.004986 0.012144 0.000000 0.000000 0.000000
# 4 0.000000 0.000000 0.000000 0.030326 0.000000 0.000000
# 5 0.000000 0.000000 0.000000 0.000000 0.038501 0.000000
# 6 0.000000 0.000000 0.000000 0.000000 0.000000 0.032867
#
#
# Mechanical properties :
#
#
# Convention : Reuss Voigt Hill
#
# Bulk Modulus (GPa) = 96.16886 98.15823 97.16354
# Shear Modulus (GPa) = 32.10377 33.34640 32.72509
#
# Velocity S-wave (km/s) = 3.58242 3.65109 3.61692
# Velocity P-wave (km/s) = 7.45358 7.55072 7.50231
#
# Compressibility (1/GPa) = 0.01039838
#
# Stress axis : x y z
#
# Youngs Moduli (GPa) = 110.71753 107.35150 82.34370
#
# Poissons Ratio (x) = 0.24108 0.23176
# Poissons Ratio (y) = 0.24864 0.41059
# Poissons Ratio (z) = 0.31162 0.53528
#
# Static dielectric constant tensor:
#      x y z
#    x 4.543460 0.000000 0.000000 
#    y 0.000000 5.175090 0.000000 
#    z 0.000000 0.000000 4.619800 
# 
# 
# High freq. dielectric constant tensor:
#      x y z
#    x 2.000000 0.000000 0.000000 
#    y 0.000000 2.036630 0.000000 
#    z 0.000000 0.000000 1.975970 
# 
# From -- ./inp_files/24010.got.cif
#   From: 2010.03.12/outbox.cif.g09.slc.cpg/sg20_13_cif.got.tgz:24010.got - 2010.04.14 01:38:04.
