data_PCOD8160997
_publ_section_title
;
Structure prediction by ZEFSAII (Michael W. Deem and Ramdas Pophale) SiO2 
 PCOD8160997
Probable space group: C 2 2 2
;
_chemical_formula_sum "Si O2"
_cell_formula_units_Z 64
_cell_length_a 5.155158
_cell_length_b 25.161936
_cell_length_c 26.460954
_cell_angle_alpha 90.000000
_cell_angle_beta 90.000000
_cell_angle_gamma 90.000000
_cell_volume 3432.349722
_symmetry_space_group_name_H-M "C 2 2 2"
_symmetry_group_IT_number 21
_symmetry_cell_setting 'orthorhombic'
loop_
_space_group_symop_operation_xyz
x,y,z
-x,-y,z
x,-y,-z
-x,y,-z
1/2+x,1/2+y,z
1/2-x,1/2-y,z
1/2+x,1/2-y,-z
1/2-x,1/2+y,-z
loop_
_atom_site_type_symbol
_atom_site_label
_atom_site_fract_x
_atom_site_fract_y
_atom_site_fract_z
Si Si1 0.320690 0.357269 0.360467
Si Si2 0.750079 0.478471 0.654239
Si Si3 0.251912 0.974437 0.233064
Si Si4 0.752186 0.188987 0.533277
Si Si5 0.288777 0.148459 0.791241
Si Si6 0.827669 0.308816 0.316103
Si Si7 0.495123 0.713670 0.945774
Si Si8 0.288842 0.687137 0.844247
O O1 0.245966 0.415501 0.340683
O O2 0.283328 0.351698 0.420418
O O3 0.614389 0.346902 0.342163
O O4 0.116535 0.317210 0.336181
O O5 0.500000 0.500000 0.623855
O O6 0.750375 0.508921 0.708223
O O7 0.000000 0.500000 0.623957
O O8 0.270108 0.911858 0.226447
O O9 0.500000 0.000000 0.205493
O O10 0.000000 0.000000 0.206177
O O11 0.500000 0.175650 0.500000
O O12 0.750000 0.250000 0.552822
O O13 0.000000 0.178451 0.500000
O O14 0.355269 0.184754 0.743668
O O15 0.511437 0.158141 0.834062
O O16 0.000398 0.165503 0.805921
O O17 0.750000 0.250000 0.331376
O O18 0.750000 0.750000 0.933014
O O19 0.416409 0.674619 0.899537
O O20 0.250000 0.750000 0.954275
O O21 0.500000 0.682404 0.000000
O O22 0.250000 0.750000 0.838214
#
# Coordination Sequence:
#
# PCOD8160997 Si02
#       8
#     8   8   8   8   8   8   8   8
#     4  12  23  39  61  83 109 145 186 227 276 327
#     4  10  20  36  56  78 101 134 182 230 273 310
#     4  10  19  35  53  72  98 134 183 234 272 309
#     4  10  21  38  60  85 112 140 172 216 273 336
#     4  12  23  35  52  77 112 152 188 222 276 335
#     4  12  23  35  52  81 116 149 184 219 260 328
#     4   9  17  31  52  76 105 149 199 239 273 317
#     4  11  21  35  51  77 117 157 187 221 274 335
#
# _framework density 18.646118999999999
#
# number of rings (size 3 to 8) (size 9 to 14) (size 15 to 20)
#    0.000    1.250    0.000    9.750    0.000    1.000 
#    0.000    0.000    0.000    2.250    0.000    0.000 
#    0.000    7.500    0.000    0.125    0.000    0.000 
#
# Total GULP energy -396517.525516 kJ/mol
# GULP energy per Si atom -12391.172672 kJ/mol
# Density = 1.860368 g / cm^3
# Si number density = 18.646119 Si / 1000 Ang^3
#
#
#
# Elastic Constant Matrix: (Units=GPa)
#
#
# Indices 1 2 3 4 5 6 
#
# 1 137.4135 21.7006 19.0374 0.0000 0.0000 0.0000
# 2 21.7006 96.0312 24.3258 0.0000 0.0000 0.0000
# 3 19.0374 24.3258 84.0400 0.0000 0.0000 0.0000
# 4 0.0000 0.0000 0.0000 57.2128 0.0000 0.0000
# 5 0.0000 0.0000 0.0000 0.0000 19.8397 0.0000
# 6 0.0000 0.0000 0.0000 0.0000 0.0000 31.0596
#
#
#
# Elastic Compliance Matrix: (Units=1/GPa)
#
#
# Indices 1 2 3 4 5 6 
#
# 1 0.007683 -0.001398 -0.001336 0.000000 0.000000 0.000000
# 2 -0.001398 0.011492 -0.003010 0.000000 0.000000 0.000000
# 3 -0.001336 -0.003010 0.013073 0.000000 0.000000 0.000000
# 4 0.000000 0.000000 0.000000 0.017479 0.000000 0.000000
# 5 0.000000 0.000000 0.000000 0.000000 0.050404 0.000000
# 6 0.000000 0.000000 0.000000 0.000000 0.000000 0.032196
#
#
# Mechanical properties :
#
#
# Convention : Reuss Voigt Hill
#
# Bulk Modulus (GPa) = 48.16740 49.73471 48.95106
# Shear Modulus (GPa) = 33.17124 38.45050 35.81087
#
# Velocity S-wave (km/s) = 4.22238 4.54598 4.38717
# Velocity P-wave (km/s) = 7.04697 7.36787 7.20921
#
# Compressibility (1/GPa) = 0.02076093
#
# Stress axis : x y z
#
# Youngs Moduli (GPa) = 130.15546 87.02062 76.49441
#
# Poissons Ratio (x) = 0.12164 0.10218
# Poissons Ratio (y) = 0.18193 0.23022
# Poissons Ratio (z) = 0.17387 0.26190
#
# Static dielectric constant tensor:
#      x y z
#    x -0.192630 0.000000 0.000000 
#    y 0.000000 3.254340 0.000000 
#    z 0.000000 0.000000 3.577520 
# 
# 
# High freq. dielectric constant tensor:
#      x y z
#    x 1.764480 0.000000 0.000000 
#    y 0.000000 1.698540 0.000000 
#    z 0.000000 0.000000 1.695750 
# 
# From -- ./inp_files/38354.got.cif
#   From: 2010.03.12/outbox.cif.g09.slc.cpg/sg21_20_cif.got.tgz:38354.got - 2010.04.14 01:59:26.
