data_PCOD8160829
_publ_section_title
;
Structure prediction by ZEFSAII (Michael W. Deem and Ramdas Pophale) SiO2 
 PCOD8160829
Probable space group: C 2 2 2
;
_chemical_formula_sum "Si O2"
_cell_formula_units_Z 42
_cell_length_a 18.083801
_cell_length_b 12.606240
_cell_length_c 10.120298
_cell_angle_alpha 90.000000
_cell_angle_beta 90.000000
_cell_angle_gamma 90.000000
_cell_volume 2307.111538
_symmetry_space_group_name_H-M "C 2 2 2"
_symmetry_group_IT_number 21
_symmetry_cell_setting 'orthorhombic'
loop_
_space_group_symop_operation_xyz
x,y,z
-x,-y,z
x,-y,-z
-x,y,-z
1/2+x,1/2+y,z
1/2-x,1/2-y,z
1/2+x,1/2-y,-z
1/2-x,1/2+y,-z
loop_
_atom_site_type_symbol
_atom_site_label
_atom_site_fract_x
_atom_site_fract_y
_atom_site_fract_z
Si Si1 0.500000 0.500000 0.000000
Si Si2 0.426074 0.809547 0.873034
Si Si3 0.744669 0.000000 0.500000
Si Si4 0.500000 0.000000 0.000000
Si Si5 0.500000 0.500000 0.500000
Si Si6 0.574712 0.309922 0.127024
Si Si7 0.629065 0.358378 0.397450
Si Si8 0.173645 0.303158 0.381170
O O1 0.554246 0.569659 0.909334
O O2 0.500215 0.749617 0.830789
O O3 0.372559 0.805150 0.750886
O O4 0.389596 0.750712 0.000732
O O5 0.446261 0.930199 0.908174
O O6 0.798287 0.932229 0.595595
O O7 0.688979 0.923722 0.422464
O O8 0.553468 0.426033 0.411695
O O9 0.630323 0.307892 0.251026
O O10 0.632199 0.264163 0.505061
O O11 0.250000 0.250000 0.343014
#
# Coordination Sequence:
#
# PCOD8160829 Si02
#       8
#     2   8   4   2   2   8   8   8
#     4   8  16  28  48  78 110 124 150 202 266 320
#     4   9  19  35  54  77 106 136 168 211 265 311
#     4   9  22  35  52  73 104 147 178 210 256 307
#     4   8  18  36  56  78 104 132 170 216 260 314
#     4  10  18  28  56  88 102 130 168 220 274 296
#     4   9  18  32  54  80 102 131 165 216 267 300
#     4  10  19  34  55  79 106 132 176 221 259 309
#     4  10  21  38  53  73 107 143 176 213 255 312
#
# _framework density 18.204581999999998
#
# number of rings (size 3 to 8) (size 9 to 14) (size 15 to 20)
#    0.000    3.048    0.000    1.714    0.000   10.667 
#    0.000    4.762    0.000    0.000    0.000    0.000 
#    0.000    0.000    0.000    0.000    0.000    0.000 
#
# Total GULP energy -260311.717930 kJ/mol
# GULP energy per Si atom -12395.796092 kJ/mol
# Density = 1.816315 g / cm^3
# Si number density = 18.204582 Si / 1000 Ang^3
#
#
#
# Elastic Constant Matrix: (Units=GPa)
#
#
# Indices 1 2 3 4 5 6 
#
# 1 69.0169 44.5493 69.4497 0.0000 0.0000 0.0000
# 2 44.5493 133.5615 78.0781 0.0000 0.0000 0.0000
# 3 69.4497 78.0781 177.9079 0.0000 0.0000 0.0000
# 4 0.0000 0.0000 0.0000 13.0687 0.0000 0.0000
# 5 0.0000 0.0000 0.0000 0.0000 64.6939 0.0000
# 6 0.0000 0.0000 0.0000 0.0000 0.0000 19.5921
#
#
#
# Elastic Compliance Matrix: (Units=1/GPa)
#
#
# Indices 1 2 3 4 5 6 
#
# 1 0.025055 -0.003550 -0.008223 0.000000 0.000000 0.000000
# 2 -0.003550 0.010574 -0.003255 0.000000 0.000000 0.000000
# 3 -0.008223 -0.003255 0.010259 0.000000 0.000000 0.000000
# 4 0.000000 0.000000 0.000000 0.076519 0.000000 0.000000
# 5 0.000000 0.000000 0.000000 0.000000 0.015457 0.000000
# 6 0.000000 0.000000 0.000000 0.000000 0.000000 0.051041
#
#
# Mechanical properties :
#
#
# Convention : Reuss Voigt Hill
#
# Bulk Modulus (GPa) = 63.15907 84.96004 74.05955
# Shear Modulus (GPa) = 22.29776 32.03157 27.16466
#
# Velocity S-wave (km/s) = 3.50357 4.19923 3.86708
# Velocity P-wave (km/s) = 7.15095 8.38345 7.79161
#
# Compressibility (1/GPa) = 0.01583304
#
# Stress axis : x y z
#
# Youngs Moduli (GPa) = 39.91223 94.57151 97.47441
#
# Poissons Ratio (x) = 0.33575 0.80149
# Poissons Ratio (y) = 0.14170 0.31725
# Poissons Ratio (z) = 0.32818 0.30780
#
# Static dielectric constant tensor:
#      x y z
#    x 3.134870 0.000000 0.000000 
#    y 0.000000 0.795000 0.000000 
#    z 0.000000 0.000000 3.261640 
# 
# 
# High freq. dielectric constant tensor:
#      x y z
#    x 1.681480 0.000000 0.000000 
#    y 0.000000 1.719930 0.000000 
#    z 0.000000 0.000000 1.703460 
# 
# From -- ./inp_files/26025.got.cif
#   From: 2010.03.12/outbox.cif.g09.slc.cpg/sg21_14_cif.got.tgz:26025.got - 2010.04.14 01:59:26.
