data_PCOD8160942
_publ_section_title
;
Structure prediction by ZEFSAII (Michael W. Deem and Ramdas Pophale) SiO2 
 PCOD8160942
Probable space group: C 2 2 2
;
_chemical_formula_sum "Si O2"
_cell_formula_units_Z 64
_cell_length_a 22.990524
_cell_length_b 16.708820
_cell_length_c 8.614541
_cell_angle_alpha 90.000000
_cell_angle_beta 90.000000
_cell_angle_gamma 90.000000
_cell_volume 3309.228780
_symmetry_space_group_name_H-M "C 2 2 2"
_symmetry_group_IT_number 21
_symmetry_cell_setting 'orthorhombic'
loop_
_space_group_symop_operation_xyz
x,y,z
-x,-y,z
x,-y,-z
-x,y,-z
1/2+x,1/2+y,z
1/2-x,1/2-y,z
1/2+x,1/2-y,-z
1/2-x,1/2+y,-z
loop_
_atom_site_type_symbol
_atom_site_label
_atom_site_fract_x
_atom_site_fract_y
_atom_site_fract_z
Si Si1 0.936482 0.490595 0.315808
Si Si2 0.621889 0.835960 0.644276
Si Si3 0.834130 0.091327 0.350455
Si Si4 0.838454 0.607759 0.327122
Si Si5 0.212405 0.077787 0.328246
Si Si6 0.856304 0.218411 0.794639
Si Si7 0.432438 0.314981 0.489309
Si Si8 0.185305 0.771627 0.119342
O O1 0.941049 0.500000 0.500000
O O2 0.916146 0.401950 0.265509
O O3 0.892229 0.558578 0.252540
O O4 0.000000 0.500000 0.239026
O O5 0.656571 0.884483 0.512642
O O6 0.579042 0.770308 0.569404
O O7 0.667544 0.796779 0.760022
O O8 0.789660 0.105641 0.492042
O O9 0.897997 0.115837 0.416247
O O10 0.814797 0.143024 0.203976
O O11 0.830176 0.998249 0.299547
O O12 0.779519 0.558912 0.287957
O O13 0.833801 0.696101 0.259559
O O14 0.193246 0.151766 0.223647
O O15 0.912584 0.190952 0.692827
O O16 0.863040 0.224461 0.981314
O O17 0.500000 0.336665 0.500000
O O18 0.250000 0.750000 0.057947
#
# Coordination Sequence:
#
# PCOD8160942 Si02
#       8
#     8   8   8   8   8   8   8   8
#     4   9  19  31  52  85 113 142 189 241 276 326
#     4   9  20  32  54  86 109 151 191 229 284 337
#     4   9  21  34  54  87 108 144 189 240 292 340
#     4  10  19  32  58  80 112 148 193 235 290 333
#     4  10  19  35  57  81 116 139 192 244 290 342
#     4  10  22  37  53  84 109 153 187 231 285 354
#     4   9  19  38  63  82 111 145 192 242 286 336
#     4  11  21  35  55  79 123 152 188 229 291 363
#
# _framework density 19.339853999999999
#
# number of rings (size 3 to 8) (size 9 to 14) (size 15 to 20)
#    0.000    2.375    0.000    2.625   12.250    0.500 
#    0.000    8.125    0.000    0.750    0.000   10.500 
#    0.000    0.000    0.000    0.000    0.000    0.000 
#
# Total GULP energy -396607.235396 kJ/mol
# GULP energy per Si atom -12393.976106 kJ/mol
# Density = 1.929584 g / cm^3
# Si number density = 19.339854 Si / 1000 Ang^3
#
#
#
# Elastic Constant Matrix: (Units=GPa)
#
#
# Indices 1 2 3 4 5 6 
#
# 1 144.4818 60.6826 25.6695 0.0000 0.0000 0.0000
# 2 60.6826 130.3731 22.7928 0.0000 0.0000 0.0000
# 3 25.6695 22.7928 74.3290 0.0000 0.0000 0.0000
# 4 0.0000 0.0000 0.0000 2.6970 0.0000 0.0000
# 5 0.0000 0.0000 0.0000 0.0000 15.6325 0.0000
# 6 0.0000 0.0000 0.0000 0.0000 0.0000 24.8467
#
#
#
# Elastic Compliance Matrix: (Units=1/GPa)
#
#
# Indices 1 2 3 4 5 6 
#
# 1 0.008849 -0.003787 -0.001894 0.000000 0.000000 0.000000
# 2 -0.003787 0.009726 -0.001674 0.000000 0.000000 0.000000
# 3 -0.001894 -0.001674 0.014621 0.000000 0.000000 0.000000
# 4 0.000000 0.000000 0.000000 0.370779 0.000000 0.000000
# 5 0.000000 0.000000 0.000000 0.000000 0.063969 0.000000
# 6 0.000000 0.000000 0.000000 0.000000 0.000000 0.040247
#
#
# Mechanical properties :
#
#
# Convention : Reuss Voigt Hill
#
# Bulk Modulus (GPa) = 54.10294 63.05263 58.57779
# Shear Modulus (GPa) = 9.45064 24.63787 17.04426
#
# Velocity S-wave (km/s) = 2.21297 3.57311 2.97189
# Velocity P-wave (km/s) = 5.87922 7.04954 6.49081
#
# Compressibility (1/GPa) = 0.01848328
#
# Stress axis : x y z
#
# Youngs Moduli (GPa) = 113.01250 102.81840 68.39288
#
# Poissons Ratio (x) = 0.38941 0.12957
# Poissons Ratio (y) = 0.42802 0.11452
# Poissons Ratio (z) = 0.21410 0.17216
#
# Static dielectric constant tensor:
#      x y z
#    x 3.518090 0.000000 0.000000 
#    y 0.000000 3.654290 0.000000 
#    z 0.000000 0.000000 3.300120 
# 
# 
# High freq. dielectric constant tensor:
#      x y z
#    x 1.737130 0.000000 0.000000 
#    y 0.000000 1.764050 0.000000 
#    z 0.000000 0.000000 1.719800 
# 
# From -- ./inp_files/18698.got.cif
#   From: 2010.03.12/outbox.cif.g09.slc.cpg/sg21_10_cif.got.tgz:18698.got - 2010.04.14 01:59:26.
