data_PCOD8160634
_publ_section_title
;
Structure prediction by ZEFSAII (Michael W. Deem and Ramdas Pophale) SiO2 
 PCOD8160634
Probable space group: C 2 2 21
;
_chemical_formula_sum "Si O2"
_cell_formula_units_Z 32
_cell_length_a 8.929391
_cell_length_b 12.228305
_cell_length_c 10.850594
_cell_angle_alpha 90.000000
_cell_angle_beta 90.000000
_cell_angle_gamma 90.000000
_cell_volume 1184.790645
_symmetry_space_group_name_H-M "C 2 2 21"
_symmetry_group_IT_number 20
_symmetry_cell_setting 'orthorhombic'
loop_
_space_group_symop_operation_xyz
x,y,z
-x,-y,1/2+z
x,-y,-z
-x,y,1/2-z
1/2+x,1/2+y,z
1/2-x,1/2-y,1/2+z
1/2+x,1/2-y,-z
1/2-x,1/2+y,1/2-z
loop_
_atom_site_type_symbol
_atom_site_label
_atom_site_fract_x
_atom_site_fract_y
_atom_site_fract_z
Si Si1 0.929041 0.158849 0.374795
Si Si2 0.889942 0.531919 0.365650
Si Si3 0.227121 0.764037 0.548106
Si Si4 0.158142 0.077747 0.787393
O O1 0.788375 0.235063 0.411401
O O2 0.000000 0.206493 0.250000
O O3 0.061977 0.184542 0.473459
O O4 0.882000 0.033198 0.363983
O O5 0.959886 0.500000 0.500000
O O6 0.829825 0.654359 0.373411
O O7 0.749418 0.452496 0.336906
O O8 0.000000 0.522759 0.250000
O O9 0.238354 0.650635 0.624196
O O10 0.000000 0.133073 0.750000
#
# Coordination Sequence:
#
# PCOD8160634 Si02
#       4
#     8   8   8   8
#     4  11  27  50  78 124 160 215 287 341 417 512
#     4  12  31  52  81 127 171 220 287 349 421 511
#     4  12  28  48  88 112 167 224 273 347 432 486
#     4  11  26  52  80 114 163 217 282 344 411 501
#
# _framework density 27.008991999999999
#
# number of rings (size 3 to 8) (size 9 to 14) (size 15 to 20)
#    0.000    0.500    5.000    1.500   14.000    0.000 
#    0.000    0.000    0.000    0.000    0.000    0.000 
#    0.000    0.000    0.000    0.000    0.000    0.000 
#
# Total GULP energy -198322.305527 kJ/mol
# GULP energy per Si atom -12395.144095 kJ/mol
# Density = 2.694752 g / cm^3
# Si number density = 27.008992 Si / 1000 Ang^3
#
#
#
# Elastic Constant Matrix: (Units=GPa)
#
#
# Indices 1 2 3 4 5 6 
#
# 1 50.2927 7.3003 7.9203 0.0000 0.0000 0.0000
# 2 7.3003 96.3141 9.3712 0.0000 0.0000 0.0000
# 3 7.9203 9.3712 126.4897 0.0000 0.0000 0.0000
# 4 0.0000 0.0000 0.0000 38.9152 0.0000 0.0000
# 5 0.0000 0.0000 0.0000 0.0000 41.7177 0.0000
# 6 0.0000 0.0000 0.0000 0.0000 0.0000 28.4916
#
#
#
# Elastic Compliance Matrix: (Units=1/GPa)
#
#
# Indices 1 2 3 4 5 6 
#
# 1 0.020274 -0.001423 -0.001164 0.000000 0.000000 0.000000
# 2 -0.001423 0.010558 -0.000693 0.000000 0.000000 0.000000
# 3 -0.001164 -0.000693 0.008030 0.000000 0.000000 0.000000
# 4 0.000000 0.000000 0.000000 0.025697 0.000000 0.000000
# 5 0.000000 0.000000 0.000000 0.000000 0.023971 0.000000
# 6 0.000000 0.000000 0.000000 0.000000 0.000000 0.035098
#
#
# Mechanical properties :
#
#
# Convention : Reuss Voigt Hill
#
# Bulk Modulus (GPa) = 30.95918 35.80891 33.38405
# Shear Modulus (GPa) = 35.47229 38.39186 36.93208
#
# Velocity S-wave (km/s) = 3.62795 3.77430 3.70185
# Velocity P-wave (km/s) = 5.38858 5.68161 5.53703
#
# Compressibility (1/GPa) = 0.03230059
#
# Stress axis : x y z
#
# Youngs Moduli (GPa) = 49.32537 94.71475 124.53280
#
# Poissons Ratio (x) = 0.13482 0.14495
# Poissons Ratio (y) = 0.07021 0.08631
# Poissons Ratio (z) = 0.05741 0.06565
#
# Static dielectric constant tensor:
#      x y z
#    x 5.238180 0.000000 0.000000 
#    y 0.000000 4.813140 0.000000 
#    z 0.000000 0.000000 4.968340 
# 
# 
# High freq. dielectric constant tensor:
#      x y z
#    x 2.082560 0.000000 0.000000 
#    y 0.000000 2.093120 0.000000 
#    z 0.000000 0.000000 2.091870 
# 
# From -- ./inp_files/12574.got.cif
#   From: 2010.03.12/outbox.cif.g09.slc.cpg/sg20_7_cif.got.tgz:12574.got - 2010.04.14 01:38:04.
