data_PCOD8160138
_publ_section_title
;
Structure prediction by ZEFSAII (Michael W. Deem and Ramdas Pophale) SiO2 
 PCOD8160138
Probable space group: C 2 2 21
;
_chemical_formula_sum "Si O2"
_cell_formula_units_Z 32
_cell_length_a 8.349825
_cell_length_b 20.414686
_cell_length_c 8.689314
_cell_angle_alpha 90.000000
_cell_angle_beta 90.000000
_cell_angle_gamma 90.000000
_cell_volume 1481.172258
_symmetry_space_group_name_H-M "C 2 2 21"
_symmetry_group_IT_number 20
_symmetry_cell_setting 'orthorhombic'
loop_
_space_group_symop_operation_xyz
x,y,z
-x,-y,1/2+z
x,-y,-z
-x,y,1/2-z
1/2+x,1/2+y,z
1/2-x,1/2-y,1/2+z
1/2+x,1/2-y,-z
1/2-x,1/2+y,1/2-z
loop_
_atom_site_type_symbol
_atom_site_label
_atom_site_fract_x
_atom_site_fract_y
_atom_site_fract_z
Si Si1 0.740333 0.208631 0.310557
Si Si2 0.000000 0.404421 0.750000
Si Si3 0.390957 0.000000 0.500000
Si Si4 0.910194 0.059429 0.906492
Si Si5 0.440324 0.700575 0.020377
O O1 0.658090 0.138966 0.276203
O O2 0.604095 0.260456 0.363867
O O3 0.833358 0.231270 0.157598
O O4 0.870797 0.206439 0.447632
O O5 0.004992 0.448875 0.903168
O O6 0.275221 0.038431 0.621937
O O7 0.000000 0.074511 0.750000
O O8 0.904101 0.123974 0.009373
O O9 0.997557 0.000000 0.000000
#
# Coordination Sequence:
#
# PCOD8160138 Si02
#       5
#     8   4   4   8   8
#     4  11  25  45  70 100 144 179 241 293 354 424
#     4  12  24  48  68 100 150 176 242 292 348 422
#     4  10  26  44  70 100 138 196 226 290 354 408
#     4  10  24  43  70 104 141 181 240 280 353 422
#     4  11  25  44  72 104 135 193 227 294 362 413
#
# _framework density 21.604509
#
# number of rings (size 3 to 8) (size 9 to 14) (size 15 to 20)
#    0.750    0.500    2.500    1.500   12.250    2.000 
#    0.000    0.000    0.000    0.000    0.000    0.000 
#    0.000    0.000    0.000    0.000    0.000    0.000 
#
# Total GULP energy -198309.729808 kJ/mol
# GULP energy per Si atom -12394.358113 kJ/mol
# Density = 2.155534 g / cm^3
# Si number density = 21.604509 Si / 1000 Ang^3
#
#
#
# Elastic Constant Matrix: (Units=GPa)
#
#
# Indices 1 2 3 4 5 6 
#
# 1 96.9124 27.3542 43.2202 0.0000 0.0000 0.0000
# 2 27.3542 123.1063 44.8078 0.0000 0.0000 0.0000
# 3 43.2202 44.8078 87.4249 0.0000 0.0000 0.0000
# 4 0.0000 0.0000 0.0000 46.7969 0.0000 0.0000
# 5 0.0000 0.0000 0.0000 0.0000 48.1484 0.0000
# 6 0.0000 0.0000 0.0000 0.0000 0.0000 26.7706
#
#
#
# Elastic Compliance Matrix: (Units=1/GPa)
#
#
# Indices 1 2 3 4 5 6 
#
# 1 0.013285 -0.000690 -0.006214 0.000000 0.000000 0.000000
# 2 -0.000690 0.010022 -0.004795 0.000000 0.000000 0.000000
# 3 -0.006214 -0.004795 0.016968 0.000000 0.000000 0.000000
# 4 0.000000 0.000000 0.000000 0.021369 0.000000 0.000000
# 5 0.000000 0.000000 0.000000 0.000000 0.020769 0.000000
# 6 0.000000 0.000000 0.000000 0.000000 0.000000 0.037354
#
#
# Mechanical properties :
#
#
# Convention : Reuss Voigt Hill
#
# Bulk Modulus (GPa) = 59.25582 59.80088 59.52835
# Shear Modulus (GPa) = 33.60431 37.14728 35.37579
#
# Velocity S-wave (km/s) = 3.94817 4.15109 4.05090
# Velocity P-wave (km/s) = 6.94775 7.12147 7.03514
#
# Compressibility (1/GPa) = 0.01687598
#
# Stress axis : x y z
#
# Youngs Moduli (GPa) = 75.27539 99.78265 58.93455
#
# Poissons Ratio (x) = 0.06887 0.36620
# Poissons Ratio (y) = 0.05195 0.28261
# Poissons Ratio (z) = 0.46774 0.47848
#
# Static dielectric constant tensor:
#      x y z
#    x 3.858850 0.000000 0.000000 
#    y 0.000000 3.811290 0.000000 
#    z 0.000000 0.000000 3.451040 
# 
# 
# High freq. dielectric constant tensor:
#      x y z
#    x 1.850630 0.000000 0.000000 
#    y 0.000000 1.848000 0.000000 
#    z 0.000000 0.000000 1.843340 
# 
# From -- ./inp_files/5843.got.cif
#   From: 2010.03.12/outbox.cif.g09.slc.cpg/sg20_3_cif.got.tgz:5843.got - 2010.04.14 01:38:04.
