data_PCOD8160175
_publ_section_title
;
Structure prediction by ZEFSAII (Michael W. Deem and Ramdas Pophale) SiO2 
 PCOD8160175
Probable space group: C 2 2 21
;
_chemical_formula_sum "Si O2"
_cell_formula_units_Z 56
_cell_length_a 11.591219
_cell_length_b 10.488932
_cell_length_c 21.027009
_cell_angle_alpha 90.000000
_cell_angle_beta 90.000000
_cell_angle_gamma 90.000000
_cell_volume 2556.453407
_symmetry_space_group_name_H-M "C 2 2 21"
_symmetry_group_IT_number 20
_symmetry_cell_setting 'orthorhombic'
loop_
_space_group_symop_operation_xyz
x,y,z
-x,-y,1/2+z
x,-y,-z
-x,y,1/2-z
1/2+x,1/2+y,z
1/2-x,1/2-y,1/2+z
1/2+x,1/2-y,-z
1/2-x,1/2+y,1/2-z
loop_
_atom_site_type_symbol
_atom_site_label
_atom_site_fract_x
_atom_site_fract_y
_atom_site_fract_z
Si Si1 0.061755 0.123382 0.539737
Si Si2 0.945961 0.808264 0.685286
Si Si3 0.851807 0.796722 0.399373
Si Si4 0.247385 0.126847 0.647932
Si Si5 0.883763 0.087860 0.727291
Si Si6 0.075381 0.475330 0.928875
Si Si7 0.590242 0.799419 0.426133
O O1 0.149168 0.159642 0.596639
O O2 0.047081 0.244242 0.492959
O O3 0.934951 0.094478 0.570204
O O4 0.103907 0.000000 0.500000
O O5 0.823296 0.750287 0.664769
O O6 0.000000 0.747687 0.750000
O O7 0.041903 0.788833 0.630522
O O8 0.921855 0.956123 0.695221
O O9 0.825172 0.822425 0.325314
O O10 0.932684 0.672913 0.411627
O O11 0.728124 0.793332 0.432300
O O12 0.199107 0.067255 0.713023
O O13 0.328709 0.019775 0.620129
O O14 0.000000 0.159417 0.750000
O O15 0.955930 0.554736 0.918735
O O16 0.121077 0.500000 0.000000
#
# Coordination Sequence:
#
# PCOD8160175 Si02
#       7
#     8   8   8   8   8   8   8
#     4  12  25  43  70 104 138 186 236 289 364 436
#     4  10  24  45  70  98 137 180 239 293 357 432
#     4  12  25  44  70 101 142 186 233 294 366 425
#     4  11  24  43  72 100 136 185 236 295 362 430
#     4  11  24  43  65 101 135 182 237 286 352 434
#     4  11  24  46  69 103 140 184 233 301 363 427
#     4  11  25  44  71 100 143 182 239 295 360 433
#
# _framework density 21.905348
#
# number of rings (size 3 to 8) (size 9 to 14) (size 15 to 20)
#    0.000    0.857    2.857    3.857   10.000    1.714 
#    0.000    2.857    0.000    0.000    0.000    0.000 
#    0.000    0.000    0.000    0.000    0.000    0.000 
#
# Total GULP energy -347139.500743 kJ/mol
# GULP energy per Si atom -12397.839312 kJ/mol
# Density = 2.185549 g / cm^3
# Si number density = 21.905348 Si / 1000 Ang^3
#
#
#
# Elastic Constant Matrix: (Units=GPa)
#
#
# Indices 1 2 3 4 5 6 
#
# 1 133.0244 33.4789 51.3278 0.0000 0.0000 0.0000
# 2 33.4789 72.8204 40.6541 0.0000 0.0000 0.0000
# 3 51.3278 40.6541 159.2658 0.0000 0.0000 0.0000
# 4 0.0000 0.0000 0.0000 33.8965 0.0000 0.0000
# 5 0.0000 0.0000 0.0000 0.0000 41.6024 0.0000
# 6 0.0000 0.0000 0.0000 0.0000 0.0000 17.5399
#
#
#
# Elastic Compliance Matrix: (Units=1/GPa)
#
#
# Indices 1 2 3 4 5 6 
#
# 1 0.009105 -0.002971 -0.002176 0.000000 0.000000 0.000000
# 2 -0.002971 0.016984 -0.003378 0.000000 0.000000 0.000000
# 3 -0.002176 -0.003378 0.007842 0.000000 0.000000 0.000000
# 4 0.000000 0.000000 0.000000 0.029502 0.000000 0.000000
# 5 0.000000 0.000000 0.000000 0.000000 0.024037 0.000000
# 6 0.000000 0.000000 0.000000 0.000000 0.000000 0.057013
#
#
# Mechanical properties :
#
#
# Convention : Reuss Voigt Hill
#
# Bulk Modulus (GPa) = 59.23635 68.44801 63.84218
# Shear Modulus (GPa) = 29.91155 34.58441 32.24798
#
# Velocity S-wave (km/s) = 3.69926 3.97774 3.84102
# Velocity P-wave (km/s) = 6.73400 7.23958 6.99136
#
# Compressibility (1/GPa) = 0.01688153
#
# Stress axis : x y z
#
# Youngs Moduli (GPa) = 109.83301 58.87838 127.51424
#
# Poissons Ratio (x) = 0.17494 0.27745
# Poissons Ratio (y) = 0.32633 0.43072
# Poissons Ratio (z) = 0.23898 0.19888
#
# Static dielectric constant tensor:
#      x y z
#    x 3.986900 0.000000 0.000000 
#    y 0.000000 3.781830 0.000000 
#    z 0.000000 0.000000 4.337520 
# 
# 
# High freq. dielectric constant tensor:
#      x y z
#    x 1.866900 0.000000 0.000000 
#    y 0.000000 1.844940 0.000000 
#    z 0.000000 0.000000 1.884350 
# 
# From -- ./inp_files/27210.got.cif
#   From: 2010.03.12/outbox.cif.g09.slc.cpg/sg20_14_cif.got.tgz:27210.got - 2010.04.14 01:38:04.
