data_PCOD8160813
_publ_section_title
;
Structure prediction by ZEFSAII (Michael W. Deem and Ramdas Pophale) SiO2 
 PCOD8160813
Probable space group: C 2 2 2
;
_chemical_formula_sum "Si O2"
_cell_formula_units_Z 52
_cell_length_a 18.061920
_cell_length_b 11.720578
_cell_length_c 13.824385
_cell_angle_alpha 90.000000
_cell_angle_beta 90.000000
_cell_angle_gamma 90.000000
_cell_volume 2926.568973
_symmetry_space_group_name_H-M "C 2 2 2"
_symmetry_group_IT_number 21
_symmetry_cell_setting 'orthorhombic'
loop_
_space_group_symop_operation_xyz
x,y,z
-x,-y,z
x,-y,-z
-x,y,-z
1/2+x,1/2+y,z
1/2-x,1/2-y,z
1/2+x,1/2-y,-z
1/2-x,1/2+y,-z
loop_
_atom_site_type_symbol
_atom_site_label
_atom_site_fract_x
_atom_site_fract_y
_atom_site_fract_z
Si Si1 0.750000 0.250000 0.694594
Si Si2 0.972529 0.254194 0.600556
Si Si3 0.343222 0.934438 0.597864
Si Si4 0.064205 0.587806 0.279461
Si Si5 0.584022 0.538208 0.900907
Si Si6 0.522933 0.225911 0.107976
Si Si7 0.604110 0.657672 0.229340
O O1 0.727171 0.142117 0.628134
O O2 0.682878 0.281204 0.765226
O O3 0.914714 0.355815 0.578893
O O4 0.933494 0.155244 0.664248
O O5 0.000000 0.199951 0.500000
O O6 0.044955 0.300165 0.657299
O O7 0.322263 0.000000 0.500000
O O8 0.360195 0.027575 0.683543
O O9 0.000000 0.500000 0.299206
O O10 0.063112 0.622487 0.165489
O O11 0.500000 0.500000 0.909521
O O12 0.585246 0.674365 0.890602
O O13 0.617601 0.471256 0.808773
O O14 0.625617 0.500000 0.000000
O O15 0.447035 0.266001 0.159186
O O16 0.500000 0.187634 0.000000
#
# Coordination Sequence:
#
# PCOD8160813 Si02
#       7
#     4   8   8   8   8   8   8
#     4  10  22  36  52  72 108 152 178 202 260 334
#     4   9  15  27  52  84  99 124 171 227 274 300
#     4  10  18  33  54  72 102 143 183 214 260 324
#     4   9  18  28  49  83 105 128 168 228 273 300
#     4   9  14  29  54  78  97 137 176 208 262 316
#     4  10  17  31  57  82 106 133 174 225 277 313
#     4   9  18  31  53  77 105 138 179 212 253 327
#
# _framework density 17.768246999999999
#
# number of rings (size 3 to 8) (size 9 to 14) (size 15 to 20)
#    0.000    2.615    4.615    0.923    0.000    0.308 
#    0.000    1.538   13.538    0.923    0.000    0.000 
#    0.000    0.000    0.000    0.000    0.000    0.000 
#
# Total GULP energy -322144.363383 kJ/mol
# GULP energy per Si atom -12390.167822 kJ/mol
# Density = 1.772781 g / cm^3
# Si number density = 17.768247 Si / 1000 Ang^3
#
#
#
# Elastic Constant Matrix: (Units=GPa)
#
#
# Indices 1 2 3 4 5 6 
#
# 1 58.1236 26.3986 37.1672 0.0000 0.0000 0.0000
# 2 26.3986 64.3767 51.8852 0.0000 0.0000 0.0000
# 3 37.1672 51.8852 146.6460 0.0000 0.0000 0.0000
# 4 0.0000 0.0000 0.0000 33.3644 0.0000 0.0000
# 5 0.0000 0.0000 0.0000 0.0000 13.8444 0.0000
# 6 0.0000 0.0000 0.0000 0.0000 0.0000 19.4453
#
#
#
# Elastic Compliance Matrix: (Units=1/GPa)
#
#
# Indices 1 2 3 4 5 6 
#
# 1 0.022277 -0.006413 -0.003377 0.000000 0.000000 0.000000
# 2 -0.006413 0.023576 -0.006716 0.000000 0.000000 0.000000
# 3 -0.003377 -0.006716 0.010051 0.000000 0.000000 0.000000
# 4 0.000000 0.000000 0.000000 0.029972 0.000000 0.000000
# 5 0.000000 0.000000 0.000000 0.000000 0.072232 0.000000
# 6 0.000000 0.000000 0.000000 0.000000 0.000000 0.051426
#
#
# Mechanical properties :
#
#
# Convention : Reuss Voigt Hill
#
# Bulk Modulus (GPa) = 43.68377 55.56090 49.62234
# Shear Modulus (GPa) = 19.98579 23.57719 21.78149
#
# Velocity S-wave (km/s) = 3.35745 3.64665 3.50504
# Velocity P-wave (km/s) = 6.29830 7.00489 6.66097
#
# Compressibility (1/GPa) = 0.02289179
#
# Stress axis : x y z
#
# Youngs Moduli (GPa) = 44.88957 42.41526 99.48961
#
# Poissons Ratio (x) = 0.27202 0.33597
# Poissons Ratio (y) = 0.28789 0.66819
# Poissons Ratio (z) = 0.15159 0.28487
#
# Static dielectric constant tensor:
#      x y z
#    x 2.936330 0.000000 0.000000 
#    y 0.000000 3.513070 0.000000 
#    z 0.000000 0.000000 3.567210 
# 
# 
# High freq. dielectric constant tensor:
#      x y z
#    x 1.634590 0.000000 0.000000 
#    y 0.000000 1.672640 0.000000 
#    z 0.000000 0.000000 1.695030 
# 
# From -- ./inp_files/31703.got.cif
#   From: 2010.03.12/outbox.cif.g09.slc.cpg/sg21_16_cif.got.tgz:31703.got - 2010.04.14 01:59:26.
