data_PCOD8160635
_publ_section_title
;
Structure prediction by ZEFSAII (Michael W. Deem and Ramdas Pophale) SiO2 
 PCOD8160635
Probable space group: C 2 2 21
;
_chemical_formula_sum "Si O2"
_cell_formula_units_Z 24
_cell_length_a 4.956852
_cell_length_b 24.715927
_cell_length_c 7.991935
_cell_angle_alpha 90.000000
_cell_angle_beta 90.000000
_cell_angle_gamma 90.000000
_cell_volume 979.117469
_symmetry_space_group_name_H-M "C 2 2 21"
_symmetry_group_IT_number 20
_symmetry_cell_setting 'orthorhombic'
loop_
_space_group_symop_operation_xyz
x,y,z
-x,-y,1/2+z
x,-y,-z
-x,y,1/2-z
1/2+x,1/2+y,z
1/2-x,1/2-y,1/2+z
1/2+x,1/2-y,-z
1/2-x,1/2+y,1/2-z
loop_
_atom_site_type_symbol
_atom_site_label
_atom_site_fract_x
_atom_site_fract_y
_atom_site_fract_z
Si Si1 0.170975 0.896503 0.916626
Si Si2 0.500000 0.022847 0.250000
Si Si3 0.500000 0.552362 0.750000
Si Si4 0.851040 0.227661 0.419075
O O1 0.254070 0.833886 0.916368
O O2 0.000000 0.909669 0.750000
O O3 0.429869 0.936747 0.906310
O O4 0.024495 0.909138 0.089667
O O5 0.750041 0.985412 0.205699
O O6 0.580421 0.263330 0.439157
O O7 0.000000 0.245757 0.250000
#
# Coordination Sequence:
#
# PCOD8160635 Si02
#       4
#     8   4   4   8
#     4  11  29  49  76 111 151 195 250 310 373 439
#     4  12  28  48  75 112 149 196 252 298 370 442
#     4  12  30  46  79 108 151 202 248 304 370 454
#     4  11  27  48  78 108 148 192 247 310 373 440
#
# _framework density 24.511866999999999
#
# number of rings (size 3 to 8) (size 9 to 14) (size 15 to 20)
#    0.000    0.667    1.667    2.000   23.333    0.000 
#    0.000    0.000    0.000    0.000    0.000    0.000 
#    0.000    0.000    0.000    0.000    0.000    0.000 
#
# Total GULP energy -148783.233900 kJ/mol
# GULP energy per Si atom -12398.602825 kJ/mol
# Density = 2.445608 g / cm^3
# Si number density = 24.511867 Si / 1000 Ang^3
#
#
#
# Elastic Constant Matrix: (Units=GPa)
#
#
# Indices 1 2 3 4 5 6 
#
# 1 105.4058 14.1756 10.3626 0.0000 0.0000 0.0000
# 2 14.1756 70.9650 27.8813 0.0000 0.0000 0.0000
# 3 10.3626 27.8813 139.6163 0.0000 0.0000 0.0000
# 4 0.0000 0.0000 0.0000 48.9477 0.0000 0.0000
# 5 0.0000 0.0000 0.0000 0.0000 37.1294 0.0000
# 6 0.0000 0.0000 0.0000 0.0000 0.0000 31.7993
#
#
#
# Elastic Compliance Matrix: (Units=1/GPa)
#
#
# Indices 1 2 3 4 5 6 
#
# 1 0.009766 -0.001808 -0.000364 0.000000 0.000000 0.000000
# 2 -0.001808 0.015626 -0.002986 0.000000 0.000000 0.000000
# 3 -0.000364 -0.002986 0.007786 0.000000 0.000000 0.000000
# 4 0.000000 0.000000 0.000000 0.020430 0.000000 0.000000
# 5 0.000000 0.000000 0.000000 0.000000 0.026933 0.000000
# 6 0.000000 0.000000 0.000000 0.000000 0.000000 0.031447
#
#
# Mechanical properties :
#
#
# Convention : Reuss Voigt Hill
#
# Bulk Modulus (GPa) = 43.74112 46.75846 45.24979
# Shear Modulus (GPa) = 38.48390 41.14643 39.81517
#
# Velocity S-wave (km/s) = 3.96664 4.10156 4.03466
# Velocity P-wave (km/s) = 6.23398 6.44574 6.34075
#
# Compressibility (1/GPa) = 0.02286178
#
# Stress axis : x y z
#
# Youngs Moduli (GPa) = 102.39556 63.99642 128.43801
#
# Poissons Ratio (x) = 0.11570 0.04673
# Poissons Ratio (y) = 0.18512 0.38355
# Poissons Ratio (z) = 0.03725 0.19111
#
# Static dielectric constant tensor:
#      x y z
#    x 2.781770 0.000000 0.000000 
#    y 0.000000 4.417590 0.000000 
#    z 0.000000 0.000000 4.421370 
# 
# 
# High freq. dielectric constant tensor:
#      x y z
#    x 1.977430 0.000000 0.000000 
#    y 0.000000 1.983090 0.000000 
#    z 0.000000 0.000000 1.978830 
# 
# From -- ./inp_files/4988.got.cif
#   From: 2010.03.12/outbox.cif.g09.slc.cpg/sg20_3_cif.got.tgz:4988.got - 2010.04.14 01:38:04.
