data_PCOD8160346
_publ_section_title
;
Structure prediction by ZEFSAII (Michael W. Deem and Ramdas Pophale) SiO2 
 PCOD8160346
Probable space group: C 2 2 21
;
_chemical_formula_sum "Si O2"
_cell_formula_units_Z 56
_cell_length_a 14.870347
_cell_length_b 20.399445
_cell_length_c 9.363880
_cell_angle_alpha 90.000000
_cell_angle_beta 90.000000
_cell_angle_gamma 90.000000
_cell_volume 2840.503275
_symmetry_space_group_name_H-M "C 2 2 21"
_symmetry_group_IT_number 20
_symmetry_cell_setting 'orthorhombic'
loop_
_space_group_symop_operation_xyz
x,y,z
-x,-y,1/2+z
x,-y,-z
-x,y,1/2-z
1/2+x,1/2+y,z
1/2-x,1/2-y,1/2+z
1/2+x,1/2-y,-z
1/2-x,1/2+y,1/2-z
loop_
_atom_site_type_symbol
_atom_site_label
_atom_site_fract_x
_atom_site_fract_y
_atom_site_fract_z
Si Si1 0.500000 0.713765 0.250000
Si Si2 0.403302 0.251900 0.009150
Si Si3 0.169620 0.125981 0.200248
Si Si4 0.829037 0.662169 0.399283
Si Si5 0.200886 0.133037 0.628013
Si Si6 0.221947 0.806568 0.071646
Si Si7 0.500000 0.818532 0.750000
Si Si8 0.593143 0.505848 0.668771
O O1 0.515320 0.755583 0.394026
O O2 0.588463 0.670898 0.246813
O O3 0.367372 0.327053 0.023908
O O4 0.438551 0.230226 0.161183
O O5 0.325574 0.202221 0.966568
O O6 0.261703 0.152273 0.267045
O O7 0.146642 0.053248 0.255263
O O8 0.180150 0.135390 0.028090
O O9 0.792128 0.619973 0.534981
O O10 0.832007 0.738412 0.448711
O O11 0.929950 0.639408 0.348865
O O12 0.222396 0.176625 0.763155
O O13 0.158927 0.066744 0.686448
O O14 0.572967 0.500000 0.500000
O O15 0.500000 0.518320 0.750000
#
# Coordination Sequence:
#
# PCOD8160346 Si02
#       8
#     4   8   8   8   8   8   4   8
#     4  12  22  36  61  90 129 172 204 260 320 388
#     4  11  24  37  62  96 128 170 207 267 324 389
#     4  12  23  42  62  91 135 168 216 263 320 378
#     4  11  21  42  62  93 130 173 212 274 324 386
#     4  11  24  41  62  91 137 172 214 265 323 390
#     4  11  22  40  61  92 131 168 209 268 332 385
#     4  12  22  38  65  96 123 168 224 264 338 384
#     4  12  27  43  64  95 132 181 220 254 315 395
#
# _framework density 19.714815999999999
#
# number of rings (size 3 to 8) (size 9 to 14) (size 15 to 20)
#    0.000    0.571    7.857    1.714    5.000    0.000 
#    0.000    0.000    0.000    0.000    7.429    0.000 
#    0.000    0.000    0.000    0.000    0.000    0.000 
#
# Total GULP energy -347027.036905 kJ/mol
# GULP energy per Si atom -12393.822747 kJ/mol
# Density = 1.966994 g / cm^3
# Si number density = 19.714816 Si / 1000 Ang^3
#
#
#
# Elastic Constant Matrix: (Units=GPa)
#
#
# Indices 1 2 3 4 5 6 
#
# 1 123.0802 41.8465 39.6070 0.0000 0.0000 0.0000
# 2 41.8465 75.3093 32.9395 0.0000 0.0000 0.0000
# 3 39.6070 32.9395 108.8487 0.0000 0.0000 0.0000
# 4 0.0000 0.0000 0.0000 28.6739 0.0000 0.0000
# 5 0.0000 0.0000 0.0000 0.0000 49.6858 0.0000
# 6 0.0000 0.0000 0.0000 0.0000 0.0000 26.2988
#
#
#
# Elastic Compliance Matrix: (Units=1/GPa)
#
#
# Indices 1 2 3 4 5 6 
#
# 1 0.010524 -0.004809 -0.002374 0.000000 0.000000 0.000000
# 2 -0.004809 0.017502 -0.003546 0.000000 0.000000 0.000000
# 3 -0.002374 -0.003546 0.011124 0.000000 0.000000 0.000000
# 4 0.000000 0.000000 0.000000 0.034875 0.000000 0.000000
# 5 0.000000 0.000000 0.000000 0.000000 0.020126 0.000000
# 6 0.000000 0.000000 0.000000 0.000000 0.000000 0.038024
#
#
# Mechanical properties :
#
#
# Convention : Reuss Voigt Hill
#
# Bulk Modulus (GPa) = 56.52732 59.55825 58.04278
# Shear Modulus (GPa) = 31.34160 33.78806 32.56483
#
# Velocity S-wave (km/s) = 3.99149 4.14435 4.06864
# Velocity P-wave (km/s) = 7.06947 7.29221 7.18170
#
# Compressibility (1/GPa) = 0.01769056
#
# Stress axis : x y z
#
# Youngs Moduli (GPa) = 95.02199 57.13581 89.89497
#
# Poissons Ratio (x) = 0.27479 0.21341
# Poissons Ratio (y) = 0.45700 0.31881
# Poissons Ratio (z) = 0.22558 0.20263
#
# Static dielectric constant tensor:
#      x y z
#    x 3.745850 0.000000 0.000000 
#    y 0.000000 3.257530 0.000000 
#    z 0.000000 0.000000 4.020450 
# 
# 
# High freq. dielectric constant tensor:
#      x y z
#    x 1.771560 0.000000 0.000000 
#    y 0.000000 1.717350 0.000000 
#    z 0.000000 0.000000 1.798770 
# 
# From -- ./inp_files/8772.got.cif
#   From: 2010.03.12/outbox.cif.g09.slc.cpg/sg20_5_cif.got.tgz:8772.got - 2010.04.14 01:38:04.
