data_PCOD8160849
_publ_section_title
;
Structure prediction by ZEFSAII (Michael W. Deem and Ramdas Pophale) SiO2 
 PCOD8160849
Probable space group: C 2 2 2
;
_chemical_formula_sum "Si O2"
_cell_formula_units_Z 64
_cell_length_a 14.811065
_cell_length_b 16.686108
_cell_length_c 15.570802
_cell_angle_alpha 90.000000
_cell_angle_beta 90.000000
_cell_angle_gamma 90.000000
_cell_volume 3848.152905
_symmetry_space_group_name_H-M "C 2 2 2"
_symmetry_group_IT_number 21
_symmetry_cell_setting 'orthorhombic'
loop_
_space_group_symop_operation_xyz
x,y,z
-x,-y,z
x,-y,-z
-x,y,-z
1/2+x,1/2+y,z
1/2-x,1/2-y,z
1/2+x,1/2-y,-z
1/2-x,1/2+y,-z
loop_
_atom_site_type_symbol
_atom_site_label
_atom_site_fract_x
_atom_site_fract_y
_atom_site_fract_z
Si Si1 0.267596 0.058152 0.422450
Si Si2 0.147896 0.503029 0.907194
Si Si3 0.048924 0.679843 0.269210
Si Si4 0.993588 0.370412 0.907220
Si Si5 0.099164 0.858172 0.515121
Si Si6 0.790206 0.443217 0.264429
Si Si7 0.428270 0.178626 0.428208
Si Si8 0.172816 0.187522 0.664452
O O1 0.162789 0.086353 0.425541
O O2 0.333500 0.133577 0.435062
O O3 0.290836 0.000000 0.500000
O O4 0.285159 0.014410 0.332806
O O5 0.104993 0.590791 0.891540
O O6 0.216151 0.482198 0.830160
O O7 0.067573 0.439613 0.910717
O O8 0.198756 0.500000 0.000000
O O9 0.117183 0.605468 0.278002
O O10 0.090812 0.765956 0.291477
O O11 0.012755 0.688986 0.171925
O O12 0.967706 0.661725 0.334020
O O13 0.000000 0.324918 0.000000
O O14 0.089997 0.772225 0.559438
O O15 0.145531 0.854578 0.422903
O O16 0.000000 0.896752 0.500000
O O17 0.707027 0.381633 0.271602
O O18 0.500000 0.148471 0.500000
O O19 0.250000 0.250000 0.640573
#
# Coordination Sequence:
#
# PCOD8160849 Si02
#       8
#     8   8   8   8   8   8   8   8
#     4  12  23  33  48  73 103 126 162 214 249 284
#     4   8  14  27  46  70 101 131 155 193 255 312
#     4  10  18  31  51  73 100 134 166 199 246 307
#     4   8  14  25  45  73 101 126 157 198 248 307
#     4  11  22  38  52  64  93 138 179 203 244 291
#     4  10  20  31  48  75 103 129 165 211 247 287
#     4  11  21  33  51  71  97 135 164 196 250 307
#     4  10  18  33  50  69  98 132 170 204 242 292
#
# _framework density 16.631356
#
# number of rings (size 3 to 8) (size 9 to 14) (size 15 to 20)
#    0.000    2.000    3.750    3.375    0.000    3.000 
#    0.000    0.000    0.000    1.500    0.000    5.250 
#    0.000    0.000    0.000    0.000    0.000    0.000 
#
# Total GULP energy -396693.479756 kJ/mol
# GULP energy per Si atom -12396.671242 kJ/mol
# Density = 1.659350 g / cm^3
# Si number density = 16.631356 Si / 1000 Ang^3
#
#
#
# Elastic Constant Matrix: (Units=GPa)
#
#
# Indices 1 2 3 4 5 6 
#
# 1 70.8158 23.9468 34.2471 0.0000 0.0000 0.0000
# 2 23.9468 43.4925 33.5001 0.0000 0.0000 0.0000
# 3 34.2471 33.5001 139.1246 0.0000 0.0000 0.0000
# 4 0.0000 0.0000 0.0000 13.0263 0.0000 0.0000
# 5 0.0000 0.0000 0.0000 0.0000 12.0628 0.0000
# 6 0.0000 0.0000 0.0000 0.0000 0.0000 15.0806
#
#
#
# Elastic Compliance Matrix: (Units=1/GPa)
#
#
# Indices 1 2 3 4 5 6 
#
# 1 0.018042 -0.007996 -0.002516 0.000000 0.000000 0.000000
# 2 -0.007996 0.031772 -0.005682 0.000000 0.000000 0.000000
# 3 -0.002516 -0.005682 0.009175 0.000000 0.000000 0.000000
# 4 0.000000 0.000000 0.000000 0.076768 0.000000 0.000000
# 5 0.000000 0.000000 0.000000 0.000000 0.082900 0.000000
# 6 0.000000 0.000000 0.000000 0.000000 0.000000 0.066310
#
#
# Mechanical properties :
#
#
# Convention : Reuss Voigt Hill
#
# Bulk Modulus (GPa) = 37.59252 48.53566 43.06409
# Shear Modulus (GPa) = 15.32704 18.81652 17.07178
#
# Velocity S-wave (km/s) = 3.03904 3.36726 3.20735
# Velocity P-wave (km/s) = 5.91327 6.66067 6.29807
#
# Compressibility (1/GPa) = 0.02660104
#
# Stress axis : x y z
#
# Youngs Moduli (GPa) = 55.42724 31.47468 108.98822
#
# Poissons Ratio (x) = 0.25167 0.27420
# Poissons Ratio (y) = 0.44319 0.61928
# Poissons Ratio (z) = 0.13945 0.17884
#
# Static dielectric constant tensor:
#      x y z
#    x 3.126500 0.000000 0.000000 
#    y 0.000000 3.006380 0.000000 
#    z 0.000000 0.000000 3.510220 
# 
# 
# High freq. dielectric constant tensor:
#      x y z
#    x 1.621310 0.000000 0.000000 
#    y 0.000000 1.620540 0.000000 
#    z 0.000000 0.000000 1.642670 
# 
# From -- ./inp_files/32470.got.cif
#   From: 2010.03.12/outbox.cif.g09.slc.cpg/sg21_17_cif.got.tgz:32470.got - 2010.04.14 01:59:26.
