data_PCOD8160067
_publ_section_title
;
Structure prediction by ZEFSAII (Michael W. Deem and Ramdas Pophale) SiO2 
 PCOD8160067
Probable space group: C 2 2 21
;
_chemical_formula_sum "Si O2"
_cell_formula_units_Z 64
_cell_length_a 12.024041
_cell_length_b 17.530622
_cell_length_c 14.222516
_cell_angle_alpha 90.000000
_cell_angle_beta 90.000000
_cell_angle_gamma 90.000000
_cell_volume 2997.948754
_symmetry_space_group_name_H-M "C 2 2 21"
_symmetry_group_IT_number 20
_symmetry_cell_setting 'orthorhombic'
loop_
_space_group_symop_operation_xyz
x,y,z
-x,-y,1/2+z
x,-y,-z
-x,y,1/2-z
1/2+x,1/2+y,z
1/2-x,1/2-y,1/2+z
1/2+x,1/2-y,-z
1/2-x,1/2+y,1/2-z
loop_
_atom_site_type_symbol
_atom_site_label
_atom_site_fract_x
_atom_site_fract_y
_atom_site_fract_z
Si Si1 0.129476 0.715030 0.259773
Si Si2 0.066754 0.968459 0.845795
Si Si3 0.833296 0.198163 0.938553
Si Si4 0.947318 0.115226 0.535020
Si Si5 0.757957 0.700216 0.902315
Si Si6 0.049475 0.584490 0.651678
Si Si7 0.692014 0.956490 0.727941
Si Si8 0.182742 0.447209 0.086462
O O1 0.176853 0.734135 0.362869
O O2 0.198942 0.769199 0.190706
O O3 0.147180 0.625680 0.240657
O O4 0.000000 0.735127 0.250000
O O5 0.194938 0.949074 0.829478
O O6 0.000000 0.951957 0.750000
O O7 0.050717 0.054581 0.880038
O O8 0.023827 0.916465 0.931544
O O9 0.758387 0.126977 0.910217
O O10 0.962291 0.177706 0.940300
O O11 0.797772 0.226492 0.040626
O O12 0.826469 0.153031 0.532956
O O13 0.862666 0.646559 0.881663
O O14 0.103035 0.500136 0.662040
O O15 0.000000 0.614036 0.750000
O O16 0.947150 0.576776 0.578585
O O17 0.711462 0.006927 0.819841
O O18 0.217680 0.500000 0.000000
#
# Coordination Sequence:
#
# PCOD8160067 Si02
#       8
#     8   8   8   8   8   8   8   8
#     4  12  25  45  72 102 142 190 237 294 365 431
#     4  11  25  43  75 102 144 182 242 301 354 421
#     4  12  28  44  70 104 148 184 238 292 363 440
#     4  11  26  47  70 109 138 192 240 289 364 432
#     4  12  26  47  72 103 146 189 232 297 363 436
#     4  10  23  46  71  99 134 182 241 296 356 423
#     4  11  23  45  70 102 133 185 240 297 355 421
#     4  11  25  42  72 101 138 183 239 296 358 421
#
# _framework density 21.347928
#
# number of rings (size 3 to 8) (size 9 to 14) (size 15 to 20)
#    0.000    0.750    2.500    4.875    8.750    3.000 
#    2.250    0.000    0.000    0.000    0.000    0.000 
#    0.000    0.000    0.000    0.000    0.000    0.000 
#
# Total GULP energy -396946.780926 kJ/mol
# GULP energy per Si atom -12404.586904 kJ/mol
# Density = 2.129934 g / cm^3
# Si number density = 21.347928 Si / 1000 Ang^3
#
#
#
# Elastic Constant Matrix: (Units=GPa)
#
#
# Indices 1 2 3 4 5 6 
#
# 1 104.1800 36.6787 38.6910 0.0000 0.0000 0.0000
# 2 36.6787 113.8436 30.3717 0.0000 0.0000 0.0000
# 3 38.6910 30.3717 79.0490 0.0000 0.0000 0.0000
# 4 0.0000 0.0000 0.0000 15.7195 0.0000 0.0000
# 5 0.0000 0.0000 0.0000 0.0000 29.6075 0.0000
# 6 0.0000 0.0000 0.0000 0.0000 0.0000 35.4556
#
#
#
# Elastic Compliance Matrix: (Units=1/GPa)
#
#
# Indices 1 2 3 4 5 6 
#
# 1 0.012409 -0.002649 -0.005056 0.000000 0.000000 0.000000
# 2 -0.002649 0.010353 -0.002681 0.000000 0.000000 0.000000
# 3 -0.005056 -0.002681 0.016155 0.000000 0.000000 0.000000
# 4 0.000000 0.000000 0.000000 0.063615 0.000000 0.000000
# 5 0.000000 0.000000 0.000000 0.000000 0.033775 0.000000
# 6 0.000000 0.000000 0.000000 0.000000 0.000000 0.028204
#
#
# Mechanical properties :
#
#
# Convention : Reuss Voigt Hill
#
# Bulk Modulus (GPa) = 55.11209 56.50615 55.80912
# Shear Modulus (GPa) = 26.13252 28.91192 27.52222
#
# Velocity S-wave (km/s) = 3.50254 3.68410 3.59447
# Velocity P-wave (km/s) = 6.49841 6.68008 6.58987
#
# Compressibility (1/GPa) = 0.01814484
#
# Stress axis : x y z
#
# Youngs Moduli (GPa) = 80.58568 96.59253 61.90001
#
# Poissons Ratio (x) = 0.25589 0.31296
# Poissons Ratio (y) = 0.21349 0.16595
# Poissons Ratio (z) = 0.40743 0.25897
#
# Static dielectric constant tensor:
#      x y z
#    x 4.016650 0.000000 0.000000 
#    y 0.000000 3.797470 0.000000 
#    z 0.000000 0.000000 3.888820 
# 
# 
# High freq. dielectric constant tensor:
#      x y z
#    x 1.853720 0.000000 0.000000 
#    y 0.000000 1.841220 0.000000 
#    z 0.000000 0.000000 1.842610 
# 
# From -- ./inp_files/20285.got.cif
#   From: 2010.03.12/outbox.cif.g09.slc.cpg/sg20_11_cif.got.tgz:20285.got - 2010.04.14 01:38:04.
