data_PCOD8160541
_publ_section_title
;
Structure prediction by ZEFSAII (Michael W. Deem and Ramdas Pophale) SiO2 
 PCOD8160541
Probable space group: C 2 2 21
;
_chemical_formula_sum "Si O2"
_cell_formula_units_Z 40
_cell_length_a 8.659632
_cell_length_b 8.680088
_cell_length_c 23.046482
_cell_angle_alpha 90.000000
_cell_angle_beta 90.000000
_cell_angle_gamma 90.000000
_cell_volume 1732.320343
_symmetry_space_group_name_H-M "C 2 2 21"
_symmetry_group_IT_number 20
_symmetry_cell_setting 'orthorhombic'
loop_
_space_group_symop_operation_xyz
x,y,z
-x,-y,1/2+z
x,-y,-z
-x,y,1/2-z
1/2+x,1/2+y,z
1/2-x,1/2-y,1/2+z
1/2+x,1/2-y,-z
1/2-x,1/2+y,1/2-z
loop_
_atom_site_type_symbol
_atom_site_label
_atom_site_fract_x
_atom_site_fract_y
_atom_site_fract_z
Si Si1 0.665385 0.060474 0.270106
Si Si2 0.160578 0.157848 0.929848
Si Si3 0.339514 0.328441 0.620880
Si Si4 0.326218 0.669894 0.974394
Si Si5 0.167997 0.232733 0.322428
O O1 0.500000 0.126814 0.250000
O O2 0.716207 0.148867 0.328063
O O3 0.787692 0.088343 0.218117
O O4 0.654233 0.878849 0.280221
O O5 0.196754 0.240328 0.868906
O O6 0.996198 0.213790 0.952993
O O7 0.158828 0.974331 0.922158
O O8 0.290266 0.205546 0.976036
O O9 0.288126 0.184174 0.581155
O O10 0.508234 0.300346 0.645914
O O11 0.310433 0.500000 0.000000
#
# Coordination Sequence:
#
# PCOD8160541 Si02
#       5
#     8   8   8   8   8
#     4  11  24  42  68  99 132 174 221 271 330 393
#     4  11  25  44  68  96 134 177 220 274 333 393
#     4  11  25  46  67  96 137 176 218 272 334 396
#     4  12  25  43  68  97 131 171 222 274 328 392
#     4  11  25  45  69  98 135 176 221 273 330 394
#
# _framework density 23.090418
#
# number of rings (size 3 to 8) (size 9 to 14) (size 15 to 20)
#    0.000    0.800    0.000    7.200    0.000   14.400 
#    0.000    1.000    0.000    0.000    0.000    0.000 
#    0.000    0.000    0.000    0.000    0.000    0.000 
#
# Total GULP energy -248119.617789 kJ/mol
# GULP energy per Si atom -12405.980889 kJ/mol
# Density = 2.303786 g / cm^3
# Si number density = 23.090418 Si / 1000 Ang^3
#
#
#
# Elastic Constant Matrix: (Units=GPa)
#
#
# Indices 1 2 3 4 5 6 
#
# 1 153.1895 67.4540 82.9391 0.0000 0.0000 0.0000
# 2 67.4540 115.1541 75.7531 0.0000 0.0000 0.0000
# 3 82.9391 75.7531 137.8127 0.0000 0.0000 0.0000
# 4 0.0000 0.0000 0.0000 55.8882 0.0000 0.0000
# 5 0.0000 0.0000 0.0000 0.0000 65.9433 0.0000
# 6 0.0000 0.0000 0.0000 0.0000 0.0000 25.9816
#
#
#
# Elastic Compliance Matrix: (Units=1/GPa)
#
#
# Indices 1 2 3 4 5 6 
#
# 1 0.010334 -0.003073 -0.004530 0.000000 0.000000 0.000000
# 2 -0.003073 0.014517 -0.006130 0.000000 0.000000 0.000000
# 3 -0.004530 -0.006130 0.013352 0.000000 0.000000 0.000000
# 4 0.000000 0.000000 0.000000 0.017893 0.000000 0.000000
# 5 0.000000 0.000000 0.000000 0.000000 0.015165 0.000000
# 6 0.000000 0.000000 0.000000 0.000000 0.000000 0.038489
#
#
# Mechanical properties :
#
#
# Convention : Reuss Voigt Hill
#
# Bulk Modulus (GPa) = 93.14240 95.38318 94.26279
# Shear Modulus (GPa) = 35.51308 41.56331 38.53819
#
# Velocity S-wave (km/s) = 3.92599 4.24727 4.08979
# Velocity P-wave (km/s) = 7.80877 8.09016 7.95071
#
# Compressibility (1/GPa) = 0.01073625
#
# Stress axis : x y z
#
# Youngs Moduli (GPa) = 96.77212 68.88531 74.89595
#
# Poissons Ratio (x) = 0.21171 0.33925
# Poissons Ratio (y) = 0.29741 0.45912
# Poissons Ratio (z) = 0.43834 0.42227
#
# Static dielectric constant tensor:
#      x y z
#    x 4.206820 0.000000 0.000000 
#    y 0.000000 4.026750 0.000000 
#    z 0.000000 0.000000 4.520710 
# 
# 
# High freq. dielectric constant tensor:
#      x y z
#    x 1.919680 0.000000 0.000000 
#    y 0.000000 1.899450 0.000000 
#    z 0.000000 0.000000 1.943230 
# 
# From -- ./inp_files/28589.got.cif
#   From: 2010.03.12/outbox.cif.g09.slc.cpg/sg20_15_cif.got.tgz:28589.got - 2010.04.14 01:38:04.
