data_PCOD8160160
_publ_section_title
;
Structure prediction by ZEFSAII (Michael W. Deem and Ramdas Pophale) SiO2 
 PCOD8160160
Probable space group: C 2 2 21
;
_chemical_formula_sum "Si O2"
_cell_formula_units_Z 40
_cell_length_a 7.184314
_cell_length_b 24.958359
_cell_length_c 9.785579
_cell_angle_alpha 90.000000
_cell_angle_beta 90.000000
_cell_angle_gamma 90.000000
_cell_volume 1754.639332
_symmetry_space_group_name_H-M "C 2 2 21"
_symmetry_group_IT_number 20
_symmetry_cell_setting 'orthorhombic'
loop_
_space_group_symop_operation_xyz
x,y,z
-x,-y,1/2+z
x,-y,-z
-x,y,1/2-z
1/2+x,1/2+y,z
1/2-x,1/2-y,1/2+z
1/2+x,1/2-y,-z
1/2-x,1/2+y,1/2-z
loop_
_atom_site_type_symbol
_atom_site_label
_atom_site_fract_x
_atom_site_fract_y
_atom_site_fract_z
Si Si1 0.514212 0.148831 0.596990
Si Si2 0.125881 0.533154 0.636583
Si Si3 0.500000 0.304273 0.750000
Si Si4 0.500000 0.417093 0.250000
Si Si5 0.934742 0.166578 0.536543
Si Si6 0.123902 0.719196 0.131914
O O1 0.500000 0.171706 0.750000
O O2 0.497460 0.084301 0.596908
O O3 0.716336 0.161978 0.545402
O O4 0.362786 0.177701 0.496752
O O5 0.165669 0.500000 0.500000
O O6 0.323895 0.547517 0.706659
O O7 0.000000 0.501480 0.750000
O O8 0.467079 0.343767 0.623185
O O9 0.674691 0.267969 0.699766
O O10 0.449060 0.376975 0.124343
O O11 0.983734 0.227166 0.582898
O O12 0.000000 0.691906 0.250000
#
# Coordination Sequence:
#
# PCOD8160160 Si02
#       6
#     8   8   4   4   8   8
#     4  10  24  44  70  97 140 189 234 290 347 414
#     4  10  24  48  76 106 136 183 236 300 369 419
#     4  12  28  38  63 100 134 198 241 280 340 400
#     4  10  24  48  73 108 140 188 227 292 362 434
#     4  11  24  42  65 100 145 186 239 279 347 415
#     4  12  25  42  61  99 148 195 234 285 330 417
#
# _framework density 22.796707999999999
#
# number of rings (size 3 to 8) (size 9 to 14) (size 15 to 20)
#    0.000    1.200    3.000    1.200   14.000    1.600 
#    0.000    4.000    0.000    0.000    0.000    0.000 
#    0.000    0.000    0.000    0.000    0.000    0.000 
#
# Total GULP energy -247829.612167 kJ/mol
# GULP energy per Si atom -12391.480608 kJ/mol
# Density = 2.274482 g / cm^3
# Si number density = 22.796708 Si / 1000 Ang^3
#
#
#
# Elastic Constant Matrix: (Units=GPa)
#
#
# Indices 1 2 3 4 5 6 
#
# 1 94.6522 39.0242 75.9925 0.0000 0.0000 0.0000
# 2 39.0242 67.0953 61.6701 0.0000 0.0000 0.0000
# 3 75.9925 61.6701 225.4860 0.0000 0.0000 0.0000
# 4 0.0000 0.0000 0.0000 233.7375 0.0000 0.0000
# 5 0.0000 0.0000 0.0000 0.0000 48.9287 0.0000
# 6 0.0000 0.0000 0.0000 0.0000 0.0000 162.3172
#
#
#
# Elastic Compliance Matrix: (Units=1/GPa)
#
#
# Indices 1 2 3 4 5 6 
#
# 1 0.016021 -0.005818 -0.003808 0.000000 0.000000 0.000000
# 2 -0.005818 0.022022 -0.004062 0.000000 0.000000 0.000000
# 3 -0.003808 -0.004062 0.006829 0.000000 0.000000 0.000000
# 4 0.000000 0.000000 0.000000 0.004278 0.000000 0.000000
# 5 0.000000 0.000000 0.000000 0.000000 0.020438 0.000000
# 6 0.000000 0.000000 0.000000 0.000000 0.000000 0.006161
#
#
# Mechanical properties :
#
#
# Convention : Reuss Voigt Hill
#
# Bulk Modulus (GPa) = 57.15762 82.28969 69.72366
# Shear Modulus (GPa) = 45.88939 103.03313 74.46126
#
# Velocity S-wave (km/s) = 4.49150 6.73013 5.72137
# Velocity P-wave (km/s) = 7.21285 9.82692 8.61956
#
# Compressibility (1/GPa) = 0.01749548
#
# Stress axis : x y z
#
# Youngs Moduli (GPa) = 62.41753 45.40965 146.42860
#
# Poissons Ratio (x) = 0.26419 0.55762
# Poissons Ratio (y) = 0.36315 0.59481
# Poissons Ratio (z) = 0.23770 0.18446
#
# Static dielectric constant tensor:
#      x y z
#    x 3.675880 0.000000 0.000000 
#    y 0.000000 3.927790 0.000000 
#    z 0.000000 0.000000 4.328970 
# 
# 
# High freq. dielectric constant tensor:
#      x y z
#    x 1.912840 0.000000 0.000000 
#    y 0.000000 1.851150 0.000000 
#    z 0.000000 0.000000 1.923580 
# 
# From -- ./inp_files/6164.got.cif
#   From: 2010.03.12/outbox.cif.g09.slc.cpg/sg20_4_cif.got.tgz:6164.got - 2010.04.14 01:38:04.
