data_PCOD8160694
_publ_section_title
;
Structure prediction by ZEFSAII (Michael W. Deem and Ramdas Pophale) SiO2 
 PCOD8160694
Probable space group: C 2 2 21
;
_chemical_formula_sum "Si O2"
_cell_formula_units_Z 56
_cell_length_a 8.438274
_cell_length_b 19.648634
_cell_length_c 13.946506
_cell_angle_alpha 90.000000
_cell_angle_beta 90.000000
_cell_angle_gamma 90.000000
_cell_volume 2312.338469
_symmetry_space_group_name_H-M "C 2 2 21"
_symmetry_group_IT_number 20
_symmetry_cell_setting 'orthorhombic'
loop_
_space_group_symop_operation_xyz
x,y,z
-x,-y,1/2+z
x,-y,-z
-x,y,1/2-z
1/2+x,1/2+y,z
1/2-x,1/2-y,1/2+z
1/2+x,1/2-y,-z
1/2-x,1/2+y,1/2-z
loop_
_atom_site_type_symbol
_atom_site_label
_atom_site_fract_x
_atom_site_fract_y
_atom_site_fract_z
Si Si1 0.869898 0.721238 0.515088
Si Si2 0.287807 0.844701 0.037697
Si Si3 0.179772 0.120908 0.768256
Si Si4 0.825705 0.243196 0.275029
Si Si5 0.813769 0.125813 0.121613
Si Si6 0.860034 0.053467 0.415285
Si Si7 0.180938 0.507203 0.228267
O O1 0.851264 0.787229 0.447089
O O2 0.802892 0.758729 0.610787
O O3 0.758638 0.661244 0.473249
O O4 0.046034 0.695257 0.533595
O O5 0.255612 0.894740 0.127076
O O6 0.279562 0.895146 0.947291
O O7 0.198296 0.200713 0.753491
O O8 0.000000 0.099361 0.750000
O O9 0.283466 0.071385 0.697851
O O10 0.796142 0.172960 0.217427
O O11 0.000000 0.271205 0.250000
O O12 0.718054 0.056744 0.140310
O O13 0.994220 0.105134 0.103779
O O14 0.802344 0.019242 0.317233
O O15 0.903803 0.000000 0.500000
O O16 0.000000 0.519491 0.250000
#
# Coordination Sequence:
#
# PCOD8160694 Si02
#       7
#     8   8   8   8   8   8   8
#     4  12  26  45  77 113 153 201 265 325 400 477
#     4  12  25  47  72 109 152 196 256 326 392 464
#     4  12  27  45  73 105 150 195 254 310 396 463
#     4  12  24  47  74 109 155 198 253 327 390 466
#     4  12  27  49  78 116 156 210 263 326 404 480
#     4  12  26  47  76 111 155 208 268 330 397 483
#     4  12  27  50  75 106 156 208 262 324 396 475
#
# _framework density 24.217908999999999
#
# number of rings (size 3 to 8) (size 9 to 14) (size 15 to 20)
#    0.000    0.000    4.286    6.000    4.000    0.571 
#    0.000    0.000    0.000    0.000    0.000    0.000 
#    0.000    0.000    0.000    0.000    0.000    0.000 
#
# Total GULP energy -346906.135406 kJ/mol
# GULP energy per Si atom -12389.504836 kJ/mol
# Density = 2.416279 g / cm^3
# Si number density = 24.217909 Si / 1000 Ang^3
#
#
#
# Elastic Constant Matrix: (Units=GPa)
#
#
# Indices 1 2 3 4 5 6 
#
# 1 103.6598 24.0697 27.0299 0.0000 0.0000 0.0000
# 2 24.0697 113.6319 33.6927 0.0000 0.0000 0.0000
# 3 27.0299 33.6927 82.9459 0.0000 0.0000 0.0000
# 4 0.0000 0.0000 0.0000 30.7882 0.0000 0.0000
# 5 0.0000 0.0000 0.0000 0.0000 31.9348 0.0000
# 6 0.0000 0.0000 0.0000 0.0000 0.0000 35.3490
#
#
#
# Elastic Compliance Matrix: (Units=1/GPa)
#
#
# Indices 1 2 3 4 5 6 
#
# 1 0.010737 -0.001406 -0.002928 0.000000 0.000000 0.000000
# 2 -0.001406 0.010190 -0.003681 0.000000 0.000000 0.000000
# 3 -0.002928 -0.003681 0.014505 0.000000 0.000000 0.000000
# 4 0.000000 0.000000 0.000000 0.032480 0.000000 0.000000
# 5 0.000000 0.000000 0.000000 0.000000 0.031314 0.000000
# 6 0.000000 0.000000 0.000000 0.000000 0.000000 0.028289
#
#
# Mechanical properties :
#
#
# Convention : Reuss Voigt Hill
#
# Bulk Modulus (GPa) = 51.54005 52.20246 51.87125
# Shear Modulus (GPa) = 33.33077 33.97743 33.65410
#
# Velocity S-wave (km/s) = 3.71386 3.74971 3.73183
# Velocity P-wave (km/s) = 6.30225 6.35210 6.32722
#
# Compressibility (1/GPa) = 0.01940239
#
# Stress axis : x y z
#
# Youngs Moduli (GPa) = 93.13703 98.13934 68.94063
#
# Poissons Ratio (x) = 0.13801 0.20183
# Poissons Ratio (y) = 0.13097 0.25375
# Poissons Ratio (z) = 0.27267 0.36123
#
# Static dielectric constant tensor:
#      x y z
#    x 4.093470 0.000000 0.000000 
#    y 0.000000 4.642690 0.000000 
#    z 0.000000 0.000000 4.881090 
# 
# 
# High freq. dielectric constant tensor:
#      x y z
#    x 1.948220 0.000000 0.000000 
#    y 0.000000 1.991940 0.000000 
#    z 0.000000 0.000000 1.960760 
# 
# From -- ./inp_files/19222.got.cif
#   From: 2010.03.12/outbox.cif.g09.slc.cpg/sg20_10_cif.got.tgz:19222.got - 2010.04.14 01:38:04.
