data_PCOD8160532
_publ_section_title
;
Structure prediction by ZEFSAII (Michael W. Deem and Ramdas Pophale) SiO2 
 PCOD8160532
Probable space group: C 2 2 21
;
_chemical_formula_sum "Si O2"
_cell_formula_units_Z 40
_cell_length_a 8.699840
_cell_length_b 24.887410
_cell_length_c 8.735141
_cell_angle_alpha 90.000000
_cell_angle_beta 90.000000
_cell_angle_gamma 90.000000
_cell_volume 1891.302025
_symmetry_space_group_name_H-M "C 2 2 21"
_symmetry_group_IT_number 20
_symmetry_cell_setting 'orthorhombic'
loop_
_space_group_symop_operation_xyz
x,y,z
-x,-y,1/2+z
x,-y,-z
-x,y,1/2-z
1/2+x,1/2+y,z
1/2-x,1/2-y,1/2+z
1/2+x,1/2-y,-z
1/2-x,1/2+y,1/2-z
loop_
_atom_site_type_symbol
_atom_site_label
_atom_site_fract_x
_atom_site_fract_y
_atom_site_fract_z
Si Si1 0.339639 0.705946 0.669400
Si Si2 0.161205 0.199787 0.184540
Si Si3 0.338304 0.098837 0.817272
Si Si4 0.662404 0.497156 0.319159
Si Si5 0.837366 0.407291 0.826027
O O1 0.500000 0.717770 0.750000
O O2 0.211811 0.747388 0.725656
O O3 0.362172 0.715130 0.490790
O O4 0.285165 0.645842 0.706844
O O5 0.288191 0.153726 0.206983
O O6 0.000000 0.178751 0.250000
O O7 0.500000 0.119001 0.750000
O O8 0.288717 0.047149 0.721344
O O9 0.351694 0.081954 0.993830
O O10 0.647033 0.500000 0.500000
O O11 0.500000 0.479250 0.250000
O O12 0.710222 0.554031 0.247476
O O13 0.000000 0.419144 0.750000
#
# Coordination Sequence:
#
# PCOD8160532 Si02
#       5
#     8   8   8   8   8
#     4  11  24  41  64  92 125 163 205 253 306 363
#     4  11  24  41  64  92 125 163 205 253 306 363
#     4  11  24  42  64  92 125 163 205 252 305 363
#     4  12  25  42  65  92 124 162 204 254 307 364
#     4  11  24  42  64  92 125 163 205 252 305 363
#
# _framework density 21.149450000000002
#
# number of rings (size 3 to 8) (size 9 to 14) (size 15 to 20)
#    0.000    0.800    0.000    7.200    0.000   12.800 
#    0.000    0.000    0.000    0.000    0.000    0.000 
#    0.000    0.000    0.000    0.000    0.000    0.000 
#
# Total GULP energy -248203.751828 kJ/mol
# GULP energy per Si atom -12410.187591 kJ/mol
# Density = 2.110131 g / cm^3
# Si number density = 21.149450 Si / 1000 Ang^3
#
#
#
# Elastic Constant Matrix: (Units=GPa)
#
#
# Indices 1 2 3 4 5 6 
#
# 1 102.0375 9.9150 38.8460 0.0000 0.0000 0.0000
# 2 9.9150 81.2815 46.5228 0.0000 0.0000 0.0000
# 3 38.8460 46.5228 151.1922 0.0000 0.0000 0.0000
# 4 0.0000 0.0000 0.0000 22.1887 0.0000 0.0000
# 5 0.0000 0.0000 0.0000 0.0000 37.2765 0.0000
# 6 0.0000 0.0000 0.0000 0.0000 0.0000 23.9548
#
#
#
# Elastic Compliance Matrix: (Units=1/GPa)
#
#
# Indices 1 2 3 4 5 6 
#
# 1 0.010870 0.000331 -0.002895 0.000000 0.000000 0.000000
# 2 0.000331 0.014943 -0.004683 0.000000 0.000000 0.000000
# 3 -0.002895 -0.004683 0.008799 0.000000 0.000000 0.000000
# 4 0.000000 0.000000 0.000000 0.045068 0.000000 0.000000
# 5 0.000000 0.000000 0.000000 0.000000 0.026827 0.000000
# 6 0.000000 0.000000 0.000000 0.000000 0.000000 0.041745
#
#
# Mechanical properties :
#
#
# Convention : Reuss Voigt Hill
#
# Bulk Modulus (GPa) = 49.70623 58.34210 54.02416
# Shear Modulus (GPa) = 29.50692 32.63249 31.06971
#
# Velocity S-wave (km/s) = 3.73924 3.93230 3.83698
# Velocity P-wave (km/s) = 6.49584 6.94714 6.72528
#
# Compressibility (1/GPa) = 0.02011820
#
# Stress axis : x y z
#
# Youngs Moduli (GPa) = 91.99473 66.92105 113.65139
#
# Poissons Ratio (x) = -0.02214 0.32899
# Poissons Ratio (y) = -0.03044 0.53224
# Poissons Ratio (z) = 0.26630 0.31339
#
# Static dielectric constant tensor:
#      x y z
#    x 3.806850 0.000000 0.000000 
#    y 0.000000 3.754160 0.000000 
#    z 0.000000 0.000000 3.950810 
# 
# 
# High freq. dielectric constant tensor:
#      x y z
#    x 1.842130 0.000000 0.000000 
#    y 0.000000 1.838480 0.000000 
#    z 0.000000 0.000000 1.845450 
# 
# From -- ./inp_files/6122.got.cif
#   From: 2010.03.12/outbox.cif.g09.slc.cpg/sg20_4_cif.got.tgz:6122.got - 2010.04.14 01:38:04.
