data_PCOD8160678
_publ_section_title
;
Structure prediction by ZEFSAII (Michael W. Deem and Ramdas Pophale) SiO2 
 PCOD8160678
Probable space group: C 2 2 21
;
_chemical_formula_sum "Si O2"
_cell_formula_units_Z 32
_cell_length_a 30.096346
_cell_length_b 9.244619
_cell_length_c 4.953470
_cell_angle_alpha 90.000000
_cell_angle_beta 90.000000
_cell_angle_gamma 90.000000
_cell_volume 1378.200253
_symmetry_space_group_name_H-M "C 2 2 21"
_symmetry_group_IT_number 20
_symmetry_cell_setting 'orthorhombic'
loop_
_space_group_symop_operation_xyz
x,y,z
-x,-y,1/2+z
x,-y,-z
-x,y,1/2-z
1/2+x,1/2+y,z
1/2-x,1/2-y,1/2+z
1/2+x,1/2-y,-z
1/2-x,1/2+y,1/2-z
loop_
_atom_site_type_symbol
_atom_site_label
_atom_site_fract_x
_atom_site_fract_y
_atom_site_fract_z
Si Si1 0.000000 0.922799 0.750000
Si Si2 0.468255 0.000000 0.000000
Si Si3 0.915632 0.227571 0.021638
Si Si4 0.858501 0.837351 0.469261
Si Si5 0.728968 0.824267 0.982183
O O1 0.038024 0.841328 0.594632
O O2 0.975005 0.000000 0.500000
O O3 0.432325 0.880978 0.915063
O O4 0.500000 0.956567 0.250000
O O5 0.881571 0.230182 0.268612
O O6 0.893256 0.145271 0.773651
O O7 0.820119 0.723709 0.387381
O O8 0.838931 0.000000 0.500000
O O9 0.736607 0.745041 0.269278
O O10 0.733446 0.000000 0.000000
#
# Coordination Sequence:
#
# PCOD8160678 Si02
#       5
#     4   4   8   8   8
#     4  12  24  42  66  94 136 186 238 288 348 412
#     4  12  26  46  66  94 136 192 238 296 352 416
#     4  12  26  43  69  99 141 184 238 292 354 412
#     4  12  26  46  72 107 143 181 234 295 355 426
#     4  12  27  50  81 112 149 192 237 295 366 442
#
# _framework density 23.218684
#
# number of rings (size 3 to 8) (size 9 to 14) (size 15 to 20)
#    0.000    0.000    1.250    9.750    5.250    0.000 
#    0.000    0.000    0.000    0.000    0.000    0.000 
#    0.000    0.000    0.000    0.000    0.000    0.000 
#
# Total GULP energy -198305.593626 kJ/mol
# GULP energy per Si atom -12394.099602 kJ/mol
# Density = 2.316584 g / cm^3
# Si number density = 23.218684 Si / 1000 Ang^3
#
#
#
# Elastic Constant Matrix: (Units=GPa)
#
#
# Indices 1 2 3 4 5 6 
#
# 1 88.6856 54.3562 10.0856 0.0000 0.0000 0.0000
# 2 54.3562 156.6145 41.9693 0.0000 0.0000 0.0000
# 3 10.0856 41.9693 107.1345 0.0000 0.0000 0.0000
# 4 0.0000 0.0000 0.0000 35.8065 0.0000 0.0000
# 5 0.0000 0.0000 0.0000 0.0000 49.8362 0.0000
# 6 0.0000 0.0000 0.0000 0.0000 0.0000 37.6557
#
#
#
# Elastic Compliance Matrix: (Units=1/GPa)
#
#
# Indices 1 2 3 4 5 6 
#
# 1 0.014366 -0.005166 0.000671 0.000000 0.000000 0.000000
# 2 -0.005166 0.008992 -0.003036 0.000000 0.000000 0.000000
# 3 0.000671 -0.003036 0.010460 0.000000 0.000000 0.000000
# 4 0.000000 0.000000 0.000000 0.027928 0.000000 0.000000
# 5 0.000000 0.000000 0.000000 0.000000 0.020066 0.000000
# 6 0.000000 0.000000 0.000000 0.000000 0.000000 0.026556
#
#
# Mechanical properties :
#
#
# Convention : Reuss Voigt Hill
#
# Bulk Modulus (GPa) = 53.31552 62.80632 58.06092
# Shear Modulus (GPa) = 38.55625 41.06124 39.80874
#
# Velocity S-wave (km/s) = 4.07943 4.20986 4.14516
# Velocity P-wave (km/s) = 6.72318 7.12315 6.92605
#
# Compressibility (1/GPa) = 0.01875626
#
# Stress axis : x y z
#
# Youngs Moduli (GPa) = 69.61088 111.21501 95.60009
#
# Poissons Ratio (x) = 0.57451 -0.06417
# Poissons Ratio (y) = 0.35959 0.29025
# Poissons Ratio (z) = -0.04673 0.33766
#
# Static dielectric constant tensor:
#      x y z
#    x 4.122120 0.000000 0.000000 
#    y 0.000000 3.771400 0.000000 
#    z 0.000000 0.000000 4.366500 
# 
# 
# High freq. dielectric constant tensor:
#      x y z
#    x 1.928340 0.000000 0.000000 
#    y 0.000000 1.924510 0.000000 
#    z 0.000000 0.000000 1.933680 
# 
# From -- ./inp_files/4524.got.cif
#   From: 2010.03.12/outbox.cif.g09.slc.cpg/sg20_3_cif.got.tgz:4524.got - 2010.04.14 01:38:04.
