data_PCOD8160636
_publ_section_title
;
Structure prediction by ZEFSAII (Michael W. Deem and Ramdas Pophale) SiO2 
 PCOD8160636
Probable space group: C 2 2 21
;
_chemical_formula_sum "Si O2"
_cell_formula_units_Z 40
_cell_length_a 8.268095
_cell_length_b 24.014701
_cell_length_c 8.536902
_cell_angle_alpha 90.000000
_cell_angle_beta 90.000000
_cell_angle_gamma 90.000000
_cell_volume 1695.051656
_symmetry_space_group_name_H-M "C 2 2 21"
_symmetry_group_IT_number 20
_symmetry_cell_setting 'orthorhombic'
loop_
_space_group_symop_operation_xyz
x,y,z
-x,-y,1/2+z
x,-y,-z
-x,y,1/2-z
1/2+x,1/2+y,z
1/2-x,1/2-y,1/2+z
1/2+x,1/2-y,-z
1/2-x,1/2+y,1/2-z
loop_
_atom_site_type_symbol
_atom_site_label
_atom_site_fract_x
_atom_site_fract_y
_atom_site_fract_z
Si Si1 0.176534 0.499627 0.314354
Si Si2 0.638195 0.597709 0.359319
Si Si3 0.403527 0.405798 0.386089
Si Si4 0.330631 0.806907 0.459836
Si Si5 0.197412 0.307119 0.410512
O O1 0.161115 0.500000 0.500000
O O2 0.244757 0.555680 0.234747
O O3 0.301886 0.450223 0.283425
O O4 0.000000 0.484751 0.250000
O O5 0.500000 0.625574 0.250000
O O6 0.528818 0.565800 0.490903
O O7 0.743673 0.645101 0.441280
O O8 0.500000 0.372848 0.250000
O O9 0.293258 0.360795 0.476816
O O10 0.279809 0.748119 0.528283
O O11 0.521166 0.813144 0.484262
O O12 0.293843 0.809654 0.276717
#
# Coordination Sequence:
#
# PCOD8160636 Si02
#       5
#     8   8   8   8   8
#     4  12  31  50  75 110 153 204 260 317 383 457
#     4  12  27  52  78 111 152 202 255 316 382 453
#     4  12  27  49  79 110 154 200 256 314 381 454
#     4  11  27  48  81 114 156 201 251 316 376 455
#     4  11  27  49  77 117 155 200 255 309 383 449
#
# _framework density 23.598099000000001
#
# number of rings (size 3 to 8) (size 9 to 14) (size 15 to 20)
#    0.000    0.400    4.000    1.800   14.000    0.000 
#    0.000    0.000    0.000    0.000    0.000    0.000 
#    0.000    0.000    0.000    0.000    0.000    0.000 
#
# Total GULP energy -247870.414131 kJ/mol
# GULP energy per Si atom -12393.520707 kJ/mol
# Density = 2.354439 g / cm^3
# Si number density = 23.598099 Si / 1000 Ang^3
#
#
#
# Elastic Constant Matrix: (Units=GPa)
#
#
# Indices 1 2 3 4 5 6 
#
# 1 162.7443 60.9062 92.2112 0.0000 0.0000 0.0000
# 2 60.9062 131.5828 55.2342 0.0000 0.0000 0.0000
# 3 92.2112 55.2342 116.0271 0.0000 0.0000 0.0000
# 4 0.0000 0.0000 0.0000 39.1167 0.0000 0.0000
# 5 0.0000 0.0000 0.0000 0.0000 37.1821 0.0000
# 6 0.0000 0.0000 0.0000 0.0000 0.0000 35.9332
#
#
#
# Elastic Compliance Matrix: (Units=1/GPa)
#
#
# Indices 1 2 3 4 5 6 
#
# 1 0.011532 -0.001863 -0.008278 0.000000 0.000000 0.000000
# 2 -0.001863 0.009799 -0.003184 0.000000 0.000000 0.000000
# 3 -0.008278 -0.003184 0.016713 0.000000 0.000000 0.000000
# 4 0.000000 0.000000 0.000000 0.025565 0.000000 0.000000
# 5 0.000000 0.000000 0.000000 0.000000 0.026895 0.000000
# 6 0.000000 0.000000 0.000000 0.000000 0.000000 0.027829
#
#
# Mechanical properties :
#
#
# Convention : Reuss Voigt Hill
#
# Bulk Modulus (GPa) = 87.76679 91.89530 89.83104
# Shear Modulus (GPa) = 33.60629 35.91324 34.75976
#
# Velocity S-wave (km/s) = 3.77783 3.90535 3.84212
# Velocity P-wave (km/s) = 7.50349 7.70467 7.60475
#
# Compressibility (1/GPa) = 0.01139383
#
# Stress axis : x y z
#
# Youngs Moduli (GPa) = 86.71262 102.05473 59.83197
#
# Poissons Ratio (x) = 0.19013 0.49531
# Poissons Ratio (y) = 0.16155 0.19050
# Poissons Ratio (z) = 0.71783 0.32494
#
# Static dielectric constant tensor:
#      x y z
#    x 4.788950 0.000000 0.000000 
#    y 0.000000 4.116300 0.000000 
#    z 0.000000 0.000000 4.576980 
# 
# 
# High freq. dielectric constant tensor:
#      x y z
#    x 1.962210 0.000000 0.000000 
#    y 0.000000 1.924140 0.000000 
#    z 0.000000 0.000000 1.956060 
# 
# From -- ./inp_files/6125.got.cif
#   From: 2010.03.12/outbox.cif.g09.slc.cpg/sg20_4_cif.got.tgz:6125.got - 2010.04.14 01:38:04.
