data_PCOD8160773
_publ_section_title
;
Structure prediction by ZEFSAII (Michael W. Deem and Ramdas Pophale) SiO2 
 PCOD8160773
Probable space group: C 2 2 2
;
_chemical_formula_sum "Si O2"
_cell_formula_units_Z 22
_cell_length_a 12.903209
_cell_length_b 4.830360
_cell_length_c 12.971365
_cell_angle_alpha 90.000000
_cell_angle_beta 90.000000
_cell_angle_gamma 90.000000
_cell_volume 808.468142
_symmetry_space_group_name_H-M "C 2 2 2"
_symmetry_group_IT_number 21
_symmetry_cell_setting 'orthorhombic'
loop_
_space_group_symop_operation_xyz
x,y,z
-x,-y,z
x,-y,-z
-x,y,-z
1/2+x,1/2+y,z
1/2-x,1/2-y,z
1/2+x,1/2-y,-z
1/2-x,1/2+y,-z
loop_
_atom_site_type_symbol
_atom_site_label
_atom_site_fract_x
_atom_site_fract_y
_atom_site_fract_z
Si Si1 0.627537 0.268997 0.326381
Si Si2 0.627641 0.764553 0.197182
Si Si3 0.500000 0.000000 0.500000
Si Si4 0.175557 0.000000 0.000000
O O1 0.750000 0.250000 0.344961
O O2 0.590850 0.575171 0.293307
O O3 0.573358 0.195011 0.432554
O O4 0.591872 0.073996 0.228576
O O5 0.750000 0.750000 0.189936
O O6 0.597381 0.636052 0.085787
O O7 0.250000 0.250000 0.955219
#
# Coordination Sequence:
#
# PCOD8160773 Si02
#       4
#     8   8   2   4
#     4  10  23  41  62  92 128 167 216 273 324 382
#     4   9  18  35  59  91 129 164 207 262 320 388
#     4  12  28  46  72  94 128 182 232 278 340 394
#     4  10  16  28  58  95 126 167 210 250 320 401
#
# _framework density 27.211957999999999
#
# number of rings (size 3 to 8) (size 9 to 14) (size 15 to 20)
#    0.000    2.182    0.000    5.455    0.000    8.727 
#    0.000    0.000    0.000    6.545    0.000    0.000 
#    0.000    0.000    0.000    0.000    0.000    0.182 
#
# Total GULP energy -136297.997211 kJ/mol
# GULP energy per Si atom -12390.727019 kJ/mol
# Density = 2.715002 g / cm^3
# Si number density = 27.211958 Si / 1000 Ang^3
#
#
#
# Elastic Constant Matrix: (Units=GPa)
#
#
# Indices 1 2 3 4 5 6 
#
# 1 47.3802 -29.6956 8.0895 0.0000 0.0000 0.0000
# 2 -29.6956 127.4253 22.7539 0.0000 0.0000 0.0000
# 3 8.0895 22.7539 161.8988 0.0000 0.0000 0.0000
# 4 0.0000 0.0000 0.0000 44.6672 0.0000 0.0000
# 5 0.0000 0.0000 0.0000 0.0000 17.1457 0.0000
# 6 0.0000 0.0000 0.0000 0.0000 0.0000 21.1761
#
#
#
# Elastic Compliance Matrix: (Units=1/GPa)
#
#
# Indices 1 2 3 4 5 6 
#
# 1 0.025430 0.006312 -0.002158 0.000000 0.000000 0.000000
# 2 0.006312 0.009616 -0.001667 0.000000 0.000000 0.000000
# 3 -0.002158 -0.001667 0.006519 0.000000 0.000000 0.000000
# 4 0.000000 0.000000 0.000000 0.022388 0.000000 0.000000
# 5 0.000000 0.000000 0.000000 0.000000 0.058324 0.000000
# 6 0.000000 0.000000 0.000000 0.000000 0.000000 0.047223
#
#
# Mechanical properties :
#
#
# Convention : Reuss Voigt Hill
#
# Bulk Modulus (GPa) = 21.48731 37.66667 29.57699
# Shear Modulus (GPa) = 27.77182 38.96823 33.37002
#
# Velocity S-wave (km/s) = 3.19811 3.78832 3.50566
# Velocity P-wave (km/s) = 4.64226 5.74518 5.22292
#
# Compressibility (1/GPa) = 0.04653909
#
# Stress axis : x y z
#
# Youngs Moduli (GPa) = 39.32357 103.99062 153.40294
#
# Poissons Ratio (x) = -0.65635 0.33100
# Poissons Ratio (y) = -0.24819 0.25570
# Poissons Ratio (z) = 0.08485 0.17334
#
# Static dielectric constant tensor:
#      x y z
#    x 5.217310 0.000000 0.000000 
#    y 0.000000 14.020220 0.000000 
#    z 0.000000 0.000000 5.265900 
# 
# 
# High freq. dielectric constant tensor:
#      x y z
#    x 2.102150 0.000000 0.000000 
#    y 0.000000 2.109720 0.000000 
#    z 0.000000 0.000000 2.084900 
# 
# From -- ./inp_files/24587.got.cif
#   From: 2010.03.12/outbox.cif.g09.slc.cpg/sg21_13_cif.got.tgz:24587.got - 2010.04.14 01:59:26.
