data_PCOD8160271
_publ_section_title
;
Structure prediction by ZEFSAII (Michael W. Deem and Ramdas Pophale) SiO2 
 PCOD8160271
Probable space group: C 2 2 21
;
_chemical_formula_sum "Si O2"
_cell_formula_units_Z 60
_cell_length_a 11.852533
_cell_length_b 24.840957
_cell_length_c 9.358960
_cell_angle_alpha 90.000000
_cell_angle_beta 90.000000
_cell_angle_gamma 90.000000
_cell_volume 2755.542332
_symmetry_space_group_name_H-M "C 2 2 21"
_symmetry_group_IT_number 20
_symmetry_cell_setting 'orthorhombic'
loop_
_space_group_symop_operation_xyz
x,y,z
-x,-y,1/2+z
x,-y,-z
-x,y,1/2-z
1/2+x,1/2+y,z
1/2-x,1/2-y,1/2+z
1/2+x,1/2-y,-z
1/2-x,1/2+y,1/2-z
loop_
_atom_site_type_symbol
_atom_site_label
_atom_site_fract_x
_atom_site_fract_y
_atom_site_fract_z
Si Si1 0.987044 0.690548 0.409267
Si Si2 0.929271 0.103867 0.980234
Si Si3 0.299637 0.428845 0.286893
Si Si4 0.269642 0.850682 0.960952
Si Si5 0.608469 0.994375 0.155928
Si Si6 0.554080 0.294526 0.909437
Si Si7 0.071434 0.000000 0.000000
Si Si8 0.288986 0.892170 0.660901
O O1 0.965298 0.737007 0.521548
O O2 0.889894 0.645289 0.398570
O O3 0.000000 0.715042 0.250000
O O4 0.099860 0.664408 0.471452
O O5 0.898053 0.094102 0.814557
O O6 0.992573 0.050994 0.043434
O O7 0.817284 0.118761 0.063631
O O8 0.008008 0.156021 0.995522
O O9 0.264467 0.382306 0.396482
O O10 0.191433 0.444392 0.189473
O O11 0.348740 0.481161 0.369039
O O12 0.189872 0.799517 0.923406
O O13 0.251866 0.886637 0.823199
O O14 0.500000 0.990439 0.250000
O O15 0.682311 0.046398 0.168702
O O16 0.556375 0.000000 0.000000
O O17 0.500000 0.295942 0.750000
#
# Coordination Sequence:
#
# PCOD8160271 Si02
#       8
#     8   8   8   8   8   8   4   8
#     4  10  27  47  76 103 142 190 245 300 371 431
#     4  12  26  46  69 106 148 185 243 296 366 433
#     4  12  27  45  72 108 146 192 241 301 360 448
#     4  11  25  46  74 105 142 191 241 299 370 430
#     4  12  27  45  72 105 144 192 242 293 362 437
#     4  12  27  46  72 109 143 191 244 312 366 438
#     4  12  26  42  70 108 146 188 236 298 368 436
#     4  11  24  50  71 102 148 189 232 302 360 437
#
# _framework density 21.774298000000002
#
# number of rings (size 3 to 8) (size 9 to 14) (size 15 to 20)
#    0.000    0.533    4.000    3.200    8.400    3.200 
#    0.000    0.000    0.000    0.000    0.000    0.000 
#    0.000    0.000    0.000    0.000    0.000    0.000 
#
# Total GULP energy -371771.010540 kJ/mol
# GULP energy per Si atom -12392.367018 kJ/mol
# Density = 2.172474 g / cm^3
# Si number density = 21.774298 Si / 1000 Ang^3
#
#
#
# Elastic Constant Matrix: (Units=GPa)
#
#
# Indices 1 2 3 4 5 6 
#
# 1 106.5118 8.9933 26.5808 0.0000 0.0000 0.0000
# 2 8.9933 66.9789 33.8044 0.0000 0.0000 0.0000
# 3 26.5808 33.8044 101.1913 0.0000 0.0000 0.0000
# 4 0.0000 0.0000 0.0000 43.7555 0.0000 0.0000
# 5 0.0000 0.0000 0.0000 0.0000 37.2045 0.0000
# 6 0.0000 0.0000 0.0000 0.0000 0.0000 54.1355
#
#
#
# Elastic Compliance Matrix: (Units=1/GPa)
#
#
# Indices 1 2 3 4 5 6 
#
# 1 0.010047 -0.000021 -0.002632 0.000000 0.000000 0.000000
# 2 -0.000021 0.017958 -0.005994 0.000000 0.000000 0.000000
# 3 -0.002632 -0.005994 0.012576 0.000000 0.000000 0.000000
# 4 0.000000 0.000000 0.000000 0.022854 0.000000 0.000000
# 5 0.000000 0.000000 0.000000 0.000000 0.026878 0.000000
# 6 0.000000 0.000000 0.000000 0.000000 0.000000 0.018472
#
#
# Mechanical properties :
#
#
# Convention : Reuss Voigt Hill
#
# Bulk Modulus (GPa) = 42.94047 45.93768 44.43908
# Shear Modulus (GPa) = 37.35753 40.70600 39.03177
#
# Velocity S-wave (km/s) = 4.14656 4.32841 4.23846
# Velocity P-wave (km/s) = 6.53367 6.79140 6.66378
#
# Compressibility (1/GPa) = 0.02328805
#
# Stress axis : x y z
#
# Youngs Moduli (GPa) = 99.52935 55.68596 79.51651
#
# Poissons Ratio (x) = 0.00114 0.20932
# Poissons Ratio (y) = 0.00204 0.47660
# Poissons Ratio (z) = 0.26200 0.33376
#
# Static dielectric constant tensor:
#      x y z
#    x 4.277380 0.000000 0.000000 
#    y 0.000000 3.823590 0.000000 
#    z 0.000000 0.000000 4.507610 
# 
# 
# High freq. dielectric constant tensor:
#      x y z
#    x 1.880270 0.000000 0.000000 
#    y 0.000000 1.848600 0.000000 
#    z 0.000000 0.000000 1.868740 
# 
# From -- ./inp_files/7563.got.cif
#   From: 2010.03.12/outbox.cif.g09.slc.cpg/sg20_4_cif.got.tgz:7563.got - 2010.04.14 01:38:04.
