data_PCOD8160193
_publ_section_title
;
Structure prediction by ZEFSAII (Michael W. Deem and Ramdas Pophale) SiO2 
 PCOD8160193
Probable space group: C 2 2 21
;
_chemical_formula_sum "Si O2"
_cell_formula_units_Z 56
_cell_length_a 13.141566
_cell_length_b 12.296945
_cell_length_c 15.118074
_cell_angle_alpha 90.000000
_cell_angle_beta 90.000000
_cell_angle_gamma 90.000000
_cell_volume 2443.097605
_symmetry_space_group_name_H-M "C 2 2 21"
_symmetry_group_IT_number 20
_symmetry_cell_setting 'orthorhombic'
loop_
_space_group_symop_operation_xyz
x,y,z
-x,-y,1/2+z
x,-y,-z
-x,y,1/2-z
1/2+x,1/2+y,z
1/2-x,1/2-y,1/2+z
1/2+x,1/2-y,-z
1/2-x,1/2+y,1/2-z
loop_
_atom_site_type_symbol
_atom_site_label
_atom_site_fract_x
_atom_site_fract_y
_atom_site_fract_z
Si Si1 0.933636 0.195456 0.618436
Si Si2 0.716729 0.595540 0.748104
Si Si3 0.409114 0.650966 0.426887
Si Si4 0.578062 0.149394 0.822114
Si Si5 0.516760 0.937723 0.909301
Si Si6 0.212578 0.455036 0.597043
Si Si7 0.585445 0.481660 0.400315
O O1 0.873382 0.166515 0.707830
O O2 0.887596 0.137023 0.531316
O O3 0.925564 0.324799 0.605963
O O4 0.046913 0.142595 0.618303
O O5 0.802985 0.668105 0.700878
O O6 0.782093 0.544647 0.827197
O O7 0.671961 0.507670 0.675919
O O8 0.444678 0.774537 0.407544
O O9 0.301673 0.630098 0.378950
O O10 0.492711 0.566439 0.388402
O O11 0.500000 0.195855 0.750000
O O12 0.553860 0.022344 0.835582
O O13 0.399137 0.903775 0.899965
O O14 0.541644 0.000000 0.000000
O O15 0.233555 0.500000 0.500000
O O16 0.631170 0.500000 0.500000
#
# Coordination Sequence:
#
# PCOD8160193 Si02
#       7
#     8   8   8   8   8   8   8
#     4  11  23  46  76 100 137 190 244 298 349 435
#     4  12  25  45  72 110 139 188 243 294 362 428
#     4  11  23  46  72 102 140 187 237 300 359 423
#     4  12  28  45  64 104 147 185 236 295 369 433
#     4  11  25  48  71 101 145 194 236 297 364 431
#     4  11  22  43  75 103 141 189 239 285 358 439
#     4  10  24  46  73 105 142 182 239 297 357 415
#
# _framework density 22.921721999999999
#
# number of rings (size 3 to 8) (size 9 to 14) (size 15 to 20)
#    0.000    0.857    5.714    0.857    4.000    2.857 
#    0.000    0.000    0.000    0.000    0.000    0.000 
#    0.000    0.000    0.000    0.000    0.000    0.000 
#
# Total GULP energy -346935.445203 kJ/mol
# GULP energy per Si atom -12390.551614 kJ/mol
# Density = 2.286955 g / cm^3
# Si number density = 22.921722 Si / 1000 Ang^3
#
#
#
# Elastic Constant Matrix: (Units=GPa)
#
#
# Indices 1 2 3 4 5 6 
#
# 1 96.2433 20.2311 48.4689 0.0000 0.0000 0.0000
# 2 20.2311 99.7570 28.2967 0.0000 0.0000 0.0000
# 3 48.4689 28.2967 130.4634 0.0000 0.0000 0.0000
# 4 0.0000 0.0000 0.0000 31.6911 0.0000 0.0000
# 5 0.0000 0.0000 0.0000 0.0000 29.0383 0.0000
# 6 0.0000 0.0000 0.0000 0.0000 0.0000 13.9094
#
#
#
# Elastic Compliance Matrix: (Units=1/GPa)
#
#
# Indices 1 2 3 4 5 6 
#
# 1 0.012949 -0.001344 -0.004519 0.000000 0.000000 0.000000
# 2 -0.001344 0.010821 -0.001848 0.000000 0.000000 0.000000
# 3 -0.004519 -0.001848 0.009745 0.000000 0.000000 0.000000
# 4 0.000000 0.000000 0.000000 0.031555 0.000000 0.000000
# 5 0.000000 0.000000 0.000000 0.000000 0.034437 0.000000
# 6 0.000000 0.000000 0.000000 0.000000 0.000000 0.071894
#
#
# Mechanical properties :
#
#
# Convention : Reuss Voigt Hill
#
# Bulk Modulus (GPa) = 55.27118 57.82856 56.54987
# Shear Modulus (GPa) = 25.92653 30.22557 28.07605
#
# Velocity S-wave (km/s) = 3.36682 3.63525 3.50361
# Velocity P-wave (km/s) = 6.26732 6.55008 6.41026
#
# Compressibility (1/GPa) = 0.01809261
#
# Stress axis : x y z
#
# Youngs Moduli (GPa) = 77.22761 92.41241 102.62071
#
# Poissons Ratio (x) = 0.12422 0.46375
# Poissons Ratio (y) = 0.10381 0.18961
# Poissons Ratio (z) = 0.34900 0.17074
#
# Static dielectric constant tensor:
#      x y z
#    x 4.024260 0.000000 0.000000 
#    y 0.000000 3.812850 0.000000 
#    z 0.000000 0.000000 4.240700 
# 
# 
# High freq. dielectric constant tensor:
#      x y z
#    x 1.896910 0.000000 0.000000 
#    y 0.000000 1.888560 0.000000 
#    z 0.000000 0.000000 1.920560 
# 
# From -- ./inp_files/20718.got.cif
#   From: 2010.03.12/outbox.cif.g09.slc.cpg/sg20_11_cif.got.tgz:20718.got - 2010.04.14 01:38:04.
