data_PCOD8160263
_publ_section_title
;
Structure prediction by ZEFSAII (Michael W. Deem and Ramdas Pophale) SiO2 
 PCOD8160263
Probable space group: C 2 2 21
;
_chemical_formula_sum "Si O2"
_cell_formula_units_Z 28
_cell_length_a 7.912297
_cell_length_b 21.154687
_cell_length_c 7.713774
_cell_angle_alpha 90.000000
_cell_angle_beta 90.000000
_cell_angle_gamma 90.000000
_cell_volume 1291.148204
_symmetry_space_group_name_H-M "C 2 2 21"
_symmetry_group_IT_number 20
_symmetry_cell_setting 'orthorhombic'
loop_
_space_group_symop_operation_xyz
x,y,z
-x,-y,1/2+z
x,-y,-z
-x,y,1/2-z
1/2+x,1/2+y,z
1/2-x,1/2-y,1/2+z
1/2+x,1/2-y,-z
1/2-x,1/2+y,1/2-z
loop_
_atom_site_type_symbol
_atom_site_label
_atom_site_fract_x
_atom_site_fract_y
_atom_site_fract_z
Si Si1 0.943048 0.333079 0.437350
Si Si2 0.500000 0.387721 0.750000
Si Si3 0.933670 0.203869 0.939279
Si Si4 0.155581 0.549146 0.144129
O O1 0.761937 0.303771 0.425322
O O2 0.944155 0.391385 0.566534
O O3 0.000000 0.357072 0.250000
O O4 0.058198 0.277270 0.511003
O O5 0.484138 0.343513 0.580097
O O6 0.671784 0.430373 0.745106
O O7 0.000000 0.187017 0.750000
O O8 0.000000 0.516624 0.250000
O O9 0.219696 0.500000 0.000000
#
# Coordination Sequence:
#
# PCOD8160263 Si02
#       4
#     8   4   8   8
#     4  11  23  40  67 101 141 177 229 284 346 419
#     4  10  26  48  68 102 142 176 238 288 348 420
#     4  11  23  39  67 104 136 183 220 283 359 405
#     4  11  26  47  71 101 137 188 238 288 345 413
#
# _framework density 21.686122999999998
#
# number of rings (size 3 to 8) (size 9 to 14) (size 15 to 20)
#    0.000    1.143    1.429    3.429   12.000    1.143 
#   10.286    0.000    0.000    0.000    0.000    0.000 
#    0.000    0.000    0.000    0.000    0.000    0.000 
#
# Total GULP energy -173539.191317 kJ/mol
# GULP energy per Si atom -12395.656523 kJ/mol
# Density = 2.163676 g / cm^3
# Si number density = 21.686123 Si / 1000 Ang^3
#
#
#
# Elastic Constant Matrix: (Units=GPa)
#
#
# Indices 1 2 3 4 5 6 
#
# 1 80.9075 29.5746 35.6725 0.0000 0.0000 0.0000
# 2 29.5746 70.1641 14.5933 0.0000 0.0000 0.0000
# 3 35.6725 14.5933 119.5446 0.0000 0.0000 0.0000
# 4 0.0000 0.0000 0.0000 20.4485 0.0000 0.0000
# 5 0.0000 0.0000 0.0000 0.0000 45.1059 0.0000
# 6 0.0000 0.0000 0.0000 0.0000 0.0000 -2.9210
#
#
#
# Elastic Compliance Matrix: (Units=1/GPa)
#
#
# Indices 1 2 3 4 5 6 
#
# 1 0.016404 -0.006050 -0.004156 0.000000 0.000000 0.000000
# 2 -0.006050 0.016855 -0.000252 0.000000 0.000000 0.000000
# 3 -0.004156 -0.000252 0.009636 0.000000 0.000000 0.000000
# 4 0.000000 0.000000 0.000000 0.048903 0.000000 0.000000
# 5 0.000000 0.000000 0.000000 0.000000 0.022170 0.000000
# 6 0.000000 0.000000 0.000000 0.000000 0.000000 -0.342352
#
#
# Mechanical properties :
#
#
# Convention : Reuss Voigt Hill
#
# Bulk Modulus (GPa) = 45.50047 47.81077 46.65562
# Shear Modulus (GPa) = -24.98237 25.24507 0.13135
#
# Velocity S-wave (km/s) = -3.39779 3.41561 0.24638
# Velocity P-wave (km/s) = 2.37352 6.13594 4.65206
#
# Compressibility (1/GPa) = 0.02197780
#
# Stress axis : x y z
#
# Youngs Moduli (GPa) = 60.96150 59.33027 103.77581
#
# Poissons Ratio (x) = 0.35894 0.43134
# Poissons Ratio (y) = 0.36881 0.02618
# Poissons Ratio (z) = 0.25338 0.01497
#
# Static dielectric constant tensor:
#      x y z
#    x 4.054960 0.000000 0.000000 
#    y 0.000000 4.142510 0.000000 
#    z 0.000000 0.000000 5.040130 
# 
# 
# High freq. dielectric constant tensor:
#      x y z
#    x 1.868580 0.000000 0.000000 
#    y 0.000000 1.849870 0.000000 
#    z 0.000000 0.000000 1.861360 
# 
# From -- ./inp_files/5645.got.cif
#   From: 2010.03.12/outbox.cif.g09.slc.cpg/sg20_3_cif.got.tgz:5645.got - 2010.04.14 01:38:04.
