data_PCOD8160209
_publ_section_title
;
Structure prediction by ZEFSAII (Michael W. Deem and Ramdas Pophale) SiO2 
 PCOD8160209
Probable space group: C 2 2 21
;
_chemical_formula_sum "Si O2"
_cell_formula_units_Z 32
_cell_length_a 8.986470
_cell_length_b 13.309373
_cell_length_c 10.920687
_cell_angle_alpha 90.000000
_cell_angle_beta 90.000000
_cell_angle_gamma 90.000000
_cell_volume 1306.160919
_symmetry_space_group_name_H-M "C 2 2 21"
_symmetry_group_IT_number 20
_symmetry_cell_setting 'orthorhombic'
loop_
_space_group_symop_operation_xyz
x,y,z
-x,-y,1/2+z
x,-y,-z
-x,y,1/2-z
1/2+x,1/2+y,z
1/2-x,1/2-y,1/2+z
1/2+x,1/2-y,-z
1/2-x,1/2+y,1/2-z
loop_
_atom_site_type_symbol
_atom_site_label
_atom_site_fract_x
_atom_site_fract_y
_atom_site_fract_z
Si Si1 0.500000 0.367903 0.750000
Si Si2 0.707510 0.000000 0.000000
Si Si3 0.317558 0.788270 0.095115
Si Si4 0.659997 0.562021 0.738552
Si Si5 0.965979 0.331315 0.610214
O O1 0.570112 0.296710 0.646700
O O2 0.634409 0.446113 0.789094
O O3 0.807658 0.933462 0.092005
O O4 0.603950 0.059413 0.094037
O O5 0.292741 0.881251 0.189733
O O6 0.156144 0.746896 0.061472
O O7 0.384283 0.826414 0.968362
O O8 0.500000 0.619943 0.750000
O O9 0.000000 0.311540 0.750000
#
# Coordination Sequence:
#
# PCOD8160209 Si02
#       5
#     4   4   8   8   8
#     4  10  24  48  82 118 156 206 262 328 398 480
#     4  12  26  52  76 118 158 204 270 340 390 492
#     4  12  27  51  82 111 163 211 261 335 410 476
#     4  10  25  49  82 116 158 207 265 324 409 479
#     4  12  31  49  77 117 157 204 274 334 401 490
#
# _framework density 24.499279000000001
#
# number of rings (size 3 to 8) (size 9 to 14) (size 15 to 20)
#    0.750    0.000    2.500    2.250   14.000    0.000 
#    4.500    0.000    0.000    0.000    0.000    0.000 
#    0.000    0.000    0.000    0.000    0.000    0.000 
#
# Total GULP energy -198254.116078 kJ/mol
# GULP energy per Si atom -12390.882255 kJ/mol
# Density = 2.444352 g / cm^3
# Si number density = 24.499279 Si / 1000 Ang^3
#
#
#
# Elastic Constant Matrix: (Units=GPa)
#
#
# Indices 1 2 3 4 5 6 
#
# 1 120.4862 37.6347 84.4668 0.0000 0.0000 0.0000
# 2 37.6347 106.3590 46.1556 0.0000 0.0000 0.0000
# 3 84.4668 46.1556 163.9533 0.0000 0.0000 0.0000
# 4 0.0000 0.0000 0.0000 15.2751 0.0000 0.0000
# 5 0.0000 0.0000 0.0000 0.0000 49.1286 0.0000
# 6 0.0000 0.0000 0.0000 0.0000 0.0000 37.8711
#
#
#
# Elastic Compliance Matrix: (Units=1/GPa)
#
#
# Indices 1 2 3 4 5 6 
#
# 1 0.013349 -0.001981 -0.006319 0.000000 0.000000 0.000000
# 2 -0.001981 0.011005 -0.002077 0.000000 0.000000 0.000000
# 3 -0.006319 -0.002077 0.009940 0.000000 0.000000 0.000000
# 4 0.000000 0.000000 0.000000 0.065466 0.000000 0.000000
# 5 0.000000 0.000000 0.000000 0.000000 0.020355 0.000000
# 6 0.000000 0.000000 0.000000 0.000000 0.000000 0.026405
#
#
# Mechanical properties :
#
#
# Convention : Reuss Voigt Hill
#
# Bulk Modulus (GPa) = 73.86893 80.81253 77.34073
# Shear Modulus (GPa) = 29.10572 35.29103 32.19838
#
# Velocity S-wave (km/s) = 3.45051 3.79950 3.62920
# Velocity P-wave (km/s) = 6.78908 7.23226 7.01417
#
# Compressibility (1/GPa) = 0.01353749
#
# Stress axis : x y z
#
# Youngs Moduli (GPa) = 74.91358 90.87112 100.60558
#
# Poissons Ratio (x) = 0.18002 0.63577
# Poissons Ratio (y) = 0.14841 0.20900
# Poissons Ratio (z) = 0.47341 0.18877
#
# Static dielectric constant tensor:
#      x y z
#    x 4.531870 0.000000 0.000000 
#    y 0.000000 4.600350 0.000000 
#    z 0.000000 0.000000 4.076890 
# 
# 
# High freq. dielectric constant tensor:
#      x y z
#    x 1.978420 0.000000 0.000000 
#    y 0.000000 1.982700 0.000000 
#    z 0.000000 0.000000 1.958880 
# 
# From -- ./inp_files/12513.got.cif
#   From: 2010.03.12/outbox.cif.g09.slc.cpg/sg20_7_cif.got.tgz:12513.got - 2010.04.14 01:38:04.
