data_PCOD8160863
_publ_section_title
;
Structure prediction by ZEFSAII (Michael W. Deem and Ramdas Pophale) SiO2 
 PCOD8160863
Probable space group: C 2 2 2
;
_chemical_formula_sum "Si O2"
_cell_formula_units_Z 56
_cell_length_a 14.661320
_cell_length_b 8.444219
_cell_length_c 23.800584
_cell_angle_alpha 90.000000
_cell_angle_beta 90.000000
_cell_angle_gamma 90.000000
_cell_volume 2946.593148
_symmetry_space_group_name_H-M "C 2 2 2"
_symmetry_group_IT_number 21
_symmetry_cell_setting 'orthorhombic'
loop_
_space_group_symop_operation_xyz
x,y,z
-x,-y,z
x,-y,-z
-x,y,-z
1/2+x,1/2+y,z
1/2-x,1/2-y,z
1/2+x,1/2-y,-z
1/2-x,1/2+y,-z
loop_
_atom_site_type_symbol
_atom_site_label
_atom_site_fract_x
_atom_site_fract_y
_atom_site_fract_z
Si Si1 0.097489 0.064967 0.441398
Si Si2 0.250626 0.562771 0.232817
Si Si3 0.745370 0.438787 0.359458
Si Si4 0.166733 0.377484 0.449777
Si Si5 0.897247 0.562165 0.854477
Si Si6 0.397287 0.562869 0.144684
Si Si7 0.249517 0.562902 0.937504
O O1 0.082725 0.256128 0.444518
O O2 0.140823 0.000000 0.500000
O O3 0.155279 0.004397 0.389020
O O4 0.000000 0.000000 0.430383
O O5 0.250000 0.750000 0.235096
O O6 0.252061 0.495557 0.295920
O O7 0.158864 0.505098 0.200861
O O8 0.341638 0.505200 0.200062
O O9 0.750000 0.250000 0.362790
O O10 0.828842 0.518456 0.393081
O O11 0.156306 0.500000 0.500000
O O12 0.250000 0.250000 0.457244
O O13 0.899768 0.749589 0.858906
O O14 0.843130 0.497190 0.908203
O O15 0.000000 0.500000 0.851862
O O16 0.500000 0.500000 0.146516
O O17 0.342417 0.499377 0.090980
O O18 0.250000 0.750000 0.936473
O O19 0.248331 0.500000 0.000000
#
# Coordination Sequence:
#
# PCOD8160863 Si02
#       7
#     8   8   8   8   8   8   8
#     4  10  21  36  51  75 108 138 172 224 276 324
#     4   8  18  35  55  79 111 146 186 230 274 323
#     4  10  18  34  56  78 104 141 182 221 266 324
#     4  10  18  32  55  79 102 137 179 218 267 329
#     4  10  20  38  59  83 115 149 184 229 277 327
#     4  10  20  37  58  83 112 150 190 229 275 325
#     4  11  22  38  59  86 115 148 186 230 276 327
#
# _framework density 19.004998000000001
#
# number of rings (size 3 to 8) (size 9 to 14) (size 15 to 20)
#    0.000    2.143    0.000    6.000    0.000    1.143 
#    0.000   25.000    0.000    0.000    0.000    0.000 
#    0.000    0.000    0.000    0.000    0.000    0.000 
#
# Total GULP energy -346984.395046 kJ/mol
# GULP energy per Si atom -12392.299823 kJ/mol
# Density = 1.896174 g / cm^3
# Si number density = 19.004998 Si / 1000 Ang^3
#
#
#
# Elastic Constant Matrix: (Units=GPa)
#
#
# Indices 1 2 3 4 5 6 
#
# 1 146.3335 54.1564 79.1200 0.0000 0.0000 0.0000
# 2 54.1564 134.9454 65.3328 0.0000 0.0000 0.0000
# 3 79.1200 65.3328 196.5530 0.0000 0.0000 0.0000
# 4 0.0000 0.0000 0.0000 27.9783 0.0000 0.0000
# 5 0.0000 0.0000 0.0000 0.0000 12.4896 0.0000
# 6 0.0000 0.0000 0.0000 0.0000 0.0000 30.4349
#
#
#
# Elastic Compliance Matrix: (Units=1/GPa)
#
#
# Indices 1 2 3 4 5 6 
#
# 1 0.009291 -0.002286 -0.002980 0.000000 0.000000 0.000000
# 2 -0.002286 0.009394 -0.002202 0.000000 0.000000 0.000000
# 3 -0.002980 -0.002202 0.007019 0.000000 0.000000 0.000000
# 4 0.000000 0.000000 0.000000 0.035742 0.000000 0.000000
# 5 0.000000 0.000000 0.000000 0.000000 0.080067 0.000000
# 6 0.000000 0.000000 0.000000 0.000000 0.000000 0.032857
#
#
# Mechanical properties :
#
#
# Convention : Reuss Voigt Hill
#
# Bulk Modulus (GPa) = 92.87106 97.22779 95.04943
# Shear Modulus (GPa) = 25.92068 32.79541 29.35805
#
# Velocity S-wave (km/s) = 3.69709 4.15857 3.93460
# Velocity P-wave (km/s) = 8.19740 8.62139 8.41207
#
# Compressibility (1/GPa) = 0.01076762
#
# Stress axis : x y z
#
# Youngs Moduli (GPa) = 107.63105 106.45077 142.46285
#
# Poissons Ratio (x) = 0.24333 0.42457
# Poissons Ratio (y) = 0.24603 0.31376
# Poissons Ratio (z) = 0.32076 0.23444
#
# Static dielectric constant tensor:
#      x y z
#    x 3.546720 0.000000 0.000000 
#    y 0.000000 4.127560 0.000000 
#    z 0.000000 0.000000 3.760000 
# 
# 
# High freq. dielectric constant tensor:
#      x y z
#    x 1.731300 0.000000 0.000000 
#    y 0.000000 1.751870 0.000000 
#    z 0.000000 0.000000 1.740780 
# 
# From -- ./inp_files/37584.got.cif
#   From: 2010.03.12/outbox.cif.g09.slc.cpg/sg21_19_cif.got.tgz:37584.got - 2010.04.14 01:59:26.
