data_PCOD8160359
_publ_section_title
;
Structure prediction by ZEFSAII (Michael W. Deem and Ramdas Pophale) SiO2 
 PCOD8160359
Probable space group: C 2 2 21
;
_chemical_formula_sum "Si O2"
_cell_formula_units_Z 48
_cell_length_a 16.721103
_cell_length_b 9.538499
_cell_length_c 14.573022
_cell_angle_alpha 90.000000
_cell_angle_beta 90.000000
_cell_angle_gamma 90.000000
_cell_volume 2324.312839
_symmetry_space_group_name_H-M "C 2 2 21"
_symmetry_group_IT_number 20
_symmetry_cell_setting 'orthorhombic'
loop_
_space_group_symop_operation_xyz
x,y,z
-x,-y,1/2+z
x,-y,-z
-x,y,1/2-z
1/2+x,1/2+y,z
1/2-x,1/2-y,1/2+z
1/2+x,1/2-y,-z
1/2-x,1/2+y,1/2-z
loop_
_atom_site_type_symbol
_atom_site_label
_atom_site_fract_x
_atom_site_fract_y
_atom_site_fract_z
Si Si1 0.680566 0.841025 0.254617
Si Si2 0.405355 0.878633 0.747348
Si Si3 0.422796 0.589468 0.306569
Si Si4 0.204768 0.000000 0.500000
Si Si5 0.615421 0.500000 0.000000
Si Si6 0.297245 0.758701 0.590693
Si Si7 0.842423 0.882765 0.175381
O O1 0.641605 0.711748 0.201391
O O2 0.722403 0.788383 0.347097
O O3 0.747700 0.905765 0.188510
O O4 0.615689 0.961778 0.273424
O O5 0.500000 0.860936 0.750000
O O6 0.368336 0.830731 0.649693
O O7 0.367312 0.780353 0.827062
O O8 0.500000 0.638858 0.250000
O O9 0.438850 0.555401 0.414332
O O10 0.390174 0.447604 0.260821
O O11 0.262272 0.868820 0.518759
O O12 0.141486 0.961673 0.419636
O O13 0.671135 0.625893 0.965398
#
# Coordination Sequence:
#
# PCOD8160359 Si02
#       7
#     8   8   8   4   4   8   8
#     4  11  21  45  68  97 133 180 225 281 335 407
#     4  11  23  43  67  97 140 179 219 281 348 402
#     4  12  25  45  68 101 140 177 224 284 348 400
#     4  12  22  43  70  99 134 176 238 282 328 403
#     4  12  26  43  74  99 138 182 234 278 346 415
#     4  11  25  41  71 102 128 183 231 280 339 405
#     4  11  22  41  70  95 130 178 229 275 332 400
#
# _framework density 20.651266
#
# number of rings (size 3 to 8) (size 9 to 14) (size 15 to 20)
#    0.000    0.667    6.667    3.000    2.333    0.667 
#    0.000    0.000    0.000    0.000    0.000    0.000 
#    0.000    0.000    0.000    0.000    0.000    0.000 
#
# Total GULP energy -297587.507939 kJ/mol
# GULP energy per Si atom -12399.479497 kJ/mol
# Density = 2.060426 g / cm^3
# Si number density = 20.651266 Si / 1000 Ang^3
#
#
#
# Elastic Constant Matrix: (Units=GPa)
#
#
# Indices 1 2 3 4 5 6 
#
# 1 84.5643 13.8623 33.0132 0.0000 0.0000 0.0000
# 2 13.8623 100.4511 34.8374 0.0000 0.0000 0.0000
# 3 33.0132 34.8374 139.0525 0.0000 0.0000 0.0000
# 4 0.0000 0.0000 0.0000 35.1768 0.0000 0.0000
# 5 0.0000 0.0000 0.0000 0.0000 17.0457 0.0000
# 6 0.0000 0.0000 0.0000 0.0000 0.0000 -2.8897
#
#
#
# Elastic Compliance Matrix: (Units=1/GPa)
#
#
# Indices 1 2 3 4 5 6 
#
# 1 0.013091 -0.000798 -0.002908 0.000000 0.000000 0.000000
# 2 -0.000798 0.010951 -0.002554 0.000000 0.000000 0.000000
# 3 -0.002908 -0.002554 0.008522 0.000000 0.000000 0.000000
# 4 0.000000 0.000000 0.000000 0.028428 0.000000 0.000000
# 5 0.000000 0.000000 0.000000 0.000000 0.058666 0.000000
# 6 0.000000 0.000000 0.000000 0.000000 0.000000 -0.346054
#
#
# Mechanical properties :
#
#
# Convention : Reuss Voigt Hill
#
# Bulk Modulus (GPa) = 49.89113 54.16595 52.02854
# Shear Modulus (GPa) = -24.13196 26.02354 0.94579
#
# Velocity S-wave (km/s) = -3.42211 3.55370 0.67748
# Velocity P-wave (km/s) = 2.93204 6.56690 5.08533
#
# Compressibility (1/GPa) = 0.02004364
#
# Stress axis : x y z
#
# Youngs Moduli (GPa) = 76.38562 91.31565 117.34511
#
# Poissons Ratio (x) = 0.07287 0.34126
# Poissons Ratio (y) = 0.06096 0.29972
# Poissons Ratio (z) = 0.22214 0.23323
#
# Static dielectric constant tensor:
#      x y z
#    x 3.603450 0.000000 0.000000 
#    y 0.000000 3.868800 0.000000 
#    z 0.000000 0.000000 4.308020 
# 
# 
# High freq. dielectric constant tensor:
#      x y z
#    x 1.793880 0.000000 0.000000 
#    y 0.000000 1.828950 0.000000 
#    z 0.000000 0.000000 1.803980 
# 
# From -- ./inp_files/21340.got.cif
#   From: 2010.03.12/outbox.cif.g09.slc.cpg/sg20_11_cif.got.tgz:21340.got - 2010.04.14 01:38:04.
