data_PCOD8160472
_publ_section_title
;
Structure prediction by ZEFSAII (Michael W. Deem and Ramdas Pophale) SiO2 
 PCOD8160472
Probable space group: C 2 2 21
;
_chemical_formula_sum "Si O2"
_cell_formula_units_Z 56
_cell_length_a 9.014879
_cell_length_b 18.429844
_cell_length_c 14.409704
_cell_angle_alpha 90.000000
_cell_angle_beta 90.000000
_cell_angle_gamma 90.000000
_cell_volume 2394.068766
_symmetry_space_group_name_H-M "C 2 2 21"
_symmetry_group_IT_number 20
_symmetry_cell_setting 'orthorhombic'
loop_
_space_group_symop_operation_xyz
x,y,z
-x,-y,1/2+z
x,-y,-z
-x,y,1/2-z
1/2+x,1/2+y,z
1/2-x,1/2-y,1/2+z
1/2+x,1/2-y,-z
1/2-x,1/2+y,1/2-z
loop_
_atom_site_type_symbol
_atom_site_label
_atom_site_fract_x
_atom_site_fract_y
_atom_site_fract_z
Si Si1 0.786710 0.912390 0.178020
Si Si2 0.538971 0.810578 0.106143
Si Si3 0.296167 0.686599 0.657579
Si Si4 0.168176 0.437534 0.772910
Si Si5 0.606367 0.352659 0.834339
Si Si6 0.314841 0.171953 0.424310
Si Si7 0.026883 0.869161 0.482746
O O1 0.635121 0.877727 0.142439
O O2 0.856855 0.855964 0.252828
O O3 0.899790 0.924847 0.091157
O O4 0.761008 0.988188 0.228881
O O5 0.376011 0.831018 0.140617
O O6 0.602646 0.733955 0.145087
O O7 0.548534 0.812358 0.993897
O O8 0.312764 0.773861 0.665027
O O9 0.392104 0.671147 0.566507
O O10 0.231944 0.382441 0.694728
O O11 0.177076 0.407180 0.878379
O O12 0.000000 0.454769 0.750000
O O13 0.500000 0.372223 0.750000
O O14 0.547429 0.399978 0.922848
O O15 0.160309 0.184108 0.481828
#
# Coordination Sequence:
#
# PCOD8160472 Si02
#       7
#     8   8   8   8   8   8   8
#     4  11  27  48  68 104 150 196 242 304 374 440
#     4  11  23  42  77 101 149 189 240 319 364 431
#     4  12  21  44  73 108 138 187 251 299 368 439
#     4  12  28  47  72 105 150 202 251 301 372 450
#     4  12  23  47  74 107 145 192 245 306 378 428
#     4  11  23  44  69 107 145 190 242 310 363 436
#     4  11  25  44  72 107 141 188 239 301 371 430
#
# _framework density 23.39114
#
# number of rings (size 3 to 8) (size 9 to 14) (size 15 to 20)
#    0.000    0.571    4.286    3.429    2.000    6.857 
#    2.571    0.000    0.000    0.000    0.000    0.000 
#    0.000    0.000    0.000    0.000    0.000    0.000 
#
# Total GULP energy -346997.104126 kJ/mol
# GULP energy per Si atom -12392.753719 kJ/mol
# Density = 2.333790 g / cm^3
# Si number density = 23.391140 Si / 1000 Ang^3
#
#
#
# Elastic Constant Matrix: (Units=GPa)
#
#
# Indices 1 2 3 4 5 6 
#
# 1 75.2602 26.2610 27.2828 0.0000 0.0000 0.0000
# 2 26.2610 93.9863 40.2794 0.0000 0.0000 0.0000
# 3 27.2828 40.2794 145.6963 0.0000 0.0000 0.0000
# 4 0.0000 0.0000 0.0000 26.7845 0.0000 0.0000
# 5 0.0000 0.0000 0.0000 0.0000 38.6656 0.0000
# 6 0.0000 0.0000 0.0000 0.0000 0.0000 20.2532
#
#
#
# Elastic Compliance Matrix: (Units=1/GPa)
#
#
# Indices 1 2 3 4 5 6 
#
# 1 0.015169 -0.003427 -0.001893 0.000000 0.000000 0.000000
# 2 -0.003427 0.012844 -0.002909 0.000000 0.000000 0.000000
# 3 -0.001893 -0.002909 0.008022 0.000000 0.000000 0.000000
# 4 0.000000 0.000000 0.000000 0.037335 0.000000 0.000000
# 5 0.000000 0.000000 0.000000 0.000000 0.025863 0.000000
# 6 0.000000 0.000000 0.000000 0.000000 0.000000 0.049375
#
#
# Mechanical properties :
#
#
# Convention : Reuss Voigt Hill
#
# Bulk Modulus (GPa) = 51.08026 55.84325 53.46175
# Shear Modulus (GPa) = 29.13866 31.88197 30.51031
#
# Velocity S-wave (km/s) = 3.53330 3.69588 3.61550
# Velocity P-wave (km/s) = 6.20729 6.49139 6.35093
#
# Compressibility (1/GPa) = 0.01957703
#
# Stress axis : x y z
#
# Youngs Moduli (GPa) = 65.92229 77.85605 124.65154
#
# Poissons Ratio (x) = 0.26683 0.23598
# Poissons Ratio (y) = 0.22593 0.36263
# Poissons Ratio (z) = 0.12480 0.22650
#
# Static dielectric constant tensor:
#      x y z
#    x 4.305330 0.000000 0.000000 
#    y 0.000000 3.840210 0.000000 
#    z 0.000000 0.000000 4.587600 
# 
# 
# High freq. dielectric constant tensor:
#      x y z
#    x 1.931640 0.000000 0.000000 
#    y 0.000000 1.895910 0.000000 
#    z 0.000000 0.000000 1.940990 
# 
# From -- ./inp_files/19224.got.cif
#   From: 2010.03.12/outbox.cif.g09.slc.cpg/sg20_10_cif.got.tgz:19224.got - 2010.04.14 01:38:04.
