data_PCOD8160757
_publ_section_title
;
Structure prediction by ZEFSAII (Michael W. Deem and Ramdas Pophale) SiO2 
 PCOD8160757
Probable space group: C 2 2 21
;
_chemical_formula_sum "Si O2"
_cell_formula_units_Z 64
_cell_length_a 18.486527
_cell_length_b 26.663132
_cell_length_c 9.095294
_cell_angle_alpha 90.000000
_cell_angle_beta 90.000000
_cell_angle_gamma 90.000000
_cell_volume 4483.149629
_symmetry_space_group_name_H-M "C 2 2 21"
_symmetry_group_IT_number 20
_symmetry_cell_setting 'orthorhombic'
loop_
_space_group_symop_operation_xyz
x,y,z
-x,-y,1/2+z
x,-y,-z
-x,y,1/2-z
1/2+x,1/2+y,z
1/2-x,1/2-y,1/2+z
1/2+x,1/2-y,-z
1/2-x,1/2+y,1/2-z
loop_
_atom_site_type_symbol
_atom_site_label
_atom_site_fract_x
_atom_site_fract_y
_atom_site_fract_z
Si Si1 0.216833 0.201943 0.077206
Si Si2 0.582616 0.949874 0.077400
Si Si3 0.579401 0.755519 0.422096
Si Si4 0.417384 0.949874 0.077401
Si Si5 0.167289 0.351783 0.424193
Si Si6 0.783166 0.201943 0.077210
Si Si7 0.579400 0.244481 0.922098
Si Si8 0.167289 0.648217 0.924195
O O1 0.233746 0.202591 0.249998
O O2 0.130126 0.206578 0.047647
O O3 0.253753 0.153190 0.002432
O O4 0.249999 0.250000 0.999996
O O5 0.500000 0.938593 0.030729
O O6 0.588757 0.957879 0.250000
O O7 0.631924 0.903793 0.024715
O O8 0.611694 0.000000 0.000000
O O9 0.615982 0.806678 0.482185
O O10 0.630128 0.706578 0.452351
O O11 0.500001 0.747530 0.494980
O O12 0.569771 0.763251 0.250000
O O13 0.368075 0.903794 0.024716
O O14 0.388305 0.000000 0.000000
O O15 0.178484 0.349365 0.249999
O O16 0.746246 0.153190 0.002436
O O17 0.615981 0.193322 0.982187
#
# Coordination Sequence:
#
# PCOD8160757 Si02
#       8
#     8   8   8   8   8   8   8   8
#     4   9  16  25  38  55  75  99 126 157 189 222
#     4   9  17  28  41  57  77 102 132 164 195 225
#     4   8  13  22  37  55  73  96 127 156 180 214
#     4   9  17  28  41  57  77 102 132 164 195 225
#     4   9  16  26  40  55  74 102 131 157 187 224
#     4   9  16  25  38  55  75  99 126 157 189 222
#     4   8  13  22  37  55  73  96 127 156 180 214
#     4   9  16  26  40  55  74 102 131 157 187 224
#
# _framework density 14.275677
#
# number of rings (size 3 to 8) (size 9 to 14) (size 15 to 20)
#    0.000    3.250    0.000    3.000    0.000    4.000 
#    0.000    0.000    0.000   24.750    0.000    0.000 
#    0.000    1.000    0.000    2.250    0.000    3.500 
#
# Total GULP energy -396444.232369 kJ/mol
# GULP energy per Si atom -12388.882262 kJ/mol
# Density = 1.424319 g / cm^3
# Si number density = 14.275677 Si / 1000 Ang^3
#
#
#
# Elastic Constant Matrix: (Units=GPa)
#
#
# Indices 1 2 3 4 5 6 
#
# 1 108.2810 63.5257 29.6164 0.0000 0.0000 0.0000
# 2 63.5257 95.1214 28.6757 0.0000 0.0000 0.0000
# 3 29.6164 28.6757 34.5631 0.0000 0.0000 0.0000
# 4 0.0000 0.0000 0.0000 22.0947 0.0000 0.0000
# 5 0.0000 0.0000 0.0000 0.0000 18.4650 0.0000
# 6 0.0000 0.0000 0.0000 0.0000 0.0000 26.8253
#
#
#
# Elastic Compliance Matrix: (Units=1/GPa)
#
#
# Indices 1 2 3 4 5 6 
#
# 1 0.016226 -0.008861 -0.006552 0.000000 0.000000 0.000000
# 2 -0.008861 0.018858 -0.008053 0.000000 0.000000 0.000000
# 3 -0.006552 -0.008053 0.041228 0.000000 0.000000 0.000000
# 4 0.000000 0.000000 0.000000 0.045260 0.000000 0.000000
# 5 0.000000 0.000000 0.000000 0.000000 0.054156 0.000000
# 6 0.000000 0.000000 0.000000 0.000000 0.000000 0.037278
#
#
# Mechanical properties :
#
#
# Convention : Reuss Voigt Hill
#
# Bulk Modulus (GPa) = 34.03669 53.51125 43.77397
# Shear Modulus (GPa) = 18.53688 21.22018 19.87853
#
# Velocity S-wave (km/s) = 3.60737 3.85964 3.73564
# Velocity P-wave (km/s) = 6.42223 7.57813 7.02400
#
# Compressibility (1/GPa) = 0.02938006
#
# Stress axis : x y z
#
# Youngs Moduli (GPa) = 61.63014 53.02671 24.25526
#
# Poissons Ratio (x) = 0.46987 0.15892
# Poissons Ratio (y) = 0.54611 0.19533
# Poissons Ratio (z) = 0.40379 0.42704
#
# Static dielectric constant tensor:
#      x y z
#    x 3.284360 0.000000 0.000000 
#    y 0.000000 2.792200 0.000000 
#    z 0.000000 0.000000 2.729860 
# 
# 
# High freq. dielectric constant tensor:
#      x y z
#    x 1.538910 0.000000 0.000000 
#    y 0.000000 1.512860 0.000000 
#    z 0.000000 0.000000 1.531760 
# 
# From -- ./inp_files/10411.got.cif
#   From: 2010.03.12/outbox.cif.g09.slc.cpg/sg20_6_cif.got.tgz:10411.got - 2010.04.14 01:38:04.
