data_PCOD8160860
_publ_section_title
;
Structure prediction by ZEFSAII (Michael W. Deem and Ramdas Pophale) SiO2 
 PCOD8160860
Probable space group: C 2 2 2
;
_chemical_formula_sum "Si O2"
_cell_formula_units_Z 48
_cell_length_a 8.231536
_cell_length_b 32.025458
_cell_length_c 9.104520
_cell_angle_alpha 90.000000
_cell_angle_beta 90.000000
_cell_angle_gamma 90.000000
_cell_volume 2400.121822
_symmetry_space_group_name_H-M "C 2 2 2"
_symmetry_group_IT_number 21
_symmetry_cell_setting 'orthorhombic'
loop_
_space_group_symop_operation_xyz
x,y,z
-x,-y,z
x,-y,-z
-x,y,-z
1/2+x,1/2+y,z
1/2-x,1/2-y,z
1/2+x,1/2-y,-z
1/2-x,1/2+y,-z
loop_
_atom_site_type_symbol
_atom_site_label
_atom_site_fract_x
_atom_site_fract_y
_atom_site_fract_z
Si Si1 0.750000 0.750000 0.800114
Si Si2 0.181859 0.997112 0.325968
Si Si3 0.157685 0.418824 0.300700
Si Si4 0.787853 0.408969 0.367361
Si Si5 0.000000 0.291435 0.000000
Si Si6 0.272668 0.346332 0.108292
Si Si7 0.612511 0.665490 0.778948
O O1 0.900637 0.740052 0.902011
O O2 0.694188 0.708244 0.712902
O O3 0.240969 0.951219 0.281986
O O4 0.182747 0.000000 0.500000
O O5 0.305374 0.032452 0.261454
O O6 0.000000 0.000000 0.261486
O O7 0.240736 0.411169 0.458169
O O8 0.235674 0.392415 0.168920
O O9 0.973213 0.403440 0.317918
O O10 0.667905 0.371609 0.325476
O O11 0.890189 0.318471 0.886649
O O12 0.417790 0.328463 0.211214
O O13 0.321628 0.347202 0.938596
#
# Coordination Sequence:
#
# PCOD8160860 Si02
#       7
#     4   8   8   8   4   8   8
#     4  10  18  32  54  76 102 134 172 214 258 310
#     4   9  17  30  50  76 104 137 175 211 252 308
#     4  10  19  33  55  78 106 140 173 212 259 310
#     4  10  20  34  53  79 107 137 175 216 259 309
#     4  10  18  32  54  80 105 132 175 218 258 314
#     4  10  20  34  54  79 105 136 172 214 263 310
#     4  10  21  35  54  78 105 135 174 218 261 311
#
# _framework density 19.998985999999999
#
# number of rings (size 3 to 8) (size 9 to 14) (size 15 to 20)
#    0.000    2.167    0.000    5.500    0.000    4.000 
#    0.000    0.833    0.000   17.000    0.000    0.000 
#    0.000    0.000    0.000    0.000    0.000    0.000 
#
# Total GULP energy -297347.831945 kJ/mol
# GULP energy per Si atom -12389.492998 kJ/mol
# Density = 1.995347 g / cm^3
# Si number density = 19.998986 Si / 1000 Ang^3
#
#
#
# Elastic Constant Matrix: (Units=GPa)
#
#
# Indices 1 2 3 4 5 6 
#
# 1 101.0958 42.2804 15.0097 0.0000 0.0000 0.0000
# 2 42.2804 147.0625 30.9344 0.0000 0.0000 0.0000
# 3 15.0097 30.9344 29.1906 0.0000 0.0000 0.0000
# 4 0.0000 0.0000 0.0000 37.5189 0.0000 0.0000
# 5 0.0000 0.0000 0.0000 0.0000 19.5733 0.0000
# 6 0.0000 0.0000 0.0000 0.0000 0.0000 40.9484
#
#
#
# Elastic Compliance Matrix: (Units=1/GPa)
#
#
# Indices 1 2 3 4 5 6 
#
# 1 0.011456 -0.002644 -0.003089 0.000000 0.000000 0.000000
# 2 -0.002644 0.009361 -0.008560 0.000000 0.000000 0.000000
# 3 -0.003089 -0.008560 0.044918 0.000000 0.000000 0.000000
# 4 0.000000 0.000000 0.000000 0.026653 0.000000 0.000000
# 5 0.000000 0.000000 0.000000 0.000000 0.051090 0.000000
# 6 0.000000 0.000000 0.000000 0.000000 0.000000 0.024421
#
#
# Mechanical properties :
#
#
# Convention : Reuss Voigt Hill
#
# Bulk Modulus (GPa) = 26.91926 50.42200 38.67063
# Shear Modulus (GPa) = 23.93867 32.21641 28.07754
#
# Velocity S-wave (km/s) = 3.46351 4.01796 3.75099
# Velocity P-wave (km/s) = 5.42993 6.84049 6.17561
#
# Compressibility (1/GPa) = 0.03714813
#
# Stress axis : x y z
#
# Youngs Moduli (GPa) = 87.29116 106.83089 22.26299
#
# Poissons Ratio (x) = 0.28244 0.06877
# Poissons Ratio (y) = 0.23078 0.19058
# Poissons Ratio (z) = 0.26963 0.91451
#
# Static dielectric constant tensor:
#      x y z
#    x 3.731600 0.000000 0.000000 
#    y 0.000000 3.891950 0.000000 
#    z 0.000000 0.000000 3.152330 
# 
# 
# High freq. dielectric constant tensor:
#      x y z
#    x 1.800040 0.000000 0.000000 
#    y 0.000000 1.791950 0.000000 
#    z 0.000000 0.000000 1.723870 
# 
# From -- ./inp_files/11596.got.cif
#   From: 2010.03.12/outbox.cif.g09.slc.cpg/sg21_6_cif.got.tgz:11596.got - 2010.04.14 01:59:26.
