data_PCOD8160023
_publ_section_title
;
Structure prediction by ZEFSAII (Michael W. Deem and Ramdas Pophale) SiO2 
 PCOD8160023
Probable space group: C 2 2 21
;
_chemical_formula_sum "Si O2"
_cell_formula_units_Z 40
_cell_length_a 26.249610
_cell_length_b 7.225018
_cell_length_c 9.523959
_cell_angle_alpha 90.000000
_cell_angle_beta 90.000000
_cell_angle_gamma 90.000000
_cell_volume 1806.256013
_symmetry_space_group_name_H-M "C 2 2 21"
_symmetry_group_IT_number 20
_symmetry_cell_setting 'orthorhombic'
loop_
_space_group_symop_operation_xyz
x,y,z
-x,-y,1/2+z
x,-y,-z
-x,y,1/2-z
1/2+x,1/2+y,z
1/2-x,1/2-y,1/2+z
1/2+x,1/2-y,-z
1/2-x,1/2+y,1/2-z
loop_
_atom_site_type_symbol
_atom_site_label
_atom_site_fract_x
_atom_site_fract_y
_atom_site_fract_z
Si Si1 0.209268 0.673360 0.413180
Si Si2 0.545018 0.035768 0.345500
Si Si3 0.132021 0.248967 0.346217
Si Si4 0.200217 0.431126 0.144952
Si Si5 0.954622 0.962998 0.154615
O O1 0.233758 0.500000 0.500000
O O2 0.158443 0.738118 0.499459
O O3 0.199790 0.601883 0.254604
O O4 0.244619 0.853674 0.402510
O O5 0.500000 0.956556 0.250000
O O6 0.556202 0.249631 0.313696
O O7 0.524022 0.000000 0.500000
O O8 0.597377 0.929002 0.323075
O O9 0.172196 0.256515 0.218280
O O10 0.099277 0.065033 0.326704
O O11 0.173586 0.500000 0.000000
O O12 0.000000 0.042693 0.250000
O O13 0.975453 0.000000 0.000000
#
# Coordination Sequence:
#
# PCOD8160023 Si02
#       5
#     8   8   8   8   8
#     4  10  23  44  67  95 133 180 231 282 352 404
#     4  11  23  43  70 101 137 179 224 282 342 412
#     4  11  24  46  69  99 141 184 232 272 350 422
#     4  11  23  43  65  98 134 175 234 291 339 397
#     4  11  25  44  71 105 136 180 227 280 348 417
#
# _framework density 22.145254999999999
#
# number of rings (size 3 to 8) (size 9 to 14) (size 15 to 20)
#    0.000    1.200    2.000    4.800    0.000    3.200 
#    7.200    0.000    0.000    0.000    0.000    0.000 
#    0.000    0.000    0.000    0.000    0.000    0.000 
#
# Total GULP energy -247891.861379 kJ/mol
# GULP energy per Si atom -12394.593069 kJ/mol
# Density = 2.209485 g / cm^3
# Si number density = 22.145255 Si / 1000 Ang^3
#
#
#
# Elastic Constant Matrix: (Units=GPa)
#
#
# Indices 1 2 3 4 5 6 
#
# 1 123.2704 50.0922 46.8271 0.0000 0.0000 0.0000
# 2 50.0922 94.1055 29.2113 0.0000 0.0000 0.0000
# 3 46.8271 29.2113 143.5519 0.0000 0.0000 0.0000
# 4 0.0000 0.0000 0.0000 18.5843 0.0000 0.0000
# 5 0.0000 0.0000 0.0000 0.0000 8.4178 0.0000
# 6 0.0000 0.0000 0.0000 0.0000 0.0000 86.6274
#
#
#
# Elastic Compliance Matrix: (Units=1/GPa)
#
#
# Indices 1 2 3 4 5 6 
#
# 1 0.011194 -0.005151 -0.002604 0.000000 0.000000 0.000000
# 2 -0.005151 0.013713 -0.001110 0.000000 0.000000 0.000000
# 3 -0.002604 -0.001110 0.008041 0.000000 0.000000 0.000000
# 4 0.000000 0.000000 0.000000 0.053809 0.000000 0.000000
# 5 0.000000 0.000000 0.000000 0.000000 0.118796 0.000000
# 6 0.000000 0.000000 0.000000 0.000000 0.000000 0.011544
#
#
# Mechanical properties :
#
#
# Convention : Reuss Voigt Hill
#
# Bulk Modulus (GPa) = 65.70481 68.13212 66.91846
# Shear Modulus (GPa) = 20.84216 38.37904 29.61060
#
# Velocity S-wave (km/s) = 3.07116 4.16752 3.66062
# Velocity P-wave (km/s) = 6.50464 7.34782 6.93905
#
# Compressibility (1/GPa) = 0.01521959
#
# Stress axis : x y z
#
# Youngs Moduli (GPa) = 89.33180 72.92558 124.35764
#
# Poissons Ratio (x) = 0.37560 0.32377
# Poissons Ratio (y) = 0.46010 0.13807
# Poissons Ratio (z) = 0.23258 0.08097
#
# Static dielectric constant tensor:
#      x y z
#    x 4.009970 0.000000 0.000000 
#    y 0.000000 4.005890 0.000000 
#    z 0.000000 0.000000 4.231760 
# 
# 
# High freq. dielectric constant tensor:
#      x y z
#    x 1.863260 0.000000 0.000000 
#    y 0.000000 1.880630 0.000000 
#    z 0.000000 0.000000 1.876550 
# 
# From -- ./inp_files/10498.got.cif
#   From: 2010.03.12/outbox.cif.g09.slc.cpg/sg20_6_cif.got.tgz:10498.got - 2010.04.14 01:38:04.
