data_PCOD8160614
_publ_section_title
;
Structure prediction by ZEFSAII (Michael W. Deem and Ramdas Pophale) SiO2 
 PCOD8160614
Probable space group: C 2 2 21
;
_chemical_formula_sum "Si O2"
_cell_formula_units_Z 48
_cell_length_a 17.822138
_cell_length_b 14.400933
_cell_length_c 8.251296
_cell_angle_alpha 90.000000
_cell_angle_beta 90.000000
_cell_angle_gamma 90.000000
_cell_volume 2117.739801
_symmetry_space_group_name_H-M "C 2 2 21"
_symmetry_group_IT_number 20
_symmetry_cell_setting 'orthorhombic'
loop_
_space_group_symop_operation_xyz
x,y,z
-x,-y,1/2+z
x,-y,-z
-x,y,1/2-z
1/2+x,1/2+y,z
1/2-x,1/2-y,1/2+z
1/2+x,1/2-y,-z
1/2-x,1/2+y,1/2-z
loop_
_atom_site_type_symbol
_atom_site_label
_atom_site_fract_x
_atom_site_fract_y
_atom_site_fract_z
Si Si1 0.200454 0.199888 0.636102
Si Si2 0.214416 0.135941 0.275978
Si Si3 0.442412 0.411577 0.612079
Si Si4 0.443424 0.083155 0.890919
Si Si5 0.224079 0.542090 0.672852
Si Si6 0.537745 0.264368 0.410294
O O1 0.220346 0.177178 0.453263
O O2 0.230084 0.304783 0.660795
O O3 0.237800 0.138311 0.777292
O O4 0.111661 0.182824 0.652482
O O5 0.130720 0.132130 0.199364
O O6 0.248671 0.033975 0.301134
O O7 0.421369 0.500000 0.500000
O O8 0.500000 0.446444 0.750000
O O9 0.481719 0.331071 0.507412
O O10 0.500000 0.105666 0.750000
O O11 0.364645 0.052852 0.816537
O O12 0.433051 0.178216 0.986418
O O13 0.476268 0.000000 0.000000
O O14 0.250990 0.500000 0.500000
O O15 0.500000 0.223414 0.250000
#
# Coordination Sequence:
#
# PCOD8160614 Si02
#       6
#     8   8   8   8   8   8
#     4  12  27  47  75 108 151 196 246 308 366 445
#     4  12  27  48  75 108 150 195 249 302 375 436
#     4  12  28  49  76 108 149 197 241 306 368 442
#     4  11  25  48  74 108 150 193 246 307 365 436
#     4  11  26  47  73 106 147 196 247 306 364 438
#     4  12  28  46  73 110 149 193 248 299 372 441
#
# _framework density 22.665675
#
# number of rings (size 3 to 8) (size 9 to 14) (size 15 to 20)
#    0.000    0.333    1.667    6.500   11.667    1.333 
#    0.000    0.000    0.000    0.000    0.000    0.000 
#    0.000    0.000    0.000    0.000    0.000    0.000 
#
# Total GULP energy -297650.481166 kJ/mol
# GULP energy per Si atom -12402.103382 kJ/mol
# Density = 2.261409 g / cm^3
# Si number density = 22.665675 Si / 1000 Ang^3
#
#
#
# Elastic Constant Matrix: (Units=GPa)
#
#
# Indices 1 2 3 4 5 6 
#
# 1 109.0042 19.8551 48.8445 0.0000 0.0000 0.0000
# 2 19.8551 86.3776 9.9178 0.0000 0.0000 0.0000
# 3 48.8445 9.9178 97.4806 0.0000 0.0000 0.0000
# 4 0.0000 0.0000 0.0000 40.1601 0.0000 0.0000
# 5 0.0000 0.0000 0.0000 0.0000 23.7518 0.0000
# 6 0.0000 0.0000 0.0000 0.0000 0.0000 30.8769
#
#
#
# Elastic Compliance Matrix: (Units=1/GPa)
#
#
# Indices 1 2 3 4 5 6 
#
# 1 0.012205 -0.002128 -0.005899 0.000000 0.000000 0.000000
# 2 -0.002128 0.012085 -0.000163 0.000000 0.000000 0.000000
# 3 -0.005899 -0.000163 0.013231 0.000000 0.000000 0.000000
# 4 0.000000 0.000000 0.000000 0.024900 0.000000 0.000000
# 5 0.000000 0.000000 0.000000 0.000000 0.042102 0.000000
# 6 0.000000 0.000000 0.000000 0.000000 0.000000 0.032387
#
#
# Mechanical properties :
#
#
# Convention : Reuss Voigt Hill
#
# Bulk Modulus (GPa) = 47.30344 50.01080 48.65712
# Shear Modulus (GPa) = 31.18429 33.24077 32.21253
#
# Velocity S-wave (km/s) = 3.71325 3.83374 3.77397
# Velocity P-wave (km/s) = 6.26895 6.45826 6.36431
#
# Compressibility (1/GPa) = 0.02114011
#
# Stress axis : x y z
#
# Youngs Moduli (GPa) = 81.93416 82.74719 75.58090
#
# Poissons Ratio (x) = 0.17610 0.44585
# Poissons Ratio (y) = 0.17437 0.01233
# Poissons Ratio (z) = 0.48333 0.01350
#
# Static dielectric constant tensor:
#      x y z
#    x 4.120040 0.000000 0.000000 
#    y 0.000000 4.326250 0.000000 
#    z 0.000000 0.000000 4.198370 
# 
# 
# High freq. dielectric constant tensor:
#      x y z
#    x 1.904960 0.000000 0.000000 
#    y 0.000000 1.906850 0.000000 
#    z 0.000000 0.000000 1.906810 
# 
# From -- ./inp_files/9355.got.cif
#   From: 2010.03.12/outbox.cif.g09.slc.cpg/sg20_5_cif.got.tgz:9355.got - 2010.04.14 01:38:04.
