data_PCOD8160307
_publ_section_title
;
Structure prediction by ZEFSAII (Michael W. Deem and Ramdas Pophale) SiO2 
 PCOD8160307
Probable space group: C 2 2 21
;
_chemical_formula_sum "Si O2"
_cell_formula_units_Z 60
_cell_length_a 11.853510
_cell_length_b 15.288634
_cell_length_c 17.040917
_cell_angle_alpha 90.000000
_cell_angle_beta 90.000000
_cell_angle_gamma 90.000000
_cell_volume 3088.222734
_symmetry_space_group_name_H-M "C 2 2 21"
_symmetry_group_IT_number 20
_symmetry_cell_setting 'orthorhombic'
loop_
_space_group_symop_operation_xyz
x,y,z
-x,-y,1/2+z
x,-y,-z
-x,y,1/2-z
1/2+x,1/2+y,z
1/2-x,1/2-y,1/2+z
1/2+x,1/2-y,-z
1/2-x,1/2+y,1/2-z
loop_
_atom_site_type_symbol
_atom_site_label
_atom_site_fract_x
_atom_site_fract_y
_atom_site_fract_z
Si Si1 0.463877 0.393895 0.838734
Si Si2 0.826883 0.026755 0.412088
Si Si3 0.500000 0.753627 0.750000
Si Si4 0.869963 0.593945 0.178763
Si Si5 0.471970 0.031970 0.587240
Si Si6 0.195293 0.868068 0.203469
Si Si7 0.757075 0.495089 0.675114
Si Si8 0.561373 0.807734 0.329618
O O1 0.500000 0.419151 0.750000
O O2 0.550056 0.432663 0.901973
O O3 0.342896 0.435021 0.858556
O O4 0.466920 0.290838 0.852146
O O5 0.734236 0.097738 0.382393
O O6 0.800958 0.000000 0.500000
O O7 0.817713 0.938837 0.363466
O O8 0.571527 0.811662 0.688131
O O9 0.413308 0.694045 0.701648
O O10 0.825814 0.562185 0.262586
O O11 0.962202 0.525730 0.150153
O O12 0.338546 0.022942 0.603762
O O13 0.499727 0.000000 0.500000
O O14 0.516424 0.131111 0.599517
O O15 0.305228 0.811495 0.184309
O O16 0.206690 0.916334 0.287263
O O17 0.500000 0.838193 0.250000
#
# Coordination Sequence:
#
# PCOD8160307 Si02
#       8
#     8   8   4   8   8   8   8   8
#     4  11  22  39  67  93 125 161 214 263 321 376
#     4  11  24  44  65  92 130 177 207 251 327 398
#     4  12  24  38  66 102 122 160 220 282 308 370
#     4  11  21  39  67  87 122 162 218 259 310 372
#     4  12  23  40  64  90 126 172 214 260 325 388
#     4  11  22  38  66  93 126 160 217 261 321 381
#     4  11  20  41  66  92 122 167 212 265 317 385
#     4  11  22  39  64  94 120 162 216 269 309 382
#
# _framework density 19.428650999999999
#
# number of rings (size 3 to 8) (size 9 to 14) (size 15 to 20)
#    0.000    0.800    8.000    2.000    1.867    0.533 
#    2.400    0.000    0.000    0.000    0.000    0.000 
#    0.000    0.000    0.000    0.000    0.000    0.000 
#
# Total GULP energy -372097.182995 kJ/mol
# GULP energy per Si atom -12403.239433 kJ/mol
# Density = 1.938443 g / cm^3
# Si number density = 19.428651 Si / 1000 Ang^3
#
#
#
# Elastic Constant Matrix: (Units=GPa)
#
#
# Indices 1 2 3 4 5 6 
#
# 1 144.1119 42.3181 46.5687 0.0000 0.0000 0.0000
# 2 42.3181 52.1176 25.0574 0.0000 0.0000 0.0000
# 3 46.5687 25.0574 69.8245 0.0000 0.0000 0.0000
# 4 0.0000 0.0000 0.0000 12.9390 0.0000 0.0000
# 5 0.0000 0.0000 0.0000 0.0000 10.5878 0.0000
# 6 0.0000 0.0000 0.0000 0.0000 0.0000 50.3041
#
#
#
# Elastic Compliance Matrix: (Units=1/GPa)
#
#
# Indices 1 2 3 4 5 6 
#
# 1 0.010220 -0.006068 -0.004638 0.000000 0.000000 0.000000
# 2 -0.006068 0.026791 -0.005567 0.000000 0.000000 0.000000
# 3 -0.004638 -0.005567 0.019413 0.000000 0.000000 0.000000
# 4 0.000000 0.000000 0.000000 0.077286 0.000000 0.000000
# 5 0.000000 0.000000 0.000000 0.000000 0.094448 0.000000
# 6 0.000000 0.000000 0.000000 0.000000 0.000000 0.019879
#
#
# Mechanical properties :
#
#
# Convention : Reuss Voigt Hill
#
# Bulk Modulus (GPa) = 41.88228 54.88249 48.38238
# Shear Modulus (GPa) = 17.32844 24.90686 21.11765
#
# Velocity S-wave (km/s) = 2.98971 3.58434 3.30044
# Velocity P-wave (km/s) = 5.78978 6.74088 6.28336
#
# Compressibility (1/GPa) = 0.02387645
#
# Stress axis : x y z
#
# Youngs Moduli (GPa) = 97.84940 37.32571 51.51190
#
# Poissons Ratio (x) = 0.22650 0.23893
# Poissons Ratio (y) = 0.59376 0.28678
# Poissons Ratio (z) = 0.45386 0.20780
#
# Static dielectric constant tensor:
#      x y z
#    x 3.955280 0.000000 0.000000 
#    y 0.000000 3.566220 0.000000 
#    z 0.000000 0.000000 3.218940 
# 
# 
# High freq. dielectric constant tensor:
#      x y z
#    x 1.781050 0.000000 0.000000 
#    y 0.000000 1.756690 0.000000 
#    z 0.000000 0.000000 1.721220 
# 
# From -- ./inp_files/24432.got.cif
#   From: 2010.03.12/outbox.cif.g09.slc.cpg/sg20_13_cif.got.tgz:24432.got - 2010.04.14 01:38:04.
