data_PCOD8160477
_publ_section_title
;
Structure prediction by ZEFSAII (Michael W. Deem and Ramdas Pophale) SiO2 
 PCOD8160477
Probable space group: C 2 2 21
;
_chemical_formula_sum "Si O2"
_cell_formula_units_Z 48
_cell_length_a 9.105657
_cell_length_b 10.895350
_cell_length_c 21.228303
_cell_angle_alpha 90.000000
_cell_angle_beta 90.000000
_cell_angle_gamma 90.000000
_cell_volume 2106.045505
_symmetry_space_group_name_H-M "C 2 2 21"
_symmetry_group_IT_number 20
_symmetry_cell_setting 'orthorhombic'
loop_
_space_group_symop_operation_xyz
x,y,z
-x,-y,1/2+z
x,-y,-z
-x,y,1/2-z
1/2+x,1/2+y,z
1/2-x,1/2-y,1/2+z
1/2+x,1/2-y,-z
1/2-x,1/2+y,1/2-z
loop_
_atom_site_type_symbol
_atom_site_label
_atom_site_fract_x
_atom_site_fract_y
_atom_site_fract_z
Si Si1 0.378132 0.347872 0.202165
Si Si2 0.019959 0.460057 0.106063
Si Si3 0.141048 0.299650 0.575855
Si Si4 0.876170 0.304516 0.208847
Si Si5 0.032655 0.788097 0.966208
Si Si6 0.336626 0.424344 0.870610
O O1 0.500000 0.295409 0.250000
O O2 0.341452 0.252433 0.146357
O O3 0.235399 0.369141 0.244118
O O4 0.424802 0.479764 0.173547
O O5 0.004563 0.347770 0.058800
O O6 0.187340 0.508085 0.108637
O O7 0.917920 0.564134 0.078626
O O8 0.957133 0.415536 0.172786
O O9 0.294175 0.312088 0.538364
O O10 0.027175 0.211486 0.538020
O O11 0.798074 0.202673 0.165116
O O12 0.000000 0.234636 0.250000
O O13 0.941898 0.892438 0.929078
#
# Coordination Sequence:
#
# PCOD8160477 Si02
#       6
#     8   8   8   8   8   8
#     4  12  26  42  70 111 143 187 243 294 364 441
#     4  11  24  47  72 103 142 191 235 298 362 433
#     4  12  26  48  75 105 145 191 245 306 369 433
#     4  11  23  43  69 104 147 188 234 285 361 433
#     4  11  26  49  73 107 144 188 248 305 365 436
#     4  11  23  46  74 100 149 187 233 303 356 434
#
# _framework density 22.791530999999999
#
# number of rings (size 3 to 8) (size 9 to 14) (size 15 to 20)
#    0.000    0.667    3.333    4.000    4.667    2.667 
#    3.000    0.000    0.000    0.000    0.000    0.000 
#    0.000    0.000    0.000    0.000    0.000    0.000 
#
# Total GULP energy -297592.286431 kJ/mol
# GULP energy per Si atom -12399.678601 kJ/mol
# Density = 2.273966 g / cm^3
# Si number density = 22.791531 Si / 1000 Ang^3
#
#
#
# Elastic Constant Matrix: (Units=GPa)
#
#
# Indices 1 2 3 4 5 6 
#
# 1 127.7369 14.3525 33.4768 0.0000 0.0000 0.0000
# 2 14.3525 41.5602 -12.8460 0.0000 0.0000 0.0000
# 3 33.4768 -12.8460 73.2827 0.0000 0.0000 0.0000
# 4 0.0000 0.0000 0.0000 8.9947 0.0000 0.0000
# 5 0.0000 0.0000 0.0000 0.0000 45.7209 0.0000
# 6 0.0000 0.0000 0.0000 0.0000 0.0000 39.2195
#
#
#
# Elastic Compliance Matrix: (Units=1/GPa)
#
#
# Indices 1 2 3 4 5 6 
#
# 1 0.009800 -0.005041 -0.005360 0.000000 0.000000 0.000000
# 2 -0.005041 0.028033 0.007217 0.000000 0.000000 0.000000
# 3 -0.005360 0.007217 0.017360 0.000000 0.000000 0.000000
# 4 0.000000 0.000000 0.000000 0.111176 0.000000 0.000000
# 5 0.000000 0.000000 0.000000 0.000000 0.021872 0.000000
# 6 0.000000 0.000000 0.000000 0.000000 0.000000 0.025498
#
#
# Mechanical properties :
#
#
# Convention : Reuss Voigt Hill
#
# Bulk Modulus (GPa) = 20.48207 34.72737 27.60472
# Shear Modulus (GPa) = 21.15219 32.62679 26.88949
#
# Velocity S-wave (km/s) = 3.04973 3.78766 3.43855
# Velocity P-wave (km/s) = 4.62681 5.86503 5.28233
#
# Compressibility (1/GPa) = 0.04882319
#
# Stress axis : x y z
#
# Youngs Moduli (GPa) = 102.04229 35.67210 57.60502
#
# Poissons Ratio (x) = 0.17983 0.30879
# Poissons Ratio (y) = 0.51441 -0.41573
# Poissons Ratio (z) = 0.54699 -0.25744
#
# Static dielectric constant tensor:
#      x y z
#    x 4.291280 0.000000 0.000000 
#    y 0.000000 4.086980 0.000000 
#    z 0.000000 0.000000 4.367400 
# 
# 
# High freq. dielectric constant tensor:
#      x y z
#    x 1.904450 0.000000 0.000000 
#    y 0.000000 1.900370 0.000000 
#    z 0.000000 0.000000 1.911210 
# 
# From -- ./inp_files/28709.got.cif
#   From: 2010.03.12/outbox.cif.g09.slc.cpg/sg20_15_cif.got.tgz:28709.got - 2010.04.14 01:38:04.
