data_PCOD8160994
_publ_section_title
;
Structure prediction by ZEFSAII (Michael W. Deem and Ramdas Pophale) SiO2 
 PCOD8160994
Probable space group: C 2 2 2
;
_chemical_formula_sum "Si O2"
_cell_formula_units_Z 56
_cell_length_a 9.337417
_cell_length_b 17.025926
_cell_length_c 16.839005
_cell_angle_alpha 90.000000
_cell_angle_beta 90.000000
_cell_angle_gamma 90.000000
_cell_volume 2677.034214
_symmetry_space_group_name_H-M "C 2 2 2"
_symmetry_group_IT_number 21
_symmetry_cell_setting 'orthorhombic'
loop_
_space_group_symop_operation_xyz
x,y,z
-x,-y,z
x,-y,-z
-x,y,-z
1/2+x,1/2+y,z
1/2-x,1/2-y,z
1/2+x,1/2-y,-z
1/2-x,1/2+y,-z
loop_
_atom_site_type_symbol
_atom_site_label
_atom_site_fract_x
_atom_site_fract_y
_atom_site_fract_z
Si Si1 0.415490 0.838120 0.424571
Si Si2 0.227047 0.589166 0.007905
Si Si3 0.025254 0.350693 0.110401
Si Si4 0.924049 0.580170 0.736052
Si Si5 0.085661 0.079793 0.742570
Si Si6 0.082285 0.157938 0.577317
Si Si7 0.112069 0.802753 0.119372
O O1 0.500000 0.871280 0.500000
O O2 0.463920 0.889836 0.350686
O O3 0.248932 0.848673 0.441616
O O4 0.458989 0.748318 0.407029
O O5 0.181798 0.622474 0.920697
O O6 0.280311 0.500000 0.000000
O O7 0.091257 0.594394 0.066430
O O8 0.354733 0.640427 0.045117
O O9 0.996720 0.358323 0.203864
O O10 0.008361 0.258407 0.089753
O O11 0.755547 0.567249 0.747869
O O12 0.000000 0.500000 0.754435
O O13 0.038569 0.108433 0.654962
O O14 0.050069 0.146737 0.807189
O O15 0.000000 0.000000 0.762692
O O16 0.000000 0.124577 0.500000
O O17 0.250000 0.750000 0.146090
#
# Coordination Sequence:
#
# PCOD8160994 Si02
#       7
#     8   8   8   8   8   8   8
#     4   9  19  35  59  92 118 156 214 259 299 363
#     4  10  19  34  62  91 115 152 203 258 301 367
#     4  10  19  35  64  86 114 158 213 248 294 374
#     4  11  21  36  63  89 122 165 211 254 310 370
#     4  11  23  39  60  91 127 159 206 258 317 371
#     4   9  19  36  61  85 117 168 204 249 310 378
#     4  10  20  39  64  86 120 165 209 251 306 381
#
# _framework density 20.918672999999998
#
# number of rings (size 3 to 8) (size 9 to 14) (size 15 to 20)
#    0.000    2.000    2.857    2.571    2.000    1.714 
#    0.000   10.000    0.000    1.714    0.000    0.000 
#    0.000    0.000    0.000    0.000    0.000    0.000 
#
# Total GULP energy -347164.770702 kJ/mol
# GULP energy per Si atom -12398.741811 kJ/mol
# Density = 2.087106 g / cm^3
# Si number density = 20.918673 Si / 1000 Ang^3
#
#
#
# Elastic Constant Matrix: (Units=GPa)
#
#
# Indices 1 2 3 4 5 6 
#
# 1 38.7052 40.3074 46.3339 0.0000 0.0000 0.0000
# 2 40.3074 142.9988 57.5210 0.0000 0.0000 0.0000
# 3 46.3339 57.5210 128.6088 0.0000 0.0000 0.0000
# 4 0.0000 0.0000 0.0000 33.8845 0.0000 0.0000
# 5 0.0000 0.0000 0.0000 0.0000 28.4836 0.0000
# 6 0.0000 0.0000 0.0000 0.0000 0.0000 29.7133
#
#
#
# Elastic Compliance Matrix: (Units=1/GPa)
#
#
# Indices 1 2 3 4 5 6 
#
# 1 0.053356 -0.008910 -0.015237 0.000000 0.000000 0.000000
# 2 -0.008910 0.010015 -0.001269 0.000000 0.000000 0.000000
# 3 -0.015237 -0.001269 0.013833 0.000000 0.000000 0.000000
# 4 0.000000 0.000000 0.000000 0.029512 0.000000 0.000000
# 5 0.000000 0.000000 0.000000 0.000000 0.035108 0.000000
# 6 0.000000 0.000000 0.000000 0.000000 0.000000 0.033655
#
#
# Mechanical properties :
#
#
# Convention : Reuss Voigt Hill
#
# Bulk Modulus (GPa) = 37.92167 66.51525 52.21846
# Shear Modulus (GPa) = 21.26725 29.49298 25.38011
#
# Velocity S-wave (km/s) = 3.19198 3.75892 3.48699
# Velocity P-wave (km/s) = 5.63493 7.12077 6.42098
#
# Compressibility (1/GPa) = 0.02637015
#
# Stress axis : x y z
#
# Youngs Moduli (GPa) = 18.74195 99.84835 72.29223
#
# Poissons Ratio (x) = 0.88969 1.10155
# Poissons Ratio (y) = 0.16700 0.09175
# Poissons Ratio (z) = 0.28558 0.12673
#
# Static dielectric constant tensor:
#      x y z
#    x 3.555420 0.000000 0.000000 
#    y 0.000000 3.793840 0.000000 
#    z 0.000000 0.000000 3.955770 
# 
# 
# High freq. dielectric constant tensor:
#      x y z
#    x 1.789030 0.000000 0.000000 
#    y 0.000000 1.822470 0.000000 
#    z 0.000000 0.000000 1.826950 
# 
# From -- ./inp_files/31586.got.cif
#   From: 2010.03.12/outbox.cif.g09.slc.cpg/sg21_16_cif.got.tgz:31586.got - 2010.04.14 01:59:26.
