data_PCOD8160677
_publ_section_title
;
Structure prediction by ZEFSAII (Michael W. Deem and Ramdas Pophale) SiO2 
 PCOD8160677
Probable space group: C 2 2 21
;
_chemical_formula_sum "Si O2"
_cell_formula_units_Z 32
_cell_length_a 31.637269
_cell_length_b 7.067014
_cell_length_c 6.124794
_cell_angle_alpha 90.000000
_cell_angle_beta 90.000000
_cell_angle_gamma 90.000000
_cell_volume 1369.387708
_symmetry_space_group_name_H-M "C 2 2 21"
_symmetry_group_IT_number 20
_symmetry_cell_setting 'orthorhombic'
loop_
_space_group_symop_operation_xyz
x,y,z
-x,-y,1/2+z
x,-y,-z
-x,y,1/2-z
1/2+x,1/2+y,z
1/2-x,1/2-y,1/2+z
1/2+x,1/2-y,-z
1/2-x,1/2+y,1/2-z
loop_
_atom_site_type_symbol
_atom_site_label
_atom_site_fract_x
_atom_site_fract_y
_atom_site_fract_z
Si Si1 0.139769 0.000000 0.000000
Si Si2 0.630942 0.000000 0.500000
Si Si3 0.500000 0.898592 0.250000
Si Si4 0.308024 0.799578 0.717018
Si Si5 0.266966 0.500000 0.000000
Si Si6 0.922646 0.840416 0.846243
O O1 0.169765 0.184360 0.977850
O O2 0.109642 0.959461 0.798269
O O3 0.660713 0.032169 0.289531
O O4 0.602539 0.184924 0.516809
O O5 0.540916 0.767855 0.212752
O O6 0.503913 0.000000 0.500000
O O7 0.263045 0.893188 0.669368
O O8 0.299595 0.649791 0.905662
O O9 0.943896 0.000000 0.000000
#
# Coordination Sequence:
#
# PCOD8160677 Si02
#       6
#     4   4   4   8   4   8
#     4  12  26  45  76 109 150 206 258 321 394 465
#     4  12  24  49  72 107 154 196 260 321 386 473
#     4  12  32  54  88 122 168 212 260 324 400 476
#     4  12  24  43  69 104 147 198 257 323 391 465
#     4  12  24  42  66 104 146 194 256 322 394 460
#     4  12  28  51  78 115 157 203 262 315 397 475
#
# _framework density 23.368105
#
# number of rings (size 3 to 8) (size 9 to 14) (size 15 to 20)
#    0.000    0.000    3.750    6.000    8.750    0.000 
#    0.000    0.000    0.000    0.000    0.000    0.000 
#    0.000    0.000    0.000    0.000    0.000    0.000 
#
# Total GULP energy -198229.262958 kJ/mol
# GULP energy per Si atom -12389.328935 kJ/mol
# Density = 2.331492 g / cm^3
# Si number density = 23.368105 Si / 1000 Ang^3
#
#
#
# Elastic Constant Matrix: (Units=GPa)
#
#
# Indices 1 2 3 4 5 6 
#
# 1 103.1245 32.0620 16.0430 0.0000 0.0000 0.0000
# 2 32.0620 124.8597 36.9739 0.0000 0.0000 0.0000
# 3 16.0430 36.9739 75.3667 0.0000 0.0000 0.0000
# 4 0.0000 0.0000 0.0000 52.2071 0.0000 0.0000
# 5 0.0000 0.0000 0.0000 0.0000 24.3592 0.0000
# 6 0.0000 0.0000 0.0000 0.0000 0.0000 33.8975
#
#
#
# Elastic Compliance Matrix: (Units=1/GPa)
#
#
# Indices 1 2 3 4 5 6 
#
# 1 0.010613 -0.002406 -0.001079 0.000000 0.000000 0.000000
# 2 -0.002406 0.009916 -0.004352 0.000000 0.000000 0.000000
# 3 -0.001079 -0.004352 0.015633 0.000000 0.000000 0.000000
# 4 0.000000 0.000000 0.000000 0.019154 0.000000 0.000000
# 5 0.000000 0.000000 0.000000 0.000000 0.041052 0.000000
# 6 0.000000 0.000000 0.000000 0.000000 0.000000 0.029501
#
#
# Mechanical properties :
#
#
# Convention : Reuss Voigt Hill
#
# Bulk Modulus (GPa) = 48.80958 52.61208 50.71083
# Shear Modulus (GPa) = 33.69899 36.64421 35.17160
#
# Velocity S-wave (km/s) = 3.80161 3.96426 3.88379
# Velocity P-wave (km/s) = 6.34053 6.59675 6.46991
#
# Compressibility (1/GPa) = 0.02048778
#
# Stress axis : x y z
#
# Youngs Moduli (GPa) = 94.22576 100.85148 63.96585
#
# Poissons Ratio (x) = 0.24262 0.06901
# Poissons Ratio (y) = 0.22668 0.27840
# Poissons Ratio (z) = 0.10166 0.43894
#
# Static dielectric constant tensor:
#      x y z
#    x 4.496460 0.000000 0.000000 
#    y 0.000000 4.582780 0.000000 
#    z 0.000000 0.000000 4.362970 
# 
# 
# High freq. dielectric constant tensor:
#      x y z
#    x 1.940100 0.000000 0.000000 
#    y 0.000000 1.945570 0.000000 
#    z 0.000000 0.000000 1.914830 
# 
# From -- ./inp_files/4498.got.cif
#   From: 2010.03.12/outbox.cif.g09.slc.cpg/sg20_3_cif.got.tgz:4498.got - 2010.04.14 01:38:04.
