data_PCOD8160835
_publ_section_title
;
Structure prediction by ZEFSAII (Michael W. Deem and Ramdas Pophale) SiO2 
 PCOD8160835
Probable space group: C 2 2 2
;
_chemical_formula_sum "Si O2"
_cell_formula_units_Z 52
_cell_length_a 23.918383
_cell_length_b 11.260740
_cell_length_c 10.222408
_cell_angle_alpha 90.000000
_cell_angle_beta 90.000000
_cell_angle_gamma 90.000000
_cell_volume 2753.290002
_symmetry_space_group_name_H-M "C 2 2 2"
_symmetry_group_IT_number 21
_symmetry_cell_setting 'orthorhombic'
loop_
_space_group_symop_operation_xyz
x,y,z
-x,-y,z
x,-y,-z
-x,y,-z
1/2+x,1/2+y,z
1/2-x,1/2-y,z
1/2+x,1/2-y,-z
1/2-x,1/2+y,-z
loop_
_atom_site_type_symbol
_atom_site_label
_atom_site_fract_x
_atom_site_fract_y
_atom_site_fract_z
Si Si1 0.141885 0.688013 0.332594
Si Si2 0.135855 0.299868 0.380097
Si Si3 0.686479 0.753715 0.920153
Si Si4 0.865729 0.500000 0.000000
Si Si5 0.768504 0.503691 0.357014
Si Si6 0.065202 0.516537 0.742919
Si Si7 0.800573 0.157016 0.814276
O O1 0.135606 0.753695 0.472054
O O2 0.146281 0.775735 0.205971
O O3 0.201076 0.618515 0.322407
O O4 0.088873 0.601358 0.325317
O O5 0.184273 0.396603 0.367440
O O6 0.077719 0.366500 0.345344
O O7 0.148442 0.193164 0.280874
O O8 0.750000 0.750000 0.874239
O O9 0.673163 0.887047 0.970929
O O10 0.676255 0.656240 0.036299
O O11 0.905101 0.536276 0.119095
O O12 0.738497 0.500000 0.500000
O O13 0.723880 0.532324 0.241225
O O14 0.000000 0.500000 0.762762
O O15 0.750000 0.250000 0.810701
#
# Coordination Sequence:
#
# PCOD8160835 Si02
#       7
#     8   8   8   4   8   8   8
#     4   9  19  29  42  64  96 122 158 200 242 286
#     4   9  16  29  42  61  89 122 160 202 237 290
#     4  10  20  29  45  65  89 128 166 194 239 292
#     4  10  19  34  46  68 100 130 165 206 244 296
#     4   8  15  27  44  64  86 122 165 198 237 291
#     4  10  18  29  46  66  89 127 170 196 241 291
#     4   9  16  27  44  61  84 123 167 194 237 292
#
# _framework density 18.886496000000001
#
# number of rings (size 3 to 8) (size 9 to 14) (size 15 to 20)
#    0.000    2.769    1.538    1.615    6.462    4.308 
#    0.000    0.000    0.000    0.000    0.000    0.000 
#    0.000    0.000    0.000   58.154    1.231    2.462 
#
# Total GULP energy -322114.412821 kJ/mol
# GULP energy per Si atom -12389.015878 kJ/mol
# Density = 1.884351 g / cm^3
# Si number density = 18.886496 Si / 1000 Ang^3
#
#
#
# Elastic Constant Matrix: (Units=GPa)
#
#
# Indices 1 2 3 4 5 6 
#
# 1 80.6481 20.7932 30.6258 0.0000 0.0000 0.0000
# 2 20.7932 15.9282 9.7533 0.0000 0.0000 0.0000
# 3 30.6258 9.7533 130.5552 0.0000 0.0000 0.0000
# 4 0.0000 0.0000 0.0000 21.7747 0.0000 0.0000
# 5 0.0000 0.0000 0.0000 0.0000 9.5559 0.0000
# 6 0.0000 0.0000 0.0000 0.0000 0.0000 14.7886
#
#
#
# Elastic Compliance Matrix: (Units=1/GPa)
#
#
# Indices 1 2 3 4 5 6 
#
# 1 0.019633 -0.023903 -0.002820 0.000000 0.000000 0.000000
# 2 -0.023903 0.094893 -0.001482 0.000000 0.000000 0.000000
# 3 -0.002820 -0.001482 0.008432 0.000000 0.000000 0.000000
# 4 0.000000 0.000000 0.000000 0.045925 0.000000 0.000000
# 5 0.000000 0.000000 0.000000 0.000000 0.104648 0.000000
# 6 0.000000 0.000000 0.000000 0.000000 0.000000 0.067619
#
#
# Mechanical properties :
#
#
# Convention : Reuss Voigt Hill
#
# Bulk Modulus (GPa) = 15.02673 38.83070 26.92871
# Shear Modulus (GPa) = 11.91208 20.28779 16.09993
#
# Velocity S-wave (km/s) = 2.51414 3.28105 2.92285
# Velocity P-wave (km/s) = 4.04987 5.91256 5.06753
#
# Compressibility (1/GPa) = 0.06654808
#
# Stress axis : x y z
#
# Youngs Moduli (GPa) = 50.93407 10.53821 118.59880
#
# Poissons Ratio (x) = 0.25190 0.33443
# Poissons Ratio (y) = 1.21748 0.17575
# Poissons Ratio (z) = 0.14363 0.01562
#
# Static dielectric constant tensor:
#      x y z
#    x 3.073840 0.000000 0.000000 
#    y 0.000000 3.119870 0.000000 
#    z 0.000000 0.000000 4.188840 
# 
# 
# High freq. dielectric constant tensor:
#      x y z
#    x 1.677850 0.000000 0.000000 
#    y 0.000000 1.676280 0.000000 
#    z 0.000000 0.000000 1.770770 
# 
# From -- ./inp_files/26168.got.cif
#   From: 2010.03.12/outbox.cif.g09.slc.cpg/sg21_14_cif.got.tgz:26168.got - 2010.04.14 01:59:26.
