data_PCOD8160832
_publ_section_title
;
Structure prediction by ZEFSAII (Michael W. Deem and Ramdas Pophale) SiO2 
 PCOD8160832
Probable space group: C 2 2 2
;
_chemical_formula_sum "Si O2"
_cell_formula_units_Z 56
_cell_length_a 22.961969
_cell_length_b 20.831953
_cell_length_c 7.711126
_cell_angle_alpha 90.000000
_cell_angle_beta 90.000000
_cell_angle_gamma 90.000000
_cell_volume 3688.560515
_symmetry_space_group_name_H-M "C 2 2 2"
_symmetry_group_IT_number 21
_symmetry_cell_setting 'orthorhombic'
loop_
_space_group_symop_operation_xyz
x,y,z
-x,-y,z
x,-y,-z
-x,y,-z
1/2+x,1/2+y,z
1/2-x,1/2-y,z
1/2+x,1/2-y,-z
1/2-x,1/2+y,-z
loop_
_atom_site_type_symbol
_atom_site_label
_atom_site_fract_x
_atom_site_fract_y
_atom_site_fract_z
Si Si1 0.201380 0.160246 0.000000
Si Si2 0.165621 0.702181 0.000000
Si Si3 0.068387 0.500000 0.200655
Si Si4 0.225780 0.926653 0.696376
Si Si5 0.225780 0.073347 0.696376
Si Si6 0.144657 0.615095 0.693971
Si Si7 0.644657 0.884905 0.693971
O O1 0.157506 0.220790 1.000000
O O2 0.266753 0.185557 1.000000
O O3 0.189638 0.118089 0.172125
O O4 0.189638 0.118089 0.827875
O O5 0.135088 0.673225 0.828656
O O6 0.135088 0.673225 0.171344
O O7 0.093585 0.436512 0.289250
O O8 0.093585 0.563488 0.289250
O O9 0.000000 0.500000 0.230905
O O10 0.085985 0.500000 0.000000
O O11 0.210580 0.905617 0.500000
O O12 0.294538 0.920506 0.732047
O O13 0.207678 1.000000 0.729676
O O14 0.294538 0.079494 0.732047
O O15 0.143664 0.644156 0.500000
#
# Coordination Sequence:
#
# PCOD8160832 Si02
#       7
#     8   8   8   8   8   8   8
#     4   9  17  26  39  54  76 104 127 167 208 234
#     4   9  18  29  38  55  76  99 134 168 201 245
#     4  11  21  31  45  64  83 103 136 181 217 246
#     4   9  16  25  40  60  78 101 135 167 201 243
#     4   9  16  25  40  60  78 101 135 167 201 243
#     4  10  18  29  44  57  75 105 134 167 210 246
#     4  10  18  29  44  57  75 105 134 167 210 246
#
# _framework density 15.182073000000001
#
# number of rings (size 3 to 8) (size 9 to 14) (size 15 to 20)
#    0.000    2.429    2.857    0.857    0.000    2.286 
#    0.000    5.714    0.000    0.000    0.000    0.000 
#    0.000    0.000    0.000    0.000    0.000   11.429 
#
# Total GULP energy -347177.456975 kJ/mol
# GULP energy per Si atom -12399.194892 kJ/mol
# Density = 1.514752 g / cm^3
# Si number density = 15.182073 Si / 1000 Ang^3
#
#
#
# Elastic Constant Matrix: (Units=GPa)
#
#
# Indices 1 2 3 4 5 6 
#
# 1 21.7161 25.1300 20.1412 0.0000 0.0000 0.0000
# 2 25.1300 117.7293 74.8331 0.0000 0.0000 0.0000
# 3 20.1412 74.8331 133.5174 0.0000 0.0000 0.0000
# 4 0.0000 0.0000 0.0000 13.9363 0.0000 0.0000
# 5 0.0000 0.0000 0.0000 0.0000 10.5610 0.0000
# 6 0.0000 0.0000 0.0000 0.0000 0.0000 10.2116
#
#
#
# Elastic Compliance Matrix: (Units=1/GPa)
#
#
# Indices 1 2 3 4 5 6 
#
# 1 0.061920 -0.011309 -0.003002 0.000000 0.000000 0.000000
# 2 -0.011309 0.015260 -0.006847 0.000000 0.000000 0.000000
# 3 -0.003002 -0.006847 0.011780 0.000000 0.000000 0.000000
# 4 0.000000 0.000000 0.000000 0.071755 0.000000 0.000000
# 5 0.000000 0.000000 0.000000 0.000000 0.094688 0.000000
# 6 0.000000 0.000000 0.000000 0.000000 0.000000 0.097928
#
#
# Mechanical properties :
#
#
# Convention : Reuss Voigt Hill
#
# Bulk Modulus (GPa) = 21.43903 57.01905 39.22904
# Shear Modulus (GPa) = 12.15967 17.13236 14.64602
#
# Velocity S-wave (km/s) = 2.83313 3.36290 3.10932
# Velocity P-wave (km/s) = 4.98539 7.26066 6.22781
#
# Compressibility (1/GPa) = 0.04664391
#
# Stress axis : x y z
#
# Youngs Moduli (GPa) = 16.14991 65.52996 84.88856
#
# Poissons Ratio (x) = 0.74106 0.25487
# Poissons Ratio (y) = 0.18263 0.58123
# Poissons Ratio (z) = 0.04849 0.44868
#
# Static dielectric constant tensor:
#      x y z
#    x 2.355350 0.000000 0.000000 
#    y 0.000000 2.998740 0.000000 
#    z 0.000000 0.000000 3.188450 
# 
# 
# High freq. dielectric constant tensor:
#      x y z
#    x 1.504510 0.000000 0.000000 
#    y 0.000000 1.573810 0.000000 
#    z 0.000000 0.000000 1.605390 
# 
# From -- ./inp_files/18655.got.cif
#   From: 2010.03.12/outbox.cif.g09.slc.cpg/sg21_10_cif.got.tgz:18655.got - 2010.04.14 01:59:26.
