data_PCOD8160301
_publ_section_title
;
Structure prediction by ZEFSAII (Michael W. Deem and Ramdas Pophale) SiO2 
 PCOD8160301
Probable space group: C 2 2 21
;
_chemical_formula_sum "Si O2"
_cell_formula_units_Z 48
_cell_length_a 20.549495
_cell_length_b 17.786946
_cell_length_c 6.303529
_cell_angle_alpha 90.000000
_cell_angle_beta 90.000000
_cell_angle_gamma 90.000000
_cell_volume 2304.020269
_symmetry_space_group_name_H-M "C 2 2 21"
_symmetry_group_IT_number 20
_symmetry_cell_setting 'orthorhombic'
loop_
_space_group_symop_operation_xyz
x,y,z
-x,-y,1/2+z
x,-y,-z
-x,y,1/2-z
1/2+x,1/2+y,z
1/2-x,1/2-y,1/2+z
1/2+x,1/2-y,-z
1/2-x,1/2+y,1/2-z
loop_
_atom_site_type_symbol
_atom_site_label
_atom_site_fract_x
_atom_site_fract_y
_atom_site_fract_z
Si Si1 0.000000 0.375823 0.750000
Si Si2 0.570516 0.000000 0.500000
Si Si3 0.664095 0.702140 0.855226
Si Si4 0.725162 0.162825 0.347951
Si Si5 0.285477 0.584960 0.965320
Si Si6 0.437273 0.778647 0.399600
Si Si7 0.843980 0.400669 0.217910
O O1 0.031497 0.427213 0.570239
O O2 0.953300 0.323440 0.613235
O O3 0.609509 0.026692 0.710262
O O4 0.669205 0.781392 0.734295
O O5 0.665742 0.630150 0.694300
O O6 0.730472 0.707367 0.986626
O O7 0.599298 0.703390 0.006158
O O8 0.777933 0.126058 0.189655
O O9 0.685482 0.100523 0.479167
O O10 0.312237 0.500000 0.000000
O O11 0.211579 0.583645 0.885890
O O12 0.500000 0.758453 0.250000
O O13 0.383773 0.824580 0.266454
#
# Coordination Sequence:
#
# PCOD8160301 Si02
#       7
#     4   4   8   8   8   8   8
#     4  12  26  40  56  82 134 178 242 270 316 382
#     4  12  22  38  54  82 130 188 216 264 318 382
#     4  11  22  38  65  90 128 174 219 277 329 395
#     4  11  20  40  64  92 128 167 214 266 338 401
#     4  11  24  38  63  97 131 168 212 273 351 402
#     4  12  25  41  58  90 128 179 238 279 317 392
#     4  11  23  36  58  88 128 176 218 264 321 405
#
# _framework density 20.833148999999999
#
# number of rings (size 3 to 8) (size 9 to 14) (size 15 to 20)
#    0.000    0.667    5.000    4.000    2.333    2.000 
#    0.000    0.000    0.000    0.000    0.000    0.000 
#   25.000    0.000    0.000    0.000    0.000    0.000 
#
# Total GULP energy -297373.024705 kJ/mol
# GULP energy per Si atom -12390.542696 kJ/mol
# Density = 2.078573 g / cm^3
# Si number density = 20.833149 Si / 1000 Ang^3
#
#
#
# Elastic Constant Matrix: (Units=GPa)
#
#
# Indices 1 2 3 4 5 6 
#
# 1 70.0377 27.3412 29.8805 0.0000 0.0000 0.0000
# 2 27.3412 92.4194 26.3023 0.0000 0.0000 0.0000
# 3 29.8805 26.3023 89.7731 0.0000 0.0000 0.0000
# 4 0.0000 0.0000 0.0000 31.1247 0.0000 0.0000
# 5 0.0000 0.0000 0.0000 0.0000 31.0770 0.0000
# 6 0.0000 0.0000 0.0000 0.0000 0.0000 14.7454
#
#
#
# Elastic Compliance Matrix: (Units=1/GPa)
#
#
# Indices 1 2 3 4 5 6 
#
# 1 0.017853 -0.003917 -0.004795 0.000000 0.000000 0.000000
# 2 -0.003917 0.012664 -0.002407 0.000000 0.000000 0.000000
# 3 -0.004795 -0.002407 0.013440 0.000000 0.000000 0.000000
# 4 0.000000 0.000000 0.000000 0.032129 0.000000 0.000000
# 5 0.000000 0.000000 0.000000 0.000000 0.032178 0.000000
# 6 0.000000 0.000000 0.000000 0.000000 0.000000 0.067818
#
#
# Mechanical properties :
#
#
# Convention : Reuss Voigt Hill
#
# Bulk Modulus (GPa) = 46.03957 46.58649 46.31303
# Shear Modulus (GPa) = 24.32405 26.63651 25.48028
#
# Velocity S-wave (km/s) = 3.42067 3.57958 3.50103
# Velocity P-wave (km/s) = 6.14398 6.28449 6.21463
#
# Compressibility (1/GPa) = 0.02172045
#
# Stress axis : x y z
#
# Youngs Moduli (GPa) = 56.01408 78.96431 74.40403
#
# Poissons Ratio (x) = 0.30930 0.35673
# Poissons Ratio (y) = 0.21941 0.17906
# Poissons Ratio (z) = 0.26856 0.19004
#
# Static dielectric constant tensor:
#      x y z
#    x 3.693670 0.000000 0.000000 
#    y 0.000000 3.646440 0.000000 
#    z 0.000000 0.000000 4.654950 
# 
# 
# High freq. dielectric constant tensor:
#      x y z
#    x 1.792750 0.000000 0.000000 
#    y 0.000000 1.791610 0.000000 
#    z 0.000000 0.000000 1.837170 
# 
# From -- ./inp_files/2760.got.cif
#   From: 2010.03.12/outbox.cif.g09.slc.cpg/sg20_2_cif.got.tgz:2760.got - 2010.04.14 01:38:04.
