data_PCOD8160476
_publ_section_title
;
Structure prediction by ZEFSAII (Michael W. Deem and Ramdas Pophale) SiO2 
 PCOD8160476
Probable space group: C 2 2 21
;
_chemical_formula_sum "Si O2"
_cell_formula_units_Z 56
_cell_length_a 19.507233
_cell_length_b 14.743080
_cell_length_c 9.221215
_cell_angle_alpha 90.000000
_cell_angle_beta 90.000000
_cell_angle_gamma 90.000000
_cell_volume 2651.990974
_symmetry_space_group_name_H-M "C 2 2 21"
_symmetry_group_IT_number 20
_symmetry_cell_setting 'orthorhombic'
loop_
_space_group_symop_operation_xyz
x,y,z
-x,-y,1/2+z
x,-y,-z
-x,y,1/2-z
1/2+x,1/2+y,z
1/2-x,1/2-y,1/2+z
1/2+x,1/2-y,-z
1/2-x,1/2+y,1/2-z
loop_
_atom_site_type_symbol
_atom_site_label
_atom_site_fract_x
_atom_site_fract_y
_atom_site_fract_z
Si Si1 0.197356 0.534377 0.835735
Si Si2 0.631828 0.306239 0.991373
Si Si3 0.210405 0.796093 0.273173
Si Si4 0.116452 0.187091 0.473912
Si Si5 0.919005 0.335114 0.261342
Si Si6 0.210496 0.120007 0.242081
Si Si7 0.487549 0.585409 0.587011
O O1 0.256789 0.608445 0.817969
O O2 0.125714 0.571396 0.767443
O O3 0.226241 0.449695 0.741209
O O4 0.185933 0.500000 0.000000
O O5 0.602230 0.218979 0.906337
O O6 0.654086 0.390982 0.886022
O O7 0.693005 0.283118 0.103157
O O8 0.570766 0.339180 0.093496
O O9 0.143796 0.779067 0.371462
O O10 0.266032 0.720359 0.306581
O O11 0.099972 0.275473 0.378478
O O12 0.173126 0.122325 0.397423
O O13 0.051462 0.124488 0.498692
O O14 0.000000 0.358836 0.250000
O O15 0.460207 0.500000 0.500000
O O16 0.500000 0.554297 0.750000
#
# Coordination Sequence:
#
# PCOD8160476 Si02
#       7
#     8   8   8   8   8   8   8
#     4  12  25  44  73 104 141 188 239 297 356 430
#     4  11  24  42  68 101 139 182 229 293 353 422
#     4  12  23  44  69 104 138 179 231 287 362 413
#     4  11  23  43  68  98 137 185 227 290 354 423
#     4  11  24  47  75  99 139 193 241 284 361 427
#     4  11  25  41  70 100 138 177 233 290 351 418
#     4  12  28  42  64 102 142 184 233 289 360 434
#
# _framework density 21.116211
#
# number of rings (size 3 to 8) (size 9 to 14) (size 15 to 20)
#    0.000    0.571    7.143    1.714    8.000    0.000 
#    0.000    1.429    0.000    0.000    0.000    0.000 
#    0.000    0.000    0.000    0.000    0.000    0.000 
#
# Total GULP energy -347111.787664 kJ/mol
# GULP energy per Si atom -12396.849559 kJ/mol
# Density = 2.106815 g / cm^3
# Si number density = 21.116211 Si / 1000 Ang^3
#
#
#
# Elastic Constant Matrix: (Units=GPa)
#
#
# Indices 1 2 3 4 5 6 
#
# 1 115.9134 36.4641 34.4741 0.0000 0.0000 0.0000
# 2 36.4641 79.8796 35.2825 0.0000 0.0000 0.0000
# 3 34.4741 35.2825 113.3146 0.0000 0.0000 0.0000
# 4 0.0000 0.0000 0.0000 24.0396 0.0000 0.0000
# 5 0.0000 0.0000 0.0000 0.0000 34.8591 0.0000
# 6 0.0000 0.0000 0.0000 0.0000 0.0000 9.2497
#
#
#
# Elastic Compliance Matrix: (Units=1/GPa)
#
#
# Indices 1 2 3 4 5 6 
#
# 1 0.010437 -0.003898 -0.001962 0.000000 0.000000 0.000000
# 2 -0.003898 0.015971 -0.003787 0.000000 0.000000 0.000000
# 3 -0.001962 -0.003787 0.010601 0.000000 0.000000 0.000000
# 4 0.000000 0.000000 0.000000 0.041598 0.000000 0.000000
# 5 0.000000 0.000000 0.000000 0.000000 0.028687 0.000000
# 6 0.000000 0.000000 0.000000 0.000000 0.000000 0.108112
#
#
# Mechanical properties :
#
#
# Convention : Reuss Voigt Hill
#
# Bulk Modulus (GPa) = 56.44682 57.94989 57.19835
# Shear Modulus (GPa) = 20.78109 27.15548 23.96828
#
# Velocity S-wave (km/s) = 3.14049 3.58998 3.37273
# Velocity P-wave (km/s) = 6.31979 6.68482 6.50487
#
# Compressibility (1/GPa) = 0.01771579
#
# Stress axis : x y z
#
# Youngs Moduli (GPa) = 95.81581 62.61421 94.33173
#
# Poissons Ratio (x) = 0.24406 0.18504
# Poissons Ratio (y) = 0.37347 0.35723
# Poissons Ratio (z) = 0.18795 0.23712
#
# Static dielectric constant tensor:
#      x y z
#    x 4.017620 0.000000 0.000000 
#    y 0.000000 3.599990 0.000000 
#    z 0.000000 0.000000 5.376570 
# 
# 
# High freq. dielectric constant tensor:
#      x y z
#    x 1.838870 0.000000 0.000000 
#    y 0.000000 1.807180 0.000000 
#    z 0.000000 0.000000 1.839030 
# 
# From -- ./inp_files/10200.got.cif
#   From: 2010.03.12/outbox.cif.g09.slc.cpg/sg20_6_cif.got.tgz:10200.got - 2010.04.14 01:38:04.
