data_PCOD8160082
_publ_section_title
;
Structure prediction by ZEFSAII (Michael W. Deem and Ramdas Pophale) SiO2 
 PCOD8160082
Probable space group: C 2 2 21
;
_chemical_formula_sum "Si O2"
_cell_formula_units_Z 48
_cell_length_a 8.058117
_cell_length_b 18.725623
_cell_length_c 14.074557
_cell_angle_alpha 90.000000
_cell_angle_beta 90.000000
_cell_angle_gamma 90.000000
_cell_volume 2123.755803
_symmetry_space_group_name_H-M "C 2 2 21"
_symmetry_group_IT_number 20
_symmetry_cell_setting 'orthorhombic'
loop_
_space_group_symop_operation_xyz
x,y,z
-x,-y,1/2+z
x,-y,-z
-x,y,1/2-z
1/2+x,1/2+y,z
1/2-x,1/2-y,1/2+z
1/2+x,1/2-y,-z
1/2-x,1/2+y,1/2-z
loop_
_atom_site_type_symbol
_atom_site_label
_atom_site_fract_x
_atom_site_fract_y
_atom_site_fract_z
Si Si1 0.861614 0.905319 0.137705
Si Si2 0.500000 0.528764 0.250000
Si Si3 0.969681 0.450079 0.415154
Si Si4 0.713896 0.355972 0.067227
Si Si5 0.283978 0.637989 0.346152
Si Si6 0.181061 0.766006 0.238174
Si Si7 0.000000 0.549659 0.250000
O O1 0.704451 0.907872 0.064460
O O2 0.821693 0.842125 0.210204
O O3 0.036888 0.895204 0.083607
O O4 0.866546 0.978350 0.198668
O O5 0.430110 0.581127 0.331884
O O6 0.025887 0.500000 0.500000
O O7 0.916472 0.497475 0.325772
O O8 0.129388 0.401064 0.394623
O O9 0.720078 0.281502 0.126784
O O10 0.734021 0.339452 0.955975
O O11 0.311957 0.710854 0.284784
O O12 0.122022 0.599460 0.308304
O O13 0.000000 0.730183 0.250000
#
# Coordination Sequence:
#
# PCOD8160082 Si02
#       7
#     8   4   8   8   8   8   4
#     4  11  24  47  72 103 148 192 238 293 371 445
#     4  12  24  43  73 108 146 188 236 312 358 421
#     4  12  25  41  73 108 136 189 235 298 366 437
#     4  11  25  47  75 101 144 196 245 292 367 443
#     4  12  26  45  72 106 146 185 244 308 358 425
#     4  10  23  51  73  97 150 199 235 302 373 431
#     4  12  22  43  67 100 146 174 236 298 356 421
#
# _framework density 22.601469000000002
#
# number of rings (size 3 to 8) (size 9 to 14) (size 15 to 20)
#    0.000    0.667    6.667    2.000    2.333    1.333 
#   15.000    0.000    0.000    0.000    0.000    0.000 
#    0.000    0.000    0.000    0.000    0.000    0.000 
#
# Total GULP energy -297410.113385 kJ/mol
# GULP energy per Si atom -12392.088058 kJ/mol
# Density = 2.255003 g / cm^3
# Si number density = 22.601469 Si / 1000 Ang^3
#
#
#
# Elastic Constant Matrix: (Units=GPa)
#
#
# Indices 1 2 3 4 5 6 
#
# 1 129.2384 36.3817 25.7247 0.0000 0.0000 0.0000
# 2 36.3817 126.3285 50.7257 0.0000 0.0000 0.0000
# 3 25.7247 50.7257 136.4756 0.0000 0.0000 0.0000
# 4 0.0000 0.0000 0.0000 12.8999 0.0000 0.0000
# 5 0.0000 0.0000 0.0000 0.0000 31.2727 0.0000
# 6 0.0000 0.0000 0.0000 0.0000 0.0000 14.9337
#
#
#
# Elastic Compliance Matrix: (Units=1/GPa)
#
#
# Indices 1 2 3 4 5 6 
#
# 1 0.008496 -0.002120 -0.000813 0.000000 0.000000 0.000000
# 2 -0.002120 0.009834 -0.003255 0.000000 0.000000 0.000000
# 3 -0.000813 -0.003255 0.008691 0.000000 0.000000 0.000000
# 4 0.000000 0.000000 0.000000 0.077520 0.000000 0.000000
# 5 0.000000 0.000000 0.000000 0.000000 0.031977 0.000000
# 6 0.000000 0.000000 0.000000 0.000000 0.000000 0.066963
#
#
# Mechanical properties :
#
#
# Convention : Reuss Voigt Hill
#
# Bulk Modulus (GPa) = 68.29417 68.63407 68.46412
# Shear Modulus (GPa) = 22.65117 30.43529 26.54323
#
# Velocity S-wave (km/s) = 3.16919 3.67359 3.43067
# Velocity P-wave (km/s) = 6.60863 6.95893 6.78604
#
# Compressibility (1/GPa) = 0.01464254
#
# Stress axis : x y z
#
# Youngs Moduli (GPa) = 117.69647 101.69175 115.06676
#
# Poissons Ratio (x) = 0.21561 0.09360
# Poissons Ratio (y) = 0.24955 0.37458
# Poissons Ratio (z) = 0.09574 0.33104
#
# Static dielectric constant tensor:
#      x y z
#    x 4.480260 0.000000 0.000000 
#    y 0.000000 4.109730 0.000000 
#    z 0.000000 0.000000 3.950670 
# 
# 
# High freq. dielectric constant tensor:
#      x y z
#    x 1.900200 0.000000 0.000000 
#    y 0.000000 1.888380 0.000000 
#    z 0.000000 0.000000 1.882220 
# 
# From -- ./inp_files/18934.got.cif
#   From: 2010.03.12/outbox.cif.g09.slc.cpg/sg20_10_cif.got.tgz:18934.got - 2010.04.14 01:38:04.
