data_PCOD8160742
_publ_section_title
;
Structure prediction by ZEFSAII (Michael W. Deem and Ramdas Pophale) SiO2 
 PCOD8160742
Probable space group: C 2 2 21
;
_chemical_formula_sum "Si O2"
_cell_formula_units_Z 32
_cell_length_a 5.199911
_cell_length_b 13.947473
_cell_length_c 17.054331
_cell_angle_alpha 90.000000
_cell_angle_beta 90.000000
_cell_angle_gamma 90.000000
_cell_volume 1236.875900
_symmetry_space_group_name_H-M "C 2 2 21"
_symmetry_group_IT_number 20
_symmetry_cell_setting 'orthorhombic'
loop_
_space_group_symop_operation_xyz
x,y,z
-x,-y,1/2+z
x,-y,-z
-x,y,1/2-z
1/2+x,1/2+y,z
1/2-x,1/2-y,1/2+z
1/2+x,1/2-y,-z
1/2-x,1/2+y,1/2-z
loop_
_atom_site_type_symbol
_atom_site_label
_atom_site_fract_x
_atom_site_fract_y
_atom_site_fract_z
Si Si1 0.866225 0.121155 0.666475
Si Si2 0.500000 0.627397 0.250000
Si Si3 0.551593 0.270328 0.599377
Si Si4 0.000000 0.494931 0.750000
Si Si5 0.770250 0.902161 0.033039
O O1 0.821998 0.228994 0.633192
O O2 0.596090 0.062370 0.677433
O O3 0.000000 0.128381 0.750000
O O4 0.043201 0.066141 0.603996
O O5 0.597603 0.690907 0.176396
O O6 0.251691 0.565208 0.223063
O O7 0.431203 0.176829 0.559646
O O8 0.567102 0.355064 0.537495
O O9 0.639842 0.000000 0.000000
#
# Coordination Sequence:
#
# PCOD8160742 Si02
#       5
#     8   4   8   4   8
#     4  12  26  53  81 123 168 221 292 352 415 516
#     4  12  29  50  89 124 168 224 291 348 433 502
#     4  12  28  52  81 123 172 219 285 357 425 515
#     4  12  27  50  85 128 162 224 285 350 419 508
#     4  12  28  53  83 125 171 226 277 355 431 509
#
# _framework density 25.871635000000001
#
# number of rings (size 3 to 8) (size 9 to 14) (size 15 to 20)
#    0.000    0.000    3.750    5.250    8.750    1.000 
#    0.000    0.000    0.000    0.000    0.000    0.000 
#    0.000    0.000    0.000    0.000    0.000    0.000 
#
# Total GULP energy -198318.948901 kJ/mol
# GULP energy per Si atom -12394.934306 kJ/mol
# Density = 2.581275 g / cm^3
# Si number density = 25.871635 Si / 1000 Ang^3
#
#
#
# Elastic Constant Matrix: (Units=GPa)
#
#
# Indices 1 2 3 4 5 6 
#
# 1 101.1144 33.1139 34.1260 0.0000 0.0000 0.0000
# 2 33.1139 144.9585 65.4265 0.0000 0.0000 0.0000
# 3 34.1260 65.4265 185.5443 0.0000 0.0000 0.0000
# 4 0.0000 0.0000 0.0000 43.5118 0.0000 0.0000
# 5 0.0000 0.0000 0.0000 0.0000 30.0569 0.0000
# 6 0.0000 0.0000 0.0000 0.0000 0.0000 45.4831
#
#
#
# Elastic Compliance Matrix: (Units=1/GPa)
#
#
# Indices 1 2 3 4 5 6 
#
# 1 0.010966 -0.001897 -0.001348 0.000000 0.000000 0.000000
# 2 -0.001897 0.008532 -0.002660 0.000000 0.000000 0.000000
# 3 -0.001348 -0.002660 0.006575 0.000000 0.000000 0.000000
# 4 0.000000 0.000000 0.000000 0.022982 0.000000 0.000000
# 5 0.000000 0.000000 0.000000 0.000000 0.033270 0.000000
# 6 0.000000 0.000000 0.000000 0.000000 0.000000 0.021986
#
#
# Mechanical properties :
#
#
# Convention : Reuss Voigt Hill
#
# Bulk Modulus (GPa) = 70.10376 77.43887 73.77132
# Shear Modulus (GPa) = 41.36469 43.74043 42.55256
#
# Velocity S-wave (km/s) = 4.00289 4.11624 4.05996
# Velocity P-wave (km/s) = 6.96561 7.25177 7.11013
#
# Compressibility (1/GPa) = 0.01426457
#
# Stress axis : x y z
#
# Youngs Moduli (GPa) = 91.19198 117.20219 152.08185
#
# Poissons Ratio (x) = 0.22228 0.20503
# Poissons Ratio (y) = 0.17295 0.40451
# Poissons Ratio (z) = 0.12294 0.31174
#
# Static dielectric constant tensor:
#      x y z
#    x 4.487510 0.000000 0.000000 
#    y 0.000000 5.050710 0.000000 
#    z 0.000000 0.000000 5.107370 
# 
# 
# High freq. dielectric constant tensor:
#      x y z
#    x 2.011980 0.000000 0.000000 
#    y 0.000000 2.049170 0.000000 
#    z 0.000000 0.000000 2.057760 
# 
# From -- ./inp_files/22516.got.cif
#   From: 2010.03.12/outbox.cif.g09.slc.cpg/sg20_12_cif.got.tgz:22516.got - 2010.04.14 01:38:04.
