data_PCOD8160328
_publ_section_title
;
Structure prediction by ZEFSAII (Michael W. Deem and Ramdas Pophale) SiO2 
 PCOD8160328
Probable space group: C 2 2 21
;
_chemical_formula_sum "Si O2"
_cell_formula_units_Z 48
_cell_length_a 8.758216
_cell_length_b 16.106331
_cell_length_c 16.912046
_cell_angle_alpha 90.000000
_cell_angle_beta 90.000000
_cell_angle_gamma 90.000000
_cell_volume 2385.659309
_symmetry_space_group_name_H-M "C 2 2 21"
_symmetry_group_IT_number 20
_symmetry_cell_setting 'orthorhombic'
loop_
_space_group_symop_operation_xyz
x,y,z
-x,-y,1/2+z
x,-y,-z
-x,y,1/2-z
1/2+x,1/2+y,z
1/2-x,1/2-y,1/2+z
1/2+x,1/2-y,-z
1/2-x,1/2+y,1/2-z
loop_
_atom_site_type_symbol
_atom_site_label
_atom_site_fract_x
_atom_site_fract_y
_atom_site_fract_z
Si Si1 0.919550 0.661022 0.144178
Si Si2 0.859918 0.636280 0.692537
Si Si3 0.341106 0.261973 0.555364
Si Si4 0.195145 0.261349 0.788740
Si Si5 0.655590 0.329490 0.571167
Si Si6 0.855608 0.523190 0.411452
O O1 0.806469 0.680416 0.071662
O O2 0.819560 0.662094 0.225126
O O3 0.041048 0.737060 0.157743
O O4 0.005862 0.574788 0.128452
O O5 0.896128 0.708004 0.629637
O O6 0.720745 0.671891 0.746789
O O7 0.815357 0.554494 0.644090
O O8 0.000000 0.617057 0.750000
O O9 0.487971 0.318890 0.532844
O O10 0.294782 0.203339 0.483304
O O11 0.339030 0.281639 0.844809
O O12 0.696765 0.425883 0.584237
O O13 0.908608 0.500000 0.500000
#
# Coordination Sequence:
#
# PCOD8160328 Si02
#       6
#     8   8   8   8   8   8
#     4   9  21  38  66  90 125 166 213 261 314 388
#     4  11  22  38  66  95 128 170 220 267 318 391
#     4  11  22  40  69  95 124 168 221 264 314 389
#     4   9  19  38  62  90 120 167 216 256 304 379
#     4  11  21  38  64  93 125 168 212 268 320 384
#     4  11  23  40  61  94 136 171 206 267 342 379
#
# _framework density 20.120222999999999
#
# number of rings (size 3 to 8) (size 9 to 14) (size 15 to 20)
#    0.000    1.667    3.333    2.000    4.667    0.000 
#    0.000    0.833   14.667    0.000    0.000    0.000 
#    0.000    0.000    0.000    0.000    0.000    0.000 
#
# Total GULP energy -297354.256381 kJ/mol
# GULP energy per Si atom -12389.760683 kJ/mol
# Density = 2.007443 g / cm^3
# Si number density = 20.120223 Si / 1000 Ang^3
#
#
#
# Elastic Constant Matrix: (Units=GPa)
#
#
# Indices 1 2 3 4 5 6 
#
# 1 101.4798 59.6971 36.9992 0.0000 0.0000 0.0000
# 2 59.6971 103.6029 40.1664 0.0000 0.0000 0.0000
# 3 36.9992 40.1664 92.8667 0.0000 0.0000 0.0000
# 4 0.0000 0.0000 0.0000 40.9280 0.0000 0.0000
# 5 0.0000 0.0000 0.0000 0.0000 34.1638 0.0000
# 6 0.0000 0.0000 0.0000 0.0000 0.0000 28.8389
#
#
#
# Elastic Compliance Matrix: (Units=1/GPa)
#
#
# Indices 1 2 3 4 5 6 
#
# 1 0.015480 -0.007844 -0.002775 0.000000 0.000000 0.000000
# 2 -0.007844 0.015572 -0.003610 0.000000 0.000000 0.000000
# 3 -0.002775 -0.003610 0.013435 0.000000 0.000000 0.000000
# 4 0.000000 0.000000 0.000000 0.024433 0.000000 0.000000
# 5 0.000000 0.000000 0.000000 0.000000 0.029271 0.000000
# 6 0.000000 0.000000 0.000000 0.000000 0.000000 0.034675
#
#
# Mechanical properties :
#
#
# Convention : Reuss Voigt Hill
#
# Bulk Modulus (GPa) = 62.38543 63.51940 62.95241
# Shear Modulus (GPa) = 30.00000 31.52526 30.76263
#
# Velocity S-wave (km/s) = 3.86558 3.96263 3.91441
# Velocity P-wave (km/s) = 7.14124 7.25087 7.19626
#
# Compressibility (1/GPa) = 0.01602938
#
# Stress axis : x y z
#
# Youngs Moduli (GPa) = 64.59824 64.21950 74.43280
#
# Poissons Ratio (x) = 0.50375 0.20654
# Poissons Ratio (y) = 0.50672 0.26869
# Poissons Ratio (z) = 0.17925 0.23182
#
# Static dielectric constant tensor:
#      x y z
#    x 3.562260 0.000000 0.000000 
#    y 0.000000 3.427360 0.000000 
#    z 0.000000 0.000000 4.022750 
# 
# 
# High freq. dielectric constant tensor:
#      x y z
#    x 1.775790 0.000000 0.000000 
#    y 0.000000 1.750970 0.000000 
#    z 0.000000 0.000000 1.807450 
# 
# From -- ./inp_files/23610.got.cif
#   From: 2010.03.12/outbox.cif.g09.slc.cpg/sg20_12_cif.got.tgz:23610.got - 2010.04.14 01:38:04.
