data_PCOD8160247
_publ_section_title
;
Structure prediction by ZEFSAII (Michael W. Deem and Ramdas Pophale) SiO2 
 PCOD8160247
Probable space group: C 2 2 21
;
_chemical_formula_sum "Si O2"
_cell_formula_units_Z 40
_cell_length_a 7.707196
_cell_length_b 9.722134
_cell_length_c 22.473496
_cell_angle_alpha 90.000000
_cell_angle_beta 90.000000
_cell_angle_gamma 90.000000
_cell_volume 1683.947871
_symmetry_space_group_name_H-M "C 2 2 21"
_symmetry_group_IT_number 20
_symmetry_cell_setting 'orthorhombic'
loop_
_space_group_symop_operation_xyz
x,y,z
-x,-y,1/2+z
x,-y,-z
-x,y,1/2-z
1/2+x,1/2+y,z
1/2-x,1/2-y,1/2+z
1/2+x,1/2-y,-z
1/2-x,1/2+y,1/2-z
loop_
_atom_site_type_symbol
_atom_site_label
_atom_site_fract_x
_atom_site_fract_y
_atom_site_fract_z
Si Si1 0.701388 0.825865 0.398690
Si Si2 0.644240 0.036688 0.302073
Si Si3 0.548230 0.000000 0.500000
Si Si4 0.779265 0.963919 0.937861
Si Si5 0.500000 0.473363 0.250000
Si Si6 0.085986 0.811630 0.361256
O O1 0.619455 0.894093 0.338980
O O2 0.638761 0.665510 0.401919
O O3 0.906031 0.840328 0.393353
O O4 0.662034 0.893986 0.462441
O O5 0.500000 0.046068 0.250000
O O6 0.624577 0.150915 0.353695
O O7 0.839217 0.060977 0.276543
O O8 0.419981 0.079667 0.453694
O O9 0.771014 0.103585 0.898853
O O10 0.878981 0.000000 0.000000
O O11 0.591744 0.373315 0.295928
#
# Coordination Sequence:
#
# PCOD8160247 Si02
#       6
#     8   8   4   8   4   8
#     4  11  26  46  72 106 145 193 247 308 377 440
#     4  11  26  51  77 107 151 194 251 309 373 454
#     4  10  26  42  76 106 138 202 244 300 384 444
#     4  10  27  43  69 103 147 191 246 304 375 448
#     4  10  26  46  74 110 146 194 238 310 378 430
#     4  11  25  49  70 107 151 187 248 315 364 449
#
# _framework density 23.753705
#
# number of rings (size 3 to 8) (size 9 to 14) (size 15 to 20)
#    0.600    0.800    1.000    1.200   12.600    3.200 
#    3.600    0.000    0.000    0.000    0.000    0.000 
#    0.000    0.000    0.000    0.000    0.000    0.000 
#
# Total GULP energy -247806.865415 kJ/mol
# GULP energy per Si atom -12390.343271 kJ/mol
# Density = 2.369964 g / cm^3
# Si number density = 23.753705 Si / 1000 Ang^3
#
#
#
# Elastic Constant Matrix: (Units=GPa)
#
#
# Indices 1 2 3 4 5 6 
#
# 1 81.2636 37.7426 46.9046 0.0000 0.0000 0.0000
# 2 37.7426 155.8994 75.8316 0.0000 0.0000 0.0000
# 3 46.9046 75.8316 134.4176 0.0000 0.0000 0.0000
# 4 0.0000 0.0000 0.0000 48.8593 0.0000 0.0000
# 5 0.0000 0.0000 0.0000 0.0000 47.5121 0.0000
# 6 0.0000 0.0000 0.0000 0.0000 0.0000 21.2698
#
#
#
# Elastic Compliance Matrix: (Units=1/GPa)
#
#
# Indices 1 2 3 4 5 6 
#
# 1 0.015681 -0.001564 -0.004590 0.000000 0.000000 0.000000
# 2 -0.001564 0.008996 -0.004529 0.000000 0.000000 0.000000
# 3 -0.004590 -0.004529 0.011596 0.000000 0.000000 0.000000
# 4 0.000000 0.000000 0.000000 0.020467 0.000000 0.000000
# 5 0.000000 0.000000 0.000000 0.000000 0.021047 0.000000
# 6 0.000000 0.000000 0.000000 0.000000 0.000000 0.047015
#
#
# Mechanical properties :
#
#
# Convention : Reuss Voigt Hill
#
# Bulk Modulus (GPa) = 67.07962 76.94869 72.01415
# Shear Modulus (GPa) = 33.08239 37.60171 35.34205
#
# Velocity S-wave (km/s) = 3.73597 3.98299 3.86146
# Velocity P-wave (km/s) = 6.84916 7.32236 7.08971
#
# Compressibility (1/GPa) = 0.01490766
#
# Stress axis : x y z
#
# Youngs Moduli (GPa) = 63.77133 111.15793 86.23421
#
# Poissons Ratio (x) = 0.17384 0.39578
# Poissons Ratio (y) = 0.09973 0.39060
# Poissons Ratio (z) = 0.29268 0.50349
#
# Static dielectric constant tensor:
#      x y z
#    x 4.051000 0.000000 0.000000 
#    y 0.000000 4.255250 0.000000 
#    z 0.000000 0.000000 4.458960 
# 
# 
# High freq. dielectric constant tensor:
#      x y z
#    x 1.925290 0.000000 0.000000 
#    y 0.000000 1.932510 0.000000 
#    z 0.000000 0.000000 1.961290 
# 
# From -- ./inp_files/28613.got.cif
#   From: 2010.03.12/outbox.cif.g09.slc.cpg/sg20_15_cif.got.tgz:28613.got - 2010.04.14 01:38:04.
