data_PCOD8160591
_publ_section_title
;
Structure prediction by ZEFSAII (Michael W. Deem and Ramdas Pophale) SiO2 
 PCOD8160591
Probable space group: C 2 2 21
;
_chemical_formula_sum "Si O2"
_cell_formula_units_Z 32
_cell_length_a 5.461030
_cell_length_b 12.015618
_cell_length_c 17.323768
_cell_angle_alpha 90.000000
_cell_angle_beta 90.000000
_cell_angle_gamma 90.000000
_cell_volume 1136.744952
_symmetry_space_group_name_H-M "C 2 2 21"
_symmetry_group_IT_number 20
_symmetry_cell_setting 'orthorhombic'
loop_
_space_group_symop_operation_xyz
x,y,z
-x,-y,1/2+z
x,-y,-z
-x,y,1/2-z
1/2+x,1/2+y,z
1/2-x,1/2-y,1/2+z
1/2+x,1/2-y,-z
1/2-x,1/2+y,1/2-z
loop_
_atom_site_type_symbol
_atom_site_label
_atom_site_fract_x
_atom_site_fract_y
_atom_site_fract_z
Si Si1 0.726145 0.623353 0.563450
Si Si2 0.992976 0.844891 0.590279
Si Si3 0.435270 0.987819 0.831355
Si Si4 0.336331 0.293404 0.321075
O O1 0.924117 0.722415 0.557395
O O2 0.629514 0.588071 0.478264
O O3 0.491196 0.670708 0.605714
O O4 0.839709 0.517098 0.610072
O O5 0.761528 0.914058 0.621539
O O6 0.186976 0.820188 0.659147
O O7 0.500000 0.926497 0.750000
O O8 0.332567 0.104105 0.799066
O O9 0.500000 0.258890 0.250000
#
# Coordination Sequence:
#
# PCOD8160591 Si02
#       4
#     8   8   8   8
#     4  11  24  52  80 117 169 212 277 354 413 500
#     4  11  26  50  84 121 166 224 282 343 433 500
#     4  11  26  52  83 122 166 219 286 347 426 508
#     4  11  24  51  81 116 169 214 276 352 412 496
#
# _framework density 28.150552999999999
#
# number of rings (size 3 to 8) (size 9 to 14) (size 15 to 20)
#    0.000    1.000    5.000    0.000    0.000    4.000 
#    9.000    2.500    0.000    0.000    0.000    0.000 
#    0.000    0.000    0.000    0.000    0.000    0.000 
#
# Total GULP energy -198390.381525 kJ/mol
# GULP energy per Si atom -12399.398845 kJ/mol
# Density = 2.808648 g / cm^3
# Si number density = 28.150553 Si / 1000 Ang^3
#
#
#
# Elastic Constant Matrix: (Units=GPa)
#
#
# Indices 1 2 3 4 5 6 
#
# 1 125.1763 26.2355 91.4070 0.0000 0.0000 0.0000
# 2 26.2355 135.5306 60.8912 0.0000 0.0000 0.0000
# 3 91.4070 60.8912 211.3628 0.0000 0.0000 0.0000
# 4 0.0000 0.0000 0.0000 43.1038 0.0000 0.0000
# 5 0.0000 0.0000 0.0000 0.0000 77.1050 0.0000
# 6 0.0000 0.0000 0.0000 0.0000 0.0000 51.4663
#
#
#
# Elastic Compliance Matrix: (Units=1/GPa)
#
#
# Indices 1 2 3 4 5 6 
#
# 1 0.011676 0.000010 -0.005052 0.000000 0.000000 0.000000
# 2 0.000010 0.008475 -0.002446 0.000000 0.000000 0.000000
# 3 -0.005052 -0.002446 0.007621 0.000000 0.000000 0.000000
# 4 0.000000 0.000000 0.000000 0.023200 0.000000 0.000000
# 5 0.000000 0.000000 0.000000 0.000000 0.012969 0.000000
# 6 0.000000 0.000000 0.000000 0.000000 0.000000 0.019430
#
#
# Mechanical properties :
#
#
# Convention : Reuss Voigt Hill
#
# Bulk Modulus (GPa) = 78.15370 92.12633 85.14001
# Shear Modulus (GPa) = 48.72658 53.90409 51.31534
#
# Velocity S-wave (km/s) = 4.16496 4.38065 4.27416
# Velocity P-wave (km/s) = 7.13808 7.64095 7.39379
#
# Compressibility (1/GPa) = 0.01279530
#
# Stress axis : x y z
#
# Youngs Moduli (GPa) = 85.64592 117.98846 131.22090
#
# Poissons Ratio (x) = -0.00114 0.66296
# Poissons Ratio (y) = -0.00083 0.32095
# Poissons Ratio (z) = 0.43270 0.28858
#
# Static dielectric constant tensor:
#      x y z
#    x 5.448520 0.000000 0.000000 
#    y 0.000000 5.540760 0.000000 
#    z 0.000000 0.000000 5.115240 
# 
# 
# High freq. dielectric constant tensor:
#      x y z
#    x 2.145720 0.000000 0.000000 
#    y 0.000000 2.179140 0.000000 
#    z 0.000000 0.000000 2.150070 
# 
# From -- ./inp_files/22490.got.cif
#   From: 2010.03.12/outbox.cif.g09.slc.cpg/sg20_12_cif.got.tgz:22490.got - 2010.04.14 01:38:04.
