data_PCOD8160085
_publ_section_title
;
Structure prediction by ZEFSAII (Michael W. Deem and Ramdas Pophale) SiO2 
 PCOD8160085
Probable space group: C 2 2 21
;
_chemical_formula_sum "Si O2"
_cell_formula_units_Z 28
_cell_length_a 8.848959
_cell_length_b 5.208777
_cell_length_c 27.020412
_cell_angle_alpha 90.000000
_cell_angle_beta 90.000000
_cell_angle_gamma 90.000000
_cell_volume 1245.431696
_symmetry_space_group_name_H-M "C 2 2 21"
_symmetry_group_IT_number 20
_symmetry_cell_setting 'orthorhombic'
loop_
_space_group_symop_operation_xyz
x,y,z
-x,-y,1/2+z
x,-y,-z
-x,y,1/2-z
1/2+x,1/2+y,z
1/2-x,1/2-y,1/2+z
1/2+x,1/2-y,-z
1/2-x,1/2+y,1/2-z
loop_
_atom_site_type_symbol
_atom_site_label
_atom_site_fract_x
_atom_site_fract_y
_atom_site_fract_z
Si Si1 0.652013 0.842945 0.044902
Si Si2 0.133497 0.500000 0.500000
Si Si3 0.993341 0.942056 0.192438
Si Si4 0.842225 0.559870 0.655451
O O1 0.757438 0.591190 0.045121
O O2 0.661924 0.990943 0.096765
O O3 0.477426 0.794883 0.028012
O O4 0.731670 0.000000 0.000000
O O5 0.823184 0.884994 0.176321
O O6 0.000000 0.007096 0.250000
O O7 0.091289 0.689354 0.182022
O O8 0.056149 0.188160 0.163534
#
# Coordination Sequence:
#
# PCOD8160085 Si02
#       4
#     8   4   8   8
#     4  10  26  40  66  95 135 176 222 275 332 411
#     4  10  24  38  64  86 140 162 226 262 336 382
#     4  12  26  47  71 103 137 179 233 293 343 406
#     4  12  26  43  74  98 139 179 232 276 357 405
#
# _framework density 22.482161999999999
#
# number of rings (size 3 to 8) (size 9 to 14) (size 15 to 20)
#    0.857    0.000    0.000    6.000   10.000    0.000 
#    0.000    0.000    0.000    0.000    0.000    0.000 
#    0.000    0.000    0.000    0.000    0.000    0.000 
#
# Total GULP energy -173480.330333 kJ/mol
# GULP energy per Si atom -12391.452167 kJ/mol
# Density = 2.243099 g / cm^3
# Si number density = 22.482162 Si / 1000 Ang^3
#
#
#
# Elastic Constant Matrix: (Units=GPa)
#
#
# Indices 1 2 3 4 5 6 
#
# 1 132.4760 33.6434 40.2447 0.0000 0.0000 0.0000
# 2 33.6434 82.5014 13.7243 0.0000 0.0000 0.0000
# 3 40.2447 13.7243 129.9836 0.0000 0.0000 0.0000
# 4 0.0000 0.0000 0.0000 19.0177 0.0000 0.0000
# 5 0.0000 0.0000 0.0000 0.0000 28.7524 0.0000
# 6 0.0000 0.0000 0.0000 0.0000 0.0000 -4.0943
#
#
#
# Elastic Compliance Matrix: (Units=1/GPa)
#
#
# Indices 1 2 3 4 5 6 
#
# 1 0.009144 -0.003316 -0.002481 0.000000 0.000000 0.000000
# 2 -0.003316 0.013540 -0.000403 0.000000 0.000000 0.000000
# 3 -0.002481 -0.000403 0.008504 0.000000 0.000000 0.000000
# 4 0.000000 0.000000 0.000000 0.052582 0.000000 0.000000
# 5 0.000000 0.000000 0.000000 0.000000 0.034780 0.000000
# 6 0.000000 0.000000 0.000000 0.000000 0.000000 -0.244239
#
#
# Mechanical properties :
#
#
# Convention : Reuss Voigt Hill
#
# Bulk Modulus (GPa) = 53.22468 57.79841 55.51154
# Shear Modulus (GPa) = -46.71805 25.89173 -10.41316
#
# Velocity S-wave (km/s) = -4.56346 3.39729 -2.15448
# Velocity P-wave (km/s) = 2.01030 6.41507 4.30766
#
# Compressibility (1/GPa) = 0.01878828
#
# Stress axis : x y z
#
# Youngs Moduli (GPa) = 109.35568 73.85312 117.59172
#
# Poissons Ratio (x) = 0.24492 0.29176
# Poissons Ratio (y) = 0.36266 0.04738
# Poissons Ratio (z) = 0.27132 0.02975
#
# Static dielectric constant tensor:
#      x y z
#    x 4.185390 0.000000 0.000000 
#    y 0.000000 4.011840 0.000000 
#    z 0.000000 0.000000 4.085190 
# 
# 
# High freq. dielectric constant tensor:
#      x y z
#    x 1.910960 0.000000 0.000000 
#    y 0.000000 1.871980 0.000000 
#    z 0.000000 0.000000 1.892380 
# 
# From -- ./inp_files/28141.got.cif
#   From: 2010.03.12/outbox.cif.g09.slc.cpg/sg20_15_cif.got.tgz:28141.got - 2010.04.14 01:38:04.
