data_PCOD8160107
_publ_section_title
;
Structure prediction by ZEFSAII (Michael W. Deem and Ramdas Pophale) SiO2 
 PCOD8160107
Probable space group: C 2 2 21
;
_chemical_formula_sum "Si O2"
_cell_formula_units_Z 44
_cell_length_a 6.736549
_cell_length_b 24.557786
_cell_length_c 13.424329
_cell_angle_alpha 90.000000
_cell_angle_beta 90.000000
_cell_angle_gamma 90.000000
_cell_volume 2220.850226
_symmetry_space_group_name_H-M "C 2 2 21"
_symmetry_group_IT_number 20
_symmetry_cell_setting 'orthorhombic'
loop_
_space_group_symop_operation_xyz
x,y,z
-x,-y,1/2+z
x,-y,-z
-x,y,1/2-z
1/2+x,1/2+y,z
1/2-x,1/2-y,1/2+z
1/2+x,1/2-y,-z
1/2-x,1/2+y,1/2-z
loop_
_atom_site_type_symbol
_atom_site_label
_atom_site_fract_x
_atom_site_fract_y
_atom_site_fract_z
Si Si1 0.624890 0.987546 0.156276
Si Si2 0.000000 0.048231 0.750000
Si Si3 0.823845 0.128589 0.590289
Si Si4 0.521038 0.085195 0.025152
Si Si5 0.958482 0.726112 0.861730
Si Si6 0.288276 0.683244 0.999359
O O1 0.500000 0.967170 0.250000
O O2 0.854915 0.991640 0.188344
O O3 0.536558 0.044900 0.118894
O O4 0.617376 0.941798 0.072099
O O5 0.873143 0.085299 0.675341
O O6 0.709083 0.099132 0.498302
O O7 0.678160 0.172723 0.638976
O O8 0.020392 0.155925 0.548720
O O9 0.645881 0.138893 0.050999
O O10 0.000000 0.745001 0.750000
O O11 0.169423 0.714895 0.913528
O O12 0.845526 0.774998 0.915102
#
# Coordination Sequence:
#
# PCOD8160107 Si02
#       6
#     8   4   8   8   8   8
#     4  11  23  43  62  94 125 165 214 270 315 377
#     4  12  22  38  72  96 118 166 228 266 320 372
#     4  11  22  40  67  94 125 167 213 271 313 379
#     4  10  24  42  63  89 133 164 209 264 323 375
#     4  11  24  41  66  96 131 166 215 265 321 386
#     4  11  22  44  64  96 131 171 212 262 324 387
#
# _framework density 19.812232000000002
#
# number of rings (size 3 to 8) (size 9 to 14) (size 15 to 20)
#    0.000    1.091    5.455    1.091    2.545    1.455 
#    4.909    0.000    0.000    0.000    0.000    0.000 
#    0.000    0.000    0.000    0.000    0.000    0.000 
#
# Total GULP energy -272885.287489 kJ/mol
# GULP energy per Si atom -12403.876704 kJ/mol
# Density = 1.976714 g / cm^3
# Si number density = 19.812232 Si / 1000 Ang^3
#
#
#
# Elastic Constant Matrix: (Units=GPa)
#
#
# Indices 1 2 3 4 5 6 
#
# 1 132.2123 49.0666 44.9139 0.0000 0.0000 0.0000
# 2 49.0666 99.8776 46.6018 0.0000 0.0000 0.0000
# 3 44.9139 46.6018 91.0986 0.0000 0.0000 0.0000
# 4 0.0000 0.0000 0.0000 6.9090 0.0000 0.0000
# 5 0.0000 0.0000 0.0000 0.0000 28.8532 0.0000
# 6 0.0000 0.0000 0.0000 0.0000 0.0000 26.4725
#
#
#
# Elastic Compliance Matrix: (Units=1/GPa)
#
#
# Indices 1 2 3 4 5 6 
#
# 1 0.009890 -0.003393 -0.003140 0.000000 0.000000 0.000000
# 2 -0.003393 0.014316 -0.005650 0.000000 0.000000 0.000000
# 3 -0.003140 -0.005650 0.015416 0.000000 0.000000 0.000000
# 4 0.000000 0.000000 0.000000 0.144739 0.000000 0.000000
# 5 0.000000 0.000000 0.000000 0.000000 0.034658 0.000000
# 6 0.000000 0.000000 0.000000 0.000000 0.000000 0.037775
#
#
# Mechanical properties :
#
#
# Convention : Reuss Voigt Hill
#
# Bulk Modulus (GPa) = 65.55744 67.15033 66.35389
# Shear Modulus (GPa) = 17.46758 24.62069 21.04413
#
# Velocity S-wave (km/s) = 2.97249 3.52902 3.26264
# Velocity P-wave (km/s) = 6.70389 7.11142 6.91066
#
# Compressibility (1/GPa) = 0.01525380
#
# Stress axis : x y z
#
# Youngs Moduli (GPa) = 101.11610 69.85371 64.86957
#
# Poissons Ratio (x) = 0.23704 0.20369
# Poissons Ratio (y) = 0.34313 0.36652
# Poissons Ratio (z) = 0.31750 0.39469
#
# Static dielectric constant tensor:
#      x y z
#    x 3.852020 0.000000 0.000000 
#    y 0.000000 3.667630 0.000000 
#    z 0.000000 0.000000 3.732030 
# 
# 
# High freq. dielectric constant tensor:
#      x y z
#    x 1.790750 0.000000 0.000000 
#    y 0.000000 1.772750 0.000000 
#    z 0.000000 0.000000 1.761930 
# 
# From -- ./inp_files/17722.got.cif
#   From: 2010.03.12/outbox.cif.g09.slc.cpg/sg20_9_cif.got.tgz:17722.got - 2010.04.14 01:38:04.
