data_PCOD8160772
_publ_section_title
;
Structure prediction by ZEFSAII (Michael W. Deem and Ramdas Pophale) SiO2 
 PCOD8160772
Probable space group: C 2 2 2
;
_chemical_formula_sum "Si O2"
_cell_formula_units_Z 32
_cell_length_a 13.232993
_cell_length_b 4.957473
_cell_length_c 19.049510
_cell_angle_alpha 90.000000
_cell_angle_beta 90.000000
_cell_angle_gamma 90.000000
_cell_volume 1249.689870
_symmetry_space_group_name_H-M "C 2 2 2"
_symmetry_group_IT_number 21
_symmetry_cell_setting 'orthorhombic'
loop_
_space_group_symop_operation_xyz
x,y,z
-x,-y,z
x,-y,-z
-x,y,-z
1/2+x,1/2+y,z
1/2-x,1/2-y,z
1/2+x,1/2-y,-z
1/2-x,1/2+y,-z
loop_
_atom_site_type_symbol
_atom_site_label
_atom_site_fract_x
_atom_site_fract_y
_atom_site_fract_z
Si Si1 0.865566 0.251044 0.451157
Si Si2 0.500000 0.000000 0.339902
Si Si3 0.179605 0.000000 0.000000
Si Si4 0.869839 0.254105 0.778122
Si Si5 0.369278 0.742087 0.137616
O O1 0.887207 0.500000 0.500000
O O2 0.750000 0.250000 0.424035
O O3 0.939139 0.276058 0.384555
O O4 0.892866 0.000000 0.500000
O O5 0.419394 0.168445 0.295162
O O6 0.250000 0.750000 0.971044
O O7 0.105364 0.125142 0.939952
O O8 0.750000 0.250000 0.766915
O O9 0.906614 0.459639 0.840569
O O10 0.909554 0.961486 0.802495
O O11 0.250000 0.750000 0.138464
#
# Coordination Sequence:
#
# PCOD8160772 Si02
#       5
#     8   4   4   8   8
#     4  10  25  49  74 103 137 171 219 281 336 398
#     4  12  27  46  76 103 138 188 228 268 346 423
#     4  10  16  28  58  91 122 175 236 284 344 403
#     4  10  23  40  61  95 137 176 222 278 335 402
#     4   9  18  35  57  89 131 174 226 285 336 393
#
# _framework density 25.606352000000001
#
# number of rings (size 3 to 8) (size 9 to 14) (size 15 to 20)
#    0.000    2.000    0.000    4.125    0.000   13.000 
#    0.000    2.500    0.000    4.500    0.000    0.000 
#    0.000    0.000    0.000    0.000    0.000    0.125 
#
# Total GULP energy -198302.279749 kJ/mol
# GULP energy per Si atom -12393.892484 kJ/mol
# Density = 2.554807 g / cm^3
# Si number density = 25.606352 Si / 1000 Ang^3
#
#
#
# Elastic Constant Matrix: (Units=GPa)
#
#
# Indices 1 2 3 4 5 6 
#
# 1 91.4810 -7.4339 50.0649 0.0000 0.0000 0.0000
# 2 -7.4339 126.8471 31.9929 0.0000 0.0000 0.0000
# 3 50.0649 31.9929 154.6838 0.0000 0.0000 0.0000
# 4 0.0000 0.0000 0.0000 51.0617 0.0000 0.0000
# 5 0.0000 0.0000 0.0000 0.0000 27.7405 0.0000
# 6 0.0000 0.0000 0.0000 0.0000 0.0000 11.3476
#
#
#
# Elastic Compliance Matrix: (Units=1/GPa)
#
#
# Indices 1 2 3 4 5 6 
#
# 1 0.013766 0.002037 -0.004877 0.000000 0.000000 0.000000
# 2 0.002037 0.008619 -0.002442 0.000000 0.000000 0.000000
# 3 -0.004877 -0.002442 0.008548 0.000000 0.000000 0.000000
# 4 0.000000 0.000000 0.000000 0.019584 0.000000 0.000000
# 5 0.000000 0.000000 0.000000 0.000000 0.036048 0.000000
# 6 0.000000 0.000000 0.000000 0.000000 0.000000 0.088124
#
#
# Mechanical properties :
#
#
# Convention : Reuss Voigt Hill
#
# Bulk Modulus (GPa) = 49.09400 58.02885 53.56143
# Shear Modulus (GPa) = 26.03594 37.92251 31.97923
#
# Velocity S-wave (km/s) = 3.19215 3.85253 3.53778
# Velocity P-wave (km/s) = 5.72719 6.51923 6.13600
#
# Compressibility (1/GPa) = 0.02036909
#
# Stress axis : x y z
#
# Youngs Moduli (GPa) = 72.64503 116.02641 116.98387
#
# Poissons Ratio (x) = -0.23631 0.57048
# Poissons Ratio (y) = -0.14796 0.28565
# Poissons Ratio (z) = 0.35426 0.28331
#
# Static dielectric constant tensor:
#      x y z
#    x 4.653930 0.000000 0.000000 
#    y 0.000000 5.376130 0.000000 
#    z 0.000000 0.000000 4.915730 
# 
# 
# High freq. dielectric constant tensor:
#      x y z
#    x 2.029860 0.000000 0.000000 
#    y 0.000000 2.037630 0.000000 
#    z 0.000000 0.000000 2.013500 
# 
# From -- ./inp_files/36462.got.cif
#   From: 2010.03.12/outbox.cif.g09.slc.cpg/sg21_19_cif.got.tgz:36462.got - 2010.04.14 01:59:26.
