data_PCOD8160978
_publ_section_title
;
Structure prediction by ZEFSAII (Michael W. Deem and Ramdas Pophale) SiO2 
 PCOD8160978
Probable space group: C 2 2 2
;
_chemical_formula_sum "Si O2"
_cell_formula_units_Z 40
_cell_length_a 9.527214
_cell_length_b 16.741461
_cell_length_c 12.381599
_cell_angle_alpha 90.000000
_cell_angle_beta 90.000000
_cell_angle_gamma 90.000000
_cell_volume 1974.858622
_symmetry_space_group_name_H-M "C 2 2 2"
_symmetry_group_IT_number 21
_symmetry_cell_setting 'orthorhombic'
loop_
_space_group_symop_operation_xyz
x,y,z
-x,-y,z
x,-y,-z
-x,y,-z
1/2+x,1/2+y,z
1/2-x,1/2-y,z
1/2+x,1/2-y,-z
1/2-x,1/2+y,-z
loop_
_atom_site_type_symbol
_atom_site_label
_atom_site_fract_x
_atom_site_fract_y
_atom_site_fract_z
Si Si1 0.764423 0.655013 0.621083
Si Si2 0.081518 0.759550 0.108232
Si Si3 0.834043 0.147058 0.616913
Si Si4 0.047835 0.313678 0.314038
Si Si5 0.546602 0.583439 0.768751
O O1 0.750000 0.750000 0.651560
O O2 0.693848 0.631418 0.508510
O O3 0.699288 0.598639 0.714742
O O4 0.931342 0.639087 0.615379
O O5 0.250000 0.750000 0.094805
O O6 0.031300 0.848737 0.140413
O O7 0.020212 0.698559 0.196646
O O8 0.000000 0.736462 0.000000
O O9 0.911157 0.232007 0.625654
O O10 0.692425 0.137321 0.688748
O O11 0.938886 0.084145 0.667919
O O12 0.500000 0.500000 0.824962
#
# Coordination Sequence:
#
# PCOD8160978 Si02
#       5
#     8   8   8   8   8
#     4  12  18  34  58  89 124 159 203 252 295 345
#     4  11  23  40  67  93 114 145 205 272 314 353
#     4  10  21  29  59  92 119 161 199 241 296 366
#     4  10  19  34  55  90 119 148 194 260 306 337
#     4  11  24  41  57  86 131 168 197 241 307 383
#
# _framework density 20.254614
#
# number of rings (size 3 to 8) (size 9 to 14) (size 15 to 20)
#    0.000    1.200    8.000    1.200    5.600    2.000 
#    0.000    1.000    0.000    2.400    0.000    0.000 
#    0.000    0.000    0.000    0.000    0.000    0.000 
#
# Total GULP energy -247765.887618 kJ/mol
# GULP energy per Si atom -12388.294381 kJ/mol
# Density = 2.020851 g / cm^3
# Si number density = 20.254614 Si / 1000 Ang^3
#
#
#
# Elastic Constant Matrix: (Units=GPa)
#
#
# Indices 1 2 3 4 5 6 
#
# 1 121.2589 12.5633 19.2537 0.0000 0.0000 0.0000
# 2 12.5633 49.1381 -5.2035 0.0000 0.0000 0.0000
# 3 19.2537 -5.2035 79.9554 0.0000 0.0000 0.0000
# 4 0.0000 0.0000 0.0000 11.9179 0.0000 0.0000
# 5 0.0000 0.0000 0.0000 0.0000 38.6549 0.0000
# 6 0.0000 0.0000 0.0000 0.0000 0.0000 25.1970
#
#
#
# Elastic Compliance Matrix: (Units=1/GPa)
#
#
# Indices 1 2 3 4 5 6 
#
# 1 0.008872 -0.002512 -0.002300 0.000000 0.000000 0.000000
# 2 -0.002512 0.021203 0.001985 0.000000 0.000000 0.000000
# 3 -0.002300 0.001985 0.013190 0.000000 0.000000 0.000000
# 4 0.000000 0.000000 0.000000 0.083907 0.000000 0.000000
# 5 0.000000 0.000000 0.000000 0.000000 0.025870 0.000000
# 6 0.000000 0.000000 0.000000 0.000000 0.000000 0.039687
#
#
# Mechanical properties :
#
#
# Convention : Reuss Voigt Hill
#
# Bulk Modulus (GPa) = 26.58780 33.73104 30.15942
# Shear Modulus (GPa) = 23.70550 30.06988 26.88769
#
# Velocity S-wave (km/s) = 3.42479 3.85722 3.64742
# Velocity P-wave (km/s) = 5.36602 6.04378 5.71495
#
# Compressibility (1/GPa) = 0.03761124
#
# Stress axis : x y z
#
# Youngs Moduli (GPa) = 112.71073 47.16262 75.81503
#
# Poissons Ratio (x) = 0.11847 0.17437
# Poissons Ratio (y) = 0.28312 -0.15048
# Poissons Ratio (z) = 0.25923 -0.09361
#
# Static dielectric constant tensor:
#      x y z
#    x 4.627590 0.000000 0.000000 
#    y 0.000000 3.472550 0.000000 
#    z 0.000000 0.000000 3.713250 
# 
# 
# High freq. dielectric constant tensor:
#      x y z
#    x 1.820210 0.000000 0.000000 
#    y 0.000000 1.731660 0.000000 
#    z 0.000000 0.000000 1.778220 
# 
# From -- ./inp_files/22262.got.cif
#   From: 2010.03.12/outbox.cif.g09.slc.cpg/sg21_12_cif.got.tgz:22262.got - 2010.04.14 01:59:26.
