data_PCOD8160297
_publ_section_title
;
Structure prediction by ZEFSAII (Michael W. Deem and Ramdas Pophale) SiO2 
 PCOD8160297
Probable space group: C 2 2 21
;
_chemical_formula_sum "Si O2"
_cell_formula_units_Z 36
_cell_length_a 6.196212
_cell_length_b 18.888304
_cell_length_c 15.501797
_cell_angle_alpha 90.000000
_cell_angle_beta 90.000000
_cell_angle_gamma 90.000000
_cell_volume 1814.267320
_symmetry_space_group_name_H-M "C 2 2 21"
_symmetry_group_IT_number 20
_symmetry_cell_setting 'orthorhombic'
loop_
_space_group_symop_operation_xyz
x,y,z
-x,-y,1/2+z
x,-y,-z
-x,y,1/2-z
1/2+x,1/2+y,z
1/2-x,1/2-y,1/2+z
1/2+x,1/2-y,-z
1/2-x,1/2+y,1/2-z
loop_
_atom_site_type_symbol
_atom_site_label
_atom_site_fract_x
_atom_site_fract_y
_atom_site_fract_z
Si Si1 0.895801 0.919647 0.026940
Si Si2 0.500000 0.748360 0.750000
Si Si3 0.365431 0.147809 0.670099
Si Si4 0.137381 0.681773 0.083964
Si Si5 0.786924 0.673562 0.963653
O O1 0.732744 0.913227 0.108348
O O2 0.126130 0.890588 0.058720
O O3 0.821029 0.874645 0.942482
O O4 0.916836 0.000000 0.000000
O O5 0.673990 0.700514 0.699517
O O6 0.369648 0.799928 0.685118
O O7 0.500000 0.114232 0.750000
O O8 0.544929 0.188388 0.614133
O O9 0.159980 0.752983 0.026359
O O10 0.905764 0.651819 0.052555
#
# Coordination Sequence:
#
# PCOD8160297 Si02
#       5
#     8   4   8   8   8
#     4  11  25  43  62  94 135 176 214 268 331 391
#     4  12  22  38  66 106 126 158 220 284 318 380
#     4  11  21  38  69  96 127 166 218 268 325 382
#     4  11  21  37  66  96 124 165 214 267 319 384
#     4  11  20  38  68  93 122 166 218 258 319 384
#
# _framework density 19.842721000000001
#
# number of rings (size 3 to 8) (size 9 to 14) (size 15 to 20)
#    0.000    0.889    6.667    1.333    0.000    3.556 
#    2.000    0.000    4.889    0.000    0.000    0.000 
#    0.000    0.000    0.000    0.000    0.000    0.000 
#
# Total GULP energy -223086.273490 kJ/mol
# GULP energy per Si atom -12393.681861 kJ/mol
# Density = 1.979756 g / cm^3
# Si number density = 19.842721 Si / 1000 Ang^3
#
#
#
# Elastic Constant Matrix: (Units=GPa)
#
#
# Indices 1 2 3 4 5 6 
#
# 1 107.0311 46.4177 41.9850 0.0000 0.0000 0.0000
# 2 46.4177 120.3254 40.7050 0.0000 0.0000 0.0000
# 3 41.9850 40.7050 100.5694 0.0000 0.0000 0.0000
# 4 0.0000 0.0000 0.0000 18.2493 0.0000 0.0000
# 5 0.0000 0.0000 0.0000 0.0000 37.7234 0.0000
# 6 0.0000 0.0000 0.0000 0.0000 0.0000 18.0725
#
#
#
# Elastic Compliance Matrix: (Units=1/GPa)
#
#
# Indices 1 2 3 4 5 6 
#
# 1 0.012320 -0.003491 -0.003731 0.000000 0.000000 0.000000
# 2 -0.003491 0.010618 -0.002840 0.000000 0.000000 0.000000
# 3 -0.003731 -0.002840 0.012650 0.000000 0.000000 0.000000
# 4 0.000000 0.000000 0.000000 0.054797 0.000000 0.000000
# 5 0.000000 0.000000 0.000000 0.000000 0.026509 0.000000
# 6 0.000000 0.000000 0.000000 0.000000 0.000000 0.055333
#
#
# Mechanical properties :
#
#
# Convention : Reuss Voigt Hill
#
# Bulk Modulus (GPa) = 64.65950 65.12681 64.89315
# Shear Modulus (GPa) = 25.31571 28.06359 26.68965
#
# Velocity S-wave (km/s) = 3.57573 3.76480 3.67148
# Velocity P-wave (km/s) = 7.05015 7.19660 7.12375
#
# Compressibility (1/GPa) = 0.01546563
#
# Stress axis : x y z
#
# Youngs Moduli (GPa) = 81.16657 94.17693 79.04883
#
# Poissons Ratio (x) = 0.32875 0.29489
# Poissons Ratio (y) = 0.28334 0.22453
# Poissons Ratio (z) = 0.30279 0.26750
#
# Static dielectric constant tensor:
#      x y z
#    x 3.979380 0.000000 0.000000 
#    y 0.000000 3.116740 0.000000 
#    z 0.000000 0.000000 3.732900 
# 
# 
# High freq. dielectric constant tensor:
#      x y z
#    x 1.798860 0.000000 0.000000 
#    y 0.000000 1.723140 0.000000 
#    z 0.000000 0.000000 1.775600 
# 
# From -- ./inp_files/17539.got.cif
#   From: 2010.03.12/outbox.cif.g09.slc.cpg/sg20_9_cif.got.tgz:17539.got - 2010.04.14 01:38:04.
