data_PCOD8160135
_publ_section_title
;
Structure prediction by ZEFSAII (Michael W. Deem and Ramdas Pophale) SiO2 
 PCOD8160135
Probable space group: C 2 2 21
;
_chemical_formula_sum "Si O2"
_cell_formula_units_Z 40
_cell_length_a 8.554519
_cell_length_b 18.526001
_cell_length_c 11.365102
_cell_angle_alpha 90.000000
_cell_angle_beta 90.000000
_cell_angle_gamma 90.000000
_cell_volume 1801.153043
_symmetry_space_group_name_H-M "C 2 2 21"
_symmetry_group_IT_number 20
_symmetry_cell_setting 'orthorhombic'
loop_
_space_group_symop_operation_xyz
x,y,z
-x,-y,1/2+z
x,-y,-z
-x,y,1/2-z
1/2+x,1/2+y,z
1/2-x,1/2-y,1/2+z
1/2+x,1/2-y,-z
1/2-x,1/2+y,1/2-z
loop_
_atom_site_type_symbol
_atom_site_label
_atom_site_fract_x
_atom_site_fract_y
_atom_site_fract_z
Si Si1 0.391223 0.335306 0.523055
Si Si2 0.264977 0.694220 0.943489
Si Si3 0.172968 0.103718 0.782270
Si Si4 0.271427 0.052945 0.169192
Si Si5 0.426328 0.126945 0.360235
O O1 0.572898 0.313048 0.514151
O O2 0.279977 0.276594 0.589079
O O3 0.327337 0.340881 0.390235
O O4 0.372107 0.409800 0.597238
O O5 0.250641 0.643771 0.829276
O O6 0.123528 0.674035 0.030599
O O7 0.000000 0.077840 0.750000
O O8 0.262444 0.032949 0.825241
O O9 0.279796 0.081958 0.304740
O O10 0.434555 0.071748 0.101803
O O11 0.500000 0.174909 0.250000
#
# Coordination Sequence:
#
# PCOD8160135 Si02
#       5
#     8   8   8   8   8
#     4  11  24  42  69  97 140 180 230 280 344 411
#     4  11  24  44  69 102 137 186 224 285 343 413
#     4  10  24  43  68  97 137 176 232 281 342 409
#     4   9  21  44  65  96 131 175 218 287 333 403
#     4   8  22  42  65  92 137 166 222 279 331 399
#
# _framework density 22.207995
#
# number of rings (size 3 to 8) (size 9 to 14) (size 15 to 20)
#    1.200    0.800    0.000    1.800    5.600    1.600 
#   21.600    0.000    0.000    0.000    0.000    0.000 
#    0.000    0.000    0.000    0.000    0.000    0.000 
#
# Total GULP energy -247768.412425 kJ/mol
# GULP energy per Si atom -12388.420621 kJ/mol
# Density = 2.215745 g / cm^3
# Si number density = 22.207995 Si / 1000 Ang^3
#
#
#
# Elastic Constant Matrix: (Units=GPa)
#
#
# Indices 1 2 3 4 5 6 
#
# 1 78.4285 43.9262 37.9109 0.0000 0.0000 0.0000
# 2 43.9262 114.4851 50.7844 0.0000 0.0000 0.0000
# 3 37.9109 50.7844 80.4707 0.0000 0.0000 0.0000
# 4 0.0000 0.0000 0.0000 34.3808 0.0000 0.0000
# 5 0.0000 0.0000 0.0000 0.0000 42.6206 0.0000
# 6 0.0000 0.0000 0.0000 0.0000 0.0000 31.3472
#
#
#
# Elastic Compliance Matrix: (Units=1/GPa)
#
#
# Indices 1 2 3 4 5 6 
#
# 1 0.017948 -0.004355 -0.005708 0.000000 0.000000 0.000000
# 2 -0.004355 0.013187 -0.006271 0.000000 0.000000 0.000000
# 3 -0.005708 -0.006271 0.019073 0.000000 0.000000 0.000000
# 4 0.000000 0.000000 0.000000 0.029086 0.000000 0.000000
# 5 0.000000 0.000000 0.000000 0.000000 0.023463 0.000000
# 6 0.000000 0.000000 0.000000 0.000000 0.000000 0.031901
#
#
# Mechanical properties :
#
#
# Convention : Reuss Voigt Hill
#
# Bulk Modulus (GPa) = 57.00346 59.84747 58.42546
# Shear Modulus (GPa) = 28.87300 31.05390 29.96345
#
# Velocity S-wave (km/s) = 3.60963 3.74347 3.67716
# Velocity P-wave (km/s) = 6.56477 6.75958 6.66289
#
# Compressibility (1/GPa) = 0.01754280
#
# Stress axis : x y z
#
# Youngs Moduli (GPa) = 55.71535 75.83071 52.42948
#
# Poissons Ratio (x) = 0.33022 0.29924
# Poissons Ratio (y) = 0.24262 0.32878
# Poissons Ratio (z) = 0.31800 0.47552
#
# Static dielectric constant tensor:
#      x y z
#    x 3.893150 0.000000 0.000000 
#    y 0.000000 3.708850 0.000000 
#    z 0.000000 0.000000 3.897430 
# 
# 
# High freq. dielectric constant tensor:
#      x y z
#    x 1.868180 0.000000 0.000000 
#    y 0.000000 1.863640 0.000000 
#    z 0.000000 0.000000 1.869100 
# 
# From -- ./inp_files/12684.got.cif
#   From: 2010.03.12/outbox.cif.g09.slc.cpg/sg20_7_cif.got.tgz:12684.got - 2010.04.14 01:38:04.
