data_PCOD8160036
_publ_section_title
;
Structure prediction by ZEFSAII (Michael W. Deem and Ramdas Pophale) SiO2 
 PCOD8160036
Probable space group: C 2 2 21
;
_chemical_formula_sum "Si O2"
_cell_formula_units_Z 48
_cell_length_a 8.442273
_cell_length_b 28.379654
_cell_length_c 8.358650
_cell_angle_alpha 90.000000
_cell_angle_beta 90.000000
_cell_angle_gamma 90.000000
_cell_volume 2002.638812
_symmetry_space_group_name_H-M "C 2 2 21"
_symmetry_group_IT_number 20
_symmetry_cell_setting 'orthorhombic'
loop_
_space_group_symop_operation_xyz
x,y,z
-x,-y,1/2+z
x,-y,-z
-x,y,1/2-z
1/2+x,1/2+y,z
1/2-x,1/2-y,1/2+z
1/2+x,1/2-y,-z
1/2-x,1/2+y,1/2-z
loop_
_atom_site_type_symbol
_atom_site_label
_atom_site_fract_x
_atom_site_fract_y
_atom_site_fract_z
Si Si1 0.106621 0.359688 0.101521
Si Si2 0.144043 0.783142 0.527052
Si Si3 0.824864 0.927954 0.289966
Si Si4 0.327404 0.103498 0.109225
Si Si5 0.336575 0.987892 0.686015
Si Si6 0.189802 0.798301 0.879496
O O1 0.209687 0.402947 0.164335
O O2 0.000000 0.340422 0.250000
O O3 0.222529 0.318159 0.042035
O O4 0.000482 0.380930 0.956692
O O5 0.153224 0.773506 0.714118
O O6 0.166063 0.730669 0.456896
O O7 0.961685 0.799793 0.497869
O O8 0.781698 0.917558 0.471413
O O9 0.000000 0.910783 0.250000
O O10 0.808376 0.984302 0.267631
O O11 0.333923 0.066961 0.258298
O O12 0.240086 0.149571 0.171442
O O13 0.500000 0.010483 0.750000
O O14 0.328536 0.000000 0.500000
#
# Coordination Sequence:
#
# PCOD8160036 Si02
#       6
#     8   8   8   8   8   8
#     4  10  23  44  78 104 146 191 253 310 374 449
#     4  11  26  47  73 111 150 198 246 307 376 448
#     4  11  24  45  71 104 143 194 243 311 376 445
#     4  11  25  46  72 107 146 195 252 307 374 451
#     4  12  26  46  73 104 146 193 252 313 375 450
#     4  11  27  46  73 109 154 196 248 307 371 456
#
# _framework density 23.968375999999999
#
# number of rings (size 3 to 8) (size 9 to 14) (size 15 to 20)
#    0.000    1.000    0.000    6.000   11.667    3.333 
#    3.000    0.000    0.000    0.000    0.000    0.000 
#    0.000    0.000    0.000    0.000    0.000    0.000 
#
# Total GULP energy -297475.558483 kJ/mol
# GULP energy per Si atom -12394.814937 kJ/mol
# Density = 2.391382 g / cm^3
# Si number density = 23.968376 Si / 1000 Ang^3
#
#
#
# Elastic Constant Matrix: (Units=GPa)
#
#
# Indices 1 2 3 4 5 6 
#
# 1 115.8357 37.1808 21.4421 0.0000 0.0000 0.0000
# 2 37.1808 135.2094 58.9675 0.0000 0.0000 0.0000
# 3 21.4421 58.9675 88.4131 0.0000 0.0000 0.0000
# 4 0.0000 0.0000 0.0000 56.4914 0.0000 0.0000
# 5 0.0000 0.0000 0.0000 0.0000 32.0433 0.0000
# 6 0.0000 0.0000 0.0000 0.0000 0.0000 33.2229
#
#
#
# Elastic Compliance Matrix: (Units=1/GPa)
#
#
# Indices 1 2 3 4 5 6 
#
# 1 0.009508 -0.002269 -0.000793 0.000000 0.000000 0.000000
# 2 -0.002269 0.010971 -0.006767 0.000000 0.000000 0.000000
# 3 -0.000793 -0.006767 0.016016 0.000000 0.000000 0.000000
# 4 0.000000 0.000000 0.000000 0.017702 0.000000 0.000000
# 5 0.000000 0.000000 0.000000 0.000000 0.031208 0.000000
# 6 0.000000 0.000000 0.000000 0.000000 0.000000 0.030100
#
#
# Mechanical properties :
#
#
# Convention : Reuss Voigt Hill
#
# Bulk Modulus (GPa) = 59.38927 63.84881 61.61904
# Shear Modulus (GPa) = 35.51795 39.14269 37.33032
#
# Velocity S-wave (km/s) = 3.85368 4.04554 3.95078
# Velocity P-wave (km/s) = 6.68080 6.96552 6.82465
#
# Compressibility (1/GPa) = 0.01683806
#
# Stress axis : x y z
#
# Youngs Moduli (GPa) = 105.17570 91.14911 62.43754
#
# Poissons Ratio (x) = 0.20680 0.04949
# Poissons Ratio (y) = 0.23863 0.42251
# Poissons Ratio (z) = 0.08337 0.61680
#
# Static dielectric constant tensor:
#      x y z
#    x 4.576910 0.000000 0.000000 
#    y 0.000000 4.341820 0.000000 
#    z 0.000000 0.000000 4.263160 
# 
# 
# High freq. dielectric constant tensor:
#      x y z
#    x 1.952670 0.000000 0.000000 
#    y 0.000000 1.958520 0.000000 
#    z 0.000000 0.000000 1.956530 
# 
# From -- ./inp_files/6528.got.cif
#   From: 2010.03.12/outbox.cif.g09.slc.cpg/sg20_4_cif.got.tgz:6528.got - 2010.04.14 01:38:04.
