data_PCOD8160574
_publ_section_title
;
Structure prediction by ZEFSAII (Michael W. Deem and Ramdas Pophale) SiO2 
 PCOD8160574
Probable space group: C 2 2 21
;
_chemical_formula_sum "Si O2"
_cell_formula_units_Z 48
_cell_length_a 18.464626
_cell_length_b 14.548388
_cell_length_c 8.188506
_cell_angle_alpha 90.000000
_cell_angle_beta 90.000000
_cell_angle_gamma 90.000000
_cell_volume 2199.682816
_symmetry_space_group_name_H-M "C 2 2 21"
_symmetry_group_IT_number 20
_symmetry_cell_setting 'orthorhombic'
loop_
_space_group_symop_operation_xyz
x,y,z
-x,-y,1/2+z
x,-y,-z
-x,y,1/2-z
1/2+x,1/2+y,z
1/2-x,1/2-y,1/2+z
1/2+x,1/2-y,-z
1/2-x,1/2+y,1/2-z
loop_
_atom_site_type_symbol
_atom_site_label
_atom_site_fract_x
_atom_site_fract_y
_atom_site_fract_z
Si Si1 0.202024 0.337558 0.300953
Si Si2 0.563743 0.086354 0.877773
Si Si3 0.790504 0.997025 0.191893
Si Si4 0.571425 0.560413 0.846753
Si Si5 0.429177 0.766130 0.639267
Si Si6 0.712754 0.172111 0.322875
O O1 0.136084 0.394262 0.223945
O O2 0.271828 0.399539 0.271395
O O3 0.220864 0.241404 0.213762
O O4 0.187854 0.318781 0.490628
O O5 0.500000 0.064107 0.750000
O O6 0.547435 0.179566 0.976420
O O7 0.574071 0.000000 0.000000
O O8 0.744248 0.072450 0.285813
O O9 0.875342 0.000249 0.232842
O O10 0.775625 0.000000 0.000000
O O11 0.500000 0.579654 0.750000
O O12 0.597134 0.662538 0.901159
O O13 0.552249 0.500000 0.000000
O O14 0.500000 0.770378 0.750000
O O15 0.359323 0.815531 0.716837
#
# Coordination Sequence:
#
# PCOD8160574 Si02
#       6
#     8   8   8   8   8   8
#     4  12  25  44  68 106 138 188 235 292 356 421
#     4  12  27  47  72 103 144 189 244 294 362 427
#     4  12  25  44  70 102 140 184 232 289 350 418
#     4  11  25  45  69 100 139 184 232 286 355 420
#     4  11  24  46  73 104 144 184 236 295 352 423
#     4  12  25  44  72 103 147 184 238 292 358 428
#
# _framework density 21.821327
#
# number of rings (size 3 to 8) (size 9 to 14) (size 15 to 20)
#    0.000    0.333    1.667    8.000    2.333    2.000 
#    0.000    0.000    0.000    0.000    0.000    0.000 
#    0.000    0.000    0.000    0.000    0.000    0.000 
#
# Total GULP energy -297606.948242 kJ/mol
# GULP energy per Si atom -12400.289510 kJ/mol
# Density = 2.177166 g / cm^3
# Si number density = 21.821327 Si / 1000 Ang^3
#
#
#
# Elastic Constant Matrix: (Units=GPa)
#
#
# Indices 1 2 3 4 5 6 
#
# 1 76.5806 5.4305 26.6088 0.0000 0.0000 0.0000
# 2 5.4305 87.4092 50.9534 0.0000 0.0000 0.0000
# 3 26.6088 50.9534 134.1317 0.0000 0.0000 0.0000
# 4 0.0000 0.0000 0.0000 49.8861 0.0000 0.0000
# 5 0.0000 0.0000 0.0000 0.0000 6.7443 0.0000
# 6 0.0000 0.0000 0.0000 0.0000 0.0000 32.7047
#
#
#
# Elastic Compliance Matrix: (Units=1/GPa)
#
#
# Indices 1 2 3 4 5 6 
#
# 1 0.014088 0.000968 -0.003163 0.000000 0.000000 0.000000
# 2 0.000968 0.014761 -0.005799 0.000000 0.000000 0.000000
# 3 -0.003163 -0.005799 0.010286 0.000000 0.000000 0.000000
# 4 0.000000 0.000000 0.000000 0.020046 0.000000 0.000000
# 5 0.000000 0.000000 0.000000 0.000000 0.148274 0.000000
# 6 0.000000 0.000000 0.000000 0.000000 0.000000 0.030577
#
#
# Mechanical properties :
#
#
# Convention : Reuss Voigt Hill
#
# Bulk Modulus (GPa) = 43.20094 51.56741 47.38418
# Shear Modulus (GPa) = 19.10334 32.20893 25.65614
#
# Velocity S-wave (km/s) = 2.96200 3.84608 3.43262
# Velocity P-wave (km/s) = 5.61591 6.58833 6.12146
#
# Compressibility (1/GPa) = 0.02314765
#
# Stress axis : x y z
#
# Youngs Moduli (GPa) = 70.98046 67.74636 97.22121
#
# Poissons Ratio (x) = -0.06560 0.30748
# Poissons Ratio (y) = -0.06873 0.56383
# Poissons Ratio (z) = 0.22449 0.39289
#
# Static dielectric constant tensor:
#      x y z
#    x 3.949970 0.000000 0.000000 
#    y 0.000000 4.156250 0.000000 
#    z 0.000000 0.000000 3.947670 
# 
# 
# High freq. dielectric constant tensor:
#      x y z
#    x 1.870800 0.000000 0.000000 
#    y 0.000000 1.874500 0.000000 
#    z 0.000000 0.000000 1.862810 
# 
# From -- ./inp_files/9345.got.cif
#   From: 2010.03.12/outbox.cif.g09.slc.cpg/sg20_5_cif.got.tgz:9345.got - 2010.04.14 01:38:04.
