data_PCOD8160264
_publ_section_title
;
Structure prediction by ZEFSAII (Michael W. Deem and Ramdas Pophale) SiO2 
 PCOD8160264
Probable space group: C 2 2 21
;
_chemical_formula_sum "Si O2"
_cell_formula_units_Z 52
_cell_length_a 25.106135
_cell_length_b 5.531575
_cell_length_c 16.861461
_cell_angle_alpha 90.000000
_cell_angle_beta 90.000000
_cell_angle_gamma 90.000000
_cell_volume 2341.660161
_symmetry_space_group_name_H-M "C 2 2 21"
_symmetry_group_IT_number 20
_symmetry_cell_setting 'orthorhombic'
loop_
_space_group_symop_operation_xyz
x,y,z
-x,-y,1/2+z
x,-y,-z
-x,y,1/2-z
1/2+x,1/2+y,z
1/2-x,1/2-y,1/2+z
1/2+x,1/2-y,-z
1/2-x,1/2+y,1/2-z
loop_
_atom_site_type_symbol
_atom_site_label
_atom_site_fract_x
_atom_site_fract_y
_atom_site_fract_z
Si Si1 0.360561 0.750520 0.547543
Si Si2 0.235472 0.084034 0.866890
Si Si3 0.820435 0.748815 0.747799
Si Si4 0.907004 0.389714 0.703292
Si Si5 0.000000 0.701520 0.750000
Si Si6 0.187012 0.500000 0.500000
Si Si7 0.623547 0.500000 0.500000
Si Si8 0.415636 0.495297 0.168327
O O1 0.370106 0.500000 0.500000
O O2 0.299175 0.764503 0.578142
O O3 0.401415 0.737225 0.622394
O O4 0.371673 0.000000 0.500000
O O5 0.192694 0.896891 0.831449
O O6 0.278349 0.947307 0.921558
O O7 0.265136 0.214699 0.794410
O O8 0.848834 0.507035 0.717243
O O9 0.860586 0.882736 0.806100
O O10 0.957160 0.566171 0.694599
O O11 0.921814 0.247882 0.782538
O O12 0.968086 0.851165 0.815438
O O13 0.155644 0.249586 0.484917
O O14 0.586209 0.555174 0.575009
#
# Coordination Sequence:
#
# PCOD8160264 Si02
#       8
#     8   8   8   8   4   4   4   8
#     4  12  27  44  70 106 152 197 239 296 356 432
#     4  12  24  42  68 104 153 199 253 283 359 430
#     4  11  24  41  68 105 143 201 246 301 348 441
#     4  11  24  49  74 101 145 185 250 305 378 441
#     4  10  26  48  82 104 130 190 242 310 388 444
#     4  12  28  42  70 107 158 205 240 300 356 434
#     4  12  28  48  74 111 152 191 248 312 376 426
#     4  11  24  48  76 105 143 189 246 313 376 449
#
# _framework density 22.206465999999999
#
# number of rings (size 3 to 8) (size 9 to 14) (size 15 to 20)
#    0.000    0.615    3.846    3.231    7.538    0.000 
#    0.000    3.077    0.000    0.000    0.000    0.000 
#    0.000    0.000    0.000    0.000    0.000    0.000 
#
# Total GULP energy -322333.269464 kJ/mol
# GULP energy per Si atom -12397.433441 kJ/mol
# Density = 2.215592 g / cm^3
# Si number density = 22.206466 Si / 1000 Ang^3
#
#
#
# Elastic Constant Matrix: (Units=GPa)
#
#
# Indices 1 2 3 4 5 6 
#
# 1 109.9104 41.1108 59.0980 0.0000 0.0000 0.0000
# 2 41.1108 122.7196 57.8353 0.0000 0.0000 0.0000
# 3 59.0980 57.8353 163.9329 0.0000 0.0000 0.0000
# 4 0.0000 0.0000 0.0000 48.7130 0.0000 0.0000
# 5 0.0000 0.0000 0.0000 0.0000 12.2758 0.0000
# 6 0.0000 0.0000 0.0000 0.0000 0.0000 89.4492
#
#
#
# Elastic Compliance Matrix: (Units=1/GPa)
#
#
# Indices 1 2 3 4 5 6 
#
# 1 0.011821 -0.002341 -0.003436 0.000000 0.000000 0.000000
# 2 -0.002341 0.010237 -0.002768 0.000000 0.000000 0.000000
# 3 -0.003436 -0.002768 0.008315 0.000000 0.000000 0.000000
# 4 0.000000 0.000000 0.000000 0.020528 0.000000 0.000000
# 5 0.000000 0.000000 0.000000 0.000000 0.081461 0.000000
# 6 0.000000 0.000000 0.000000 0.000000 0.000000 0.011180
#
#
# Mechanical properties :
#
#
# Convention : Reuss Voigt Hill
#
# Bulk Modulus (GPa) = 75.27395 79.18346 77.22871
# Shear Modulus (GPa) = 30.29202 45.98883 38.14042
#
# Velocity S-wave (km/s) = 3.69739 4.55572 4.14881
# Velocity P-wave (km/s) = 7.22485 7.96292 7.60285
#
# Compressibility (1/GPa) = 0.01328481
#
# Stress axis : x y z
#
# Youngs Moduli (GPa) = 84.59327 97.68237 120.26297
#
# Poissons Ratio (x) = 0.22867 0.41319
# Poissons Ratio (y) = 0.19803 0.33286
# Poissons Ratio (z) = 0.29064 0.27036
#
# Static dielectric constant tensor:
#      x y z
#    x 3.779760 0.000000 0.000000 
#    y 0.000000 4.044360 0.000000 
#    z 0.000000 0.000000 4.148110 
# 
# 
# High freq. dielectric constant tensor:
#      x y z
#    x 1.869600 0.000000 0.000000 
#    y 0.000000 1.873620 0.000000 
#    z 0.000000 0.000000 1.885970 
# 
# From -- ./inp_files/25685.got.cif
#   From: 2010.03.12/outbox.cif.g09.slc.cpg/sg20_13_cif.got.tgz:25685.got - 2010.04.14 01:38:04.
