data_PCOD8160432
_publ_section_title
;
Structure prediction by ZEFSAII (Michael W. Deem and Ramdas Pophale) SiO2 
 PCOD8160432
Probable space group: C 2 2 21
;
_chemical_formula_sum "Si O2"
_cell_formula_units_Z 56
_cell_length_a 15.732684
_cell_length_b 8.320523
_cell_length_c 19.111139
_cell_angle_alpha 90.000000
_cell_angle_beta 90.000000
_cell_angle_gamma 90.000000
_cell_volume 2501.727580
_symmetry_space_group_name_H-M "C 2 2 21"
_symmetry_group_IT_number 20
_symmetry_cell_setting 'orthorhombic'
loop_
_space_group_symop_operation_xyz
x,y,z
-x,-y,1/2+z
x,-y,-z
-x,y,1/2-z
1/2+x,1/2+y,z
1/2-x,1/2-y,1/2+z
1/2+x,1/2-y,-z
1/2-x,1/2+y,1/2-z
loop_
_atom_site_type_symbol
_atom_site_label
_atom_site_fract_x
_atom_site_fract_y
_atom_site_fract_z
Si Si1 0.049244 0.430902 0.678782
Si Si2 0.476848 0.500000 0.500000
Si Si3 0.704310 0.000000 0.500000
Si Si4 0.750653 0.393734 0.352613
Si Si5 0.895836 0.784193 0.067787
Si Si6 0.656195 0.620645 0.901603
Si Si7 0.262120 0.957414 0.789568
Si Si8 0.909006 0.518933 0.419321
O O1 0.055666 0.257626 0.640117
O O2 0.141147 0.513955 0.692370
O O3 0.000000 0.399937 0.750000
O O4 0.990468 0.536596 0.626484
O O5 0.539746 0.653587 0.507853
O O6 0.416526 0.503133 0.431179
O O7 0.646517 0.883198 0.545660
O O8 0.761511 0.886948 0.451227
O O9 0.674466 0.415606 0.409056
O O10 0.748435 0.225139 0.312698
O O11 0.748256 0.533280 0.294156
O O12 0.834453 0.397181 0.399823
O O13 0.688906 0.566315 0.825355
O O14 0.620346 0.800190 0.900561
O O15 0.933661 0.500000 0.500000
#
# Coordination Sequence:
#
# PCOD8160432 Si02
#       8
#     8   4   4   8   8   8   8   8
#     4  11  23  45  68 100 136 183 232 290 351 423
#     4  11  26  44  64 107 142 180 237 296 346 418
#     4  11  22  44  68  99 138 186 225 288 354 426
#     4  11  24  45  70 105 136 184 241 283 354 430
#     4  11  25  43  69 101 141 183 234 288 359 415
#     4  11  24  44  68 101 142 186 229 289 351 424
#     4  11  24  46  74  96 137 189 234 292 357 428
#     4  12  26  42  73 105 143 185 239 299 356 424
#
# _framework density 22.384532
#
# number of rings (size 3 to 8) (size 9 to 14) (size 15 to 20)
#    0.000    0.857    5.714    1.714    8.000    0.000 
#    0.000    0.000    3.143    0.000    0.000    0.000 
#    0.000    0.000    0.000    0.000    0.000    0.000 
#
# Total GULP energy -347015.996327 kJ/mol
# GULP energy per Si atom -12393.428440 kJ/mol
# Density = 2.233358 g / cm^3
# Si number density = 22.384532 Si / 1000 Ang^3
#
#
#
# Elastic Constant Matrix: (Units=GPa)
#
#
# Indices 1 2 3 4 5 6 
#
# 1 159.9657 36.5478 58.4075 0.0000 0.0000 0.0000
# 2 36.5478 55.5674 20.6714 0.0000 0.0000 0.0000
# 3 58.4075 20.6714 118.3009 0.0000 0.0000 0.0000
# 4 0.0000 0.0000 0.0000 39.9303 0.0000 0.0000
# 5 0.0000 0.0000 0.0000 0.0000 38.5801 0.0000
# 6 0.0000 0.0000 0.0000 0.0000 0.0000 27.5660
#
#
#
# Elastic Compliance Matrix: (Units=1/GPa)
#
#
# Indices 1 2 3 4 5 6 
#
# 1 0.008491 -0.004305 -0.003440 0.000000 0.000000 0.000000
# 2 -0.004305 0.021430 -0.001619 0.000000 0.000000 0.000000
# 3 -0.003440 -0.001619 0.010434 0.000000 0.000000 0.000000
# 4 0.000000 0.000000 0.000000 0.025044 0.000000 0.000000
# 5 0.000000 0.000000 0.000000 0.000000 0.025920 0.000000
# 6 0.000000 0.000000 0.000000 0.000000 0.000000 0.036277
#
#
# Mechanical properties :
#
#
# Convention : Reuss Voigt Hill
#
# Bulk Modulus (GPa) = 46.23816 62.78749 54.51282
# Shear Modulus (GPa) = 32.56640 35.76244 34.16442
#
# Velocity S-wave (km/s) = 3.81840 4.00139 3.91096
# Velocity P-wave (km/s) = 6.33572 7.03267 6.69328
#
# Compressibility (1/GPa) = 0.02162716
#
# Stress axis : x y z
#
# Youngs Moduli (GPa) = 117.77314 46.66363 95.83783
#
# Poissons Ratio (x) = 0.20089 0.32967
# Poissons Ratio (y) = 0.50701 0.15517
# Poissons Ratio (z) = 0.40513 0.07555
#
# Static dielectric constant tensor:
#      x y z
#    x 4.641250 0.000000 0.000000 
#    y 0.000000 3.685350 0.000000 
#    z 0.000000 0.000000 4.294190 
# 
# 
# High freq. dielectric constant tensor:
#      x y z
#    x 1.907190 0.000000 0.000000 
#    y 0.000000 1.844100 0.000000 
#    z 0.000000 0.000000 1.890500 
# 
# From -- ./inp_files/27620.got.cif
#   From: 2010.03.12/outbox.cif.g09.slc.cpg/sg20_14_cif.got.tgz:27620.got - 2010.04.14 01:38:04.
