data_PCOD8160954
_publ_section_title
;
Structure prediction by ZEFSAII (Michael W. Deem and Ramdas Pophale) SiO2 
 PCOD8160954
Probable space group: C 2 2 2
;
_chemical_formula_sum "Si O2"
_cell_formula_units_Z 30
_cell_length_a 11.216762
_cell_length_b 13.962160
_cell_length_c 10.562781
_cell_angle_alpha 90.000000
_cell_angle_beta 90.000000
_cell_angle_gamma 90.000000
_cell_volume 1654.239517
_symmetry_space_group_name_H-M "C 2 2 2"
_symmetry_group_IT_number 21
_symmetry_cell_setting 'orthorhombic'
loop_
_space_group_symop_operation_xyz
x,y,z
-x,-y,z
x,-y,-z
-x,y,-z
1/2+x,1/2+y,z
1/2-x,1/2-y,z
1/2+x,1/2-y,-z
1/2-x,1/2+y,-z
loop_
_atom_site_type_symbol
_atom_site_label
_atom_site_fract_x
_atom_site_fract_y
_atom_site_fract_z
Si Si1 0.000000 0.000000 0.500000
Si Si2 0.004102 0.259506 0.144218
Si Si3 0.812180 0.413752 0.911241
Si Si4 0.250000 0.750000 0.091590
Si Si5 0.596735 0.573194 0.257815
O O1 0.089091 0.062063 0.410595
O O2 0.072168 0.361642 0.150261
O O3 0.068728 0.183947 0.232904
O O4 0.864317 0.266775 0.183051
O O5 0.000000 0.222698 0.000000
O O6 0.726910 0.451918 0.798204
O O7 0.857097 0.500000 0.000000
O O8 0.735936 0.340764 0.997689
O O9 0.500000 0.500000 0.194780
#
# Coordination Sequence:
#
# PCOD8160954 Si02
#       5
#     2   8   8   4   8
#     4   8  24  32  58  76 102 150 220 246 272 322
#     4  10  19  33  54  86 121 143 185 226 298 360
#     4  11  20  32  58  89 120 152 177 238 294 359
#     4  10  20  32  50  92 120 152 178 214 298 384
#     4  10  19  35  55  79 111 151 199 247 275 329
#
# _framework density 18.135223
#
# number of rings (size 3 to 8) (size 9 to 14) (size 15 to 20)
#    0.800    1.067    5.333    1.600    0.000    4.800 
#    0.000    0.000    5.867    0.000    0.000    1.867 
#    0.000    0.000    0.000    0.000    0.000    0.000 
#
# Total GULP energy -185821.404832 kJ/mol
# GULP energy per Si atom -12388.093655 kJ/mol
# Density = 1.809395 g / cm^3
# Si number density = 18.135223 Si / 1000 Ang^3
#
#
#
# Elastic Constant Matrix: (Units=GPa)
#
#
# Indices 1 2 3 4 5 6 
#
# 1 137.2507 38.9556 27.4911 0.0000 0.0000 0.0000
# 2 38.9556 108.7664 36.8764 0.0000 0.0000 0.0000
# 3 27.4911 36.8764 76.6657 0.0000 0.0000 0.0000
# 4 0.0000 0.0000 0.0000 22.3036 0.0000 0.0000
# 5 0.0000 0.0000 0.0000 0.0000 15.0792 0.0000
# 6 0.0000 0.0000 0.0000 0.0000 0.0000 37.5932
#
#
#
# Elastic Compliance Matrix: (Units=1/GPa)
#
#
# Indices 1 2 3 4 5 6 
#
# 1 0.008325 -0.002353 -0.001853 0.000000 0.000000 0.000000
# 2 -0.002353 0.011651 -0.004760 0.000000 0.000000 0.000000
# 3 -0.001853 -0.004760 0.015998 0.000000 0.000000 0.000000
# 4 0.000000 0.000000 0.000000 0.044836 0.000000 0.000000
# 5 0.000000 0.000000 0.000000 0.000000 0.066317 0.000000
# 6 0.000000 0.000000 0.000000 0.000000 0.000000 0.026601
#
#
# Mechanical properties :
#
#
# Convention : Reuss Voigt Hill
#
# Bulk Modulus (GPa) = 55.43206 58.81436 57.12321
# Shear Modulus (GPa) = 25.29419 29.61917 27.45668
#
# Velocity S-wave (km/s) = 3.73869 4.04572 3.89523
# Velocity P-wave (km/s) = 7.01922 7.37056 7.19704
#
# Compressibility (1/GPa) = 0.01804010
#
# Stress axis : x y z
#
# Youngs Moduli (GPa) = 120.11872 85.83099 62.50833
#
# Poissons Ratio (x) = 0.20199 0.11585
# Poissons Ratio (y) = 0.28268 0.29755
# Poissons Ratio (z) = 0.22261 0.40857
#
# Static dielectric constant tensor:
#      x y z
#    x 3.704720 0.000000 0.000000 
#    y 0.000000 3.354290 0.000000 
#    z 0.000000 0.000000 2.864520 
# 
# 
# High freq. dielectric constant tensor:
#      x y z
#    x 1.713780 0.000000 0.000000 
#    y 0.000000 1.702920 0.000000 
#    z 0.000000 0.000000 1.638000 
# 
# From -- ./inp_files/23664.got.cif
#   From: 2010.03.12/outbox.cif.g09.slc.cpg/sg21_12_cif.got.tgz:23664.got - 2010.04.14 01:59:26.
