data_PCOD8160430
_publ_section_title
;
Structure prediction by ZEFSAII (Michael W. Deem and Ramdas Pophale) SiO2 
 PCOD8160430
Probable space group: C 2 2 21
;
_chemical_formula_sum "Si O2"
_cell_formula_units_Z 60
_cell_length_a 18.640117
_cell_length_b 26.141603
_cell_length_c 5.636245
_cell_angle_alpha 90.000000
_cell_angle_beta 90.000000
_cell_angle_gamma 90.000000
_cell_volume 2746.443771
_symmetry_space_group_name_H-M "C 2 2 21"
_symmetry_group_IT_number 20
_symmetry_cell_setting 'orthorhombic'
loop_
_space_group_symop_operation_xyz
x,y,z
-x,-y,1/2+z
x,-y,-z
-x,y,1/2-z
1/2+x,1/2+y,z
1/2-x,1/2-y,1/2+z
1/2+x,1/2-y,-z
1/2-x,1/2+y,1/2-z
loop_
_atom_site_type_symbol
_atom_site_label
_atom_site_fract_x
_atom_site_fract_y
_atom_site_fract_z
Si Si1 0.114477 0.946948 0.946704
Si Si2 0.000000 0.870480 0.750000
Si Si3 0.896813 0.201496 0.018566
Si Si4 0.804736 0.875825 0.230484
Si Si5 0.748784 0.049759 0.143349
Si Si6 0.680199 0.868134 0.596302
Si Si7 0.260295 0.278835 0.754459
Si Si8 0.541978 0.187290 0.495221
O O1 0.064749 0.906402 0.821367
O O2 0.181751 0.966292 0.790994
O O3 0.142452 0.920351 0.182613
O O4 0.071862 0.000000 0.000000
O O5 0.032202 0.833141 0.550701
O O6 0.844302 0.202484 0.251048
O O7 0.849533 0.176111 0.810015
O O8 0.921872 0.257976 0.950606
O O9 0.742156 0.859894 0.404426
O O10 0.768979 0.899688 0.000124
O O11 0.684283 0.072961 0.307290
O O12 0.720692 0.000000 0.000000
O O13 0.702267 0.824595 0.788079
O O14 0.602219 0.857104 0.485780
O O15 0.244653 0.250632 0.507205
O O16 0.500000 0.174837 0.250000
O O17 0.500000 0.186361 0.750000
#
# Coordination Sequence:
#
# PCOD8160430 Si02
#       8
#     8   4   8   8   8   8   8   8
#     4  11  24  41  63  93 139 190 245 297 360 423
#     4  12  26  40  56  94 140 202 246 282 352 424
#     4  12  25  42  67  97 145 189 259 290 355 421
#     4  11  23  43  71  96 133 181 234 315 356 414
#     4  11  22  43  73 106 133 167 236 313 365 425
#     4  11  26  43  72 105 140 178 239 295 381 428
#     4  12  25  41  70 101 137 183 243 304 352 405
#     4  12  31  47  71 105 151 198 238 290 366 462
#
# _framework density 21.846433000000001
#
# number of rings (size 3 to 8) (size 9 to 14) (size 15 to 20)
#    0.000    0.533    6.000    1.600    5.600    1.600 
#    0.000    0.000    0.000    0.000    3.467    0.000 
#    0.000    0.000    0.000    0.000    0.000    0.000 
#
# Total GULP energy -371643.122740 kJ/mol
# GULP energy per Si atom -12388.104091 kJ/mol
# Density = 2.179671 g / cm^3
# Si number density = 21.846433 Si / 1000 Ang^3
#
#
#
# Elastic Constant Matrix: (Units=GPa)
#
#
# Indices 1 2 3 4 5 6 
#
# 1 84.1235 53.9349 28.4364 0.0000 0.0000 0.0000
# 2 53.9349 115.4079 44.5618 0.0000 0.0000 0.0000
# 3 28.4364 44.5618 103.5237 0.0000 0.0000 0.0000
# 4 0.0000 0.0000 0.0000 34.8596 0.0000 0.0000
# 5 0.0000 0.0000 0.0000 0.0000 23.2135 0.0000
# 6 0.0000 0.0000 0.0000 0.0000 0.0000 11.6835
#
#
#
# Elastic Compliance Matrix: (Units=1/GPa)
#
#
# Indices 1 2 3 4 5 6 
#
# 1 0.017168 -0.007439 -0.001514 0.000000 0.000000 0.000000
# 2 -0.007439 0.013615 -0.003817 0.000000 0.000000 0.000000
# 3 -0.001514 -0.003817 0.011719 0.000000 0.000000 0.000000
# 4 0.000000 0.000000 0.000000 0.028687 0.000000 0.000000
# 5 0.000000 0.000000 0.000000 0.000000 0.043078 0.000000
# 6 0.000000 0.000000 0.000000 0.000000 0.000000 0.085590
#
#
# Mechanical properties :
#
#
# Convention : Reuss Voigt Hill
#
# Bulk Modulus (GPa) = 58.95478 61.88014 60.41746
# Shear Modulus (GPa) = 21.64011 25.69278 23.66644
#
# Velocity S-wave (km/s) = 3.15072 3.43310 3.29494
# Velocity P-wave (km/s) = 6.34671 6.64089 6.49546
#
# Compressibility (1/GPa) = 0.01696215
#
# Stress axis : x y z
#
# Youngs Moduli (GPa) = 58.24641 73.44584 85.33419
#
# Poissons Ratio (x) = 0.54637 0.12918
# Poissons Ratio (y) = 0.43330 0.32575
# Poissons Ratio (z) = 0.08817 0.28037
#
# Static dielectric constant tensor:
#      x y z
#    x 4.405810 0.000000 0.000000 
#    y 0.000000 4.285590 0.000000 
#    z 0.000000 0.000000 4.253450 
# 
# 
# High freq. dielectric constant tensor:
#      x y z
#    x 1.838290 0.000000 0.000000 
#    y 0.000000 1.869960 0.000000 
#    z 0.000000 0.000000 1.858850 
# 
# From -- ./inp_files/2833.got.cif
#   From: 2010.03.12/outbox.cif.g09.slc.cpg/sg20_2_cif.got.tgz:2833.got - 2010.04.14 01:38:04.
