data_PCOD8160321
_publ_section_title
;
Structure prediction by ZEFSAII (Michael W. Deem and Ramdas Pophale) SiO2 
 PCOD8160321
Probable space group: C 2 2 21
;
_chemical_formula_sum "Si O2"
_cell_formula_units_Z 64
_cell_length_a 9.781394
_cell_length_b 11.709028
_cell_length_c 27.732767
_cell_angle_alpha 90.000000
_cell_angle_beta 90.000000
_cell_angle_gamma 90.000000
_cell_volume 3176.250894
_symmetry_space_group_name_H-M "C 2 2 21"
_symmetry_group_IT_number 20
_symmetry_cell_setting 'orthorhombic'
loop_
_space_group_symop_operation_xyz
x,y,z
-x,-y,1/2+z
x,-y,-z
-x,y,1/2-z
1/2+x,1/2+y,z
1/2-x,1/2-y,1/2+z
1/2+x,1/2-y,-z
1/2-x,1/2+y,1/2-z
loop_
_atom_site_type_symbol
_atom_site_label
_atom_site_fract_x
_atom_site_fract_y
_atom_site_fract_z
Si Si1 0.823824 0.178187 0.391860
Si Si2 0.653369 0.823971 0.334142
Si Si3 0.368905 0.085902 0.644185
Si Si4 0.856913 0.992289 0.692144
Si Si5 0.841196 0.066067 0.201635
Si Si6 0.154712 0.550547 0.051277
Si Si7 0.375991 0.724509 0.070328
Si Si8 0.623089 0.125529 0.478067
O O1 0.788852 0.294457 0.362783
O O2 0.804590 0.076925 0.353927
O O3 0.724726 0.155541 0.435780
O O4 0.974246 0.184846 0.414223
O O5 0.511140 0.893423 0.326929
O O6 0.636572 0.696324 0.313876
O O7 0.680826 0.816570 0.391449
O O8 0.781874 0.884840 0.308978
O O9 0.283251 0.994218 0.674243
O O10 0.397041 0.044070 0.589351
O O11 0.811164 0.930870 0.741431
O O12 0.020980 0.005968 0.690562
O O13 0.284510 0.611894 0.074030
O O14 0.029321 0.636632 0.042839
O O15 0.199603 0.500000 0.000000
O O16 0.363154 0.776965 0.017773
O O17 0.650286 0.000000 0.500000
#
# Coordination Sequence:
#
# PCOD8160321 Si02
#       8
#     8   8   8   8   8   8   8   8
#     4  11  22  41  65  95 129 175 219 269 334 392
#     4  11  23  45  69  94 134 172 217 272 331 391
#     4  11  22  43  67  93 132 176 215 277 331 394
#     4  11  24  43  69  95 131 171 220 273 336 389
#     4  11  25  45  65  99 128 172 220 277 331 396
#     4  11  21  37  60  93 127 170 220 261 325 392
#     4  11  21  40  62  90 132 171 213 268 322 391
#     4  11  22  37  60  95 131 171 223 264 325 398
#
# _framework density 20.149542
#
# number of rings (size 3 to 8) (size 9 to 14) (size 15 to 20)
#    0.000    1.000    3.750    6.000    1.750    2.000 
#    2.250    5.000    0.000    0.000    0.000    0.000 
#    0.000    0.000    0.000    0.000    0.000    0.000 
#
# Total GULP energy -396806.282785 kJ/mol
# GULP energy per Si atom -12400.196337 kJ/mol
# Density = 2.010368 g / cm^3
# Si number density = 20.149542 Si / 1000 Ang^3
#
#
#
# Elastic Constant Matrix: (Units=GPa)
#
#
# Indices 1 2 3 4 5 6 
#
# 1 96.3155 58.8241 53.5372 0.0000 0.0000 0.0000
# 2 58.8241 81.8956 25.6552 0.0000 0.0000 0.0000
# 3 53.5372 25.6552 115.5131 0.0000 0.0000 0.0000
# 4 0.0000 0.0000 0.0000 31.3433 0.0000 0.0000
# 5 0.0000 0.0000 0.0000 0.0000 31.6919 0.0000
# 6 0.0000 0.0000 0.0000 0.0000 0.0000 33.3522
#
#
#
# Elastic Compliance Matrix: (Units=1/GPa)
#
#
# Indices 1 2 3 4 5 6 
#
# 1 0.023478 -0.014461 -0.007669 0.000000 0.000000 0.000000
# 2 -0.014461 0.022031 0.001809 0.000000 0.000000 0.000000
# 3 -0.007669 0.001809 0.011810 0.000000 0.000000 0.000000
# 4 0.000000 0.000000 0.000000 0.031905 0.000000 0.000000
# 5 0.000000 0.000000 0.000000 0.000000 0.031554 0.000000
# 6 0.000000 0.000000 0.000000 0.000000 0.000000 0.029983
#
#
# Mechanical properties :
#
#
# Convention : Reuss Voigt Hill
#
# Bulk Modulus (GPa) = 59.96665 63.30635 61.63650
# Shear Modulus (GPa) = 25.38579 29.65801 27.52190
#
# Velocity S-wave (km/s) = 3.55331 3.84069 3.69979
# Velocity P-wave (km/s) = 6.83082 7.15223 6.99337
#
# Compressibility (1/GPa) = 0.01667594
#
# Stress axis : x y z
#
# Youngs Moduli (GPa) = 42.59395 45.39087 84.67557
#
# Poissons Ratio (x) = 0.65639 0.64942
# Poissons Ratio (y) = 0.61595 -0.15320
# Poissons Ratio (z) = 0.32667 -0.08212
#
# Static dielectric constant tensor:
#      x y z
#    x 3.757850 0.000000 0.000000 
#    y 0.000000 3.621060 0.000000 
#    z 0.000000 0.000000 3.969120 
# 
# 
# High freq. dielectric constant tensor:
#      x y z
#    x 1.783920 0.000000 0.000000 
#    y 0.000000 1.783010 0.000000 
#    z 0.000000 0.000000 1.805160 
# 
# From -- ./inp_files/31085.got.cif
#   From: 2010.03.12/outbox.cif.g09.slc.cpg/sg20_16_cif.got.tgz:31085.got - 2010.04.14 01:38:04.
