data_PCOD8160985
_publ_section_title
;
Structure prediction by ZEFSAII (Michael W. Deem and Ramdas Pophale) SiO2 
 PCOD8160985
Probable space group: C 2 2 2
;
_chemical_formula_sum "Si O2"
_cell_formula_units_Z 32
_cell_length_a 35.109655
_cell_length_b 4.965485
_cell_length_c 7.970303
_cell_angle_alpha 90.000000
_cell_angle_beta 90.000000
_cell_angle_gamma 90.000000
_cell_volume 1389.514452
_symmetry_space_group_name_H-M "C 2 2 2"
_symmetry_group_IT_number 21
_symmetry_cell_setting 'orthorhombic'
loop_
_space_group_symop_operation_xyz
x,y,z
-x,-y,z
x,-y,-z
-x,y,-z
1/2+x,1/2+y,z
1/2-x,1/2-y,z
1/2+x,1/2-y,-z
1/2-x,1/2+y,-z
loop_
_atom_site_type_symbol
_atom_site_label
_atom_site_fract_x
_atom_site_fract_y
_atom_site_fract_z
Si Si1 0.542011 0.983095 0.697985
Si Si2 0.328759 0.591202 0.184443
Si Si3 0.711546 0.884781 0.317306
Si Si4 0.910241 0.008445 0.697417
O O1 0.573537 0.202694 0.757275
O O2 0.500000 0.000000 0.781166
O O3 0.537802 0.000000 0.500000
O O4 0.556219 0.690929 0.748618
O O5 0.317798 0.362966 0.321542
O O6 0.374136 0.604240 0.199854
O O7 0.306829 0.873103 0.210495
O O8 0.316434 0.500000 0.000000
O O9 0.750000 0.750000 0.239869
O O10 0.720618 0.000000 0.500000
O O11 0.900470 0.000000 0.500000
#
# Coordination Sequence:
#
# PCOD8160985 Si02
#       4
#     8   8   8   8
#     4   9  17  30  53  86 119 154 205 265 313 356
#     4  12  26  43  66  96 133 170 209 260 317 381
#     4  12  25  46  71  96 125 163 211 262 318 382
#     4  10  19  34  58  86 119 162 209 256 307 369
#
# _framework density 23.029629
#
# number of rings (size 3 to 8) (size 9 to 14) (size 15 to 20)
#    0.000    1.250    0.000    7.500    0.000    7.000 
#    0.000    1.250    0.000    4.500    0.000    0.000 
#    0.000    0.000    0.000    0.000    0.000    0.000 
#
# Total GULP energy -198295.337698 kJ/mol
# GULP energy per Si atom -12393.458606 kJ/mol
# Density = 2.297721 g / cm^3
# Si number density = 23.029629 Si / 1000 Ang^3
#
#
#
# Elastic Constant Matrix: (Units=GPa)
#
#
# Indices 1 2 3 4 5 6 
#
# 1 149.7233 55.0129 33.1354 0.0000 0.0000 0.0000
# 2 55.0129 139.7437 15.7772 0.0000 0.0000 0.0000
# 3 33.1354 15.7772 33.5907 0.0000 0.0000 0.0000
# 4 0.0000 0.0000 0.0000 20.5530 0.0000 0.0000
# 5 0.0000 0.0000 0.0000 0.0000 -0.7590 0.0000
# 6 0.0000 0.0000 0.0000 0.0000 0.0000 -27.0218
#
#
#
# Elastic Compliance Matrix: (Units=1/GPa)
#
#
# Indices 1 2 3 4 5 6 
#
# 1 0.009499 -0.002832 -0.008040 0.000000 0.000000 0.000000
# 2 -0.002832 0.008401 -0.001152 0.000000 0.000000 0.000000
# 3 -0.008040 -0.001152 0.038243 0.000000 0.000000 0.000000
# 4 0.000000 0.000000 0.000000 0.048655 0.000000 0.000000
# 5 0.000000 0.000000 0.000000 0.000000 -1.317485 0.000000
# 6 0.000000 0.000000 0.000000 0.000000 0.000000 -0.037007
#
#
# Mechanical properties :
#
#
# Convention : Reuss Voigt Hill
#
# Bulk Modulus (GPa) = 31.15872 58.98986 45.07429
# Shear Modulus (GPa) = -4.11540 13.16323 4.52392
#
# Velocity S-wave (km/s) = -1.33824 2.39336 1.40309
# Velocity P-wave (km/s) = 3.34236 5.77131 4.71590
#
# Compressibility (1/GPa) = 0.03209375
#
# Stress axis : x y z
#
# Youngs Moduli (GPa) = 105.27676 119.03613 26.14891
#
# Poissons Ratio (x) = 0.33707 0.21024
# Poissons Ratio (y) = 0.29811 0.03014
# Poissons Ratio (z) = 0.84643 0.13719
#
# Static dielectric constant tensor:
#      x y z
#    x 4.295580 0.000000 0.000000 
#    y 0.000000 4.439310 0.000000 
#    z 0.000000 0.000000 3.888250 
# 
# 
# High freq. dielectric constant tensor:
#      x y z
#    x 1.925970 0.000000 0.000000 
#    y 0.000000 1.928840 0.000000 
#    z 0.000000 0.000000 1.866410 
# 
# From -- ./inp_files/19410.got.cif
#   From: 2010.03.12/outbox.cif.g09.slc.cpg/sg21_10_cif.got.tgz:19410.got - 2010.04.14 01:59:26.
