data_PCOD8160353
_publ_section_title
;
Structure prediction by ZEFSAII (Michael W. Deem and Ramdas Pophale) SiO2 
 PCOD8160353
Probable space group: C 2 2 21
;
_chemical_formula_sum "Si O2"
_cell_formula_units_Z 48
_cell_length_a 19.325730
_cell_length_b 10.789673
_cell_length_c 11.224794
_cell_angle_alpha 90.000000
_cell_angle_beta 90.000000
_cell_angle_gamma 90.000000
_cell_volume 2340.575043
_symmetry_space_group_name_H-M "C 2 2 21"
_symmetry_group_IT_number 20
_symmetry_cell_setting 'orthorhombic'
loop_
_space_group_symop_operation_xyz
x,y,z
-x,-y,1/2+z
x,-y,-z
-x,y,1/2-z
1/2+x,1/2+y,z
1/2-x,1/2-y,1/2+z
1/2+x,1/2-y,-z
1/2-x,1/2+y,1/2-z
loop_
_atom_site_type_symbol
_atom_site_label
_atom_site_fract_x
_atom_site_fract_y
_atom_site_fract_z
Si Si1 0.891546 0.553494 0.188827
Si Si2 0.662264 0.613358 0.415668
Si Si3 0.234331 0.024822 0.186259
Si Si4 0.436004 0.823797 0.042957
Si Si5 0.083739 0.370162 0.943175
Si Si6 0.215406 0.204385 0.966262
O O1 0.812902 0.534507 0.232699
O O2 0.926482 0.425522 0.146609
O O3 0.932107 0.609248 0.302545
O O4 0.891549 0.644624 0.075305
O O5 0.645195 0.500000 0.500000
O O6 0.680234 0.559311 0.287359
O O7 0.592195 0.694417 0.406171
O O8 0.725095 0.693336 0.467600
O O9 0.222053 0.882236 0.149915
O O10 0.221696 0.119530 0.080643
O O11 0.515947 0.817060 0.007618
O O12 0.141510 0.268570 0.965291
O O13 0.107123 0.500000 0.000000
#
# Coordination Sequence:
#
# PCOD8160353 Si02
#       6
#     8   8   8   8   8   8
#     4  11  21  43  72  96 132 176 222 288 345 395
#     4  12  26  41  70 102 132 179 233 278 349 414
#     4  11  24  44  71  98 134 180 222 292 350 399
#     4  11  24  45  66 100 139 178 225 286 343 413
#     4  12  26  41  71 102 134 179 236 281 342 412
#     4  11  24  44  67 101 140 175 227 291 340 409
#
# _framework density 20.507778999999999
#
# number of rings (size 3 to 8) (size 9 to 14) (size 15 to 20)
#    0.000    0.667    6.667    2.000    7.000    0.000 
#    3.000    0.000    0.000    0.000    0.000    0.000 
#    0.000    0.000    0.000    0.000    0.000    0.000 
#
# Total GULP energy -297697.286807 kJ/mol
# GULP energy per Si atom -12404.053617 kJ/mol
# Density = 2.046110 g / cm^3
# Si number density = 20.507779 Si / 1000 Ang^3
#
#
#
# Elastic Constant Matrix: (Units=GPa)
#
#
# Indices 1 2 3 4 5 6 
#
# 1 106.5707 43.1912 16.3350 0.0000 0.0000 0.0000
# 2 43.1912 76.8598 8.3253 0.0000 0.0000 0.0000
# 3 16.3350 8.3253 62.0312 0.0000 0.0000 0.0000
# 4 0.0000 0.0000 0.0000 26.1365 0.0000 0.0000
# 5 0.0000 0.0000 0.0000 0.0000 27.3262 0.0000
# 6 0.0000 0.0000 0.0000 0.0000 0.0000 29.8115
#
#
#
# Elastic Compliance Matrix: (Units=1/GPa)
#
#
# Indices 1 2 3 4 5 6 
#
# 1 0.012488 -0.006760 -0.002381 0.000000 0.000000 0.000000
# 2 -0.006760 0.016862 -0.000483 0.000000 0.000000 0.000000
# 3 -0.002381 -0.000483 0.016813 0.000000 0.000000 0.000000
# 4 0.000000 0.000000 0.000000 0.038261 0.000000 0.000000
# 5 0.000000 0.000000 0.000000 0.000000 0.036595 0.000000
# 6 0.000000 0.000000 0.000000 0.000000 0.000000 0.033544
#
#
# Mechanical properties :
#
#
# Convention : Reuss Voigt Hill
#
# Bulk Modulus (GPa) = 37.15463 42.35164 39.75313
# Shear Modulus (GPa) = 27.35505 28.49551 27.92528
#
# Velocity S-wave (km/s) = 3.65620 3.73164 3.69411
# Velocity P-wave (km/s) = 5.99837 6.26603 6.13366
#
# Compressibility (1/GPa) = 0.02691455
#
# Stress axis : x y z
#
# Youngs Moduli (GPa) = 80.07664 59.30626 59.47843
#
# Poissons Ratio (x) = 0.40089 0.14164
# Poissons Ratio (y) = 0.54129 0.02873
# Poissons Ratio (z) = 0.19069 0.02864
#
# Static dielectric constant tensor:
#      x y z
#    x 3.721690 0.000000 0.000000 
#    y 0.000000 3.825650 0.000000 
#    z 0.000000 0.000000 4.753260 
# 
# 
# High freq. dielectric constant tensor:
#      x y z
#    x 1.801900 0.000000 0.000000 
#    y 0.000000 1.799490 0.000000 
#    z 0.000000 0.000000 1.809690 
# 
# From -- ./inp_files/15720.got.cif
#   From: 2010.03.12/outbox.cif.g09.slc.cpg/sg20_8_cif.got.tgz:15720.got - 2010.04.14 01:38:04.
