data_PCOD8160912
_publ_section_title
;
Structure prediction by ZEFSAII (Michael W. Deem and Ramdas Pophale) SiO2 
 PCOD8160912
Probable space group: C 2 2 2
;
_chemical_formula_sum "Si O2"
_cell_formula_units_Z 48
_cell_length_a 17.663982
_cell_length_b 15.538560
_cell_length_c 9.231839
_cell_angle_alpha 90.000000
_cell_angle_beta 90.000000
_cell_angle_gamma 90.000000
_cell_volume 2533.889107
_symmetry_space_group_name_H-M "C 2 2 2"
_symmetry_group_IT_number 21
_symmetry_cell_setting 'orthorhombic'
loop_
_space_group_symop_operation_xyz
x,y,z
-x,-y,z
x,-y,-z
-x,y,-z
1/2+x,1/2+y,z
1/2-x,1/2-y,z
1/2+x,1/2-y,-z
1/2-x,1/2+y,-z
loop_
_atom_site_type_symbol
_atom_site_label
_atom_site_fract_x
_atom_site_fract_y
_atom_site_fract_z
Si Si1 0.239818 0.084958 0.910908
Si Si2 0.095918 0.616392 0.122464
Si Si3 0.180058 0.187066 0.169717
Si Si4 0.790184 0.023245 0.658570
Si Si5 0.944088 0.324449 0.821096
Si Si6 0.110612 0.528983 0.655856
O O1 0.314713 0.138191 0.858949
O O2 0.190381 0.053800 0.772329
O O3 0.189353 0.146120 0.010526
O O4 0.267412 0.000000 0.000000
O O5 0.077072 0.532434 0.218366
O O6 0.035645 0.690141 0.176190
O O7 0.080973 0.609406 0.950276
O O8 0.250000 0.250000 0.205861
O O9 0.174089 0.113511 0.291618
O O10 0.099532 0.234491 0.168136
O O11 0.700520 0.031780 0.659561
O O12 0.822346 0.000000 0.500000
O O13 0.919365 0.373988 0.676146
O O14 0.080425 0.500000 0.500000
#
# Coordination Sequence:
#
# PCOD8160912 Si02
#       6
#     8   8   8   8   8   8
#     4   9  17  32  53  74 101 141 173 202 250 310
#     4  10  19  30  46  70 102 135 172 201 249 309
#     4  11  18  32  52  73 105 139 173 216 263 292
#     4   9  18  33  52  74 100 138 180 211 248 310
#     4  11  20  30  47  73 102 141 172 213 251 295
#     4  10  19  31  47  71 107 148 175 193 240 317
#
# _framework density 18.943211999999999
#
# number of rings (size 3 to 8) (size 9 to 14) (size 15 to 20)
#    0.000    2.000    3.333    3.000    0.000    4.000 
#    0.000    2.500    0.000    0.000    0.000   21.000 
#    0.000    5.333    0.000    0.333    0.000    0.333 
#
# Total GULP energy -297343.699232 kJ/mol
# GULP energy per Si atom -12389.320801 kJ/mol
# Density = 1.890010 g / cm^3
# Si number density = 18.943212 Si / 1000 Ang^3
#
#
#
# Elastic Constant Matrix: (Units=GPa)
#
#
# Indices 1 2 3 4 5 6 
#
# 1 72.1639 54.5977 24.8616 0.0000 0.0000 0.0000
# 2 54.5977 103.6384 66.8594 0.0000 0.0000 0.0000
# 3 24.8616 66.8594 132.4784 0.0000 0.0000 0.0000
# 4 0.0000 0.0000 0.0000 24.6188 0.0000 0.0000
# 5 0.0000 0.0000 0.0000 0.0000 11.2162 0.0000
# 6 0.0000 0.0000 0.0000 0.0000 0.0000 29.1552
#
#
#
# Elastic Compliance Matrix: (Units=1/GPa)
#
#
# Indices 1 2 3 4 5 6 
#
# 1 0.023697 -0.014256 0.002748 0.000000 0.000000 0.000000
# 2 -0.014256 0.022884 -0.008874 0.000000 0.000000 0.000000
# 3 0.002748 -0.008874 0.011511 0.000000 0.000000 0.000000
# 4 0.000000 0.000000 0.000000 0.040619 0.000000 0.000000
# 5 0.000000 0.000000 0.000000 0.000000 0.089157 0.000000
# 6 0.000000 0.000000 0.000000 0.000000 0.000000 0.034299
#
#
# Mechanical properties :
#
#
# Convention : Reuss Voigt Hill
#
# Bulk Modulus (GPa) = 57.71201 66.76870 62.24036
# Shear Modulus (GPa) = 18.60758 23.79549 21.20154
#
# Velocity S-wave (km/s) = 3.13754 3.54806 3.34910
# Velocity P-wave (km/s) = 6.60738 7.21861 6.91975
#
# Compressibility (1/GPa) = 0.01732742
#
# Stress axis : x y z
#
# Youngs Moduli (GPa) = 42.19984 43.69874 86.87269
#
# Poissons Ratio (x) = 0.62299 -0.23872
# Poissons Ratio (y) = 0.60162 0.77088
# Poissons Ratio (z) = -0.11596 0.38777
#
# Static dielectric constant tensor:
#      x y z
#    x 3.209540 0.000000 0.000000 
#    y 0.000000 3.247350 0.000000 
#    z 0.000000 0.000000 3.773930 
# 
# 
# High freq. dielectric constant tensor:
#      x y z
#    x 1.706660 0.000000 0.000000 
#    y 0.000000 1.704700 0.000000 
#    z 0.000000 0.000000 1.735770 
# 
# From -- ./inp_files/16587.got.cif
#   From: 2010.03.12/outbox.cif.g09.slc.cpg/sg21_9_cif.got.tgz:16587.got - 2010.04.14 01:59:26.
