data_PCOD8160750
_publ_section_title
;
Structure prediction by ZEFSAII (Michael W. Deem and Ramdas Pophale) SiO2 
 PCOD8160750
Probable space group: C 2 2 21
;
_chemical_formula_sum "Si O2"
_cell_formula_units_Z 20
_cell_length_a 8.427014
_cell_length_b 17.663944
_cell_length_c 4.723238
_cell_angle_alpha 90.000000
_cell_angle_beta 90.000000
_cell_angle_gamma 90.000000
_cell_volume 703.074302
_symmetry_space_group_name_H-M "C 2 2 21"
_symmetry_group_IT_number 20
_symmetry_cell_setting 'orthorhombic'
loop_
_space_group_symop_operation_xyz
x,y,z
-x,-y,1/2+z
x,-y,-z
-x,y,1/2-z
1/2+x,1/2+y,z
1/2-x,1/2-y,1/2+z
1/2+x,1/2-y,-z
1/2-x,1/2+y,1/2-z
loop_
_atom_site_type_symbol
_atom_site_label
_atom_site_fract_x
_atom_site_fract_y
_atom_site_fract_z
Si Si1 0.837120 0.581776 0.631408
Si Si2 0.608400 0.500000 0.000000
Si Si3 0.311859 0.706173 0.249010
O O1 0.874932 0.500000 0.500000
O O2 0.769756 0.632418 0.381015
O O3 0.000000 0.617316 0.750000
O O4 0.709677 0.571203 0.885629
O O5 0.500000 0.534328 0.250000
O O6 0.500000 0.698345 0.250000
O O7 0.242555 0.719788 0.565221
#
# Coordination Sequence:
#
# PCOD8160750 Si02
#       3
#     8   4   8
#     4  12  29  54  90 126 174 231 293 362 435 522
#     4  12  28  48  80 128 174 216 284 358 432 504
#     4  12  31  58  89 125 177 233 296 364 437 525
#
# _framework density 28.446497999999998
#
# number of rings (size 3 to 8) (size 9 to 14) (size 15 to 20)
#    0.000    0.000    4.000    2.400   11.200    3.200 
#    0.000    2.000    0.000    0.000    0.000    0.000 
#    0.000    0.000    0.000    0.000    0.000    0.000 
#
# Total GULP energy -124116.415341 kJ/mol
# GULP energy per Si atom -12411.641534 kJ/mol
# Density = 2.838175 g / cm^3
# Si number density = 28.446498 Si / 1000 Ang^3
#
#
#
# Elastic Constant Matrix: (Units=GPa)
#
#
# Indices 1 2 3 4 5 6 
#
# 1 225.4114 14.7917 45.3664 0.0000 0.0000 0.0000
# 2 14.7917 96.6362 -22.0521 0.0000 0.0000 0.0000
# 3 45.3664 -22.0521 121.4555 0.0000 0.0000 0.0000
# 4 0.0000 0.0000 0.0000 36.4370 0.0000 0.0000
# 5 0.0000 0.0000 0.0000 0.0000 72.8072 0.0000
# 6 0.0000 0.0000 0.0000 0.0000 0.0000 8.6497
#
#
#
# Elastic Compliance Matrix: (Units=1/GPa)
#
#
# Indices 1 2 3 4 5 6 
#
# 1 0.004932 -0.001226 -0.002065 0.000000 0.000000 0.000000
# 2 -0.001226 0.011100 0.002473 0.000000 0.000000 0.000000
# 3 -0.002065 0.002473 0.009454 0.000000 0.000000 0.000000
# 4 0.000000 0.000000 0.000000 0.027445 0.000000 0.000000
# 5 0.000000 0.000000 0.000000 0.000000 0.013735 0.000000
# 6 0.000000 0.000000 0.000000 0.000000 0.000000 0.115611
#
#
# Mechanical properties :
#
#
# Convention : Reuss Voigt Hill
#
# Bulk Modulus (GPa) = 41.92706 57.74613 49.83660
# Shear Modulus (GPa) = 26.06029 50.60525 38.33277
#
# Velocity S-wave (km/s) = 3.03002 4.22235 3.67487
# Velocity P-wave (km/s) = 5.19734 6.64191 5.96353
#
# Compressibility (1/GPa) = 0.02385094
#
# Stress axis : x y z
#
# Youngs Moduli (GPa) = 202.74096 90.08833 105.77660
#
# Poissons Ratio (x) = 0.11047 0.21843
# Poissons Ratio (y) = 0.24860 -0.26163
# Poissons Ratio (z) = 0.41866 -0.22283
#
# Static dielectric constant tensor:
#      x y z
#    x 5.392210 0.000000 0.000000 
#    y 0.000000 5.170370 0.000000 
#    z 0.000000 0.000000 5.601440 
# 
# 
# High freq. dielectric constant tensor:
#      x y z
#    x 2.164780 0.000000 0.000000 
#    y 0.000000 2.171580 0.000000 
#    z 0.000000 0.000000 2.178010 
# 
# From -- ./inp_files/221.got.cif
#   From: 2010.03.12/outbox.cif.g09.slc.cpg/sg20_1_cif.got.tgz:221.got - 2010.04.14 01:38:04.
