data_PCOD8160918
_publ_section_title
;
Structure prediction by ZEFSAII (Michael W. Deem and Ramdas Pophale) SiO2 
 PCOD8160918
Probable space group: C 2 2 2
;
_chemical_formula_sum "Si O2"
_cell_formula_units_Z 56
_cell_length_a 26.574769
_cell_length_b 5.151448
_cell_length_c 27.030308
_cell_angle_alpha 90.000000
_cell_angle_beta 90.000000
_cell_angle_gamma 90.000000
_cell_volume 3700.409718
_symmetry_space_group_name_H-M "C 2 2 2"
_symmetry_group_IT_number 21
_symmetry_cell_setting 'orthorhombic'
loop_
_space_group_symop_operation_xyz
x,y,z
-x,-y,z
x,-y,-z
-x,y,-z
1/2+x,1/2+y,z
1/2-x,1/2-y,z
1/2+x,1/2-y,-z
1/2-x,1/2+y,-z
loop_
_atom_site_type_symbol
_atom_site_label
_atom_site_fract_x
_atom_site_fract_y
_atom_site_fract_z
Si Si1 0.309992 0.242660 0.802193
Si Si2 0.189991 0.754067 0.859567
Si Si3 0.809385 0.772759 0.366389
Si Si4 0.810002 0.751183 0.028831
Si Si5 0.190298 0.264424 0.691243
Si Si6 0.616454 0.490291 0.558329
Si Si7 0.443863 0.999781 0.558658
O O1 0.250000 0.250000 0.801259
O O2 0.330517 0.504639 0.827511
O O3 0.330846 0.200045 0.746661
O O4 0.330811 0.005913 0.834530
O O5 0.250000 0.750000 0.860228
O O6 0.168934 0.763142 0.915370
O O7 0.750000 0.750000 0.374576
O O8 0.828856 0.493771 0.345802
O O9 0.831616 0.888359 0.417487
O O10 0.827823 0.982950 0.326331
O O11 0.750000 0.750000 0.029699
O O12 0.830582 0.500000 0.000000
O O13 0.830843 0.000000 0.000000
O O14 0.250000 0.250000 0.691887
O O15 0.626602 0.500000 0.500000
O O16 0.592813 0.765023 0.576611
O O17 0.577023 0.275120 0.575863
O O18 0.500000 0.000000 0.581531
O O19 0.447205 0.000000 0.500000
#
# Coordination Sequence:
#
# PCOD8160918 Si02
#       7
#     8   8   8   8   8   8   8
#     4   9  15  23  34  47  59  75 105 146 183 213
#     4   9  15  21  30  43  57  73  99 136 175 215
#     4  10  19  31  43  58  80 107 133 157 187 229
#     4   9  15  21  27  36  53  76  97 120 160 218
#     4   9  17  28  41  53  69  94 124 156 191 225
#     4  10  19  31  46  65  85 106 132 159 189 231
#     4   9  17  30  48  67  85 103 125 157 195 230
#
# _framework density 15.133461
#
# number of rings (size 3 to 8) (size 9 to 14) (size 15 to 20)
#    0.000    2.714    0.000    3.000    0.000    8.571 
#    0.000    4.286    0.000    0.000    0.000    0.000 
#    0.000    0.000    0.000    0.000    0.000    0.000 
#
# Total GULP energy -346907.755333 kJ/mol
# GULP energy per Si atom -12389.562690 kJ/mol
# Density = 1.509902 g / cm^3
# Si number density = 15.133461 Si / 1000 Ang^3
#
#
#
# Elastic Constant Matrix: (Units=GPa)
#
#
# Indices 1 2 3 4 5 6 
#
# 1 27.2360 20.5488 24.3335 0.0000 0.0000 0.0000
# 2 20.5488 132.0105 49.2993 0.0000 0.0000 0.0000
# 3 24.3335 49.2993 92.7973 0.0000 0.0000 0.0000
# 4 0.0000 0.0000 0.0000 28.4276 0.0000 0.0000
# 5 0.0000 0.0000 0.0000 0.0000 0.9001 0.0000
# 6 0.0000 0.0000 0.0000 0.0000 0.0000 12.9823
#
#
#
# Elastic Compliance Matrix: (Units=1/GPa)
#
#
# Indices 1 2 3 4 5 6 
#
# 1 0.049246 -0.003547 -0.011029 0.000000 0.000000 0.000000
# 2 -0.003547 0.009705 -0.004226 0.000000 0.000000 0.000000
# 3 -0.011029 -0.004226 0.015913 0.000000 0.000000 0.000000
# 4 0.000000 0.000000 0.000000 0.035177 0.000000 0.000000
# 5 0.000000 0.000000 0.000000 0.000000 1.110997 0.000000
# 6 0.000000 0.000000 0.000000 0.000000 0.000000 0.077028
#
#
# Mechanical properties :
#
#
# Convention : Reuss Voigt Hill
#
# Bulk Modulus (GPa) = 26.83792 48.93411 37.88601
# Shear Modulus (GPa) = 3.70895 18.98615 11.34755
#
# Velocity S-wave (km/s) = 1.56721 3.54585 2.74128
# Velocity P-wave (km/s) = 4.58776 7.01208 5.92523
#
# Compressibility (1/GPa) = 0.03726071
#
# Stress axis : x y z
#
# Youngs Moduli (GPa) = 20.30636 103.03470 62.84024
#
# Poissons Ratio (x) = 0.36544 0.69307
# Poissons Ratio (y) = 0.07202 0.26557
# Poissons Ratio (z) = 0.22396 0.43543
#
# Static dielectric constant tensor:
#      x y z
#    x 2.385290 0.000000 0.000000 
#    y 0.000000 3.273910 0.000000 
#    z 0.000000 0.000000 3.017350 
# 
# 
# High freq. dielectric constant tensor:
#      x y z
#    x 1.491760 0.000000 0.000000 
#    y 0.000000 1.607810 0.000000 
#    z 0.000000 0.000000 1.575600 
# 
# From -- ./inp_files/38923.got.cif
#   From: 2010.03.12/outbox.cif.g09.slc.cpg/sg21_20_cif.got.tgz:38923.got - 2010.04.14 01:59:26.
