data_PCOD8160350
_publ_section_title
;
Structure prediction by ZEFSAII (Michael W. Deem and Ramdas Pophale) SiO2 
 PCOD8160350
Probable space group: C 2 2 21
;
_chemical_formula_sum "Si O2"
_cell_formula_units_Z 32
_cell_length_a 31.335099
_cell_length_b 4.898176
_cell_length_c 9.526375
_cell_angle_alpha 90.000000
_cell_angle_beta 90.000000
_cell_angle_gamma 90.000000
_cell_volume 1462.154046
_symmetry_space_group_name_H-M "C 2 2 21"
_symmetry_group_IT_number 20
_symmetry_cell_setting 'orthorhombic'
loop_
_space_group_symop_operation_xyz
x,y,z
-x,-y,1/2+z
x,-y,-z
-x,y,1/2-z
1/2+x,1/2+y,z
1/2-x,1/2-y,1/2+z
1/2+x,1/2-y,-z
1/2-x,1/2+y,1/2-z
loop_
_atom_site_type_symbol
_atom_site_label
_atom_site_fract_x
_atom_site_fract_y
_atom_site_fract_z
Si Si1 0.284467 0.000000 0.500000
Si Si2 0.113639 0.010145 0.654119
Si Si3 0.521176 0.270720 0.598068
Si Si4 0.659855 0.020282 0.743548
Si Si5 0.225418 0.500000 0.500000
O O1 0.316098 0.907151 0.622260
O O2 0.255076 0.750365 0.454427
O O3 0.064977 0.919382 0.640207
O O4 0.137625 0.813216 0.764003
O O5 0.135493 0.000000 0.500000
O O6 0.120604 0.318452 0.706088
O O7 0.496732 0.500000 0.500000
O O8 0.500000 0.202152 0.750000
O O9 0.526729 0.000000 0.500000
O O10 0.695852 0.069580 0.629193
#
# Coordination Sequence:
#
# PCOD8160350 Si02
#       5
#     4   8   8   8   4
#     4  12  26  40  58  98 129 162 213 288 338 370
#     4  11  21  42  68  92 125 175 220 255 317 402
#     4  11  24  45  73 105 140 178 228 281 338 412
#     4  12  23  41  65  91 126 168 219 268 325 392
#     4  12  22  42  64  88 123 174 221 264 330 404
#
# _framework density 21.885518000000001
#
# number of rings (size 3 to 8) (size 9 to 14) (size 15 to 20)
#    0.000    0.500    2.500    8.250    0.000    0.000 
#    6.750    0.000    0.000    0.000    0.000    0.000 
#    0.000    0.000    0.000    0.000    0.000    0.000 
#
# Total GULP energy -198261.292316 kJ/mol
# GULP energy per Si atom -12391.330770 kJ/mol
# Density = 2.183571 g / cm^3
# Si number density = 21.885518 Si / 1000 Ang^3
#
#
#
# Elastic Constant Matrix: (Units=GPa)
#
#
# Indices 1 2 3 4 5 6 
#
# 1 83.6853 28.6488 39.0430 0.0000 0.0000 0.0000
# 2 28.6488 110.9241 14.4062 0.0000 0.0000 0.0000
# 3 39.0430 14.4062 103.1153 0.0000 0.0000 0.0000
# 4 0.0000 0.0000 0.0000 29.3616 0.0000 0.0000
# 5 0.0000 0.0000 0.0000 0.0000 2.9968 0.0000
# 6 0.0000 0.0000 0.0000 0.0000 0.0000 61.8912
#
#
#
# Elastic Compliance Matrix: (Units=1/GPa)
#
#
# Indices 1 2 3 4 5 6 
#
# 1 0.015634 -0.003329 -0.005454 0.000000 0.000000 0.000000
# 2 -0.003329 0.009891 -0.000121 0.000000 0.000000 0.000000
# 3 -0.005454 -0.000121 0.011780 0.000000 0.000000 0.000000
# 4 0.000000 0.000000 0.000000 0.034058 0.000000 0.000000
# 5 0.000000 0.000000 0.000000 0.000000 0.333687 0.000000
# 6 0.000000 0.000000 0.000000 0.000000 0.000000 0.016157
#
#
# Mechanical properties :
#
#
# Convention : Reuss Voigt Hill
#
# Bulk Modulus (GPa) = 51.29589 51.32454 51.31021
# Shear Modulus (GPa) = 11.22295 33.22505 22.22400
#
# Velocity S-wave (km/s) = 2.26697 3.90055 3.19009
# Velocity P-wave (km/s) = 5.50830 6.61725 6.08808
#
# Compressibility (1/GPa) = 0.01949474
#
# Stress axis : x y z
#
# Youngs Moduli (GPa) = 63.96277 101.10374 84.88927
#
# Poissons Ratio (x) = 0.33662 0.46302
# Poissons Ratio (y) = 0.21296 0.01029
# Poissons Ratio (z) = 0.34888 0.01225
#
# Static dielectric constant tensor:
#      x y z
#    x 3.801330 0.000000 0.000000 
#    y 0.000000 3.793480 0.000000 
#    z 0.000000 0.000000 3.547530 
# 
# 
# High freq. dielectric constant tensor:
#      x y z
#    x 1.852640 0.000000 0.000000 
#    y 0.000000 1.878550 0.000000 
#    z 0.000000 0.000000 1.853830 
# 
# From -- ./inp_files/11264.got.cif
#   From: 2010.03.12/outbox.cif.g09.slc.cpg/sg20_6_cif.got.tgz:11264.got - 2010.04.14 01:38:04.
