data_PCOD8160059
_publ_section_title
;
Structure prediction by ZEFSAII (Michael W. Deem and Ramdas Pophale) SiO2 
 PCOD8160059
Probable space group: C 2 2 21
;
_chemical_formula_sum "Si O2"
_cell_formula_units_Z 48
_cell_length_a 16.911620
_cell_length_b 11.089716
_cell_length_c 11.619644
_cell_angle_alpha 90.000000
_cell_angle_beta 90.000000
_cell_angle_gamma 90.000000
_cell_volume 2179.206865
_symmetry_space_group_name_H-M "C 2 2 21"
_symmetry_group_IT_number 20
_symmetry_cell_setting 'orthorhombic'
loop_
_space_group_symop_operation_xyz
x,y,z
-x,-y,1/2+z
x,-y,-z
-x,y,1/2-z
1/2+x,1/2+y,z
1/2-x,1/2-y,1/2+z
1/2+x,1/2-y,-z
1/2-x,1/2+y,1/2-z
loop_
_atom_site_type_symbol
_atom_site_label
_atom_site_fract_x
_atom_site_fract_y
_atom_site_fract_z
Si Si1 0.845993 0.569858 0.335299
Si Si2 0.446433 0.740937 0.516643
Si Si3 0.290685 0.500000 0.000000
Si Si4 0.258957 0.157048 0.123892
Si Si5 0.121163 0.237582 0.470375
Si Si6 0.123631 0.307383 0.208526
Si Si7 0.859232 0.000000 0.500000
O O1 0.899051 0.652028 0.419407
O O2 0.764244 0.530234 0.392211
O O3 0.823304 0.642297 0.222652
O O4 0.892210 0.450707 0.293456
O O5 0.539329 0.757745 0.540143
O O6 0.439683 0.750066 0.378390
O O7 0.412656 0.608834 0.552282
O O8 0.350122 0.609806 0.982849
O O9 0.210322 0.277938 0.155619
O O10 0.196530 0.048466 0.104014
O O11 0.310224 0.168863 0.007181
O O12 0.111723 0.248684 0.333333
#
# Coordination Sequence:
#
# PCOD8160059 Si02
#       7
#     8   8   4   8   8   8   4
#     4  12  23  45  71 100 137 186 230 284 345 420
#     4  11  25  45  69 103 145 181 221 292 360 409
#     4  12  21  42  75  96 130 182 240 280 333 418
#     4  11  24  41  74 100 130 180 238 283 334 415
#     4  12  25  45  69 109 136 181 235 288 353 410
#     4  11  23  44  72  98 138 186 230 278 345 425
#     4  10  23  46  67 102 138 178 230 288 343 404
#
# _framework density 22.026361999999999
#
# number of rings (size 3 to 8) (size 9 to 14) (size 15 to 20)
#    0.000    0.667    5.000    3.000    2.333    0.667 
#   12.000    0.000    0.000    0.000    0.000    0.000 
#    0.000    0.000    0.000    0.000    0.000    0.000 
#
# Total GULP energy -297490.428841 kJ/mol
# GULP energy per Si atom -12395.434535 kJ/mol
# Density = 2.197623 g / cm^3
# Si number density = 22.026362 Si / 1000 Ang^3
#
#
#
# Elastic Constant Matrix: (Units=GPa)
#
#
# Indices 1 2 3 4 5 6 
#
# 1 135.9103 57.6377 36.0136 0.0000 0.0000 0.0000
# 2 57.6377 130.3863 23.0779 0.0000 0.0000 0.0000
# 3 36.0136 23.0779 85.9477 0.0000 0.0000 0.0000
# 4 0.0000 0.0000 0.0000 24.6556 0.0000 0.0000
# 5 0.0000 0.0000 0.0000 0.0000 6.3073 0.0000
# 6 0.0000 0.0000 0.0000 0.0000 0.0000 18.1443
#
#
#
# Elastic Compliance Matrix: (Units=1/GPa)
#
#
# Indices 1 2 3 4 5 6 
#
# 1 0.009776 -0.003776 -0.003082 0.000000 0.000000 0.000000
# 2 -0.003776 0.009511 -0.000972 0.000000 0.000000 0.000000
# 3 -0.003082 -0.000972 0.013187 0.000000 0.000000 0.000000
# 4 0.000000 0.000000 0.000000 0.040559 0.000000 0.000000
# 5 0.000000 0.000000 0.000000 0.000000 0.158547 0.000000
# 6 0.000000 0.000000 0.000000 0.000000 0.000000 0.055114
#
#
# Mechanical properties :
#
#
# Convention : Reuss Voigt Hill
#
# Bulk Modulus (GPa) = 59.47327 65.07808 62.27567
# Shear Modulus (GPa) = 16.23599 25.52243 20.87921
#
# Velocity S-wave (km/s) = 2.71793 3.40769 3.08217
# Velocity P-wave (km/s) = 6.07529 6.71512 6.40320
#
# Compressibility (1/GPa) = 0.01681428
#
# Stress axis : x y z
#
# Youngs Moduli (GPa) = 102.29260 105.14559 75.82975
#
# Poissons Ratio (x) = 0.39702 0.23374
# Poissons Ratio (y) = 0.38625 0.07367
# Poissons Ratio (z) = 0.31531 0.10215
#
# Static dielectric constant tensor:
#      x y z
#    x 4.012040 0.000000 0.000000 
#    y 0.000000 4.111400 0.000000 
#    z 0.000000 0.000000 4.024380 
# 
# 
# High freq. dielectric constant tensor:
#      x y z
#    x 1.869190 0.000000 0.000000 
#    y 0.000000 1.872430 0.000000 
#    z 0.000000 0.000000 1.856870 
# 
# From -- ./inp_files/15742.got.cif
#   From: 2010.03.12/outbox.cif.g09.slc.cpg/sg20_8_cif.got.tgz:15742.got - 2010.04.14 01:38:04.
