data_PCOD8160603
_publ_section_title
;
Structure prediction by ZEFSAII (Michael W. Deem and Ramdas Pophale) SiO2 
 PCOD8160603
Probable space group: C 2 2 21
;
_chemical_formula_sum "Si O2"
_cell_formula_units_Z 36
_cell_length_a 22.344397
_cell_length_b 8.826935
_cell_length_c 7.788401
_cell_angle_alpha 90.000000
_cell_angle_beta 90.000000
_cell_angle_gamma 90.000000
_cell_volume 1536.126111
_symmetry_space_group_name_H-M "C 2 2 21"
_symmetry_group_IT_number 20
_symmetry_cell_setting 'orthorhombic'
loop_
_space_group_symop_operation_xyz
x,y,z
-x,-y,1/2+z
x,-y,-z
-x,y,1/2-z
1/2+x,1/2+y,z
1/2-x,1/2-y,1/2+z
1/2+x,1/2-y,-z
1/2-x,1/2+y,1/2-z
loop_
_atom_site_type_symbol
_atom_site_label
_atom_site_fract_x
_atom_site_fract_y
_atom_site_fract_z
Si Si1 0.808313 0.555107 0.265592
Si Si2 0.560969 0.427703 0.320729
Si Si3 0.561445 0.918921 0.673964
Si Si4 0.859118 0.000000 0.500000
Si Si5 0.728273 0.239526 0.914974
O O1 0.880171 0.557433 0.295796
O O2 0.789912 0.661664 0.103375
O O3 0.783711 0.381603 0.257994
O O4 0.771621 0.638411 0.416079
O O5 0.583598 0.500000 0.500000
O O6 0.500000 0.505376 0.250000
O O7 0.548410 0.254436 0.366795
O O8 0.606288 0.435891 0.163754
O O9 0.500000 0.991787 0.750000
O O10 0.579504 0.000000 0.500000
O O11 0.823900 0.861836 0.582237
#
# Coordination Sequence:
#
# PCOD8160603 Si02
#       5
#     8   8   8   4   8
#     4  11  26  47  74 110 145 205 244 315 379 459
#     4  11  25  45  73 110 147 204 255 313 384 457
#     4  11  28  48  75 108 152 195 258 309 387 456
#     4  12  24  46  72 108 158 194 254 326 374 466
#     4  11  26  46  74 104 152 187 257 306 388 447
#
# _framework density 23.435575
#
# number of rings (size 3 to 8) (size 9 to 14) (size 15 to 20)
#    0.000    0.889    3.333    1.333   10.889    0.889 
#    0.000    0.000    0.000    0.000    0.000    0.000 
#    0.000    0.000    0.000    0.000    0.000    0.000 
#
# Total GULP energy -223053.837096 kJ/mol
# GULP energy per Si atom -12391.879839 kJ/mol
# Density = 2.338223 g / cm^3
# Si number density = 23.435575 Si / 1000 Ang^3
#
#
#
# Elastic Constant Matrix: (Units=GPa)
#
#
# Indices 1 2 3 4 5 6 
#
# 1 146.1150 42.5464 24.0061 0.0000 0.0000 0.0000
# 2 42.5464 139.1792 31.0960 0.0000 0.0000 0.0000
# 3 24.0061 31.0960 105.3714 0.0000 0.0000 0.0000
# 4 0.0000 0.0000 0.0000 38.9519 0.0000 0.0000
# 5 0.0000 0.0000 0.0000 0.0000 30.8725 0.0000
# 6 0.0000 0.0000 0.0000 0.0000 0.0000 20.4629
#
#
#
# Elastic Compliance Matrix: (Units=1/GPa)
#
#
# Indices 1 2 3 4 5 6 
#
# 1 0.007635 -0.002083 -0.001125 0.000000 0.000000 0.000000
# 2 -0.002083 0.008260 -0.001963 0.000000 0.000000 0.000000
# 3 -0.001125 -0.001963 0.010326 0.000000 0.000000 0.000000
# 4 0.000000 0.000000 0.000000 0.025673 0.000000 0.000000
# 5 0.000000 0.000000 0.000000 0.000000 0.032391 0.000000
# 6 0.000000 0.000000 0.000000 0.000000 0.000000 0.048869
#
#
# Mechanical properties :
#
#
# Convention : Reuss Voigt Hill
#
# Bulk Modulus (GPa) = 62.97300 65.10695 64.03998
# Shear Modulus (GPa) = 33.60465 37.59194 35.59829
#
# Velocity S-wave (km/s) = 3.79082 4.00941 3.90164
# Velocity P-wave (km/s) = 6.78892 7.01964 6.90524
#
# Compressibility (1/GPa) = 0.01587982
#
# Stress axis : x y z
#
# Youngs Moduli (GPa) = 130.97253 121.06124 96.84416
#
# Poissons Ratio (x) = 0.25214 0.10894
# Poissons Ratio (y) = 0.27278 0.19012
# Poissons Ratio (z) = 0.14732 0.23767
#
# Static dielectric constant tensor:
#      x y z
#    x 4.266750 0.000000 0.000000 
#    y 0.000000 4.689700 0.000000 
#    z 0.000000 0.000000 4.805190 
# 
# 
# High freq. dielectric constant tensor:
#      x y z
#    x 1.924380 0.000000 0.000000 
#    y 0.000000 1.943620 0.000000 
#    z 0.000000 0.000000 1.927910 
# 
# From -- ./inp_files/9853.got.cif
#   From: 2010.03.12/outbox.cif.g09.slc.cpg/sg20_5_cif.got.tgz:9853.got - 2010.04.14 01:38:04.
