data_PCOD8160177
_publ_section_title
;
Structure prediction by ZEFSAII (Michael W. Deem and Ramdas Pophale) SiO2 
 PCOD8160177
Probable space group: C 2 2 21
;
_chemical_formula_sum "Si O2"
_cell_formula_units_Z 32
_cell_length_a 12.889035
_cell_length_b 19.117636
_cell_length_c 5.500596
_cell_angle_alpha 90.000000
_cell_angle_beta 90.000000
_cell_angle_gamma 90.000000
_cell_volume 1355.390196
_symmetry_space_group_name_H-M "C 2 2 21"
_symmetry_group_IT_number 20
_symmetry_cell_setting 'orthorhombic'
loop_
_space_group_symop_operation_xyz
x,y,z
-x,-y,1/2+z
x,-y,-z
-x,y,1/2-z
1/2+x,1/2+y,z
1/2-x,1/2-y,1/2+z
1/2+x,1/2-y,-z
1/2-x,1/2+y,1/2-z
loop_
_atom_site_type_symbol
_atom_site_label
_atom_site_fract_x
_atom_site_fract_y
_atom_site_fract_z
Si Si1 0.000000 0.543535 0.250000
Si Si2 0.716266 0.922070 0.605099
Si Si3 0.000000 0.184930 0.750000
Si Si4 0.590236 0.577552 0.424752
Si Si5 0.208825 0.783354 0.085981
O O1 0.100664 0.592179 0.292500
O O2 0.981552 0.500000 0.500000
O O3 0.794463 0.918630 0.827917
O O4 0.750195 0.863924 0.409361
O O5 0.723189 0.000000 0.500000
O O6 0.087176 0.134593 0.634354
O O7 0.081852 0.228144 0.915641
O O8 0.558538 0.500000 0.500000
O O9 0.500000 0.604822 0.250000
O O10 0.254698 0.747062 0.325986
#
# Coordination Sequence:
#
# PCOD8160177 Si02
#       5
#     4   8   4   8   8
#     4  10  24  45  72 108 148 199 254 312 362 423
#     4  11  24  48  77 107 148 198 254 310 370 452
#     4  12  26  47  72 102 152 195 250 302 388 459
#     4  12  21  38  70 118 150 189 235 313 381 454
#     4  12  29  50  74 110 151 198 248 311 381 455
#
# _framework density 23.609435999999999
#
# number of rings (size 3 to 8) (size 9 to 14) (size 15 to 20)
#    0.000    0.500    3.750    4.500    0.000    7.000 
#    0.000    7.500    0.000    0.000    0.000    0.000 
#    0.000    0.000    0.000    0.000    0.000    0.000 
#
# Total GULP energy -198215.443717 kJ/mol
# GULP energy per Si atom -12388.465232 kJ/mol
# Density = 2.355570 g / cm^3
# Si number density = 23.609436 Si / 1000 Ang^3
#
#
#
# Elastic Constant Matrix: (Units=GPa)
#
#
# Indices 1 2 3 4 5 6 
#
# 1 222.3318 34.6453 57.1432 0.0000 0.0000 0.0000
# 2 34.6453 98.7728 37.5112 0.0000 0.0000 0.0000
# 3 57.1432 37.5112 130.2550 0.0000 0.0000 0.0000
# 4 0.0000 0.0000 0.0000 23.5204 0.0000 0.0000
# 5 0.0000 0.0000 0.0000 0.0000 45.4406 0.0000
# 6 0.0000 0.0000 0.0000 0.0000 0.0000 15.4960
#
#
#
# Elastic Compliance Matrix: (Units=1/GPa)
#
#
# Indices 1 2 3 4 5 6 
#
# 1 0.005168 -0.001069 -0.001959 0.000000 0.000000 0.000000
# 2 -0.001069 0.011588 -0.002868 0.000000 0.000000 0.000000
# 3 -0.001959 -0.002868 0.009363 0.000000 0.000000 0.000000
# 4 0.000000 0.000000 0.000000 0.042516 0.000000 0.000000
# 5 0.000000 0.000000 0.000000 0.000000 0.022007 0.000000
# 6 0.000000 0.000000 0.000000 0.000000 0.000000 0.064533
#
#
# Mechanical properties :
#
#
# Convention : Reuss Voigt Hill
#
# Bulk Modulus (GPa) = 69.80170 78.88433 74.34302
# Shear Modulus (GPa) = 29.11318 38.36205 33.73761
#
# Velocity S-wave (km/s) = 3.51538 4.03533 3.78430
# Velocity P-wave (km/s) = 6.79018 7.42944 7.11699
#
# Compressibility (1/GPa) = 0.01432630
#
# Stress axis : x y z
#
# Youngs Moduli (GPa) = 193.50208 86.29308 106.80398
#
# Poissons Ratio (x) = 0.09221 0.20928
# Poissons Ratio (y) = 0.20676 0.30637
# Poissons Ratio (z) = 0.37916 0.24753
#
# Static dielectric constant tensor:
#      x y z
#    x 4.600190 0.000000 0.000000 
#    y 0.000000 4.625990 0.000000 
#    z 0.000000 0.000000 4.898470 
# 
# 
# High freq. dielectric constant tensor:
#      x y z
#    x 1.960720 0.000000 0.000000 
#    y 0.000000 1.923530 0.000000 
#    z 0.000000 0.000000 1.938240 
# 
# From -- ./inp_files/1043.got.cif
#   From: 2010.03.12/outbox.cif.g09.slc.cpg/sg20_1_cif.got.tgz:1043.got - 2010.04.14 01:38:04.
