data_PCOD8160439
_publ_section_title
;
Structure prediction by ZEFSAII (Michael W. Deem and Ramdas Pophale) SiO2 
 PCOD8160439
Probable space group: C 2 2 21
;
_chemical_formula_sum "Si O2"
_cell_formula_units_Z 48
_cell_length_a 18.112488
_cell_length_b 9.157704
_cell_length_c 13.695378
_cell_angle_alpha 90.000000
_cell_angle_beta 90.000000
_cell_angle_gamma 90.000000
_cell_volume 2271.635967
_symmetry_space_group_name_H-M "C 2 2 21"
_symmetry_group_IT_number 20
_symmetry_cell_setting 'orthorhombic'
loop_
_space_group_symop_operation_xyz
x,y,z
-x,-y,1/2+z
x,-y,-z
-x,y,1/2-z
1/2+x,1/2+y,z
1/2-x,1/2-y,1/2+z
1/2+x,1/2-y,-z
1/2-x,1/2+y,1/2-z
loop_
_atom_site_type_symbol
_atom_site_label
_atom_site_fract_x
_atom_site_fract_y
_atom_site_fract_z
Si Si1 0.582382 0.211235 0.438799
Si Si2 0.345698 0.909292 0.117993
Si Si3 0.422762 0.761772 0.274356
Si Si4 0.418333 0.171560 0.503630
Si Si5 0.580352 0.563698 0.724731
Si Si6 0.325528 0.603716 0.585586
O O1 0.619671 0.213529 0.545714
O O2 0.494153 0.216825 0.451118
O O3 0.607143 0.351028 0.373285
O O4 0.610455 0.061451 0.389603
O O5 0.355422 0.854222 0.228682
O O6 0.260708 0.927412 0.093039
O O7 0.500000 0.843500 0.250000
O O8 0.412185 0.755218 0.389698
O O9 0.426770 0.609957 0.213682
O O10 0.348147 0.232157 0.443778
O O11 0.410066 0.000000 0.500000
O O12 0.500000 0.631383 0.750000
O O13 0.639979 0.578406 0.809395
O O14 0.358620 0.500000 0.500000
#
# Coordination Sequence:
#
# PCOD8160439 Si02
#       6
#     8   8   8   8   8   8
#     4  11  22  45  71  99 134 190 236 282 361 432
#     4  11  25  45  71  99 143 186 229 303 366 427
#     4  11  23  42  68 104 134 178 239 294 352 426
#     4  12  24  44  73 103 138 186 243 296 354 437
#     4  11  25  40  69 102 134 186 241 290 353 431
#     4  12  25  47  68  99 149 185 229 303 370 422
#
# _framework density 21.130147000000001
#
# number of rings (size 3 to 8) (size 9 to 14) (size 15 to 20)
#    0.000    0.667    8.333    0.000    2.333    4.000 
#    3.000    0.000    0.000    0.000    0.000    0.000 
#    0.000    0.000    0.000    0.000    0.000    0.000 
#
# Total GULP energy -297432.735692 kJ/mol
# GULP energy per Si atom -12393.030654 kJ/mol
# Density = 2.108205 g / cm^3
# Si number density = 21.130147 Si / 1000 Ang^3
#
#
#
# Elastic Constant Matrix: (Units=GPa)
#
#
# Indices 1 2 3 4 5 6 
#
# 1 87.8180 32.9591 49.6141 0.0000 0.0000 0.0000
# 2 32.9591 85.2828 50.5730 0.0000 0.0000 0.0000
# 3 49.6141 50.5730 91.8325 0.0000 0.0000 0.0000
# 4 0.0000 0.0000 0.0000 42.5624 0.0000 0.0000
# 5 0.0000 0.0000 0.0000 0.0000 33.3712 0.0000
# 6 0.0000 0.0000 0.0000 0.0000 0.0000 19.4680
#
#
#
# Elastic Compliance Matrix: (Units=1/GPa)
#
#
# Indices 1 2 3 4 5 6 
#
# 1 0.016540 -0.001623 -0.008042 0.000000 0.000000 0.000000
# 2 -0.001623 0.017571 -0.008800 0.000000 0.000000 0.000000
# 3 -0.008042 -0.008800 0.020080 0.000000 0.000000 0.000000
# 4 0.000000 0.000000 0.000000 0.023495 0.000000 0.000000
# 5 0.000000 0.000000 0.000000 0.000000 0.029966 0.000000
# 6 0.000000 0.000000 0.000000 0.000000 0.000000 0.051366
#
#
# Mechanical properties :
#
#
# Convention : Reuss Voigt Hill
#
# Bulk Modulus (GPa) = 57.93211 59.02510 58.47860
# Shear Modulus (GPa) = 24.78901 27.86614 26.32758
#
# Velocity S-wave (km/s) = 3.42886 3.63545 3.53366
# Velocity P-wave (km/s) = 6.56905 6.75401 6.66217
#
# Compressibility (1/GPa) = 0.01726158
#
# Stress axis : x y z
#
# Youngs Moduli (GPa) = 60.45998 56.91110 49.79991
#
# Poissons Ratio (x) = 0.09238 0.40049
# Poissons Ratio (y) = 0.09814 0.43823
# Poissons Ratio (z) = 0.48622 0.50080
#
# Static dielectric constant tensor:
#      x y z
#    x 3.732150 0.000000 0.000000 
#    y 0.000000 3.791940 0.000000 
#    z 0.000000 0.000000 3.909740 
# 
# 
# High freq. dielectric constant tensor:
#      x y z
#    x 1.819530 0.000000 0.000000 
#    y 0.000000 1.821240 0.000000 
#    z 0.000000 0.000000 1.837470 
# 
# From -- ./inp_files/21299.got.cif
#   From: 2010.03.12/outbox.cif.g09.slc.cpg/sg20_11_cif.got.tgz:21299.got - 2010.04.14 01:38:04.
