data_PCOD8160113
_publ_section_title
;
Structure prediction by ZEFSAII (Michael W. Deem and Ramdas Pophale) SiO2 
 PCOD8160113
Probable space group: C 2 2 21
;
_chemical_formula_sum "Si O2"
_cell_formula_units_Z 36
_cell_length_a 12.275924
_cell_length_b 20.947314
_cell_length_c 6.746811
_cell_angle_alpha 90.000000
_cell_angle_beta 90.000000
_cell_angle_gamma 90.000000
_cell_volume 1734.926490
_symmetry_space_group_name_H-M "C 2 2 21"
_symmetry_group_IT_number 20
_symmetry_cell_setting 'orthorhombic'
loop_
_space_group_symop_operation_xyz
x,y,z
-x,-y,1/2+z
x,-y,-z
-x,y,1/2-z
1/2+x,1/2+y,z
1/2-x,1/2-y,1/2+z
1/2+x,1/2-y,-z
1/2-x,1/2+y,1/2-z
loop_
_atom_site_type_symbol
_atom_site_label
_atom_site_fract_x
_atom_site_fract_y
_atom_site_fract_z
Si Si1 0.611418 0.783826 0.689224
Si Si2 0.259216 0.000000 0.000000
Si Si3 0.390634 0.551982 0.846819
Si Si4 0.250780 0.832124 0.448974
Si Si5 0.900495 0.386469 0.117076
O O1 0.500000 0.747013 0.750000
O O2 0.689688 0.734308 0.583127
O O3 0.558724 0.834922 0.539087
O O4 0.675932 0.823038 0.857549
O O5 0.186793 0.013722 0.806356
O O6 0.339856 0.060266 0.014663
O O7 0.500000 0.581143 0.750000
O O8 0.331908 0.608375 0.969623
O O9 0.432837 0.500000 0.000000
O O10 0.319471 0.847575 0.256030
O O11 0.000000 0.414704 0.250000
#
# Coordination Sequence:
#
# PCOD8160113 Si02
#       5
#     8   4   8   8   8
#     4  12  23  41  67  95 130 174 211 269 318 385
#     4  10  24  42  66  92 132 168 214 262 322 380
#     4  11  22  43  66  95 129 171 211 267 319 382
#     4  11  24  41  64  95 132 168 218 261 323 383
#     4  11  23  43  64  95 129 170 217 266 320 383
#
# _framework density 20.750160000000001
#
# number of rings (size 3 to 8) (size 9 to 14) (size 15 to 20)
#    0.000    0.889    5.556    2.000    0.000    0.889 
#    8.000    1.111    0.000    0.000    0.000    0.000 
#    0.000    0.000    0.000    0.000    0.000    0.000 
#
# Total GULP energy -223066.548837 kJ/mol
# GULP energy per Si atom -12392.586047 kJ/mol
# Density = 2.070293 g / cm^3
# Si number density = 20.750160 Si / 1000 Ang^3
#
#
#
# Elastic Constant Matrix: (Units=GPa)
#
#
# Indices 1 2 3 4 5 6 
#
# 1 121.7383 39.5504 23.5527 0.0000 0.0000 0.0000
# 2 39.5504 92.9079 40.5790 0.0000 0.0000 0.0000
# 3 23.5527 40.5790 62.2543 0.0000 0.0000 0.0000
# 4 0.0000 0.0000 0.0000 31.2233 0.0000 0.0000
# 5 0.0000 0.0000 0.0000 0.0000 37.7720 0.0000
# 6 0.0000 0.0000 0.0000 0.0000 0.0000 29.2427
#
#
#
# Elastic Compliance Matrix: (Units=1/GPa)
#
#
# Indices 1 2 3 4 5 6 
#
# 1 0.009614 -0.003501 -0.001355 0.000000 0.000000 0.000000
# 2 -0.003501 0.016322 -0.009315 0.000000 0.000000 0.000000
# 3 -0.001355 -0.009315 0.022647 0.000000 0.000000 0.000000
# 4 0.000000 0.000000 0.000000 0.032027 0.000000 0.000000
# 5 0.000000 0.000000 0.000000 0.000000 0.026475 0.000000
# 6 0.000000 0.000000 0.000000 0.000000 0.000000 0.034197
#
#
# Mechanical properties :
#
#
# Convention : Reuss Voigt Hill
#
# Bulk Modulus (GPa) = 49.40255 53.80718 51.60486
# Shear Modulus (GPa) = 28.34948 31.19552 29.77250
#
# Velocity S-wave (km/s) = 3.70026 3.88156 3.79200
# Velocity P-wave (km/s) = 6.48968 6.78793 6.64048
#
# Compressibility (1/GPa) = 0.02024187
#
# Stress axis : x y z
#
# Youngs Moduli (GPa) = 104.01668 61.26777 44.15509
#
# Poissons Ratio (x) = 0.21447 0.05985
# Poissons Ratio (y) = 0.36411 0.41129
# Poissons Ratio (z) = 0.14099 0.57068
#
# Static dielectric constant tensor:
#      x y z
#    x 3.903870 0.000000 0.000000 
#    y 0.000000 3.747940 0.000000 
#    z 0.000000 0.000000 3.692990 
# 
# 
# High freq. dielectric constant tensor:
#      x y z
#    x 1.829640 0.000000 0.000000 
#    y 0.000000 1.809240 0.000000 
#    z 0.000000 0.000000 1.812470 
# 
# From -- ./inp_files/1190.got.cif
#   From: 2010.03.12/outbox.cif.g09.slc.cpg/sg20_1_cif.got.tgz:1190.got - 2010.04.14 01:38:04.
