data_PCOD8160030
_publ_section_title
;
Structure prediction by ZEFSAII (Michael W. Deem and Ramdas Pophale) SiO2 
 PCOD8160030
Probable space group: C 2 2 21
;
_chemical_formula_sum "Si O2"
_cell_formula_units_Z 36
_cell_length_a 11.698620
_cell_length_b 9.701984
_cell_length_c 13.940270
_cell_angle_alpha 90.000000
_cell_angle_beta 90.000000
_cell_angle_gamma 90.000000
_cell_volume 1582.218192
_symmetry_space_group_name_H-M "C 2 2 21"
_symmetry_group_IT_number 20
_symmetry_cell_setting 'orthorhombic'
loop_
_space_group_symop_operation_xyz
x,y,z
-x,-y,1/2+z
x,-y,-z
-x,y,1/2-z
1/2+x,1/2+y,z
1/2-x,1/2-y,1/2+z
1/2+x,1/2-y,-z
1/2-x,1/2+y,1/2-z
loop_
_atom_site_type_symbol
_atom_site_label
_atom_site_fract_x
_atom_site_fract_y
_atom_site_fract_z
Si Si1 0.000000 0.450668 0.750000
Si Si2 0.254826 0.964680 0.278053
Si Si3 0.765671 0.141721 0.052197
Si Si4 0.407349 0.280659 0.117664
Si Si5 0.633566 0.406445 0.091002
O O1 0.106813 0.542320 0.785564
O O2 0.046222 0.362757 0.659104
O O3 0.203756 0.822386 0.320124
O O4 0.217792 0.975914 0.167733
O O5 0.203455 0.094385 0.339028
O O6 0.663683 0.250356 0.060366
O O7 0.870553 0.216960 0.995378
O O8 0.725271 0.000000 0.000000
O O9 0.504930 0.397304 0.131695
O O10 0.641751 0.500000 0.000000
#
# Coordination Sequence:
#
# PCOD8160030 Si02
#       5
#     4   8   8   8   8
#     4  12  22  44  74 100 158 196 242 328 374 458
#     4  11  22  42  70 104 143 194 249 306 383 445
#     4  10  23  44  70 106 146 195 248 311 378 455
#     4  11  22  44  72 101 151 192 247 314 375 452
#     4  12  23  42  71 108 144 198 251 317 381 454
#
# _framework density 22.752866000000001
#
# number of rings (size 3 to 8) (size 9 to 14) (size 15 to 20)
#    0.000    0.889    4.444    3.333    0.000    1.778 
#    8.000    0.000   14.667    0.000    0.000    0.000 
#    0.000    0.000    0.000    0.000    0.000    0.000 
#
# Total GULP energy -223074.728855 kJ/mol
# GULP energy per Si atom -12393.040492 kJ/mol
# Density = 2.270108 g / cm^3
# Si number density = 22.752866 Si / 1000 Ang^3
#
#
#
# Elastic Constant Matrix: (Units=GPa)
#
#
# Indices 1 2 3 4 5 6 
#
# 1 162.1954 41.5069 63.9266 0.0000 0.0000 0.0000
# 2 41.5069 90.2096 50.1608 0.0000 0.0000 0.0000
# 3 63.9266 50.1608 101.4428 0.0000 0.0000 0.0000
# 4 0.0000 0.0000 0.0000 33.7712 0.0000 0.0000
# 5 0.0000 0.0000 0.0000 0.0000 37.6820 0.0000
# 6 0.0000 0.0000 0.0000 0.0000 0.0000 38.2749
#
#
#
# Elastic Compliance Matrix: (Units=1/GPa)
#
#
# Indices 1 2 3 4 5 6 
#
# 1 0.008305 -0.001257 -0.004612 0.000000 0.000000 0.000000
# 2 -0.001257 0.015479 -0.006862 0.000000 0.000000 0.000000
# 3 -0.004612 -0.006862 0.016157 0.000000 0.000000 0.000000
# 4 0.000000 0.000000 0.000000 0.029611 0.000000 0.000000
# 5 0.000000 0.000000 0.000000 0.000000 0.026538 0.000000
# 6 0.000000 0.000000 0.000000 0.000000 0.000000 0.026127
#
#
# Mechanical properties :
#
#
# Convention : Reuss Voigt Hill
#
# Bulk Modulus (GPa) = 69.06286 73.89293 71.47790
# Shear Modulus (GPa) = 32.78578 35.16252 33.97415
#
# Velocity S-wave (km/s) = 3.80011 3.93544 3.86836
# Velocity P-wave (km/s) = 7.04796 7.29363 7.17185
#
# Compressibility (1/GPa) = 0.01447956
#
# Stress axis : x y z
#
# Youngs Moduli (GPa) = 120.41306 64.60300 61.89149
#
# Poissons Ratio (x) = 0.08118 0.28545
# Poissons Ratio (y) = 0.15131 0.42471
# Poissons Ratio (z) = 0.55535 0.44331
#
# Static dielectric constant tensor:
#      x y z
#    x 4.439520 0.000000 0.000000 
#    y 0.000000 3.964700 0.000000 
#    z 0.000000 0.000000 4.531070 
# 
# 
# High freq. dielectric constant tensor:
#      x y z
#    x 1.895200 0.000000 0.000000 
#    y 0.000000 1.873420 0.000000 
#    z 0.000000 0.000000 1.911220 
# 
# From -- ./inp_files/19619.got.cif
#   From: 2010.03.12/outbox.cif.g09.slc.cpg/sg20_10_cif.got.tgz:19619.got - 2010.04.14 01:38:04.
