data_PCOD8160938
_publ_section_title
;
Structure prediction by ZEFSAII (Michael W. Deem and Ramdas Pophale) SiO2 
 PCOD8160938
Probable space group: C 2 2 2
;
_chemical_formula_sum "Si O2"
_cell_formula_units_Z 64
_cell_length_a 22.383232
_cell_length_b 16.841010
_cell_length_c 9.127825
_cell_angle_alpha 90.000000
_cell_angle_beta 90.000000
_cell_angle_gamma 90.000000
_cell_volume 3440.790536
_symmetry_space_group_name_H-M "C 2 2 2"
_symmetry_group_IT_number 21
_symmetry_cell_setting 'orthorhombic'
loop_
_space_group_symop_operation_xyz
x,y,z
-x,-y,z
x,-y,-z
-x,y,-z
1/2+x,1/2+y,z
1/2-x,1/2-y,z
1/2+x,1/2-y,-z
1/2-x,1/2+y,-z
loop_
_atom_site_type_symbol
_atom_site_label
_atom_site_fract_x
_atom_site_fract_y
_atom_site_fract_z
Si Si1 0.140843 0.649688 0.673178
Si Si2 0.743842 0.656355 0.160309
Si Si3 0.933718 0.500000 0.673869
Si Si4 0.385269 0.312825 0.826876
Si Si5 0.500000 0.410441 0.174056
Si Si6 0.359157 0.850312 0.326822
Si Si7 0.743842 0.656355 0.839691
Si Si8 0.385269 0.687175 0.826875
O O1 0.208083 0.625947 0.722450
O O2 0.099242 0.578704 0.729207
O O3 0.140839 0.660627 0.500000
O O4 0.114832 0.728934 0.745072
O O5 0.750000 0.750000 0.146527
O O6 0.675590 0.638081 0.210181
O O7 0.756321 0.617964 0.000000
O O8 0.935336 0.500000 0.500000
O O9 0.900758 0.578704 0.729207
O O10 0.000000 0.500000 0.740818
O O11 0.441133 0.364385 0.769836
O O12 0.385168 0.228934 0.745072
O O13 0.324410 0.361919 0.789818
O O14 0.389039 0.295866 0.000000
O O15 0.500000 0.500000 0.238017
O O16 0.441133 0.364385 0.230164
O O17 0.500000 0.413760 0.000000
O O18 0.291917 0.874053 0.277550
O O19 0.750000 0.750000 0.853476
#
# Coordination Sequence:
#
# PCOD8160938 Si02
#       8
#     8   8   8   8   8   8   8   8
#     4  10  19  32  54  77  99 134 175 209 247 298
#     4   8  15  30  50  74 104 131 160 205 255 297
#     4   9  20  36  49  69 105 140 171 208 248 299
#     4   9  18  33  54  78 104 133 165 208 255 300
#     4   9  18  34  55  78 103 132 170 207 247 305
#     4  10  19  32  54  77  99 134 175 209 247 298
#     4   8  15  30  50  74 104 131 160 205 255 297
#     4   9  18  33  54  78 104 133 165 208 255 300
#
# _framework density 18.600376000000001
#
# number of rings (size 3 to 8) (size 9 to 14) (size 15 to 20)
#    0.000    3.000    0.000    2.250    1.750    4.500 
#    2.250    2.500    0.000    4.500    0.000    0.000 
#    0.000    0.000    0.000    0.000    0.000    0.000 
#
# Total GULP energy -396617.203468 kJ/mol
# GULP energy per Si atom -12394.287608 kJ/mol
# Density = 1.855804 g / cm^3
# Si number density = 18.600376 Si / 1000 Ang^3
#
#
#
# Elastic Constant Matrix: (Units=GPa)
#
#
# Indices 1 2 3 4 5 6 
#
# 1 194.9804 84.4999 43.9787 0.0000 0.0000 0.0000
# 2 84.4999 108.0026 41.5826 0.0000 0.0000 0.0000
# 3 43.9787 41.5826 54.4293 0.0000 0.0000 0.0000
# 4 0.0000 0.0000 0.0000 7.5305 0.0000 0.0000
# 5 0.0000 0.0000 0.0000 0.0000 23.8010 0.0000
# 6 0.0000 0.0000 0.0000 0.0000 0.0000 27.1041
#
#
#
# Elastic Compliance Matrix: (Units=1/GPa)
#
#
# Indices 1 2 3 4 5 6 
#
# 1 0.007971 -0.005322 -0.002374 0.000000 0.000000 0.000000
# 2 -0.005322 0.016671 -0.008436 0.000000 0.000000 0.000000
# 3 -0.002374 -0.008436 0.026736 0.000000 0.000000 0.000000
# 4 0.000000 0.000000 0.000000 0.132793 0.000000 0.000000
# 5 0.000000 0.000000 0.000000 0.000000 0.042015 0.000000
# 6 0.000000 0.000000 0.000000 0.000000 0.000000 0.036895
#
#
# Mechanical properties :
#
#
# Convention : Reuss Voigt Hill
#
# Bulk Modulus (GPa) = 52.32140 77.50383 64.91261
# Shear Modulus (GPa) = 16.57188 24.17721 20.37454
#
# Velocity S-wave (km/s) = 2.98811 3.60922 3.31325
# Velocity P-wave (km/s) = 6.33209 7.68940 7.04352
#
# Compressibility (1/GPa) = 0.01911264
#
# Stress axis : x y z
#
# Youngs Moduli (GPa) = 125.45935 59.98489 37.40297
#
# Poissons Ratio (x) = 0.31924 0.08881
# Poissons Ratio (y) = 0.66769 0.31553
# Poissons Ratio (z) = 0.29790 0.50603
#
# Static dielectric constant tensor:
#      x y z
#    x 4.083540 0.000000 0.000000 
#    y 0.000000 3.234780 0.000000 
#    z 0.000000 0.000000 3.151120 
# 
# 
# High freq. dielectric constant tensor:
#      x y z
#    x 1.740280 0.000000 0.000000 
#    y 0.000000 1.699560 0.000000 
#    z 0.000000 0.000000 1.692410 
# 
# From -- ./inp_files/18650.got.cif
#   From: 2010.03.12/outbox.cif.g09.slc.cpg/sg21_10_cif.got.tgz:18650.got - 2010.04.14 01:59:26.
