data_PCOD8160373
_publ_section_title
;
Structure prediction by ZEFSAII (Michael W. Deem and Ramdas Pophale) SiO2 
 PCOD8160373
Probable space group: C 2 2 21
;
_chemical_formula_sum "Si O2"
_cell_formula_units_Z 48
_cell_length_a 5.017765
_cell_length_b 28.433104
_cell_length_c 15.613109
_cell_angle_alpha 90.000000
_cell_angle_beta 90.000000
_cell_angle_gamma 90.000000
_cell_volume 2227.532161
_symmetry_space_group_name_H-M "C 2 2 21"
_symmetry_group_IT_number 20
_symmetry_cell_setting 'orthorhombic'
loop_
_space_group_symop_operation_xyz
x,y,z
-x,-y,1/2+z
x,-y,-z
-x,y,1/2-z
1/2+x,1/2+y,z
1/2-x,1/2-y,1/2+z
1/2+x,1/2-y,-z
1/2-x,1/2+y,1/2-z
loop_
_atom_site_type_symbol
_atom_site_label
_atom_site_fract_x
_atom_site_fract_y
_atom_site_fract_z
Si Si1 0.400203 0.624932 0.433867
Si Si2 0.398085 0.910197 0.657759
Si Si3 0.127696 0.487432 0.096072
Si Si4 0.259353 0.331473 0.306395
Si Si5 0.107408 0.073877 0.892970
Si Si6 0.199880 0.779932 0.015569
O O1 0.607150 0.612070 0.358766
O O2 0.487251 0.597582 0.518831
O O3 0.404217 0.680598 0.449899
O O4 0.100937 0.609248 0.412793
O O5 0.500000 0.893663 0.750000
O O6 0.386750 0.966428 0.654290
O O7 0.347314 0.453858 0.140564
O O8 0.843127 0.462801 0.093018
O O9 0.221558 0.500000 0.000000
O O10 0.500000 0.311157 0.250000
O O11 0.306851 0.386390 0.326008
O O12 0.228387 0.301596 0.392486
O O13 0.000000 0.325407 0.250000
O O14 0.467964 0.758405 0.975683
#
# Coordination Sequence:
#
# PCOD8160373 Si02
#       6
#     8   8   8   8   8   8
#     4  11  22  43  64  87 124 166 211 260 318 390
#     4  12  25  39  59  90 131 173 215 266 312 362
#     4  12  21  37  63  90 127 171 228 270 306 371
#     4  11  24  43  67  99 138 165 207 279 342 382
#     4  11  22  38  65  91 121 176 217 259 322 389
#     4  11  24  45  73 100 124 167 218 261 324 414
#
# _framework density 21.548511000000001
#
# number of rings (size 3 to 8) (size 9 to 14) (size 15 to 20)
#    0.000    0.667    3.333    5.000    0.000    7.333 
#    0.000    8.333    0.000    0.000    0.000    0.000 
#    0.000    0.000    0.000    0.000    0.000    0.000 
#
# Total GULP energy -297791.754910 kJ/mol
# GULP energy per Si atom -12407.989788 kJ/mol
# Density = 2.149947 g / cm^3
# Si number density = 21.548511 Si / 1000 Ang^3
#
#
#
# Elastic Constant Matrix: (Units=GPa)
#
#
# Indices 1 2 3 4 5 6 
#
# 1 135.6521 40.3865 31.3283 0.0000 0.0000 0.0000
# 2 40.3865 109.2236 43.2793 0.0000 0.0000 0.0000
# 3 31.3283 43.2793 77.3951 0.0000 0.0000 0.0000
# 4 0.0000 0.0000 0.0000 20.4802 0.0000 0.0000
# 5 0.0000 0.0000 0.0000 0.0000 36.5898 0.0000
# 6 0.0000 0.0000 0.0000 0.0000 0.0000 45.3490
#
#
#
# Elastic Compliance Matrix: (Units=1/GPa)
#
#
# Indices 1 2 3 4 5 6 
#
# 1 0.008560 -0.002302 -0.002178 0.000000 0.000000 0.000000
# 2 -0.002302 0.012381 -0.005991 0.000000 0.000000 0.000000
# 3 -0.002178 -0.005991 0.017153 0.000000 0.000000 0.000000
# 4 0.000000 0.000000 0.000000 0.048828 0.000000 0.000000
# 5 0.000000 0.000000 0.000000 0.000000 0.027330 0.000000
# 6 0.000000 0.000000 0.000000 0.000000 0.000000 0.022051
#
#
# Mechanical properties :
#
#
# Convention : Reuss Voigt Hill
#
# Bulk Modulus (GPa) = 58.30581 61.36211 59.83396
# Shear Modulus (GPa) = 30.68197 34.30225 32.49211
#
# Velocity S-wave (km/s) = 3.77750 3.99414 3.88733
# Velocity P-wave (km/s) = 6.79284 7.05755 6.92646
#
# Compressibility (1/GPa) = 0.01715095
#
# Stress axis : x y z
#
# Youngs Moduli (GPa) = 116.82030 80.76941 58.30038
#
# Poissons Ratio (x) = 0.18596 0.12695
# Poissons Ratio (y) = 0.26896 0.34930
# Poissons Ratio (z) = 0.25438 0.48392
#
# Static dielectric constant tensor:
#      x y z
#    x 3.871600 0.000000 0.000000 
#    y 0.000000 3.936330 0.000000 
#    z 0.000000 0.000000 3.718990 
# 
# 
# High freq. dielectric constant tensor:
#      x y z
#    x 1.862820 0.000000 0.000000 
#    y 0.000000 1.847040 0.000000 
#    z 0.000000 0.000000 1.838580 
# 
# From -- ./inp_files/17793.got.cif
#   From: 2010.03.12/outbox.cif.g09.slc.cpg/sg20_9_cif.got.tgz:17793.got - 2010.04.14 01:38:04.
