data_PCOD8160509
_publ_section_title
;
Structure prediction by ZEFSAII (Michael W. Deem and Ramdas Pophale) SiO2 
 PCOD8160509
Probable space group: C 2 2 21
;
_chemical_formula_sum "Si O2"
_cell_formula_units_Z 40
_cell_length_a 15.008284
_cell_length_b 12.663793
_cell_length_c 9.525898
_cell_angle_alpha 90.000000
_cell_angle_beta 90.000000
_cell_angle_gamma 90.000000
_cell_volume 1810.509338
_symmetry_space_group_name_H-M "C 2 2 21"
_symmetry_group_IT_number 20
_symmetry_cell_setting 'orthorhombic'
loop_
_space_group_symop_operation_xyz
x,y,z
-x,-y,1/2+z
x,-y,-z
-x,y,1/2-z
1/2+x,1/2+y,z
1/2-x,1/2-y,1/2+z
1/2+x,1/2-y,-z
1/2-x,1/2+y,1/2-z
loop_
_atom_site_type_symbol
_atom_site_label
_atom_site_fract_x
_atom_site_fract_y
_atom_site_fract_z
Si Si1 0.921261 0.000000 0.500000
Si Si2 0.231895 0.569431 0.125093
Si Si3 0.403116 0.189673 0.187724
Si Si4 0.500000 0.630798 0.250000
Si Si5 0.649954 0.238650 0.609342
Si Si6 0.308147 0.389792 0.290054
O O1 0.982820 0.055910 0.383749
O O2 0.856920 0.089899 0.562488
O O3 0.158248 0.602778 0.237970
O O4 0.279834 0.671602 0.057190
O O5 0.306602 0.499165 0.203537
O O6 0.188200 0.500000 0.000000
O O7 0.500000 0.172586 0.250000
O O8 0.370056 0.307782 0.210470
O O9 0.400346 0.179250 0.018607
O O10 0.418064 0.708814 0.218037
O O11 0.707076 0.150360 0.690808
#
# Coordination Sequence:
#
# PCOD8160509 Si02
#       6
#     4   8   8   4   8   8
#     4  12  26  42  70 106 138 188 234 292 356 412
#     4  11  23  45  72 101 139 187 232 287 347 424
#     4  11  25  44  69 103 137 182 231 291 343 410
#     4  12  28  42  70 110 144 178 238 306 350 406
#     4  11  25  44  70 104 139 181 235 287 348 415
#     4  11  24  43  72  94 139 185 231 279 347 423
#
# _framework density 22.093229000000001
#
# number of rings (size 3 to 8) (size 9 to 14) (size 15 to 20)
#    0.000    0.800    4.000    2.400    8.400    1.600 
#    5.400    0.000    0.000    0.000    0.000    0.000 
#    0.000    0.000    0.000    0.000    0.000    0.000 
#
# Total GULP energy -248058.682405 kJ/mol
# GULP energy per Si atom -12402.934120 kJ/mol
# Density = 2.204294 g / cm^3
# Si number density = 22.093229 Si / 1000 Ang^3
#
#
#
# Elastic Constant Matrix: (Units=GPa)
#
#
# Indices 1 2 3 4 5 6 
#
# 1 72.2253 7.9665 10.2775 0.0000 0.0000 0.0000
# 2 7.9665 66.6321 16.1610 0.0000 0.0000 0.0000
# 3 10.2775 16.1610 98.3672 0.0000 0.0000 0.0000
# 4 0.0000 0.0000 0.0000 37.5298 0.0000 0.0000
# 5 0.0000 0.0000 0.0000 0.0000 33.2173 0.0000
# 6 0.0000 0.0000 0.0000 0.0000 0.0000 19.3705
#
#
#
# Elastic Compliance Matrix: (Units=1/GPa)
#
#
# Indices 1 2 3 4 5 6 
#
# 1 0.014177 -0.001391 -0.001253 0.000000 0.000000 0.000000
# 2 -0.001391 0.015767 -0.002445 0.000000 0.000000 0.000000
# 3 -0.001253 -0.002445 0.010699 0.000000 0.000000 0.000000
# 4 0.000000 0.000000 0.000000 0.026645 0.000000 0.000000
# 5 0.000000 0.000000 0.000000 0.000000 0.030105 0.000000
# 6 0.000000 0.000000 0.000000 0.000000 0.000000 0.051625
#
#
# Mechanical properties :
#
#
# Convention : Reuss Voigt Hill
#
# Bulk Modulus (GPa) = 32.82447 34.00384 33.41415
# Shear Modulus (GPa) = 29.52447 31.54483 30.53465
#
# Velocity S-wave (km/s) = 3.65959 3.78273 3.72167
# Velocity P-wave (km/s) = 5.72244 5.87394 5.79869
#
# Compressibility (1/GPa) = 0.03046508
#
# Stress axis : x y z
#
# Youngs Moduli (GPa) = 70.53543 63.42302 93.47035
#
# Poissons Ratio (x) = 0.08823 0.11709
# Poissons Ratio (y) = 0.09813 0.22854
# Poissons Ratio (z) = 0.08836 0.15507
#
# Static dielectric constant tensor:
#      x y z
#    x 3.871040 0.000000 0.000000 
#    y 0.000000 3.981010 0.000000 
#    z 0.000000 0.000000 4.049750 
# 
# 
# High freq. dielectric constant tensor:
#      x y z
#    x 1.861940 0.000000 0.000000 
#    y 0.000000 1.871590 0.000000 
#    z 0.000000 0.000000 1.876290 
# 
# From -- ./inp_files/8135.got.cif
#   From: 2010.03.12/outbox.cif.g09.slc.cpg/sg20_5_cif.got.tgz:8135.got - 2010.04.14 01:38:04.
