data_PCOD8160800
_publ_section_title
;
Structure prediction by ZEFSAII (Michael W. Deem and Ramdas Pophale) SiO2 
 PCOD8160800
Probable space group: C 2 2 2
;
_chemical_formula_sum "Si O2"
_cell_formula_units_Z 44
_cell_length_a 14.083380
_cell_length_b 11.255803
_cell_length_c 13.394675
_cell_angle_alpha 90.000000
_cell_angle_beta 90.000000
_cell_angle_gamma 90.000000
_cell_volume 2123.320544
_symmetry_space_group_name_H-M "C 2 2 2"
_symmetry_group_IT_number 21
_symmetry_cell_setting 'orthorhombic'
loop_
_space_group_symop_operation_xyz
x,y,z
-x,-y,z
x,-y,-z
-x,y,-z
1/2+x,1/2+y,z
1/2-x,1/2-y,z
1/2+x,1/2-y,-z
1/2-x,1/2+y,-z
loop_
_atom_site_type_symbol
_atom_site_label
_atom_site_fract_x
_atom_site_fract_y
_atom_site_fract_z
Si Si1 0.680649 0.656579 0.403928
Si Si2 0.730833 0.997908 0.253797
Si Si3 0.000000 0.215463 0.500000
Si Si4 0.888286 0.720344 0.204265
Si Si5 0.550559 0.877089 0.685613
Si Si6 0.606820 0.536455 0.111520
O O1 0.750000 0.750000 0.461377
O O2 0.735591 0.539065 0.366655
O O3 0.586906 0.629336 0.468440
O O4 0.646720 0.721531 0.305047
O O5 0.679407 0.893880 0.188299
O O6 0.822378 0.033427 0.187438
O O7 0.658834 0.105562 0.276404
O O8 0.957571 0.295274 0.411374
O O9 0.882331 0.819633 0.117791
O O10 0.996951 0.679421 0.218955
O O11 0.500000 0.000000 0.655904
O O12 0.500000 0.500000 0.141172
O O13 0.632914 0.500000 0.000000
#
# Coordination Sequence:
#
# PCOD8160800 Si02
#       6
#     8   8   4   8   8   8
#     4   8  15  28  48  70 100 144 182 215 262 314
#     4   9  17  35  58  77 104 144 184 224 276 323
#     4  10  17  28  48  78 111 144 187 224 260 314
#     4   8  16  34  56  75 101 137 175 219 272 326
#     4   9  17  30  55  83 106 140 185 233 271 313
#     4  10  20  35  54  77 104 140 179 217 274 345
#
# _framework density 20.722259999999999
#
# number of rings (size 3 to 8) (size 9 to 14) (size 15 to 20)
#    0.000    3.091    0.000    3.000    0.000    0.000 
#    0.000   13.636    0.000   16.909    0.000    5.727 
#    0.000    0.000    0.000    0.000    0.000    0.000 
#
# Total GULP energy -272547.674935 kJ/mol
# GULP energy per Si atom -12388.530679 kJ/mol
# Density = 2.067510 g / cm^3
# Si number density = 20.722260 Si / 1000 Ang^3
#
#
#
# Elastic Constant Matrix: (Units=GPa)
#
#
# Indices 1 2 3 4 5 6 
#
# 1 162.8197 27.4512 53.7958 0.0000 0.0000 0.0000
# 2 27.4512 49.0826 23.2476 0.0000 0.0000 0.0000
# 3 53.7958 23.2476 72.6204 0.0000 0.0000 0.0000
# 4 0.0000 0.0000 0.0000 27.4102 0.0000 0.0000
# 5 0.0000 0.0000 0.0000 0.0000 29.2855 0.0000
# 6 0.0000 0.0000 0.0000 0.0000 0.0000 34.3460
#
#
#
# Elastic Compliance Matrix: (Units=1/GPa)
#
#
# Indices 1 2 3 4 5 6 
#
# 1 0.008302 -0.002039 -0.005497 0.000000 0.000000 0.000000
# 2 -0.002039 0.024516 -0.006337 0.000000 0.000000 0.000000
# 3 -0.005497 -0.006337 0.019871 0.000000 0.000000 0.000000
# 4 0.000000 0.000000 0.000000 0.036483 0.000000 0.000000
# 5 0.000000 0.000000 0.000000 0.000000 0.034147 0.000000
# 6 0.000000 0.000000 0.000000 0.000000 0.000000 0.029115
#
#
# Mechanical properties :
#
#
# Convention : Reuss Voigt Hill
#
# Bulk Modulus (GPa) = 40.09416 54.83464 47.46440
# Shear Modulus (GPa) = 26.52587 30.21022 28.36805
#
# Velocity S-wave (km/s) = 3.58168 3.82234 3.70397
# Velocity P-wave (km/s) = 6.04111 6.78230 6.42240
#
# Compressibility (1/GPa) = 0.02494129
#
# Stress axis : x y z
#
# Youngs Moduli (GPa) = 120.45565 40.78948 50.32452
#
# Poissons Ratio (x) = 0.08319 0.27663
# Poissons Ratio (y) = 0.24567 0.31893
# Poissons Ratio (z) = 0.66214 0.25850
#
# Static dielectric constant tensor:
#      x y z
#    x 4.655330 0.000000 0.000000 
#    y 0.000000 4.076300 0.000000 
#    z 0.000000 0.000000 3.456040 
# 
# 
# High freq. dielectric constant tensor:
#      x y z
#    x 1.836620 0.000000 0.000000 
#    y 0.000000 1.783840 0.000000 
#    z 0.000000 0.000000 1.766360 
# 
# From -- ./inp_files/25123.got.cif
#   From: 2010.03.12/outbox.cif.g09.slc.cpg/sg21_13_cif.got.tgz:25123.got - 2010.04.14 01:59:26.
