data_PCOD8160578
_publ_section_title
;
Structure prediction by ZEFSAII (Michael W. Deem and Ramdas Pophale) SiO2 
 PCOD8160578
Probable space group: C 2 2 21
;
_chemical_formula_sum "Si O2"
_cell_formula_units_Z 40
_cell_length_a 7.762687
_cell_length_b 14.911090
_cell_length_c 15.114564
_cell_angle_alpha 90.000000
_cell_angle_beta 90.000000
_cell_angle_gamma 90.000000
_cell_volume 1749.512665
_symmetry_space_group_name_H-M "C 2 2 21"
_symmetry_group_IT_number 20
_symmetry_cell_setting 'orthorhombic'
loop_
_space_group_symop_operation_xyz
x,y,z
-x,-y,1/2+z
x,-y,-z
-x,y,1/2-z
1/2+x,1/2+y,z
1/2-x,1/2-y,1/2+z
1/2+x,1/2-y,-z
1/2-x,1/2+y,1/2-z
loop_
_atom_site_type_symbol
_atom_site_label
_atom_site_fract_x
_atom_site_fract_y
_atom_site_fract_z
Si Si1 0.000000 0.724215 0.750000
Si Si2 0.347863 0.684887 0.821701
Si Si3 0.497640 0.492576 0.142140
Si Si4 0.348988 0.325183 0.905290
Si Si5 0.542055 0.815128 0.542596
Si Si6 0.782114 0.500000 0.000000
O O1 0.151551 0.662893 0.791452
O O2 0.114784 0.790379 0.692014
O O3 0.500000 0.693016 0.750000
O O4 0.396508 0.599026 0.881971
O O5 0.339220 0.777001 0.877765
O O6 0.500000 0.504316 0.250000
O O7 0.404853 0.572012 0.089876
O O8 0.682154 0.486334 0.093213
O O9 0.149587 0.320517 0.923466
O O10 0.460191 0.260021 0.967038
O O11 0.603218 0.911145 0.508891
#
# Coordination Sequence:
#
# PCOD8160578 Si02
#       6
#     4   8   8   8   8   4
#     4  12  24  44  74 106 152 194 248 302 378 448
#     4  11  24  47  74 109 150 198 247 313 377 457
#     4  11  25  48  76 110 153 198 250 316 385 459
#     4  12  25  47  75 109 149 201 246 315 378 454
#     4  12  27  47  77 108 152 198 260 310 384 452
#     4  12  28  48  76 112 152 202 262 322 382 462
#
# _framework density 22.863507999999999
#
# number of rings (size 3 to 8) (size 9 to 14) (size 15 to 20)
#    0.000    0.400    3.000    6.000    2.800    4.000 
#    0.000    0.000    2.200    0.000    0.000    0.000 
#    0.000    0.000    0.000    0.000    0.000    0.000 
#
# Total GULP energy -247863.392952 kJ/mol
# GULP energy per Si atom -12393.169648 kJ/mol
# Density = 2.281147 g / cm^3
# Si number density = 22.863508 Si / 1000 Ang^3
#
#
#
# Elastic Constant Matrix: (Units=GPa)
#
#
# Indices 1 2 3 4 5 6 
#
# 1 168.1368 61.6674 59.9703 0.0000 0.0000 0.0000
# 2 61.6674 181.7915 56.9011 0.0000 0.0000 0.0000
# 3 59.9703 56.9011 108.5689 0.0000 0.0000 0.0000
# 4 0.0000 0.0000 0.0000 38.0208 0.0000 0.0000
# 5 0.0000 0.0000 0.0000 0.0000 41.5296 0.0000
# 6 0.0000 0.0000 0.0000 0.0000 0.0000 32.7234
#
#
#
# Elastic Compliance Matrix: (Units=1/GPa)
#
#
# Indices 1 2 3 4 5 6 
#
# 1 0.007752 -0.001542 -0.003474 0.000000 0.000000 0.000000
# 2 -0.001542 0.006887 -0.002758 0.000000 0.000000 0.000000
# 3 -0.003474 -0.002758 0.012575 0.000000 0.000000 0.000000
# 4 0.000000 0.000000 0.000000 0.026301 0.000000 0.000000
# 5 0.000000 0.000000 0.000000 0.000000 0.024079 0.000000
# 6 0.000000 0.000000 0.000000 0.000000 0.000000 0.030559
#
#
# Mechanical properties :
#
#
# Convention : Reuss Voigt Hill
#
# Bulk Modulus (GPa) = 85.71393 90.61941 88.16667
# Shear Modulus (GPa) = 39.18793 41.11866 40.15330
#
# Velocity S-wave (km/s) = 4.14453 4.24540 4.19527
# Velocity P-wave (km/s) = 7.77648 7.98450 7.88118
#
# Compressibility (1/GPa) = 0.01166672
#
# Stress axis : x y z
#
# Youngs Moduli (GPa) = 128.99489 145.19779 79.52437
#
# Poissons Ratio (x) = 0.22396 0.27625
# Poissons Ratio (y) = 0.19897 0.21929
# Poissons Ratio (z) = 0.44809 0.40039
#
# Static dielectric constant tensor:
#      x y z
#    x 4.262600 0.000000 0.000000 
#    y 0.000000 4.727220 0.000000 
#    z 0.000000 0.000000 4.419930 
# 
# 
# High freq. dielectric constant tensor:
#      x y z
#    x 1.908550 0.000000 0.000000 
#    y 0.000000 1.913250 0.000000 
#    z 0.000000 0.000000 1.915040 
# 
# From -- ./inp_files/18577.got.cif
#   From: 2010.03.12/outbox.cif.g09.slc.cpg/sg20_10_cif.got.tgz:18577.got - 2010.04.14 01:38:04.
