data_PCOD8160066
_publ_section_title
;
Structure prediction by ZEFSAII (Michael W. Deem and Ramdas Pophale) SiO2 
 PCOD8160066
Probable space group: C 2 2 21
;
_chemical_formula_sum "Si O2"
_cell_formula_units_Z 40
_cell_length_a 8.142534
_cell_length_b 12.134300
_cell_length_c 17.387793
_cell_angle_alpha 90.000000
_cell_angle_beta 90.000000
_cell_angle_gamma 90.000000
_cell_volume 1717.982636
_symmetry_space_group_name_H-M "C 2 2 21"
_symmetry_group_IT_number 20
_symmetry_cell_setting 'orthorhombic'
loop_
_space_group_symop_operation_xyz
x,y,z
-x,-y,1/2+z
x,-y,-z
-x,y,1/2-z
1/2+x,1/2+y,z
1/2-x,1/2-y,1/2+z
1/2+x,1/2-y,-z
1/2-x,1/2+y,1/2-z
loop_
_atom_site_type_symbol
_atom_site_label
_atom_site_fract_x
_atom_site_fract_y
_atom_site_fract_z
Si Si1 0.323219 0.081307 0.711809
Si Si2 0.773185 0.796016 0.437379
Si Si3 0.203299 0.988130 0.860551
Si Si4 0.463212 0.873897 0.662725
Si Si5 0.094900 0.765275 0.897883
O O1 0.500000 0.093896 0.750000
O O2 0.295580 0.191860 0.661996
O O3 0.192969 0.058488 0.780555
O O4 0.326429 0.971593 0.659146
O O5 0.896373 0.727944 0.384419
O O6 0.797716 0.761218 0.524910
O O7 0.585133 0.783998 0.410512
O O8 0.822701 0.924304 0.428792
O O9 0.372250 0.922075 0.874983
O O10 0.069004 0.889875 0.865269
O O11 0.500000 0.836163 0.750000
#
# Coordination Sequence:
#
# PCOD8160066 Si02
#       5
#     8   8   8   8   8
#     4   9  20  43  72  94 128 188 231 280 350 416
#     4  12  25  46  70 105 147 187 232 295 362 425
#     4  10  23  46  71  96 139 181 235 293 350 421
#     4   9  21  45  72  99 138 183 233 288 348 417
#     4  12  25  45  74 102 145 189 233 293 363 425
#
# _framework density 23.283123
#
# number of rings (size 3 to 8) (size 9 to 14) (size 15 to 20)
#    0.000    2.000    4.000    1.800    5.600    0.800 
#   10.800    1.000    0.000    0.000    0.000    0.000 
#    0.000    0.000    0.000    0.000    0.000    0.000 
#
# Total GULP energy -247883.955133 kJ/mol
# GULP energy per Si atom -12394.197757 kJ/mol
# Density = 2.323013 g / cm^3
# Si number density = 23.283123 Si / 1000 Ang^3
#
#
#
# Elastic Constant Matrix: (Units=GPa)
#
#
# Indices 1 2 3 4 5 6 
#
# 1 37.9413 28.6727 21.3197 0.0000 0.0000 0.0000
# 2 28.6727 167.4034 73.2888 0.0000 0.0000 0.0000
# 3 21.3197 73.2888 112.2551 0.0000 0.0000 0.0000
# 4 0.0000 0.0000 0.0000 43.7701 0.0000 0.0000
# 5 0.0000 0.0000 0.0000 0.0000 28.8351 0.0000
# 6 0.0000 0.0000 0.0000 0.0000 0.0000 22.5803
#
#
#
# Elastic Compliance Matrix: (Units=1/GPa)
#
#
# Indices 1 2 3 4 5 6 
#
# 1 0.031180 -0.003848 -0.003410 0.000000 0.000000 0.000000
# 2 -0.003848 0.008839 -0.005040 0.000000 0.000000 0.000000
# 3 -0.003410 -0.005040 0.012846 0.000000 0.000000 0.000000
# 4 0.000000 0.000000 0.000000 0.022847 0.000000 0.000000
# 5 0.000000 0.000000 0.000000 0.000000 0.034680 0.000000
# 6 0.000000 0.000000 0.000000 0.000000 0.000000 0.044286
#
#
# Mechanical properties :
#
#
# Convention : Reuss Voigt Hill
#
# Bulk Modulus (GPa) = 35.37229 62.68468 49.02848
# Shear Modulus (GPa) = 26.49743 31.99168 29.24455
#
# Velocity S-wave (km/s) = 3.37716 3.71081 3.54791
# Velocity P-wave (km/s) = 5.51654 6.73360 6.15523
#
# Compressibility (1/GPa) = 0.02827072
#
# Stress axis : x y z
#
# Youngs Moduli (GPa) = 32.07157 113.13242 77.84251
#
# Poissons Ratio (x) = 0.43531 0.26542
# Poissons Ratio (y) = 0.12340 0.39234
# Poissons Ratio (z) = 0.10935 0.57020
#
# Static dielectric constant tensor:
#      x y z
#    x 3.832220 0.000000 0.000000 
#    y 0.000000 4.747880 0.000000 
#    z 0.000000 0.000000 4.231090 
# 
# 
# High freq. dielectric constant tensor:
#      x y z
#    x 1.889790 0.000000 0.000000 
#    y 0.000000 1.939760 0.000000 
#    z 0.000000 0.000000 1.916650 
# 
# From -- ./inp_files/23167.got.cif
#   From: 2010.03.12/outbox.cif.g09.slc.cpg/sg20_12_cif.got.tgz:23167.got - 2010.04.14 01:38:04.
