data_PCOD8160774
_publ_section_title
;
Structure prediction by ZEFSAII (Michael W. Deem and Ramdas Pophale) SiO2 
 PCOD8160774
Probable space group: C 2 2 2
;
_chemical_formula_sum "Si O2"
_cell_formula_units_Z 48
_cell_length_a 19.955939
_cell_length_b 34.231084
_cell_length_c 5.197282
_cell_angle_alpha 90.000000
_cell_angle_beta 90.000000
_cell_angle_gamma 90.000000
_cell_volume 3550.333104
_symmetry_space_group_name_H-M "C 2 2 2"
_symmetry_group_IT_number 21
_symmetry_cell_setting 'orthorhombic'
loop_
_space_group_symop_operation_xyz
x,y,z
-x,-y,z
x,-y,-z
-x,y,-z
1/2+x,1/2+y,z
1/2-x,1/2-y,z
1/2+x,1/2-y,-z
1/2-x,1/2+y,-z
loop_
_atom_site_type_symbol
_atom_site_label
_atom_site_fract_x
_atom_site_fract_y
_atom_site_fract_z
Si Si1 0.649298 0.774792 0.577795
Si Si2 0.577276 0.756299 0.071379
Si Si3 0.641098 0.328578 0.914638
Si Si4 0.786635 0.810124 0.577849
Si Si5 0.542604 0.603060 0.244910
Si Si6 0.924368 0.983006 0.253841
O O1 0.596775 0.777460 0.340126
O O2 0.705861 0.808466 0.575478
O O3 0.684475 0.733131 0.574988
O O4 0.612327 0.780695 0.846719
O O5 0.600182 0.711556 0.079741
O O6 0.500000 0.757311 0.000000
O O7 0.694340 0.331154 0.685797
O O8 0.588622 0.362310 0.857105
O O9 0.682143 0.334010 0.181025
O O10 0.500000 0.615700 0.500000
O O11 0.582712 0.563394 0.296944
O O12 0.500000 0.590924 0.000000
O O13 0.885370 0.000000 0.500000
O O14 0.000000 0.000000 0.253929
O O15 0.887846 0.000000 0.000000
#
# Coordination Sequence:
#
# PCOD8160774 Si02
#       6
#     8   8   8   8   8   8
#     4   9  17  28  45  53  67 101 122 153 183 228
#     4  10  18  28  39  58  79  93 118 152 201 242
#     4  10  20  28  39  56  77  98 117 161 199 239
#     4   9  17  31  41  54  70  92 134 150 181 233
#     4  12  20  28  41  56  76  99 125 154 210 247
#     4  10  16  29  41  53  68  95 129 161 178 231
#
# _framework density 13.519857999999999
#
# number of rings (size 3 to 8) (size 9 to 14) (size 15 to 20)
#    0.000    2.000    3.333    3.000    0.000    6.667 
#    0.000    0.000    0.000    0.000    0.000    0.000 
#    0.000    0.000    0.000    0.000    0.000    0.000 
#
# Total GULP energy -297350.238752 kJ/mol
# GULP energy per Si atom -12389.593281 kJ/mol
# Density = 1.348909 g / cm^3
# Si number density = 13.519858 Si / 1000 Ang^3
#
#
#
# Elastic Constant Matrix: (Units=GPa)
#
#
# Indices 1 2 3 4 5 6 
#
# 1 59.1029 23.0426 35.5038 0.0000 0.0000 0.0000
# 2 23.0426 31.5495 25.0298 0.0000 0.0000 0.0000
# 3 35.5038 25.0298 128.5620 0.0000 0.0000 0.0000
# 4 0.0000 0.0000 0.0000 18.3100 0.0000 0.0000
# 5 0.0000 0.0000 0.0000 0.0000 20.5328 0.0000
# 6 0.0000 0.0000 0.0000 0.0000 0.0000 -14.7615
#
#
#
# Elastic Compliance Matrix: (Units=1/GPa)
#
#
# Indices 1 2 3 4 5 6 
#
# 1 0.025288 -0.015291 -0.004007 0.000000 0.000000 0.000000
# 2 -0.015291 0.046732 -0.004876 0.000000 0.000000 0.000000
# 3 -0.004007 -0.004876 0.009834 0.000000 0.000000 0.000000
# 4 0.000000 0.000000 0.000000 0.054615 0.000000 0.000000
# 5 0.000000 0.000000 0.000000 0.000000 0.048703 0.000000
# 6 0.000000 0.000000 0.000000 0.000000 0.000000 -0.067744
#
#
# Mechanical properties :
#
#
# Convention : Reuss Voigt Hill
#
# Bulk Modulus (GPa) = 29.84342 42.92964 36.38653
# Shear Modulus (GPa) = 28.25766 13.85880 21.05823
#
# Velocity S-wave (km/s) = 4.57670 3.20514 3.95090
# Velocity P-wave (km/s) = 7.07460 6.74679 6.91264
#
# Compressibility (1/GPa) = 0.03350822
#
# Stress axis : x y z
#
# Youngs Moduli (GPa) = 39.54465 21.39855 101.68774
#
# Poissons Ratio (x) = 0.32720 0.40742
# Poissons Ratio (y) = 0.60467 0.49579
# Poissons Ratio (z) = 0.15844 0.10433
#
# Static dielectric constant tensor:
#      x y z
#    x 2.504760 0.000000 0.000000 
#    y 0.000000 2.452330 0.000000 
#    z 0.000000 0.000000 3.887660 
# 
# 
# High freq. dielectric constant tensor:
#      x y z
#    x 1.477510 0.000000 0.000000 
#    y 0.000000 1.471090 0.000000 
#    z 0.000000 0.000000 1.549260 
# 
# From -- ./inp_files/5351.got.cif
#   From: 2010.03.12/outbox.cif.g09.slc.cpg/sg21_3_cif.got.tgz:5351.got - 2010.04.14 01:59:26.
