data_PCOD8160944
_publ_section_title
;
Structure prediction by ZEFSAII (Michael W. Deem and Ramdas Pophale) SiO2 
 PCOD8160944
Probable space group: C 2 2 2
;
_chemical_formula_sum "Si O2"
_cell_formula_units_Z 32
_cell_length_a 4.997436
_cell_length_b 21.901816
_cell_length_c 15.975428
_cell_angle_alpha 90.000000
_cell_angle_beta 90.000000
_cell_angle_gamma 90.000000
_cell_volume 1748.557303
_symmetry_space_group_name_H-M "C 2 2 2"
_symmetry_group_IT_number 21
_symmetry_cell_setting 'orthorhombic'
loop_
_space_group_symop_operation_xyz
x,y,z
-x,-y,z
x,-y,-z
-x,y,-z
1/2+x,1/2+y,z
1/2-x,1/2-y,z
1/2+x,1/2-y,-z
1/2-x,1/2+y,-z
loop_
_atom_site_type_symbol
_atom_site_label
_atom_site_fract_x
_atom_site_fract_y
_atom_site_fract_z
Si Si1 0.500635 0.706101 0.180897
Si Si2 0.750000 0.250000 0.551319
Si Si3 0.500000 0.292512 0.000000
Si Si4 0.558936 0.070555 0.404578
Si Si5 0.926636 0.137108 0.656888
O O1 0.250000 0.750000 0.190843
O O2 0.488915 0.652012 0.248291
O O3 0.750000 0.750000 0.196489
O O4 0.516307 0.671787 0.089101
O O5 0.500000 0.220278 0.500000
O O6 0.904941 0.199515 0.605171
O O7 0.750000 0.250000 0.009242
O O8 0.500000 0.088510 0.500000
O O9 0.363404 0.106314 0.342178
O O10 0.862300 0.090090 0.384073
O O11 0.500000 0.000000 0.388947
#
# Coordination Sequence:
#
# PCOD8160944 Si02
#       5
#     8   4   4   8   8
#     4  10  19  33  51  80 112 139 169 207 259 329
#     4  12  24  34  50  80 118 144 170 210 282 346
#     4   8  16  30  50  72 107 144 167 198 250 316
#     4  11  24  41  56  73 100 144 196 233 258 297
#     4  12  22  36  56  80 108 141 175 224 271 318
#
# _framework density 18.300802000000001
#
# number of rings (size 3 to 8) (size 9 to 14) (size 15 to 20)
#    0.000    1.250    1.250    6.750    1.750    2.000 
#    0.000    0.000    0.000    0.000    0.000    5.250 
#    0.000    0.000    0.000    0.000    0.000    0.000 
#
# Total GULP energy -198290.390904 kJ/mol
# GULP energy per Si atom -12393.149432 kJ/mol
# Density = 1.825915 g / cm^3
# Si number density = 18.300802 Si / 1000 Ang^3
#
#
#
# Elastic Constant Matrix: (Units=GPa)
#
#
# Indices 1 2 3 4 5 6 
#
# 1 102.3883 20.2760 12.3966 0.0000 0.0000 0.0000
# 2 20.2760 75.0229 36.4317 0.0000 0.0000 0.0000
# 3 12.3966 36.4317 132.2929 0.0000 0.0000 0.0000
# 4 0.0000 0.0000 0.0000 15.8473 0.0000 0.0000
# 5 0.0000 0.0000 0.0000 0.0000 25.0548 0.0000
# 6 0.0000 0.0000 0.0000 0.0000 0.0000 34.5408
#
#
#
# Elastic Compliance Matrix: (Units=1/GPa)
#
#
# Indices 1 2 3 4 5 6 
#
# 1 0.010325 -0.002679 -0.000230 0.000000 0.000000 0.000000
# 2 -0.002679 0.016082 -0.004178 0.000000 0.000000 0.000000
# 3 -0.000230 -0.004178 0.008731 0.000000 0.000000 0.000000
# 4 0.000000 0.000000 0.000000 0.063102 0.000000 0.000000
# 5 0.000000 0.000000 0.000000 0.000000 0.039912 0.000000
# 6 0.000000 0.000000 0.000000 0.000000 0.000000 0.028951
#
#
# Mechanical properties :
#
#
# Convention : Reuss Voigt Hill
#
# Bulk Modulus (GPa) = 47.69804 49.76807 48.73306
# Shear Modulus (GPa) = 26.55824 31.12857 28.84341
#
# Velocity S-wave (km/s) = 3.81360 4.12872 3.97429
# Velocity P-wave (km/s) = 6.74621 7.06979 6.90990
#
# Compressibility (1/GPa) = 0.02096522
#
# Stress axis : x y z
#
# Youngs Moduli (GPa) = 96.85162 62.18127 114.53432
#
# Poissons Ratio (x) = 0.16658 0.02632
# Poissons Ratio (y) = 0.25946 0.47849
# Poissons Ratio (z) = 0.02225 0.25978
#
# Static dielectric constant tensor:
#      x y z
#    x 3.581200 0.000000 0.000000 
#    y 0.000000 3.057530 0.000000 
#    z 0.000000 0.000000 3.879340 
# 
# 
# High freq. dielectric constant tensor:
#      x y z
#    x 1.739780 0.000000 0.000000 
#    y 0.000000 1.666100 0.000000 
#    z 0.000000 0.000000 1.711850 
# 
# From -- ./inp_files/28862.got.cif
#   From: 2010.03.12/outbox.cif.g09.slc.cpg/sg21_15_cif.got.tgz:28862.got - 2010.04.14 01:59:26.
