data_PCOD8160462
_publ_section_title
;
Structure prediction by ZEFSAII (Michael W. Deem and Ramdas Pophale) SiO2 
 PCOD8160462
Probable space group: C 2 2 21
;
_chemical_formula_sum "Si O2"
_cell_formula_units_Z 64
_cell_length_a 16.504715
_cell_length_b 15.576985
_cell_length_c 11.911636
_cell_angle_alpha 90.000000
_cell_angle_beta 90.000000
_cell_angle_gamma 90.000000
_cell_volume 3062.406548
_symmetry_space_group_name_H-M "C 2 2 21"
_symmetry_group_IT_number 20
_symmetry_cell_setting 'orthorhombic'
loop_
_space_group_symop_operation_xyz
x,y,z
-x,-y,1/2+z
x,-y,-z
-x,y,1/2-z
1/2+x,1/2+y,z
1/2-x,1/2-y,1/2+z
1/2+x,1/2-y,-z
1/2-x,1/2+y,1/2-z
loop_
_atom_site_type_symbol
_atom_site_label
_atom_site_fract_x
_atom_site_fract_y
_atom_site_fract_z
Si Si1 0.305375 0.466399 0.111866
Si Si2 0.923974 0.656131 0.186665
Si Si3 0.328026 0.872024 0.155607
Si Si4 0.516461 0.096769 0.537818
Si Si5 0.161212 0.349153 0.094550
Si Si6 0.409170 0.652143 0.732708
Si Si7 0.242017 0.555767 0.317747
Si Si8 0.808883 0.168950 0.512524
O O1 0.225326 0.421327 0.058121
O O2 0.356489 0.394997 0.174765
O O3 0.286367 0.545234 0.197233
O O4 0.351968 0.500000 0.000000
O O5 0.906709 0.747685 0.240781
O O6 0.842267 0.603674 0.202175
O O7 0.000000 0.610511 0.250000
O O8 0.953770 0.662401 0.058508
O O9 0.317907 0.828800 0.276110
O O10 0.280880 0.813988 0.064581
O O11 0.279479 0.961212 0.138986
O O12 0.423346 0.883685 0.139926
O O13 0.426354 0.109814 0.578919
O O14 0.530593 0.000000 0.500000
O O15 0.162252 0.261413 0.027312
O O16 0.500000 0.616176 0.750000
O O17 0.373178 0.635542 0.607075
O O18 0.301117 0.603268 0.406989
#
# Coordination Sequence:
#
# PCOD8160462 Si02
#       8
#     8   8   8   8   8   8   8   8
#     4  11  26  43  66 101 138 175 224 289 345 393
#     4  11  24  39  66 101 134 180 222 272 338 414
#     4  11  23  41  66  98 137 170 226 280 331 402
#     4  12  23  39  66 100 141 180 213 268 342 417
#     4  11  25  39  63 102 137 179 216 280 333 412
#     4  11  25  48  70  96 130 177 234 287 340 409
#     4  11  23  42  70 101 129 182 229 275 332 417
#     4  12  23  45  70  95 132 184 233 274 345 408
#
# _framework density 20.898598
#
# number of rings (size 3 to 8) (size 9 to 14) (size 15 to 20)
#    0.000    0.750    5.000    3.375    7.000    0.000 
#    2.250    0.000    0.000    0.000    0.000    0.000 
#    0.000    0.000    0.000    0.000    0.000    0.000 
#
# Total GULP energy -396659.988674 kJ/mol
# GULP energy per Si atom -12395.624646 kJ/mol
# Density = 2.085103 g / cm^3
# Si number density = 20.898598 Si / 1000 Ang^3
#
#
#
# Elastic Constant Matrix: (Units=GPa)
#
#
# Indices 1 2 3 4 5 6 
#
# 1 121.0970 33.9282 37.6605 0.0000 0.0000 0.0000
# 2 33.9282 44.0535 36.7795 0.0000 0.0000 0.0000
# 3 37.6605 36.7795 116.9319 0.0000 0.0000 0.0000
# 4 0.0000 0.0000 0.0000 36.0846 0.0000 0.0000
# 5 0.0000 0.0000 0.0000 0.0000 36.4916 0.0000
# 6 0.0000 0.0000 0.0000 0.0000 0.0000 29.2971
#
#
#
# Elastic Compliance Matrix: (Units=1/GPa)
#
#
# Indices 1 2 3 4 5 6 
#
# 1 0.010643 -0.007235 -0.001152 0.000000 0.000000 0.000000
# 2 -0.007235 0.035702 -0.008899 0.000000 0.000000 0.000000
# 3 -0.001152 -0.008899 0.011722 0.000000 0.000000 0.000000
# 4 0.000000 0.000000 0.000000 0.027713 0.000000 0.000000
# 5 0.000000 0.000000 0.000000 0.000000 0.027404 0.000000
# 6 0.000000 0.000000 0.000000 0.000000 0.000000 0.034133
#
#
# Mechanical properties :
#
#
# Convention : Reuss Voigt Hill
#
# Bulk Modulus (GPa) = 42.56393 55.42430 48.99412
# Shear Modulus (GPa) = 26.35450 31.95562 29.15506
#
# Velocity S-wave (km/s) = 3.55500 3.91459 3.73912
# Velocity P-wave (km/s) = 6.10424 6.85639 6.49122
#
# Compressibility (1/GPa) = 0.02349407
#
# Stress axis : x y z
#
# Youngs Moduli (GPa) = 93.95636 28.00985 85.30781
#
# Poissons Ratio (x) = 0.20265 0.09829
# Poissons Ratio (y) = 0.67978 0.75918
# Poissons Ratio (z) = 0.10826 0.24927
#
# Static dielectric constant tensor:
#      x y z
#    x 4.041720 0.000000 0.000000 
#    y 0.000000 3.715260 0.000000 
#    z 0.000000 0.000000 4.083450 
# 
# 
# High freq. dielectric constant tensor:
#      x y z
#    x 1.820130 0.000000 0.000000 
#    y 0.000000 1.802240 0.000000 
#    z 0.000000 0.000000 1.834070 
# 
# From -- ./inp_files/15321.got.cif
#   From: 2010.03.12/outbox.cif.g09.slc.cpg/sg20_8_cif.got.tgz:15321.got - 2010.04.14 01:38:04.
