data_PCOD8160610
_publ_section_title
;
Structure prediction by ZEFSAII (Michael W. Deem and Ramdas Pophale) SiO2 
 PCOD8160610
Probable space group: C 2 2 21
;
_chemical_formula_sum "Si O2"
_cell_formula_units_Z 56
_cell_length_a 11.758233
_cell_length_b 15.420403
_cell_length_c 13.842134
_cell_angle_alpha 90.000000
_cell_angle_beta 90.000000
_cell_angle_gamma 90.000000
_cell_volume 2509.809939
_symmetry_space_group_name_H-M "C 2 2 21"
_symmetry_group_IT_number 20
_symmetry_cell_setting 'orthorhombic'
loop_
_space_group_symop_operation_xyz
x,y,z
-x,-y,1/2+z
x,-y,-z
-x,y,1/2-z
1/2+x,1/2+y,z
1/2-x,1/2-y,1/2+z
1/2+x,1/2-y,-z
1/2-x,1/2+y,1/2-z
loop_
_atom_site_type_symbol
_atom_site_label
_atom_site_fract_x
_atom_site_fract_y
_atom_site_fract_z
Si Si1 0.111039 0.954935 0.406338
Si Si2 0.000000 0.924929 0.750000
Si Si3 0.261505 0.916825 0.059619
Si Si4 0.000000 0.530225 0.250000
Si Si5 0.449447 0.694879 0.532496
Si Si6 0.603315 0.160079 0.397716
Si Si7 0.152251 0.217209 0.168849
Si Si8 0.182648 0.594411 0.774195
O O1 0.207181 0.913961 0.340028
O O2 0.040494 0.880036 0.457208
O O3 0.167618 0.000000 0.500000
O O4 0.027400 0.015568 0.342882
O O5 0.888971 0.864952 0.732049
O O6 0.170303 0.839693 0.072143
O O7 0.294841 0.942888 0.167111
O O8 0.371489 0.881980 0.002142
O O9 0.211183 0.000000 0.000000
O O10 0.927592 0.587067 0.177505
O O11 0.916580 0.468460 0.313408
O O12 0.495197 0.775999 0.594502
O O13 0.433159 0.723264 0.421838
O O14 0.717114 0.207414 0.361486
O O15 0.141260 0.306005 0.229201
#
# Coordination Sequence:
#
# PCOD8160610 Si02
#       8
#     8   4   8   4   8   8   8   8
#     4  12  25  46  74 111 147 186 254 309 367 436
#     4  12  25  43  80 102 144 200 242 307 373 446
#     4  11  25  48  75 104 148 196 247 300 370 450
#     4  12  27  47  72 106 148 194 240 305 381 444
#     4  11  25  46  74 105 145 194 239 315 369 430
#     4  11  26  47  70 106 144 188 244 302 372 439
#     4  11  26  47  73 107 144 190 250 300 372 445
#     4  12  27  48  74 109 149 194 247 305 375 451
#
# _framework density 22.312446000000001
#
# number of rings (size 3 to 8) (size 9 to 14) (size 15 to 20)
#    0.000    0.571    4.286    2.571   10.000    1.714 
#    0.000    0.000    0.000    0.000    0.000    0.000 
#    0.000    0.000    0.000    0.000    0.000    0.000 
#
# Total GULP energy -347217.639066 kJ/mol
# GULP energy per Si atom -12400.629967 kJ/mol
# Density = 2.226166 g / cm^3
# Si number density = 22.312446 Si / 1000 Ang^3
#
#
#
# Elastic Constant Matrix: (Units=GPa)
#
#
# Indices 1 2 3 4 5 6 
#
# 1 103.3126 54.7217 39.8774 0.0000 0.0000 0.0000
# 2 54.7217 115.0517 38.8069 0.0000 0.0000 0.0000
# 3 39.8774 38.8069 111.1495 0.0000 0.0000 0.0000
# 4 0.0000 0.0000 0.0000 33.6390 0.0000 0.0000
# 5 0.0000 0.0000 0.0000 0.0000 35.7125 0.0000
# 6 0.0000 0.0000 0.0000 0.0000 0.0000 30.8098
#
#
#
# Elastic Compliance Matrix: (Units=1/GPa)
#
#
# Indices 1 2 3 4 5 6 
#
# 1 0.013773 -0.005536 -0.003008 0.000000 0.000000 0.000000
# 2 -0.005536 0.012077 -0.002230 0.000000 0.000000 0.000000
# 3 -0.003008 -0.002230 0.010855 0.000000 0.000000 0.000000
# 4 0.000000 0.000000 0.000000 0.029727 0.000000 0.000000
# 5 0.000000 0.000000 0.000000 0.000000 0.028001 0.000000
# 6 0.000000 0.000000 0.000000 0.000000 0.000000 0.032457
#
#
# Mechanical properties :
#
#
# Convention : Reuss Voigt Hill
#
# Bulk Modulus (GPa) = 65.98426 66.25841 66.12133
# Shear Modulus (GPa) = 32.57489 33.10614 32.84052
#
# Velocity S-wave (km/s) = 3.82506 3.85613 3.84063
# Velocity P-wave (km/s) = 7.01036 7.04177 7.02608
#
# Compressibility (1/GPa) = 0.01515513
#
# Stress axis : x y z
#
# Youngs Moduli (GPa) = 72.60670 82.80109 92.12345
#
# Poissons Ratio (x) = 0.45838 0.27715
# Poissons Ratio (y) = 0.40195 0.20548
# Poissons Ratio (z) = 0.21844 0.18469
#
# Static dielectric constant tensor:
#      x y z
#    x 4.090740 0.000000 0.000000 
#    y 0.000000 4.202390 0.000000 
#    z 0.000000 0.000000 4.104550 
# 
# 
# High freq. dielectric constant tensor:
#      x y z
#    x 1.879310 0.000000 0.000000 
#    y 0.000000 1.895650 0.000000 
#    z 0.000000 0.000000 1.875160 
# 
# From -- ./inp_files/20088.got.cif
#   From: 2010.03.12/outbox.cif.g09.slc.cpg/sg20_11_cif.got.tgz:20088.got - 2010.04.14 01:38:04.
