data_PCOD8160554
_publ_section_title
;
Structure prediction by ZEFSAII (Michael W. Deem and Ramdas Pophale) SiO2 
 PCOD8160554
Probable space group: C 2 2 21
;
_chemical_formula_sum "Si O2"
_cell_formula_units_Z 40
_cell_length_a 7.200526
_cell_length_b 8.172864
_cell_length_c 27.035139
_cell_angle_alpha 90.000000
_cell_angle_beta 90.000000
_cell_angle_gamma 90.000000
_cell_volume 1590.988725
_symmetry_space_group_name_H-M "C 2 2 21"
_symmetry_group_IT_number 20
_symmetry_cell_setting 'orthorhombic'
loop_
_space_group_symop_operation_xyz
x,y,z
-x,-y,1/2+z
x,-y,-z
-x,y,1/2-z
1/2+x,1/2+y,z
1/2-x,1/2-y,1/2+z
1/2+x,1/2-y,-z
1/2-x,1/2+y,1/2-z
loop_
_atom_site_type_symbol
_atom_site_label
_atom_site_fract_x
_atom_site_fract_y
_atom_site_fract_z
Si Si1 0.220387 0.347575 0.617197
Si Si2 0.037747 0.463522 0.806869
Si Si3 0.138558 0.851619 0.469520
Si Si4 0.724120 0.145436 0.557719
Si Si5 0.607128 0.688264 0.348222
O O1 0.248892 0.187373 0.581950
O O2 0.131505 0.482982 0.580480
O O3 0.416329 0.407509 0.639947
O O4 0.075515 0.325307 0.662171
O O5 0.258367 0.428925 0.815711
O O6 0.000000 0.431183 0.750000
O O7 0.960756 0.643620 0.821300
O O8 0.123779 0.697466 0.507029
O O9 0.934189 0.901961 0.454070
O O10 0.235440 0.000000 0.500000
O O11 0.712689 0.284570 0.599834
#
# Coordination Sequence:
#
# PCOD8160554 Si02
#       5
#     8   8   8   8   8
#     4  11  26  48  74 105 159 201 262 325 406 483
#     4  11  28  50  80 119 151 205 267 337 409 481
#     4  12  24  40  70 107 150 201 264 320 395 478
#     4  11  24  44  65 108 147 203 254 318 394 478
#     4  11  26  49  79 112 154 203 261 327 404 484
#
# _framework density 25.141598999999999
#
# number of rings (size 3 to 8) (size 9 to 14) (size 15 to 20)
#    0.000    0.800    2.000    4.200    8.400    1.600 
#    0.000    1.000    0.000    0.000    0.000    0.000 
#    0.000    0.000    0.000    0.000    0.000    0.000 
#
# Total GULP energy -247872.274328 kJ/mol
# GULP energy per Si atom -12393.613716 kJ/mol
# Density = 2.508438 g / cm^3
# Si number density = 25.141599 Si / 1000 Ang^3
#
#
#
# Elastic Constant Matrix: (Units=GPa)
#
#
# Indices 1 2 3 4 5 6 
#
# 1 105.3072 35.3224 56.5700 0.0000 0.0000 0.0000
# 2 35.3224 60.5749 44.2235 0.0000 0.0000 0.0000
# 3 56.5700 44.2235 190.9669 0.0000 0.0000 0.0000
# 4 0.0000 0.0000 0.0000 27.8718 0.0000 0.0000
# 5 0.0000 0.0000 0.0000 0.0000 38.1186 0.0000
# 6 0.0000 0.0000 0.0000 0.0000 0.0000 36.0009
#
#
#
# Elastic Compliance Matrix: (Units=1/GPa)
#
#
# Indices 1 2 3 4 5 6 
#
# 1 0.012700 -0.005607 -0.002464 0.000000 0.000000 0.000000
# 2 -0.005607 0.022343 -0.003513 0.000000 0.000000 0.000000
# 3 -0.002464 -0.003513 0.006780 0.000000 0.000000 0.000000
# 4 0.000000 0.000000 0.000000 0.035879 0.000000 0.000000
# 5 0.000000 0.000000 0.000000 0.000000 0.026234 0.000000
# 6 0.000000 0.000000 0.000000 0.000000 0.000000 0.027777
#
#
# Mechanical properties :
#
#
# Convention : Reuss Voigt Hill
#
# Bulk Modulus (GPa) = 53.60436 69.89787 61.75112
# Shear Modulus (GPa) = 31.03685 35.11380 33.07532
#
# Velocity S-wave (km/s) = 3.51733 3.74122 3.63100
# Velocity P-wave (km/s) = 6.15327 6.82088 6.49566
#
# Compressibility (1/GPa) = 0.01865520
#
# Stress axis : x y z
#
# Youngs Moduli (GPa) = 78.73862 44.75694 147.49505
#
# Poissons Ratio (x) = 0.25096 0.36339
# Poissons Ratio (y) = 0.44149 0.51817
# Poissons Ratio (z) = 0.19399 0.15724
#
# Static dielectric constant tensor:
#      x y z
#    x 4.343150 0.000000 0.000000 
#    y 0.000000 4.342930 0.000000 
#    z 0.000000 0.000000 4.885390 
# 
# 
# High freq. dielectric constant tensor:
#      x y z
#    x 1.997720 0.000000 0.000000 
#    y 0.000000 1.987860 0.000000 
#    z 0.000000 0.000000 2.010040 
# 
# From -- ./inp_files/30048.got.cif
#   From: 2010.03.12/outbox.cif.g09.slc.cpg/sg20_16_cif.got.tgz:30048.got - 2010.04.14 01:38:04.
