data_PCOD8160171
_publ_section_title
;
Structure prediction by ZEFSAII (Michael W. Deem and Ramdas Pophale) SiO2 
 PCOD8160171
Probable space group: C 2 2 21
;
_chemical_formula_sum "Si O2"
_cell_formula_units_Z 36
_cell_length_a 20.039528
_cell_length_b 8.767027
_cell_length_c 8.887609
_cell_angle_alpha 90.000000
_cell_angle_beta 90.000000
_cell_angle_gamma 90.000000
_cell_volume 1561.438100
_symmetry_space_group_name_H-M "C 2 2 21"
_symmetry_group_IT_number 20
_symmetry_cell_setting 'orthorhombic'
loop_
_space_group_symop_operation_xyz
x,y,z
-x,-y,1/2+z
x,-y,-z
-x,y,1/2-z
1/2+x,1/2+y,z
1/2-x,1/2-y,1/2+z
1/2+x,1/2-y,-z
1/2-x,1/2+y,1/2-z
loop_
_atom_site_type_symbol
_atom_site_label
_atom_site_fract_x
_atom_site_fract_y
_atom_site_fract_z
Si Si1 0.380247 0.907207 0.639997
Si Si2 0.000000 0.589338 0.750000
Si Si3 0.137414 0.108720 0.720576
Si Si4 0.610105 0.706411 0.385810
Si Si5 0.779174 0.558148 0.837883
O O1 0.386589 0.720849 0.640588
O O2 0.347263 0.000000 0.500000
O O3 0.452808 0.980865 0.653334
O O4 0.329371 0.928390 0.778054
O O5 0.044773 0.690938 0.639067
O O6 0.114274 0.176499 0.562019
O O7 0.216915 0.085805 0.728842
O O8 0.103380 0.941549 0.723330
O O9 0.678950 0.786292 0.338585
O O10 0.753882 0.500000 0.000000
#
# Coordination Sequence:
#
# PCOD8160171 Si02
#       5
#     8   4   8   8   8
#     4  11  26  42  72 103 139 195 247 299 375 444
#     4  10  26  48  66  96 144 192 254 306 368 454
#     4  11  24  42  74 105 143 188 245 312 375 442
#     4  10  24  45  69 106 142 193 247 311 370 442
#     4  11  23  42  70 103 152 186 235 300 378 452
#
# _framework density 23.055669999999999
#
# number of rings (size 3 to 8) (size 9 to 14) (size 15 to 20)
#    0.000    1.333    2.222    1.333    9.333    2.667 
#    4.000    0.000    0.000    0.000    0.000    0.000 
#    0.000    0.000    0.000    0.000    0.000    0.000 
#
# Total GULP energy -223049.963426 kJ/mol
# GULP energy per Si atom -12391.664635 kJ/mol
# Density = 2.300319 g / cm^3
# Si number density = 23.055670 Si / 1000 Ang^3
#
#
#
# Elastic Constant Matrix: (Units=GPa)
#
#
# Indices 1 2 3 4 5 6 
#
# 1 126.6121 42.9969 19.1656 0.0000 0.0000 0.0000
# 2 42.9969 154.9681 29.7032 0.0000 0.0000 0.0000
# 3 19.1656 29.7032 69.3460 0.0000 0.0000 0.0000
# 4 0.0000 0.0000 0.0000 38.1276 0.0000 0.0000
# 5 0.0000 0.0000 0.0000 0.0000 34.0825 0.0000
# 6 0.0000 0.0000 0.0000 0.0000 0.0000 12.7519
#
#
#
# Elastic Compliance Matrix: (Units=1/GPa)
#
#
# Indices 1 2 3 4 5 6 
#
# 1 0.008865 -0.002168 -0.001521 0.000000 0.000000 0.000000
# 2 -0.002168 0.007560 -0.002639 0.000000 0.000000 0.000000
# 3 -0.001521 -0.002639 0.015971 0.000000 0.000000 0.000000
# 4 0.000000 0.000000 0.000000 0.026228 0.000000 0.000000
# 5 0.000000 0.000000 0.000000 0.000000 0.029341 0.000000
# 6 0.000000 0.000000 0.000000 0.000000 0.000000 0.078419
#
#
# Mechanical properties :
#
#
# Convention : Reuss Voigt Hill
#
# Bulk Modulus (GPa) = 50.66020 59.40638 55.03329
# Shear Modulus (GPa) = 26.93664 34.26311 30.59987
#
# Velocity S-wave (km/s) = 3.42179 3.85918 3.64705
# Velocity P-wave (km/s) = 6.13451 6.75871 6.45416
#
# Compressibility (1/GPa) = 0.01973936
#
# Stress axis : x y z
#
# Youngs Moduli (GPa) = 112.80743 132.26973 62.61206
#
# Poissons Ratio (x) = 0.28675 0.09526
# Poissons Ratio (y) = 0.24456 0.16524
# Poissons Ratio (z) = 0.17162 0.34908
#
# Static dielectric constant tensor:
#      x y z
#    x 3.907130 0.000000 0.000000 
#    y 0.000000 4.623020 0.000000 
#    z 0.000000 0.000000 4.130740 
# 
# 
# High freq. dielectric constant tensor:
#      x y z
#    x 1.902500 0.000000 0.000000 
#    y 0.000000 1.931520 0.000000 
#    z 0.000000 0.000000 1.894610 
# 
# From -- ./inp_files/5923.got.cif
#   From: 2010.03.12/outbox.cif.g09.slc.cpg/sg20_3_cif.got.tgz:5923.got - 2010.04.14 01:38:04.
