data_PCOD8160131
_publ_section_title
;
Structure prediction by ZEFSAII (Michael W. Deem and Ramdas Pophale) SiO2 
 PCOD8160131
Probable space group: C 2 2 21
;
_chemical_formula_sum "Si O2"
_cell_formula_units_Z 64
_cell_length_a 22.475280
_cell_length_b 15.477116
_cell_length_c 8.978667
_cell_angle_alpha 90.000000
_cell_angle_beta 90.000000
_cell_angle_gamma 90.000000
_cell_volume 3123.251904
_symmetry_space_group_name_H-M "C 2 2 21"
_symmetry_group_IT_number 20
_symmetry_cell_setting 'orthorhombic'
loop_
_space_group_symop_operation_xyz
x,y,z
-x,-y,1/2+z
x,-y,-z
-x,y,1/2-z
1/2+x,1/2+y,z
1/2-x,1/2-y,1/2+z
1/2+x,1/2-y,-z
1/2-x,1/2+y,1/2-z
loop_
_atom_site_type_symbol
_atom_site_label
_atom_site_fract_x
_atom_site_fract_y
_atom_site_fract_z
Si Si1 0.241961 0.876315 0.244828
Si Si2 0.662046 0.213026 0.245122
Si Si3 0.129344 0.987016 0.177200
Si Si4 0.940046 0.160748 0.825616
Si Si5 0.158327 0.599519 0.961062
Si Si6 0.560447 0.367353 0.677081
Si Si7 0.654413 0.901003 0.487451
Si Si8 0.067550 0.670719 0.726440
O O1 0.215718 0.780426 0.227282
O O2 0.274150 0.885819 0.404139
O O3 0.193177 0.951473 0.228847
O O4 0.291055 0.888368 0.121398
O O5 0.605764 0.261740 0.312393
O O6 0.678559 0.136509 0.357710
O O7 0.646571 0.166746 0.092121
O O8 0.116253 0.075454 0.266987
O O9 0.078839 0.920038 0.224896
O O10 0.127762 0.000000 0.000000
O O11 0.000000 0.195364 0.750000
O O12 0.945839 0.132747 0.998270
O O13 0.108411 0.620696 0.841569
O O14 0.149342 0.500000 0.000000
O O15 0.500000 0.405243 0.750000
O O16 0.571954 0.273325 0.746155
O O17 0.593700 0.853055 0.435915
O O18 0.637207 0.000000 0.500000
O O19 0.000000 0.638944 0.750000
#
# Coordination Sequence:
#
# PCOD8160131 Si02
#       8
#     8   8   8   8   8   8   8   8
#     4  10  24  43  64  95 130 171 223 265 329 400
#     4  11  23  40  69  94 129 174 218 274 330 390
#     4  11  24  41  67 101 136 180 220 269 334 401
#     4  11  24  41  64 102 136 174 226 271 332 402
#     4  11  25  45  65  95 132 171 221 283 328 389
#     4  11  23  42  68  96 140 181 214 275 328 404
#     4  11  22  45  65  93 129 167 219 276 328 385
#     4  10  24  43  67  96 128 172 219 267 339 394
#
# _framework density 20.491463
#
# number of rings (size 3 to 8) (size 9 to 14) (size 15 to 20)
#    0.000    1.250    1.250    4.125    7.000    2.500 
#    9.000    1.250    0.000    0.000    0.000    0.000 
#    0.000    0.000    0.000    0.000    0.000    0.000 
#
# Total GULP energy -396832.156550 kJ/mol
# GULP energy per Si atom -12401.004892 kJ/mol
# Density = 2.044482 g / cm^3
# Si number density = 20.491463 Si / 1000 Ang^3
#
#
#
# Elastic Constant Matrix: (Units=GPa)
#
#
# Indices 1 2 3 4 5 6 
#
# 1 109.2597 39.7878 32.1143 0.0000 0.0000 0.0000
# 2 39.7878 113.8358 33.1905 0.0000 0.0000 0.0000
# 3 32.1143 33.1905 118.1570 0.0000 0.0000 0.0000
# 4 0.0000 0.0000 0.0000 44.4964 0.0000 0.0000
# 5 0.0000 0.0000 0.0000 0.0000 33.5539 0.0000
# 6 0.0000 0.0000 0.0000 0.0000 0.0000 24.1130
#
#
#
# Elastic Compliance Matrix: (Units=1/GPa)
#
#
# Indices 1 2 3 4 5 6 
#
# 1 0.010932 -0.003218 -0.002067 0.000000 0.000000 0.000000
# 2 -0.003218 0.010516 -0.002079 0.000000 0.000000 0.000000
# 3 -0.002067 -0.002079 0.009609 0.000000 0.000000 0.000000
# 4 0.000000 0.000000 0.000000 0.022474 0.000000 0.000000
# 5 0.000000 0.000000 0.000000 0.000000 0.029803 0.000000
# 6 0.000000 0.000000 0.000000 0.000000 0.000000 0.041471
#
#
# Mechanical properties :
#
#
# Convention : Reuss Voigt Hill
#
# Bulk Modulus (GPa) = 61.24593 61.27086 61.25839
# Shear Modulus (GPa) = 34.48828 36.17663 35.33246
#
# Velocity S-wave (km/s) = 4.10696 4.20628 4.15692
# Velocity P-wave (km/s) = 7.24174 7.31820 7.28007
#
# Compressibility (1/GPa) = 0.01632762
#
# Stress axis : x y z
#
# Youngs Moduli (GPa) = 91.47397 95.09657 104.06664
#
# Poissons Ratio (x) = 0.30604 0.21513
# Poissons Ratio (y) = 0.29438 0.21637
# Poissons Ratio (z) = 0.18910 0.19772
#
# Static dielectric constant tensor:
#      x y z
#    x 3.823820 0.000000 0.000000 
#    y 0.000000 3.478590 0.000000 
#    z 0.000000 0.000000 3.913720 
# 
# 
# High freq. dielectric constant tensor:
#      x y z
#    x 1.804860 0.000000 0.000000 
#    y 0.000000 1.811890 0.000000 
#    z 0.000000 0.000000 1.812840 
# 
# From -- ./inp_files/10825.got.cif
#   From: 2010.03.12/outbox.cif.g09.slc.cpg/sg20_6_cif.got.tgz:10825.got - 2010.04.14 01:38:04.
