data_PCOD8160573
_publ_section_title
;
Structure prediction by ZEFSAII (Michael W. Deem and Ramdas Pophale) SiO2 
 PCOD8160573
Probable space group: C 2 2 21
;
_chemical_formula_sum "Si O2"
_cell_formula_units_Z 52
_cell_length_a 13.051928
_cell_length_b 8.506469
_cell_length_c 20.408593
_cell_angle_alpha 90.000000
_cell_angle_beta 90.000000
_cell_angle_gamma 90.000000
_cell_volume 2265.880792
_symmetry_space_group_name_H-M "C 2 2 21"
_symmetry_group_IT_number 20
_symmetry_cell_setting 'orthorhombic'
loop_
_space_group_symop_operation_xyz
x,y,z
-x,-y,1/2+z
x,-y,-z
-x,y,1/2-z
1/2+x,1/2+y,z
1/2-x,1/2-y,1/2+z
1/2+x,1/2-y,-z
1/2-x,1/2+y,1/2-z
loop_
_atom_site_type_symbol
_atom_site_label
_atom_site_fract_x
_atom_site_fract_y
_atom_site_fract_z
Si Si1 0.176855 0.749838 0.675588
Si Si2 0.500000 0.757472 0.750000
Si Si3 0.660193 0.486962 0.223045
Si Si4 0.108716 0.799700 0.889846
Si Si5 0.907650 0.848197 0.962081
Si Si6 0.679409 0.106219 0.444959
Si Si7 0.516254 0.029592 0.653370
O O1 0.258881 0.608635 0.679365
O O2 0.208540 0.893428 0.723629
O O3 0.163676 0.816246 0.601673
O O4 0.070740 0.663774 0.699097
O O5 0.403840 0.644816 0.762146
O O6 0.482438 0.868749 0.687435
O O7 0.591338 0.589153 0.173519
O O8 0.228375 0.803741 0.908635
O O9 0.027837 0.862219 0.943307
O O10 0.083970 0.614621 0.876397
O O11 0.899227 0.717418 0.017565
O O12 0.867871 0.000000 0.000000
O O13 0.606254 0.002650 0.398887
O O14 0.734649 0.000000 0.500000
#
# Coordination Sequence:
#
# PCOD8160573 Si02
#       7
#     8   4   8   8   8   8   8
#     4  11  24  46  69 105 140 193 240 316 372 443
#     4  12  26  42  68 108 144 192 242 314 382 442
#     4  12  25  43  75 103 145 192 252 305 383 445
#     4  11  24  46  75 102 143 198 244 309 378 443
#     4  11  26  44  70 104 148 188 255 307 366 461
#     4  12  23  48  72 103 148 199 242 313 374 444
#     4  11  24  46  71 105 150 188 250 311 371 458
#
# _framework density 22.949133
#
# number of rings (size 3 to 8) (size 9 to 14) (size 15 to 20)
#    0.000    0.615    4.615    4.154    4.308    1.231 
#    2.769    0.000    0.000    0.000    0.000    0.000 
#    0.000    0.000    0.000    0.000    0.000    0.000 
#
# Total GULP energy -322178.087119 kJ/mol
# GULP energy per Si atom -12391.464889 kJ/mol
# Density = 2.289690 g / cm^3
# Si number density = 22.949133 Si / 1000 Ang^3
#
#
#
# Elastic Constant Matrix: (Units=GPa)
#
#
# Indices 1 2 3 4 5 6 
#
# 1 98.1411 59.0757 40.8892 0.0000 0.0000 0.0000
# 2 59.0757 140.6719 65.3245 0.0000 0.0000 0.0000
# 3 40.8892 65.3245 94.2010 0.0000 0.0000 0.0000
# 4 0.0000 0.0000 0.0000 46.0046 0.0000 0.0000
# 5 0.0000 0.0000 0.0000 0.0000 29.1872 0.0000
# 6 0.0000 0.0000 0.0000 0.0000 0.0000 51.8797
#
#
#
# Elastic Compliance Matrix: (Units=1/GPa)
#
#
# Indices 1 2 3 4 5 6 
#
# 1 0.014185 -0.004569 -0.002989 0.000000 0.000000 0.000000
# 2 -0.004569 0.011957 -0.006308 0.000000 0.000000 0.000000
# 3 -0.002989 -0.006308 0.016287 0.000000 0.000000 0.000000
# 4 0.000000 0.000000 0.000000 0.021737 0.000000 0.000000
# 5 0.000000 0.000000 0.000000 0.000000 0.034262 0.000000
# 6 0.000000 0.000000 0.000000 0.000000 0.000000 0.019275
#
#
# Mechanical properties :
#
#
# Convention : Reuss Voigt Hill
#
# Bulk Modulus (GPa) = 68.04087 73.73254 70.88670
# Shear Modulus (GPa) = 33.25907 36.59594 34.92750
#
# Velocity S-wave (km/s) = 3.81103 3.99764 3.90545
# Velocity P-wave (km/s) = 7.00559 7.31482 7.16187
#
# Compressibility (1/GPa) = 0.01469705
#
# Stress axis : x y z
#
# Youngs Moduli (GPa) = 70.49695 83.63265 61.39692
#
# Poissons Ratio (x) = 0.38213 0.18349
# Poissons Ratio (y) = 0.32211 0.38732
# Poissons Ratio (z) = 0.21069 0.52759
#
# Static dielectric constant tensor:
#      x y z
#    x 3.895280 0.000000 0.000000 
#    y 0.000000 4.428390 0.000000 
#    z 0.000000 0.000000 4.243170 
# 
# 
# High freq. dielectric constant tensor:
#      x y z
#    x 1.892110 0.000000 0.000000 
#    y 0.000000 1.928070 0.000000 
#    z 0.000000 0.000000 1.903700 
# 
# From -- ./inp_files/27503.got.cif
#   From: 2010.03.12/outbox.cif.g09.slc.cpg/sg20_14_cif.got.tgz:27503.got - 2010.04.14 01:38:04.
