data_PCOD8160279
_publ_section_title
;
Structure prediction by ZEFSAII (Michael W. Deem and Ramdas Pophale) SiO2 
 PCOD8160279
Probable space group: C 2 2 21
;
_chemical_formula_sum "Si O2"
_cell_formula_units_Z 48
_cell_length_a 21.903612
_cell_length_b 14.323968
_cell_length_c 7.669808
_cell_angle_alpha 90.000000
_cell_angle_beta 90.000000
_cell_angle_gamma 90.000000
_cell_volume 2406.376469
_symmetry_space_group_name_H-M "C 2 2 21"
_symmetry_group_IT_number 20
_symmetry_cell_setting 'orthorhombic'
loop_
_space_group_symop_operation_xyz
x,y,z
-x,-y,1/2+z
x,-y,-z
-x,y,1/2-z
1/2+x,1/2+y,z
1/2-x,1/2-y,1/2+z
1/2+x,1/2-y,-z
1/2-x,1/2+y,1/2-z
loop_
_atom_site_type_symbol
_atom_site_label
_atom_site_fract_x
_atom_site_fract_y
_atom_site_fract_z
Si Si1 0.768776 0.449001 0.839193
Si Si2 0.692656 0.297172 0.672086
Si Si3 0.771745 0.372510 0.384775
Si Si4 0.908208 0.595308 0.081526
Si Si5 0.933944 0.734759 0.777230
Si Si6 0.102372 0.392701 0.963502
O O1 0.727705 0.359300 0.810441
O O2 0.766094 0.519789 0.673816
O O3 0.835934 0.418149 0.896977
O O4 0.736465 0.500000 0.000000
O O5 0.711035 0.329431 0.475811
O O6 0.709495 0.188648 0.714352
O O7 0.620180 0.311018 0.709398
O O8 0.824980 0.367332 0.533540
O O9 0.929982 0.624339 0.276274
O O10 0.936597 0.500000 0.000000
O O11 0.927752 0.677950 0.956112
O O12 0.930227 0.666491 0.611888
O O13 0.000000 0.784075 0.750000
O O14 0.092220 0.500000 0.000000
#
# Coordination Sequence:
#
# PCOD8160279 Si02
#       6
#     8   8   8   8   8   8
#     4  11  20  35  61  93 122 149 186 246 319 374
#     4  11  21  36  58  86 119 155 192 245 303 360
#     4  11  20  34  59  93 123 151 192 247 314 373
#     4  11  19  35  59  87 116 151 191 244 310 370
#     4  11  26  40  53  79 119 167 210 245 282 348
#     4  11  18  36  57  84 118 149 190 250 305 366
#
# _framework density 19.947005000000001
#
# number of rings (size 3 to 8) (size 9 to 14) (size 15 to 20)
#    0.000    1.000    5.000    5.500    0.000    1.333 
#    0.000    0.000    0.000    2.000    0.000    0.000 
#    0.000    0.000    0.000    0.000    0.000    0.000 
#
# Total GULP energy -297424.119078 kJ/mol
# GULP energy per Si atom -12392.671628 kJ/mol
# Density = 1.990160 g / cm^3
# Si number density = 19.947005 Si / 1000 Ang^3
#
#
#
# Elastic Constant Matrix: (Units=GPa)
#
#
# Indices 1 2 3 4 5 6 
#
# 1 109.0913 19.5235 15.5868 0.0000 0.0000 0.0000
# 2 19.5235 32.7318 -3.5047 0.0000 0.0000 0.0000
# 3 15.5868 -3.5047 122.0007 0.0000 0.0000 0.0000
# 4 0.0000 0.0000 0.0000 27.9516 0.0000 0.0000
# 5 0.0000 0.0000 0.0000 0.0000 -7.7112 0.0000
# 6 0.0000 0.0000 0.0000 0.0000 0.0000 13.8698
#
#
#
# Elastic Compliance Matrix: (Units=1/GPa)
#
#
# Indices 1 2 3 4 5 6 
#
# 1 0.010540 -0.006451 -0.001532 0.000000 0.000000 0.000000
# 2 -0.006451 0.034594 0.001818 0.000000 0.000000 0.000000
# 3 -0.001532 0.001818 0.008445 0.000000 0.000000 0.000000
# 4 0.000000 0.000000 0.000000 0.035776 0.000000 0.000000
# 5 0.000000 0.000000 0.000000 0.000000 -0.129682 0.000000
# 6 0.000000 0.000000 0.000000 0.000000 0.000000 0.072099
#
#
# Mechanical properties :
#
#
# Convention : Reuss Voigt Hill
#
# Bulk Modulus (GPa) = 24.24317 36.33723 30.29020
# Shear Modulus (GPa) = 86.42921 22.30326 54.36624
#
# Velocity S-wave (km/s) = 6.58965 3.34747 5.22633
# Velocity P-wave (km/s) = 8.37127 5.76170 7.18593
#
# Compressibility (1/GPa) = 0.04124873
#
# Stress axis : x y z
#
# Youngs Moduli (GPa) = 94.87685 28.90701 118.41872
#
# Poissons Ratio (x) = 0.18647 0.18141
# Poissons Ratio (y) = 0.61203 -0.21528
# Poissons Ratio (z) = 0.14534 -0.05255
#
# Static dielectric constant tensor:
#      x y z
#    x 3.617550 0.000000 0.000000 
#    y 0.000000 3.425080 0.000000 
#    z 0.000000 0.000000 4.223900 
# 
# 
# High freq. dielectric constant tensor:
#      x y z
#    x 1.752320 0.000000 0.000000 
#    y 0.000000 1.742520 0.000000 
#    z 0.000000 0.000000 1.804790 
# 
# From -- ./inp_files/10053.got.cif
#   From: 2010.03.12/outbox.cif.g09.slc.cpg/sg20_6_cif.got.tgz:10053.got - 2010.04.14 01:38:04.
