data_PCOD8160235
_publ_section_title
;
Structure prediction by ZEFSAII (Michael W. Deem and Ramdas Pophale) SiO2 
 PCOD8160235
Probable space group: C 2 2 21
;
_chemical_formula_sum "Si O2"
_cell_formula_units_Z 40
_cell_length_a 23.433824
_cell_length_b 9.828184
_cell_length_c 7.543910
_cell_angle_alpha 90.000000
_cell_angle_beta 90.000000
_cell_angle_gamma 90.000000
_cell_volume 1737.452503
_symmetry_space_group_name_H-M "C 2 2 21"
_symmetry_group_IT_number 20
_symmetry_cell_setting 'orthorhombic'
loop_
_space_group_symop_operation_xyz
x,y,z
-x,-y,1/2+z
x,-y,-z
-x,y,1/2-z
1/2+x,1/2+y,z
1/2-x,1/2-y,1/2+z
1/2+x,1/2-y,-z
1/2-x,1/2+y,1/2-z
loop_
_atom_site_type_symbol
_atom_site_label
_atom_site_fract_x
_atom_site_fract_y
_atom_site_fract_z
Si Si1 0.188553 0.234353 0.256509
Si Si2 0.880507 0.276157 0.594452
Si Si3 0.996418 0.348636 0.042658
Si Si4 0.784296 0.469887 0.693587
Si Si5 0.397295 0.648964 0.946793
O O1 0.210625 0.387505 0.297607
O O2 0.241767 0.136061 0.213075
O O3 0.155581 0.189429 0.430972
O O4 0.148677 0.224829 0.084893
O O5 0.944324 0.322230 0.554969
O O6 0.847541 0.406268 0.675280
O O7 0.878275 0.154777 0.740093
O O8 0.000000 0.321131 0.250000
O O9 0.975496 0.500000 0.000000
O O10 0.949839 0.249718 0.962426
O O11 0.758419 0.500000 0.500000
O O12 0.418807 0.500000 0.000000
#
# Coordination Sequence:
#
# PCOD8160235 Si02
#       5
#     8   8   8   8   8
#     4  11  25  50  73 109 150 194 253 300 377 432
#     4  11  26  50  77 106 150 197 246 307 365 448
#     4  12  25  49  80 113 147 196 251 305 374 451
#     4  10  25  47  74 108 149 192 249 303 365 443
#     4  12  29  48  73 112 154 192 250 309 374 435
#
# _framework density 23.022210000000001
#
# number of rings (size 3 to 8) (size 9 to 14) (size 15 to 20)
#    0.000    0.800    2.000    4.200   11.200    2.400 
#    3.600    0.000    0.000    0.000    0.000    0.000 
#    0.000    0.000    0.000    0.000    0.000    0.000 
#
# Total GULP energy -248102.626745 kJ/mol
# GULP energy per Si atom -12405.131337 kJ/mol
# Density = 2.296981 g / cm^3
# Si number density = 23.022210 Si / 1000 Ang^3
#
#
#
# Elastic Constant Matrix: (Units=GPa)
#
#
# Indices 1 2 3 4 5 6 
#
# 1 143.4698 70.7292 29.8153 0.0000 0.0000 0.0000
# 2 70.7292 153.9088 35.6187 0.0000 0.0000 0.0000
# 3 29.8153 35.6187 93.7854 0.0000 0.0000 0.0000
# 4 0.0000 0.0000 0.0000 33.4846 0.0000 0.0000
# 5 0.0000 0.0000 0.0000 0.0000 20.5880 0.0000
# 6 0.0000 0.0000 0.0000 0.0000 0.0000 30.9573
#
#
#
# Elastic Compliance Matrix: (Units=1/GPa)
#
#
# Indices 1 2 3 4 5 6 
#
# 1 0.009187 -0.003888 -0.001444 0.000000 0.000000 0.000000
# 2 -0.003888 0.008769 -0.002094 0.000000 0.000000 0.000000
# 3 -0.001444 -0.002094 0.011917 0.000000 0.000000 0.000000
# 4 0.000000 0.000000 0.000000 0.029864 0.000000 0.000000
# 5 0.000000 0.000000 0.000000 0.000000 0.048572 0.000000
# 6 0.000000 0.000000 0.000000 0.000000 0.000000 0.032303
#
#
# Mechanical properties :
#
#
# Convention : Reuss Voigt Hill
#
# Bulk Modulus (GPa) = 66.57578 73.72114 70.14846
# Shear Modulus (GPa) = 31.15839 34.00602 32.58220
#
# Velocity S-wave (km/s) = 3.68286 3.84747 3.76606
# Velocity P-wave (km/s) = 6.86042 7.19921 7.03186
#
# Compressibility (1/GPa) = 0.01502048
#
# Stress axis : x y z
#
# Youngs Moduli (GPa) = 108.85226 114.04336 83.91282
#
# Poissons Ratio (x) = 0.44335 0.12118
# Poissons Ratio (y) = 0.42317 0.17574
# Poissons Ratio (z) = 0.15719 0.23884
#
# Static dielectric constant tensor:
#      x y z
#    x 4.174430 0.000000 0.000000 
#    y 0.000000 0.855700 0.000000 
#    z 0.000000 0.000000 4.366820 
# 
# 
# High freq. dielectric constant tensor:
#      x y z
#    x 1.920200 0.000000 0.000000 
#    y 0.000000 1.910800 0.000000 
#    z 0.000000 0.000000 1.920700 
# 
# From -- ./inp_files/6276.got.cif
#   From: 2010.03.12/outbox.cif.g09.slc.cpg/sg20_4_cif.got.tgz:6276.got - 2010.04.14 01:38:04.
