data_PCOD8160424
_publ_section_title
;
Structure prediction by ZEFSAII (Michael W. Deem and Ramdas Pophale) SiO2 
 PCOD8160424
Probable space group: C 2 2 21
;
_chemical_formula_sum "Si O2"
_cell_formula_units_Z 56
_cell_length_a 18.913456
_cell_length_b 15.060186
_cell_length_c 9.512255
_cell_angle_alpha 90.000000
_cell_angle_beta 90.000000
_cell_angle_gamma 90.000000
_cell_volume 2709.472286
_symmetry_space_group_name_H-M "C 2 2 21"
_symmetry_group_IT_number 20
_symmetry_cell_setting 'orthorhombic'
loop_
_space_group_symop_operation_xyz
x,y,z
-x,-y,1/2+z
x,-y,-z
-x,y,1/2-z
1/2+x,1/2+y,z
1/2-x,1/2-y,1/2+z
1/2+x,1/2-y,-z
1/2-x,1/2+y,1/2-z
loop_
_atom_site_type_symbol
_atom_site_label
_atom_site_fract_x
_atom_site_fract_y
_atom_site_fract_z
Si Si1 0.205131 0.536454 0.842921
Si Si2 0.617175 0.326835 0.973818
Si Si3 0.179721 0.812422 0.281910
Si Si4 0.129005 0.202173 0.428703
Si Si5 0.917498 0.337251 0.276413
Si Si6 0.238670 0.137033 0.229154
Si Si7 0.515138 0.569176 0.397218
O O1 0.263672 0.609267 0.800508
O O2 0.125999 0.574725 0.820227
O O3 0.215900 0.452610 0.739735
O O4 0.214383 0.500000 0.000000
O O5 0.593441 0.234512 0.901236
O O6 0.678995 0.375508 0.888602
O O7 0.552893 0.395370 0.980323
O O8 0.642521 0.309976 0.132125
O O9 0.120493 0.814522 0.404944
O O10 0.213943 0.718374 0.319056
O O11 0.117745 0.301921 0.369772
O O12 0.204444 0.162770 0.380042
O O13 0.066531 0.148599 0.351837
O O14 0.000000 0.360538 0.250000
O O15 0.554185 0.500000 0.500000
O O16 0.500000 0.520088 0.250000
#
# Coordination Sequence:
#
# PCOD8160424 Si02
#       7
#     8   8   8   8   8   8   8
#     4  12  25  42  74 103 136 185 237 290 347 427
#     4  11  23  42  67  97 138 182 220 287 350 412
#     4  12  25  40  69 103 138 175 225 287 352 405
#     4  11  22  43  68  94 134 182 221 282 346 417
#     4  11  22  49  74  93 135 193 234 279 356 411
#     4  11  23  43  66  99 135 171 232 279 342 408
#     4  12  26  42  63  97 136 179 226 281 349 422
#
# _framework density 20.668230999999999
#
# number of rings (size 3 to 8) (size 9 to 14) (size 15 to 20)
#    0.000    0.571    8.571    1.714    6.000    0.000 
#    0.000    1.429    0.000    0.000    0.000    0.000 
#    0.000    0.000    0.000    0.000    0.000    0.000 
#
# Total GULP energy -347123.246107 kJ/mol
# GULP energy per Si atom -12397.258790 kJ/mol
# Density = 2.062119 g / cm^3
# Si number density = 20.668231 Si / 1000 Ang^3
#
#
#
# Elastic Constant Matrix: (Units=GPa)
#
#
# Indices 1 2 3 4 5 6 
#
# 1 83.5824 32.2063 22.5084 0.0000 0.0000 0.0000
# 2 32.2063 113.2834 17.1968 0.0000 0.0000 0.0000
# 3 22.5084 17.1968 99.3461 0.0000 0.0000 0.0000
# 4 0.0000 0.0000 0.0000 24.4863 0.0000 0.0000
# 5 0.0000 0.0000 0.0000 0.0000 27.0258 0.0000
# 6 0.0000 0.0000 0.0000 0.0000 0.0000 32.2031
#
#
#
# Elastic Compliance Matrix: (Units=1/GPa)
#
#
# Indices 1 2 3 4 5 6 
#
# 1 0.014042 -0.003604 -0.002558 0.000000 0.000000 0.000000
# 2 -0.003604 0.009991 -0.000913 0.000000 0.000000 0.000000
# 3 -0.002558 -0.000913 0.010803 0.000000 0.000000 0.000000
# 4 0.000000 0.000000 0.000000 0.040839 0.000000 0.000000
# 5 0.000000 0.000000 0.000000 0.000000 0.037002 0.000000
# 6 0.000000 0.000000 0.000000 0.000000 0.000000 0.031053
#
#
# Mechanical properties :
#
#
# Convention : Reuss Voigt Hill
#
# Bulk Modulus (GPa) = 48.33933 48.89276 48.61605
# Shear Modulus (GPa) = 30.34474 31.69640 31.02057
#
# Velocity S-wave (km/s) = 3.83584 3.92034 3.87832
# Velocity P-wave (km/s) = 6.56180 6.64827 6.60518
#
# Compressibility (1/GPa) = 0.02068709
#
# Stress axis : x y z
#
# Youngs Moduli (GPa) = 71.21706 100.09468 92.56444
#
# Poissons Ratio (x) = 0.36072 0.23674
# Poissons Ratio (y) = 0.25665 0.08450
# Poissons Ratio (z) = 0.18214 0.09137
#
# Static dielectric constant tensor:
#      x y z
#    x 3.728280 0.000000 0.000000 
#    y 0.000000 3.695860 0.000000 
#    z 0.000000 0.000000 3.989890 
# 
# 
# High freq. dielectric constant tensor:
#      x y z
#    x 1.804010 0.000000 0.000000 
#    y 0.000000 1.800090 0.000000 
#    z 0.000000 0.000000 1.818050 
# 
# From -- ./inp_files/10199.got.cif
#   From: 2010.03.12/outbox.cif.g09.slc.cpg/sg20_6_cif.got.tgz:10199.got - 2010.04.14 01:38:04.
