data_PCOD8160981
_publ_section_title
;
Structure prediction by ZEFSAII (Michael W. Deem and Ramdas Pophale) SiO2 
 PCOD8160981
Probable space group: C 2 2 2
;
_chemical_formula_sum "Si O2"
_cell_formula_units_Z 64
_cell_length_a 17.818752
_cell_length_b 14.526794
_cell_length_c 12.595696
_cell_angle_alpha 90.000000
_cell_angle_beta 90.000000
_cell_angle_gamma 90.000000
_cell_volume 3260.387592
_symmetry_space_group_name_H-M "C 2 2 2"
_symmetry_group_IT_number 21
_symmetry_cell_setting 'orthorhombic'
loop_
_space_group_symop_operation_xyz
x,y,z
-x,-y,z
x,-y,-z
-x,y,-z
1/2+x,1/2+y,z
1/2-x,1/2-y,z
1/2+x,1/2-y,-z
1/2-x,1/2+y,-z
loop_
_atom_site_type_symbol
_atom_site_label
_atom_site_fract_x
_atom_site_fract_y
_atom_site_fract_z
Si Si1 0.586942 0.297474 0.619699
Si Si2 0.813120 0.959023 0.114106
Si Si3 0.412119 0.503219 0.699650
Si Si4 0.164321 0.231834 0.025533
Si Si5 0.855186 0.494088 0.124940
Si Si6 0.903085 0.706749 0.820133
Si Si7 0.077540 0.665342 0.804833
Si Si8 0.590312 0.310690 0.387617
O O1 0.615177 0.398979 0.653139
O O2 0.611914 0.217062 0.701354
O O3 0.620616 0.275766 0.502280
O O4 0.498161 0.298570 0.615166
O O5 0.841400 0.854444 0.104347
O O6 0.867674 0.013899 0.191934
O O7 0.727646 0.968603 0.151869
O O8 0.823022 0.000000 0.000000
O O9 0.500000 0.500000 0.725669
O O10 0.390655 0.419389 0.621527
O O11 0.250000 0.250000 0.994780
O O12 0.127527 0.314264 0.091226
O O13 0.119574 0.222737 0.914287
O O14 0.860594 0.389262 0.163625
O O15 0.912913 0.554349 0.198111
O O16 0.874698 0.500000 0.000000
O O17 0.875424 0.750365 0.708347
O O18 0.992308 0.694233 0.823338
#
# Coordination Sequence:
#
# PCOD8160981 Si02
#       8
#     8   8   8   8   8   8   8   8
#     4   9  18  35  59  84 116 148 191 245 301 355
#     4  11  22  36  53  81 120 158 193 229 301 363
#     4  10  19  34  56  85 114 151 196 244 291 358
#     4  12  21  37  58  82 120 156 188 237 298 354
#     4  11  22  39  58  81 116 162 196 240 294 360
#     4  11  23  37  60  88 119 151 202 251 293 343
#     4  11  21  37  61  91 111 148 205 252 286 349
#     4   9  19  35  56  86 115 150 192 243 303 351
#
# _framework density 19.629567000000002
#
# number of rings (size 3 to 8) (size 9 to 14) (size 15 to 20)
#    0.000    1.500    3.750    2.625    0.000    2.250 
#    2.250    0.625    0.000   11.250    0.000    0.000 
#    0.000    0.000    0.000    0.000    0.000    0.000 
#
# Total GULP energy -396685.282113 kJ/mol
# GULP energy per Si atom -12396.415066 kJ/mol
# Density = 1.958489 g / cm^3
# Si number density = 19.629567 Si / 1000 Ang^3
#
#
#
# Elastic Constant Matrix: (Units=GPa)
#
#
# Indices 1 2 3 4 5 6 
#
# 1 55.8328 18.1722 38.9721 0.0000 0.0000 0.0000
# 2 18.1722 100.2252 42.8869 0.0000 0.0000 0.0000
# 3 38.9721 42.8869 130.4460 0.0000 0.0000 0.0000
# 4 0.0000 0.0000 0.0000 28.6016 0.0000 0.0000
# 5 0.0000 0.0000 0.0000 0.0000 17.8278 0.0000
# 6 0.0000 0.0000 0.0000 0.0000 0.0000 19.5930
#
#
#
# Elastic Compliance Matrix: (Units=1/GPa)
#
#
# Indices 1 2 3 4 5 6 
#
# 1 0.022802 -0.001419 -0.006346 0.000000 0.000000 0.000000
# 2 -0.001419 0.011699 -0.003422 0.000000 0.000000 0.000000
# 3 -0.006346 -0.003422 0.010687 0.000000 0.000000 0.000000
# 4 0.000000 0.000000 0.000000 0.034963 0.000000 0.000000
# 5 0.000000 0.000000 0.000000 0.000000 0.056092 0.000000
# 6 0.000000 0.000000 0.000000 0.000000 0.000000 0.051039
#
#
# Mechanical properties :
#
#
# Convention : Reuss Voigt Hill
#
# Bulk Modulus (GPa) = 43.83287 54.06291 48.94789
# Shear Modulus (GPa) = 23.01377 25.63600 24.32489
#
# Velocity S-wave (km/s) = 3.42775 3.61777 3.52404
# Velocity P-wave (km/s) = 6.16802 6.71210 6.44581
#
# Compressibility (1/GPa) = 0.02281393
#
# Stress axis : x y z
#
# Youngs Moduli (GPa) = 43.85595 85.47522 93.57073
#
# Poissons Ratio (x) = 0.12128 0.59378
# Poissons Ratio (y) = 0.06223 0.32024
# Poissons Ratio (z) = 0.27830 0.29254
#
# Static dielectric constant tensor:
#      x y z
#    x 3.358960 0.000000 0.000000 
#    y 0.000000 2.599100 0.000000 
#    z 0.000000 0.000000 3.987370 
# 
# 
# High freq. dielectric constant tensor:
#      x y z
#    x 1.738680 0.000000 0.000000 
#    y 0.000000 1.773050 0.000000 
#    z 0.000000 0.000000 1.759800 
# 
# From -- ./inp_files/25488.got.cif
#   From: 2010.03.12/outbox.cif.g09.slc.cpg/sg21_13_cif.got.tgz:25488.got - 2010.04.14 01:59:26.
