data_PCOD8160310
_publ_section_title
;
Structure prediction by ZEFSAII (Michael W. Deem and Ramdas Pophale) SiO2 
 PCOD8160310
Probable space group: C 2 2 21
;
_chemical_formula_sum "Si O2"
_cell_formula_units_Z 40
_cell_length_a 17.015122
_cell_length_b 9.477774
_cell_length_c 11.547130
_cell_angle_alpha 90.000000
_cell_angle_beta 90.000000
_cell_angle_gamma 90.000000
_cell_volume 1862.153472
_symmetry_space_group_name_H-M "C 2 2 21"
_symmetry_group_IT_number 20
_symmetry_cell_setting 'orthorhombic'
loop_
_space_group_symop_operation_xyz
x,y,z
-x,-y,1/2+z
x,-y,-z
-x,y,1/2-z
1/2+x,1/2+y,z
1/2-x,1/2-y,1/2+z
1/2+x,1/2-y,-z
1/2-x,1/2+y,1/2-z
loop_
_atom_site_type_symbol
_atom_site_label
_atom_site_fract_x
_atom_site_fract_y
_atom_site_fract_z
Si Si1 0.669144 0.434098 0.794426
Si Si2 0.585284 0.726613 0.790346
Si Si3 0.871992 0.150165 0.055140
Si Si4 0.833966 0.607912 0.097527
Si Si5 0.952625 0.162755 0.465017
O O1 0.641214 0.592966 0.770773
O O2 0.678957 0.355790 0.671928
O O3 0.750371 0.449351 0.862009
O O4 0.608954 0.329915 0.860461
O O5 0.500000 0.675422 0.750000
O O6 0.612336 0.862171 0.712554
O O7 0.578603 0.760312 0.927909
O O8 0.960398 0.213071 0.074153
O O9 0.822448 0.243999 0.966728
O O10 0.883654 0.000000 0.000000
O O11 0.869801 0.500000 0.000000
O O12 0.953115 0.000000 0.500000
#
# Coordination Sequence:
#
# PCOD8160310 Si02
#       5
#     8   8   8   8   8
#     4  11  23  38  72 102 139 175 244 293 345 413
#     4  11  20  44  73  96 135 192 232 287 348 426
#     4  11  21  41  70 100 135 182 237 287 345 425
#     4  12  27  41  65 104 151 181 227 301 369 411
#     4   9  18  36  69 104 123 172 244 286 324 411
#
# _framework density 21.480505999999998
#
# number of rings (size 3 to 8) (size 9 to 14) (size 15 to 20)
#    0.000    1.200    4.000    4.800    5.600    0.000 
#    0.000    2.000    0.000    0.000    0.000    0.000 
#    0.000    0.000    0.000    0.000    0.000    0.000 
#
# Total GULP energy -247852.751565 kJ/mol
# GULP energy per Si atom -12392.637578 kJ/mol
# Density = 2.143162 g / cm^3
# Si number density = 21.480506 Si / 1000 Ang^3
#
#
#
# Elastic Constant Matrix: (Units=GPa)
#
#
# Indices 1 2 3 4 5 6 
#
# 1 85.4423 38.0506 21.5887 0.0000 0.0000 0.0000
# 2 38.0506 65.0281 31.0979 0.0000 0.0000 0.0000
# 3 21.5887 31.0979 122.7837 0.0000 0.0000 0.0000
# 4 0.0000 0.0000 0.0000 44.7297 0.0000 0.0000
# 5 0.0000 0.0000 0.0000 0.0000 22.6197 0.0000
# 6 0.0000 0.0000 0.0000 0.0000 0.0000 18.3043
#
#
#
# Elastic Compliance Matrix: (Units=1/GPa)
#
#
# Indices 1 2 3 4 5 6 
#
# 1 0.015855 -0.009039 -0.000498 0.000000 0.000000 0.000000
# 2 -0.009039 0.022651 -0.004147 0.000000 0.000000 0.000000
# 3 -0.000498 -0.004147 0.009282 0.000000 0.000000 0.000000
# 4 0.000000 0.000000 0.000000 0.022357 0.000000 0.000000
# 5 0.000000 0.000000 0.000000 0.000000 0.044209 0.000000
# 6 0.000000 0.000000 0.000000 0.000000 0.000000 0.054632
#
#
# Mechanical properties :
#
#
# Convention : Reuss Voigt Hill
#
# Bulk Modulus (GPa) = 48.97593 50.52537 49.75065
# Shear Modulus (GPa) = 24.61088 29.29853 26.95470
#
# Velocity S-wave (km/s) = 3.38854 3.69719 3.54622
# Velocity P-wave (km/s) = 6.17732 6.46515 6.32287
#
# Compressibility (1/GPa) = 0.02041819
#
# Stress axis : x y z
#
# Youngs Moduli (GPa) = 63.07067 44.14892 107.72981
#
# Poissons Ratio (x) = 0.39907 0.05369
# Poissons Ratio (y) = 0.57011 0.44681
# Poissons Ratio (z) = 0.03143 0.18311
#
# Static dielectric constant tensor:
#      x y z
#    x 3.806000 0.000000 0.000000 
#    y 0.000000 3.551480 0.000000 
#    z 0.000000 0.000000 4.501380 
# 
# 
# High freq. dielectric constant tensor:
#      x y z
#    x 1.832900 0.000000 0.000000 
#    y 0.000000 1.794330 0.000000 
#    z 0.000000 0.000000 1.867810 
# 
# From -- ./inp_files/12674.got.cif
#   From: 2010.03.12/outbox.cif.g09.slc.cpg/sg20_7_cif.got.tgz:12674.got - 2010.04.14 01:38:04.
