data_PCOD8160356
_publ_section_title
;
Structure prediction by ZEFSAII (Michael W. Deem and Ramdas Pophale) SiO2 
 PCOD8160356
Probable space group: C 2 2 21
;
_chemical_formula_sum "Si O2"
_cell_formula_units_Z 60
_cell_length_a 16.638350
_cell_length_b 13.905510
_cell_length_c 12.763292
_cell_angle_alpha 90.000000
_cell_angle_beta 90.000000
_cell_angle_gamma 90.000000
_cell_volume 2952.975765
_symmetry_space_group_name_H-M "C 2 2 21"
_symmetry_group_IT_number 20
_symmetry_cell_setting 'orthorhombic'
loop_
_space_group_symop_operation_xyz
x,y,z
-x,-y,1/2+z
x,-y,-z
-x,y,1/2-z
1/2+x,1/2+y,z
1/2-x,1/2-y,1/2+z
1/2+x,1/2-y,-z
1/2-x,1/2+y,1/2-z
loop_
_atom_site_type_symbol
_atom_site_label
_atom_site_fract_x
_atom_site_fract_y
_atom_site_fract_z
Si Si1 0.844075 0.422117 0.115842
Si Si2 0.196038 0.891861 0.495770
Si Si3 0.388955 0.304882 0.534884
Si Si4 0.563806 0.759891 0.515013
Si Si5 0.693729 0.500000 0.000000
Si Si6 0.424220 0.099364 0.191864
Si Si7 0.797302 0.323099 0.312123
Si Si8 0.194472 0.298725 0.841189
O O1 0.752174 0.442597 0.080402
O O2 0.890525 0.523466 0.106465
O O3 0.847310 0.394294 0.238154
O O4 0.887540 0.336490 0.054774
O O5 0.120487 0.829420 0.462374
O O6 0.263485 0.886206 0.406681
O O7 0.231931 0.856371 0.606359
O O8 0.165007 0.000000 0.500000
O O9 0.483980 0.282836 0.538079
O O10 0.365882 0.418029 0.545656
O O11 0.353894 0.258744 0.640089
O O12 0.354206 0.259317 0.428893
O O13 0.545284 0.807734 0.627409
O O14 0.500000 0.052608 0.250000
O O15 0.359338 0.124714 0.279978
O O16 0.727182 0.275697 0.243757
#
# Coordination Sequence:
#
# PCOD8160356 Si02
#       8
#     8   8   8   8   4   8   8   8
#     4  12  24  43  71  97 127 176 235 272 330 406
#     4  11  24  42  66  97 131 173 223 272 326 403
#     4  11  26  40  66  99 137 168 220 278 340 388
#     4  12  24  44  63  97 142 171 210 287 344 389
#     4  12  22  46  70  98 128 186 234 274 314 424
#     4  12  24  40  68  95 128 173 225 277 342 398
#     4  11  22  43  70  91 131 176 218 277 330 392
#     4  11  21  44  65  93 125 173 221 272 324 397
#
# _framework density 20.318487000000001
#
# number of rings (size 3 to 8) (size 9 to 14) (size 15 to 20)
#    0.000    0.533    6.667    2.400    2.800    0.000 
#    0.000    0.000    0.000    3.200    0.000    0.000 
#    0.000    0.000    0.000    0.000    0.000    0.000 
#
# Total GULP energy -371991.307424 kJ/mol
# GULP energy per Si atom -12399.710247 kJ/mol
# Density = 2.027224 g / cm^3
# Si number density = 20.318487 Si / 1000 Ang^3
#
#
#
# Elastic Constant Matrix: (Units=GPa)
#
#
# Indices 1 2 3 4 5 6 
#
# 1 90.9326 45.5947 17.3294 0.0000 0.0000 0.0000
# 2 45.5947 127.2295 24.7603 0.0000 0.0000 0.0000
# 3 17.3294 24.7603 79.1696 0.0000 0.0000 0.0000
# 4 0.0000 0.0000 0.0000 28.8931 0.0000 0.0000
# 5 0.0000 0.0000 0.0000 0.0000 16.3263 0.0000
# 6 0.0000 0.0000 0.0000 0.0000 0.0000 36.6404
#
#
#
# Elastic Compliance Matrix: (Units=1/GPa)
#
#
# Indices 1 2 3 4 5 6 
#
# 1 0.013581 -0.004566 -0.001545 0.000000 0.000000 0.000000
# 2 -0.004566 0.009905 -0.002098 0.000000 0.000000 0.000000
# 3 -0.001545 -0.002098 0.013625 0.000000 0.000000 0.000000
# 4 0.000000 0.000000 0.000000 0.034610 0.000000 0.000000
# 5 0.000000 0.000000 0.000000 0.000000 0.061251 0.000000
# 6 0.000000 0.000000 0.000000 0.000000 0.000000 0.027292
#
#
# Mechanical properties :
#
#
# Convention : Reuss Voigt Hill
#
# Bulk Modulus (GPa) = 48.32596 52.52230 50.42413
# Shear Modulus (GPa) = 27.23601 30.34844 28.79222
#
# Velocity S-wave (km/s) = 3.66519 3.86895 3.76845
# Velocity P-wave (km/s) = 6.46122 6.77230 6.61859
#
# Compressibility (1/GPa) = 0.02069281
#
# Stress axis : x y z
#
# Youngs Moduli (GPa) = 73.63121 100.96338 73.39236
#
# Poissons Ratio (x) = 0.46104 0.11336
# Poissons Ratio (y) = 0.33623 0.15399
# Poissons Ratio (z) = 0.11373 0.21183
#
# Static dielectric constant tensor:
#      x y z
#    x 3.632610 0.000000 0.000000 
#    y 0.000000 3.725130 0.000000 
#    z 0.000000 0.000000 3.831570 
# 
# 
# High freq. dielectric constant tensor:
#      x y z
#    x 1.785820 0.000000 0.000000 
#    y 0.000000 1.800780 0.000000 
#    z 0.000000 0.000000 1.802210 
# 
# From -- ./inp_files/15878.got.cif
#   From: 2010.03.12/outbox.cif.g09.slc.cpg/sg20_8_cif.got.tgz:15878.got - 2010.04.14 01:38:04.
