data_PCOD8160788
_publ_section_title
;
Structure prediction by ZEFSAII (Michael W. Deem and Ramdas Pophale) SiO2 
 PCOD8160788
Probable space group: C 2 2 2
;
_chemical_formula_sum "Si O2"
_cell_formula_units_Z 34
_cell_length_a 17.586789
_cell_length_b 11.640885
_cell_length_c 9.066382
_cell_angle_alpha 90.000000
_cell_angle_beta 90.000000
_cell_angle_gamma 90.000000
_cell_volume 1856.122202
_symmetry_space_group_name_H-M "C 2 2 2"
_symmetry_group_IT_number 21
_symmetry_cell_setting 'orthorhombic'
loop_
_space_group_symop_operation_xyz
x,y,z
-x,-y,z
x,-y,-z
-x,y,-z
1/2+x,1/2+y,z
1/2-x,1/2-y,z
1/2+x,1/2-y,-z
1/2-x,1/2+y,-z
loop_
_atom_site_type_symbol
_atom_site_label
_atom_site_fract_x
_atom_site_fract_y
_atom_site_fract_z
Si Si1 0.500000 0.500000 0.000000
Si Si2 0.000000 0.500000 0.500000
Si Si3 0.750000 0.250000 0.094678
Si Si4 0.130522 0.149606 0.136255
Si Si5 0.500000 0.000000 0.000000
Si Si6 0.907323 0.382567 0.746428
Si Si7 0.235731 0.508790 0.172671
O O1 0.553687 0.414970 0.908272
O O2 0.952659 0.413528 0.600531
O O3 0.765836 0.355220 0.206358
O O4 0.823188 0.214833 0.994912
O O5 0.107006 0.245979 0.254278
O O6 0.184215 0.052462 0.209109
O O7 0.550481 0.917780 0.102614
O O8 0.827860 0.448252 0.730832
O O9 0.216781 0.500000 0.000000
#
# Coordination Sequence:
#
# PCOD8160788 Si02
#       7
#     2   2   4   8   2   8   8
#     4  12  22  30  52 112 136 148 192 270 342 370
#     4  10  28  38  56  88 124 168 232 254 318 354
#     4  10  16  32  54  98 126 152 194 256 308 410
#     4  11  19  32  56  87 131 158 194 253 328 370
#     4  10  18  28  56  88 104 150 196 250 338 340
#     4  11  19  38  57  84 119 164 204 268 300 378
#     4  10  17  31  59  89 116 154 202 247 314 384
#
# _framework density 18.317758000000001
#
# number of rings (size 3 to 8) (size 9 to 14) (size 15 to 20)
#    0.000    1.412    9.412    0.706    0.000    1.882 
#    0.000    0.000    5.176    0.706    0.000    0.000 
#    0.000    0.000    0.000    0.000    0.000    0.000 
#
# Total GULP energy -210693.814057 kJ/mol
# GULP energy per Si atom -12393.753768 kJ/mol
# Density = 1.827607 g / cm^3
# Si number density = 18.317758 Si / 1000 Ang^3
#
#
#
# Elastic Constant Matrix: (Units=GPa)
#
#
# Indices 1 2 3 4 5 6 
#
# 1 145.7125 74.5531 39.7341 0.0000 0.0000 0.0000
# 2 74.5531 192.0873 38.8466 0.0000 0.0000 0.0000
# 3 39.7341 38.8466 63.2254 0.0000 0.0000 0.0000
# 4 0.0000 0.0000 0.0000 8.7434 0.0000 0.0000
# 5 0.0000 0.0000 0.0000 0.0000 4.2446 0.0000
# 6 0.0000 0.0000 0.0000 0.0000 0.0000 41.9230
#
#
#
# Elastic Compliance Matrix: (Units=1/GPa)
#
#
# Indices 1 2 3 4 5 6 
#
# 1 0.009452 -0.002817 -0.004209 0.000000 0.000000 0.000000
# 2 -0.002817 0.006784 -0.002398 0.000000 0.000000 0.000000
# 3 -0.004209 -0.002398 0.019935 0.000000 0.000000 0.000000
# 4 0.000000 0.000000 0.000000 0.114372 0.000000 0.000000
# 5 0.000000 0.000000 0.000000 0.000000 0.235595 0.000000
# 6 0.000000 0.000000 0.000000 0.000000 0.000000 0.023853
#
#
# Mechanical properties :
#
#
# Convention : Reuss Voigt Hill
#
# Bulk Modulus (GPa) = 57.72768 78.58808 68.15788
# Shear Modulus (GPa) = 11.50443 27.50828 19.50635
#
# Velocity S-wave (km/s) = 2.50881 3.87942 3.26680
# Velocity P-wave (km/s) = 6.32259 7.94118 7.17766
#
# Compressibility (1/GPa) = 0.01732271
#
# Stress axis : x y z
#
# Youngs Moduli (GPa) = 105.79673 147.39797 50.16310
#
# Poissons Ratio (x) = 0.41527 0.21115
# Poissons Ratio (y) = 0.29806 0.12028
# Poissons Ratio (z) = 0.44532 0.35344
#
# Static dielectric constant tensor:
#      x y z
#    x 3.584040 0.000000 0.000000 
#    y 0.000000 4.102720 0.000000 
#    z 0.000000 0.000000 2.798180 
# 
# 
# High freq. dielectric constant tensor:
#      x y z
#    x 1.727290 0.000000 0.000000 
#    y 0.000000 1.735480 0.000000 
#    z 0.000000 0.000000 1.635530 
# 
# From -- ./inp_files/12689.got.cif
#   From: 2010.03.12/outbox.cif.g09.slc.cpg/sg21_7_cif.got.tgz:12689.got - 2010.04.14 01:59:26.
