data_PCOD8160703
_publ_section_title
;
Structure prediction by ZEFSAII (Michael W. Deem and Ramdas Pophale) SiO2 
 PCOD8160703
Probable space group: C 2 2 21
;
_chemical_formula_sum "Si O2"
_cell_formula_units_Z 28
_cell_length_a 19.059411
_cell_length_b 11.348631
_cell_length_c 5.167161
_cell_angle_alpha 90.000000
_cell_angle_beta 90.000000
_cell_angle_gamma 90.000000
_cell_volume 1117.647740
_symmetry_space_group_name_H-M "C 2 2 21"
_symmetry_group_IT_number 20
_symmetry_cell_setting 'orthorhombic'
loop_
_space_group_symop_operation_xyz
x,y,z
-x,-y,1/2+z
x,-y,-z
-x,y,1/2-z
1/2+x,1/2+y,z
1/2-x,1/2-y,1/2+z
1/2+x,1/2-y,-z
1/2-x,1/2+y,1/2-z
loop_
_atom_site_type_symbol
_atom_site_label
_atom_site_fract_x
_atom_site_fract_y
_atom_site_fract_z
Si Si1 0.073090 0.368604 0.590268
Si Si2 0.840993 0.000000 0.000000
Si Si3 0.933261 0.000000 0.500000
Si Si4 0.000000 0.201682 0.250000
Si Si5 0.210729 0.763113 0.305934
O O1 0.092144 0.500000 0.500000
O O2 0.063685 0.286203 0.338040
O O3 0.139254 0.312087 0.742389
O O4 0.000000 0.368876 0.750000
O O5 0.794848 0.115515 0.967801
O O6 0.888877 0.010008 0.246828
O O7 0.980250 0.881208 0.503719
O O8 0.239498 0.800320 0.020953
#
# Coordination Sequence:
#
# PCOD8160703 Si02
#       5
#     8   4   4   4   8
#     4  12  28  50  82 119 164 213 274 338 412 492
#     4  12  25  50  74 108 154 201 272 322 402 473
#     4  12  25  44  78 114 152 201 258 342 388 481
#     4  12  26  46  74 120 154 204 260 334 412 468
#     4  12  30  51  78 113 160 216 270 332 408 489
#
# _framework density 25.052614999999999
#
# number of rings (size 3 to 8) (size 9 to 14) (size 15 to 20)
#    0.000    0.000    4.286    4.286   10.000    0.000 
#    0.000    0.000    0.000    0.000    0.000    0.000 
#    0.000    0.000    0.000    0.000    0.000    0.000 
#
# Total GULP energy -173491.855433 kJ/mol
# GULP energy per Si atom -12392.275388 kJ/mol
# Density = 2.499559 g / cm^3
# Si number density = 25.052615 Si / 1000 Ang^3
#
#
#
# Elastic Constant Matrix: (Units=GPa)
#
#
# Indices 1 2 3 4 5 6 
#
# 1 110.1104 13.9099 27.9188 0.0000 0.0000 0.0000
# 2 13.9099 141.7259 -3.8378 0.0000 0.0000 0.0000
# 3 27.9188 -3.8378 97.0023 0.0000 0.0000 0.0000
# 4 0.0000 0.0000 0.0000 34.2400 0.0000 0.0000
# 5 0.0000 0.0000 0.0000 0.0000 63.5084 0.0000
# 6 0.0000 0.0000 0.0000 0.0000 0.0000 55.0497
#
#
#
# Elastic Compliance Matrix: (Units=1/GPa)
#
#
# Indices 1 2 3 4 5 6 
#
# 1 0.009952 -0.001055 -0.002906 0.000000 0.000000 0.000000
# 2 -0.001055 0.007175 0.000588 0.000000 0.000000 0.000000
# 3 -0.002906 0.000588 0.011169 0.000000 0.000000 0.000000
# 4 0.000000 0.000000 0.000000 0.029206 0.000000 0.000000
# 5 0.000000 0.000000 0.000000 0.000000 0.015746 0.000000
# 6 0.000000 0.000000 0.000000 0.000000 0.000000 0.018165
#
#
# Mechanical properties :
#
#
# Convention : Reuss Voigt Hill
#
# Bulk Modulus (GPa) = 46.40739 47.20227 46.80483
# Shear Modulus (GPa) = 47.46375 51.28280 49.37328
#
# Velocity S-wave (km/s) = 4.35738 4.52929 4.44417
# Velocity P-wave (km/s) = 6.62419 6.79962 6.71248
#
# Compressibility (1/GPa) = 0.02154829
#
# Stress axis : x y z
#
# Youngs Moduli (GPa) = 100.48258 139.36551 89.53592
#
# Poissons Ratio (x) = 0.14709 0.26020
# Poissons Ratio (y) = 0.10605 -0.05262
# Poissons Ratio (z) = 0.29201 -0.08190
#
# Static dielectric constant tensor:
#      x y z
#    x 4.875680 0.000000 0.000000 
#    y 0.000000 5.529030 0.000000 
#    z 0.000000 0.000000 4.319820 
# 
# 
# High freq. dielectric constant tensor:
#      x y z
#    x 1.994900 0.000000 0.000000 
#    y 0.000000 2.017820 0.000000 
#    z 0.000000 0.000000 2.006710 
# 
# From -- ./inp_files/2965.got.cif
#   From: 2010.03.12/outbox.cif.g09.slc.cpg/sg20_2_cif.got.tgz:2965.got - 2010.04.14 01:38:04.
