data_PCOD8160399
_publ_section_title
;
Structure prediction by ZEFSAII (Michael W. Deem and Ramdas Pophale) SiO2 
 PCOD8160399
Probable space group: C 2 2 21
;
_chemical_formula_sum "Si O2"
_cell_formula_units_Z 60
_cell_length_a 18.633764
_cell_length_b 5.184626
_cell_length_c 28.908753
_cell_angle_alpha 90.000000
_cell_angle_beta 90.000000
_cell_angle_gamma 90.000000
_cell_volume 2792.848532
_symmetry_space_group_name_H-M "C 2 2 21"
_symmetry_group_IT_number 20
_symmetry_cell_setting 'orthorhombic'
loop_
_space_group_symop_operation_xyz
x,y,z
-x,-y,1/2+z
x,-y,-z
-x,y,1/2-z
1/2+x,1/2+y,z
1/2-x,1/2-y,1/2+z
1/2+x,1/2-y,-z
1/2-x,1/2+y,1/2-z
loop_
_atom_site_type_symbol
_atom_site_label
_atom_site_fract_x
_atom_site_fract_y
_atom_site_fract_z
Si Si1 0.559823 0.321057 0.711464
Si Si2 0.781016 0.193828 0.228016
Si Si3 0.437722 0.745983 0.468778
Si Si4 0.280903 0.157835 0.546799
Si Si5 0.415373 0.197338 0.155413
Si Si6 0.170226 0.500000 0.500000
Si Si7 0.799915 0.035327 0.131224
Si Si8 0.077554 0.668563 0.579393
O O1 0.500000 0.309300 0.750000
O O2 0.635735 0.379828 0.736161
O O3 0.541523 0.553346 0.675265
O O4 0.565735 0.044257 0.687352
O O5 0.766677 0.478534 0.247043
O O6 0.764001 0.197538 0.172641
O O7 0.446013 0.500000 0.500000
O O8 0.359950 0.731079 0.443680
O O9 0.497737 0.723795 0.428982
O O10 0.447942 0.000000 0.500000
O O11 0.219949 0.371062 0.539192
O O12 0.258239 0.986709 0.590656
O O13 0.284325 0.000000 0.500000
O O14 0.329105 0.264369 0.153094
O O15 0.434168 0.116583 0.102076
O O16 0.118387 0.681281 0.529935
O O17 0.875186 0.163717 0.114846
#
# Coordination Sequence:
#
# PCOD8160399 Si02
#       8
#     8   8   8   8   8   4   8   8
#     4  11  24  46  72  97 133 178 220 275 351 415
#     4  11  24  45  70  99 135 174 223 292 350 403
#     4  11  27  44  62  95 142 187 223 283 338 395
#     4  11  23  43  64 100 144 180 225 281 344 401
#     4  11  22  41  69 101 134 167 226 290 325 397
#     4  12  22  36  72 102 132 196 230 276 322 424
#     4  11  24  42  73 101 133 182 238 283 337 423
#     4  12  24  41  71 101 139 180 243 274 337 404
#
# _framework density 21.483443000000001
#
# number of rings (size 3 to 8) (size 9 to 14) (size 15 to 20)
#    0.000    0.800    6.667    2.000    3.733    0.000 
#    4.800    0.000    0.000    0.000    0.000    0.000 
#    0.000    0.000    0.000    0.000    0.000    0.000 
#
# Total GULP energy -371759.584281 kJ/mol
# GULP energy per Si atom -12391.986143 kJ/mol
# Density = 2.143455 g / cm^3
# Si number density = 21.483443 Si / 1000 Ang^3
#
#
#
# Elastic Constant Matrix: (Units=GPa)
#
#
# Indices 1 2 3 4 5 6 
#
# 1 99.7665 21.4204 49.2031 0.0000 0.0000 0.0000
# 2 21.4204 108.1640 33.5339 0.0000 0.0000 0.0000
# 3 49.2031 33.5339 117.7455 0.0000 0.0000 0.0000
# 4 0.0000 0.0000 0.0000 43.5517 0.0000 0.0000
# 5 0.0000 0.0000 0.0000 0.0000 27.2980 0.0000
# 6 0.0000 0.0000 0.0000 0.0000 0.0000 31.5649
#
#
#
# Elastic Compliance Matrix: (Units=1/GPa)
#
#
# Indices 1 2 3 4 5 6 
#
# 1 0.012715 -0.000955 -0.005041 0.000000 0.000000 0.000000
# 2 -0.000955 0.010212 -0.002509 0.000000 0.000000 0.000000
# 3 -0.005041 -0.002509 0.011314 0.000000 0.000000 0.000000
# 4 0.000000 0.000000 0.000000 0.022961 0.000000 0.000000
# 5 0.000000 0.000000 0.000000 0.000000 0.036633 0.000000
# 6 0.000000 0.000000 0.000000 0.000000 0.000000 0.031681
#
#
# Mechanical properties :
#
#
# Convention : Reuss Voigt Hill
#
# Bulk Modulus (GPa) = 58.03843 59.33229 58.68536
# Shear Modulus (GPa) = 33.72216 35.25081 34.48648
#
# Velocity S-wave (km/s) = 3.96622 4.05512 4.01091
# Velocity P-wave (km/s) = 6.93171 7.04294 6.98754
#
# Compressibility (1/GPa) = 0.01722996
#
# Stress axis : x y z
#
# Youngs Moduli (GPa) = 78.64923 97.92078 88.38488
#
# Poissons Ratio (x) = 0.09352 0.44556
# Poissons Ratio (y) = 0.07512 0.22179
# Poissons Ratio (z) = 0.39648 0.24572
#
# Static dielectric constant tensor:
#      x y z
#    x 4.100900 0.000000 0.000000 
#    y 0.000000 4.022810 0.000000 
#    z 0.000000 0.000000 3.943330 
# 
# 
# High freq. dielectric constant tensor:
#      x y z
#    x 1.829160 0.000000 0.000000 
#    y 0.000000 1.849250 0.000000 
#    z 0.000000 0.000000 1.846410 
# 
# From -- ./inp_files/30511.got.cif
#   From: 2010.03.12/outbox.cif.g09.slc.cpg/sg20_16_cif.got.tgz:30511.got - 2010.04.14 01:38:04.
