data_PCOD8160195
_publ_section_title
;
Structure prediction by ZEFSAII (Michael W. Deem and Ramdas Pophale) SiO2 
 PCOD8160195
Probable space group: C 2 2 21
;
_chemical_formula_sum "Si O2"
_cell_formula_units_Z 48
_cell_length_a 17.429522
_cell_length_b 8.358979
_cell_length_c 13.703363
_cell_angle_alpha 90.000000
_cell_angle_beta 90.000000
_cell_angle_gamma 90.000000
_cell_volume 1996.484180
_symmetry_space_group_name_H-M "C 2 2 21"
_symmetry_group_IT_number 20
_symmetry_cell_setting 'orthorhombic'
loop_
_space_group_symop_operation_xyz
x,y,z
-x,-y,1/2+z
x,-y,-z
-x,y,1/2-z
1/2+x,1/2+y,z
1/2-x,1/2-y,1/2+z
1/2+x,1/2-y,-z
1/2-x,1/2+y,1/2-z
loop_
_atom_site_type_symbol
_atom_site_label
_atom_site_fract_x
_atom_site_fract_y
_atom_site_fract_z
Si Si1 0.308825 0.112061 0.157127
Si Si2 0.759135 0.825448 0.976429
Si Si3 0.392198 0.789059 0.126627
Si Si4 0.362711 0.380345 0.687137
Si Si5 0.625084 0.729353 0.839813
Si Si6 0.463200 0.684326 0.484256
O O1 0.226944 0.087318 0.208384
O O2 0.367136 0.162686 0.243936
O O3 0.348218 0.957128 0.109853
O O4 0.289101 0.239978 0.074411
O O5 0.837134 0.850077 0.915016
O O6 0.701138 0.724002 0.908251
O O7 0.723581 0.000000 0.000000
O O8 0.402256 0.746795 0.240313
O O9 0.472585 0.787498 0.070519
O O10 0.399194 0.554786 0.698915
O O11 0.383603 0.313508 0.579131
O O12 0.555150 0.776091 0.913503
O O13 0.489359 0.500000 0.500000
#
# Coordination Sequence:
#
# PCOD8160195 Si02
#       6
#     8   8   8   8   8   8
#     4  12  24  43  73 113 145 193 254 319 367 445
#     4  12  25  42  71 103 147 196 254 312 370 449
#     4  12  25  44  72 110 152 193 250 318 379 446
#     4  11  21  43  75 107 146 194 250 303 381 451
#     4  11  24  44  75 106 146 198 254 305 376 458
#     4  10  24  46  74 105 152 204 244 305 382 459
#
# _framework density 24.042262999999998
#
# number of rings (size 3 to 8) (size 9 to 14) (size 15 to 20)
#    0.000    0.667    5.000    2.500    2.333    0.000 
#    0.000   10.833    0.000    0.000    0.000    0.000 
#    0.000    0.000    0.000    0.000    0.000    0.000 
#
# Total GULP energy -297397.818420 kJ/mol
# GULP energy per Si atom -12391.575768 kJ/mol
# Density = 2.398754 g / cm^3
# Si number density = 24.042263 Si / 1000 Ang^3
#
#
#
# Elastic Constant Matrix: (Units=GPa)
#
#
# Indices 1 2 3 4 5 6 
#
# 1 91.4855 29.7829 28.4373 0.0000 0.0000 0.0000
# 2 29.7829 95.0302 45.2268 0.0000 0.0000 0.0000
# 3 28.4373 45.2268 114.3229 0.0000 0.0000 0.0000
# 4 0.0000 0.0000 0.0000 38.8553 0.0000 0.0000
# 5 0.0000 0.0000 0.0000 0.0000 49.6284 0.0000
# 6 0.0000 0.0000 0.0000 0.0000 0.0000 23.5296
#
#
#
# Elastic Compliance Matrix: (Units=1/GPa)
#
#
# Indices 1 2 3 4 5 6 
#
# 1 0.012506 -0.003005 -0.001922 0.000000 0.000000 0.000000
# 2 -0.003005 0.013686 -0.004667 0.000000 0.000000 0.000000
# 3 -0.001922 -0.004667 0.011071 0.000000 0.000000 0.000000
# 4 0.000000 0.000000 0.000000 0.025737 0.000000 0.000000
# 5 0.000000 0.000000 0.000000 0.000000 0.020150 0.000000
# 6 0.000000 0.000000 0.000000 0.000000 0.000000 0.042500
#
#
# Mechanical properties :
#
#
# Convention : Reuss Voigt Hill
#
# Bulk Modulus (GPa) = 55.32143 56.41476 55.86810
# Shear Modulus (GPa) = 33.14282 35.56209 34.35245
#
# Velocity S-wave (km/s) = 3.71688 3.85014 3.78410
# Velocity P-wave (km/s) = 6.44052 6.57880 6.51002
#
# Compressibility (1/GPa) = 0.01807618
#
# Stress axis : x y z
#
# Youngs Moduli (GPa) = 79.95920 73.06922 90.32221
#
# Poissons Ratio (x) = 0.21955 0.17362
# Poissons Ratio (y) = 0.24026 0.42151
# Poissons Ratio (z) = 0.15370 0.34099
#
# Static dielectric constant tensor:
#      x y z
#    x 4.167410 0.000000 0.000000 
#    y 0.000000 3.945250 0.000000 
#    z 0.000000 0.000000 4.481730 
# 
# 
# High freq. dielectric constant tensor:
#      x y z
#    x 1.939690 0.000000 0.000000 
#    y 0.000000 1.930260 0.000000 
#    z 0.000000 0.000000 1.974360 
# 
# From -- ./inp_files/21300.got.cif
#   From: 2010.03.12/outbox.cif.g09.slc.cpg/sg20_11_cif.got.tgz:21300.got - 2010.04.14 01:38:04.
