data_PCOD8160540
_publ_section_title
;
Structure prediction by ZEFSAII (Michael W. Deem and Ramdas Pophale) SiO2 
 PCOD8160540
Probable space group: C 2 2 21
;
_chemical_formula_sum "Si O2"
_cell_formula_units_Z 48
_cell_length_a 9.149394
_cell_length_b 9.709844
_cell_length_c 25.614467
_cell_angle_alpha 90.000000
_cell_angle_beta 90.000000
_cell_angle_gamma 90.000000
_cell_volume 2275.568460
_symmetry_space_group_name_H-M "C 2 2 21"
_symmetry_group_IT_number 20
_symmetry_cell_setting 'orthorhombic'
loop_
_space_group_symop_operation_xyz
x,y,z
-x,-y,1/2+z
x,-y,-z
-x,y,1/2-z
1/2+x,1/2+y,z
1/2-x,1/2-y,1/2+z
1/2+x,1/2-y,-z
1/2-x,1/2+y,1/2-z
loop_
_atom_site_type_symbol
_atom_site_label
_atom_site_fract_x
_atom_site_fract_y
_atom_site_fract_z
Si Si1 0.662588 0.125560 0.270165
Si Si2 0.185104 0.516609 0.383947
Si Si3 0.313581 0.269530 0.042492
Si Si4 0.479028 0.788872 0.059279
Si Si5 0.363384 0.429646 0.212564
Si Si6 0.485653 0.487791 0.100111
O O1 0.500000 0.132413 0.250000
O O2 0.676603 0.034712 0.322023
O O3 0.717005 0.282220 0.279728
O O4 0.755007 0.054765 0.224598
O O5 0.158167 0.662728 0.411029
O O6 0.058514 0.412035 0.401242
O O7 0.342366 0.453532 0.399206
O O8 0.410680 0.405029 0.052842
O O9 0.143313 0.308950 0.038182
O O10 0.365543 0.202899 0.988411
O O11 0.460794 0.648814 0.091352
O O12 0.500000 0.446224 0.250000
O O13 0.410778 0.441097 0.153124
#
# Coordination Sequence:
#
# PCOD8160540 Si02
#       6
#     8   8   8   8   8   8
#     4  11  26  41  66  98 129 168 218 262 323 386
#     4  11  24  44  65  96 132 170 212 272 322 383
#     4  11  24  46  64  97 131 169 222 269 325 389
#     4  11  26  41  69  96 127 174 215 271 327 386
#     4  11  24  45  66  95 132 172 210 269 322 386
#     4  11  24  42  68  94 131 168 217 263 327 385
#
# _framework density 21.093630999999998
#
# number of rings (size 3 to 8) (size 9 to 14) (size 15 to 20)
#    0.000    1.000    3.333    2.000    4.667    7.333 
#    0.000    0.000    0.000    0.000    0.000    0.000 
#    0.000    0.000    0.000    0.000    0.000    0.000 
#
# Total GULP energy -297779.885436 kJ/mol
# GULP energy per Si atom -12407.495227 kJ/mol
# Density = 2.104562 g / cm^3
# Si number density = 21.093631 Si / 1000 Ang^3
#
#
#
# Elastic Constant Matrix: (Units=GPa)
#
#
# Indices 1 2 3 4 5 6 
#
# 1 97.3863 51.4736 10.6125 0.0000 0.0000 0.0000
# 2 51.4736 86.9532 9.6051 0.0000 0.0000 0.0000
# 3 10.6125 9.6051 57.9750 0.0000 0.0000 0.0000
# 4 0.0000 0.0000 0.0000 23.2848 0.0000 0.0000
# 5 0.0000 0.0000 0.0000 0.0000 38.5390 0.0000
# 6 0.0000 0.0000 0.0000 0.0000 0.0000 45.0154
#
#
#
# Elastic Compliance Matrix: (Units=1/GPa)
#
#
# Indices 1 2 3 4 5 6 
#
# 1 0.015040 -0.008759 -0.001302 0.000000 0.000000 0.000000
# 2 -0.008759 0.016816 -0.001183 0.000000 0.000000 0.000000
# 3 -0.001302 -0.001183 0.017683 0.000000 0.000000 0.000000
# 4 0.000000 0.000000 0.000000 0.042946 0.000000 0.000000
# 5 0.000000 0.000000 0.000000 0.000000 0.025948 0.000000
# 6 0.000000 0.000000 0.000000 0.000000 0.000000 0.022215
#
#
# Mechanical properties :
#
#
# Convention : Reuss Voigt Hill
#
# Bulk Modulus (GPa) = 36.96641 42.85519 39.91080
# Shear Modulus (GPa) = 29.04387 32.74274 30.89330
#
# Velocity S-wave (km/s) = 3.71469 3.94414 3.83113
# Velocity P-wave (km/s) = 5.99679 6.41112 6.20741
#
# Compressibility (1/GPa) = 0.02705158
#
# Stress axis : x y z
#
# Youngs Moduli (GPa) = 66.48916 59.46585 56.55130
#
# Poissons Ratio (x) = 0.52089 0.07362
# Poissons Ratio (y) = 0.58241 0.06688
# Poissons Ratio (z) = 0.08656 0.07033
#
# Static dielectric constant tensor:
#      x y z
#    x 3.967310 0.000000 0.000000 
#    y 0.000000 3.944960 0.000000 
#    z 0.000000 0.000000 3.403960 
# 
# 
# High freq. dielectric constant tensor:
#      x y z
#    x 1.828000 0.000000 0.000000 
#    y 0.000000 1.835630 0.000000 
#    z 0.000000 0.000000 1.836490 
# 
# From -- ./inp_files/30957.got.cif
#   From: 2010.03.12/outbox.cif.g09.slc.cpg/sg20_16_cif.got.tgz:30957.got - 2010.04.14 01:38:04.
