data_PCOD8160487
_publ_section_title
;
Structure prediction by ZEFSAII (Michael W. Deem and Ramdas Pophale) SiO2 
 PCOD8160487
Probable space group: C 2 2 21
;
_chemical_formula_sum "Si O2"
_cell_formula_units_Z 36
_cell_length_a 25.381779
_cell_length_b 4.960701
_cell_length_c 12.463125
_cell_angle_alpha 90.000000
_cell_angle_beta 90.000000
_cell_angle_gamma 90.000000
_cell_volume 1569.249722
_symmetry_space_group_name_H-M "C 2 2 21"
_symmetry_group_IT_number 20
_symmetry_cell_setting 'orthorhombic'
loop_
_space_group_symop_operation_xyz
x,y,z
-x,-y,1/2+z
x,-y,-z
-x,y,1/2-z
1/2+x,1/2+y,z
1/2-x,1/2-y,1/2+z
1/2+x,1/2-y,-z
1/2-x,1/2+y,1/2-z
loop_
_atom_site_type_symbol
_atom_site_label
_atom_site_fract_x
_atom_site_fract_y
_atom_site_fract_z
Si Si1 0.122735 0.978016 0.696665
Si Si2 0.737309 0.683184 0.681648
Si Si3 0.949977 0.000000 0.000000
Si Si4 0.478362 0.000000 0.500000
Si Si5 0.609405 0.964185 0.835623
Si Si6 0.805869 0.500000 0.500000
O O1 0.178458 0.088223 0.654887
O O2 0.086179 0.900408 0.597426
O O3 0.093232 0.213292 0.762247
O O4 0.132211 0.714601 0.768569
O O5 0.764728 0.476252 0.764689
O O6 0.769004 0.702149 0.568806
O O7 0.986233 0.751585 0.033112
O O8 0.441931 0.929779 0.398049
O O9 0.655276 0.849862 0.915599
#
# Coordination Sequence:
#
# PCOD8160487 Si02
#       6
#     8   8   4   4   8   4
#     4  12  24  46  66 104 133 185 218 285 330 407
#     4  12  24  42  67 102 136 177 222 266 333 396
#     4  12  27  44  71  94 147 166 229 282 352 392
#     4  11  26  46  67 108 121 188 220 287 346 398
#     4  11  25  43  73  95 138 171 241 272 331 401
#     4  11  23  44  68  96 138 178 215 285 308 410
#
# _framework density 22.940899000000002
#
# number of rings (size 3 to 8) (size 9 to 14) (size 15 to 20)
#    0.000    0.444    4.444    3.333    0.000   10.667 
#    0.000    4.444    0.000    0.000    0.000    0.000 
#    0.000    0.000    0.000    0.000    0.000    0.000 
#
# Total GULP energy -223261.483115 kJ/mol
# GULP energy per Si atom -12403.415729 kJ/mol
# Density = 2.288868 g / cm^3
# Si number density = 22.940899 Si / 1000 Ang^3
#
#
#
# Elastic Constant Matrix: (Units=GPa)
#
#
# Indices 1 2 3 4 5 6 
#
# 1 124.9892 12.2877 46.0600 0.0000 0.0000 0.0000
# 2 12.2877 96.7941 23.2248 0.0000 0.0000 0.0000
# 3 46.0600 23.2248 111.9277 0.0000 0.0000 0.0000
# 4 0.0000 0.0000 0.0000 26.4321 0.0000 0.0000
# 5 0.0000 0.0000 0.0000 0.0000 35.1043 0.0000
# 6 0.0000 0.0000 0.0000 0.0000 0.0000 37.5525
#
#
#
# Elastic Compliance Matrix: (Units=1/GPa)
#
#
# Indices 1 2 3 4 5 6 
#
# 1 0.009438 -0.000280 -0.003826 0.000000 0.000000 0.000000
# 2 -0.000280 0.010881 -0.002142 0.000000 0.000000 0.000000
# 3 -0.003826 -0.002142 0.010953 0.000000 0.000000 0.000000
# 4 0.000000 0.000000 0.000000 0.037833 0.000000 0.000000
# 5 0.000000 0.000000 0.000000 0.000000 0.028487 0.000000
# 6 0.000000 0.000000 0.000000 0.000000 0.000000 0.026629
#
#
# Mechanical properties :
#
#
# Convention : Reuss Voigt Hill
#
# Bulk Modulus (GPa) = 53.26131 55.20622 54.23376
# Shear Modulus (GPa) = 34.97085 36.62700 35.79892
#
# Velocity S-wave (km/s) = 3.90858 4.00006 3.95458
# Velocity P-wave (km/s) = 6.60579 6.74172 6.67410
#
# Compressibility (1/GPa) = 0.01877536
#
# Stress axis : x y z
#
# Youngs Moduli (GPa) = 105.95368 91.90465 91.29689
#
# Poissons Ratio (x) = 0.02575 0.34928
# Poissons Ratio (y) = 0.02969 0.19560
# Poissons Ratio (z) = 0.40536 0.19690
#
# Static dielectric constant tensor:
#      x y z
#    x 4.247980 0.000000 0.000000 
#    y 0.000000 3.784110 0.000000 
#    z 0.000000 0.000000 4.212690 
# 
# 
# High freq. dielectric constant tensor:
#      x y z
#    x 1.923770 0.000000 0.000000 
#    y 0.000000 1.890280 0.000000 
#    z 0.000000 0.000000 1.908310 
# 
# From -- ./inp_files/12086.got.cif
#   From: 2010.03.12/outbox.cif.g09.slc.cpg/sg20_7_cif.got.tgz:12086.got - 2010.04.14 01:38:04.
