data_PCOD8160153
_publ_section_title
;
Structure prediction by ZEFSAII (Michael W. Deem and Ramdas Pophale) SiO2 
 PCOD8160153
Probable space group: C 2 2 21
;
_chemical_formula_sum "Si O2"
_cell_formula_units_Z 40
_cell_length_a 13.488209
_cell_length_b 11.483838
_cell_length_c 12.310326
_cell_angle_alpha 90.000000
_cell_angle_beta 90.000000
_cell_angle_gamma 90.000000
_cell_volume 1906.825267
_symmetry_space_group_name_H-M "C 2 2 21"
_symmetry_group_IT_number 20
_symmetry_cell_setting 'orthorhombic'
loop_
_space_group_symop_operation_xyz
x,y,z
-x,-y,1/2+z
x,-y,-z
-x,y,1/2-z
1/2+x,1/2+y,z
1/2-x,1/2-y,1/2+z
1/2+x,1/2-y,-z
1/2-x,1/2+y,1/2-z
loop_
_atom_site_type_symbol
_atom_site_label
_atom_site_fract_x
_atom_site_fract_y
_atom_site_fract_z
Si Si1 0.935802 0.758459 0.348931
Si Si2 0.088175 0.739800 0.536945
Si Si3 0.838001 0.003074 0.301478
Si Si4 0.739781 0.909890 0.912291
Si Si5 0.000000 0.819066 0.750000
Si Si6 0.808127 0.500000 0.000000
O O1 0.849878 0.667670 0.371708
O O2 0.000000 0.706778 0.250000
O O3 0.002470 0.780536 0.454922
O O4 0.888011 0.877990 0.308907
O O5 0.178081 0.830643 0.528499
O O6 0.121551 0.610528 0.509729
O O7 0.049899 0.736759 0.660710
O O8 0.785345 0.015883 0.185732
O O9 0.759011 0.020143 0.395601
O O10 0.921210 0.101613 0.314078
O O11 0.697298 0.000000 0.000000
#
# Coordination Sequence:
#
# PCOD8160153 Si02
#       6
#     8   8   8   8   4   4
#     4  12  24  46  70 103 139 182 229 284 346 410
#     4  11  26  44  71 102 140 182 228 282 344 408
#     4  11  23  44  73  97 136 181 231 284 334 409
#     4  11  26  46  70 102 140 180 231 286 341 410
#     4  10  24  44  70 100 130 180 238 278 330 410
#     4  12  24  46  66 100 144 178 220 286 350 402
#
# _framework density 20.977274000000001
#
# number of rings (size 3 to 8) (size 9 to 14) (size 15 to 20)
#    0.000    0.800    3.000    3.600    4.200    1.600 
#    1.800    0.000    0.000    0.000    0.000    0.000 
#    0.000    0.000    0.000    0.000    0.000    0.000 
#
# Total GULP energy -248137.908978 kJ/mol
# GULP energy per Si atom -12406.895449 kJ/mol
# Density = 2.092953 g / cm^3
# Si number density = 20.977274 Si / 1000 Ang^3
#
#
#
# Elastic Constant Matrix: (Units=GPa)
#
#
# Indices 1 2 3 4 5 6 
#
# 1 130.0482 62.9383 57.9096 0.0000 0.0000 0.0000
# 2 62.9383 94.4024 76.5160 0.0000 0.0000 0.0000
# 3 57.9096 76.5160 102.5232 0.0000 0.0000 0.0000
# 4 0.0000 0.0000 0.0000 33.5300 0.0000 0.0000
# 5 0.0000 0.0000 0.0000 0.0000 301.7442 0.0000
# 6 0.0000 0.0000 0.0000 0.0000 0.0000 20.5252
#
#
#
# Elastic Compliance Matrix: (Units=1/GPa)
#
#
# Indices 1 2 3 4 5 6 
#
# 1 0.011506 -0.006083 -0.001959 0.000000 0.000000 0.000000
# 2 -0.006083 0.030028 -0.018975 0.000000 0.000000 0.000000
# 3 -0.001959 -0.018975 0.025022 0.000000 0.000000 0.000000
# 4 0.000000 0.000000 0.000000 0.029824 0.000000 0.000000
# 5 0.000000 0.000000 0.000000 0.000000 0.003314 0.000000
# 6 0.000000 0.000000 0.000000 0.000000 0.000000 0.048721
#
#
# Mechanical properties :
#
#
# Convention : Reuss Voigt Hill
#
# Bulk Modulus (GPa) = 79.85979 80.18904 80.02441
# Shear Modulus (GPa) = 24.19863 79.80054 51.99959
#
# Velocity S-wave (km/s) = 3.40010 6.17446 4.98421
# Velocity P-wave (km/s) = 7.31892 9.44148 8.44714
#
# Compressibility (1/GPa) = 0.01252195
#
# Stress axis : x y z
#
# Youngs Moduli (GPa) = 86.91291 33.30172 39.96479
#
# Poissons Ratio (x) = 0.20258 0.07829
# Poissons Ratio (y) = 0.52870 0.75834
# Poissons Ratio (z) = 0.17026 0.63190
#
# Static dielectric constant tensor:
#      x y z
#    x 4.027540 0.000000 0.000000 
#    y 0.000000 3.722890 0.000000 
#    z 0.000000 0.000000 3.767870 
# 
# 
# High freq. dielectric constant tensor:
#      x y z
#    x 1.836860 0.000000 0.000000 
#    y 0.000000 1.823830 0.000000 
#    z 0.000000 0.000000 1.838620 
# 
# From -- ./inp_files/13943.got.cif
#   From: 2010.03.12/outbox.cif.g09.slc.cpg/sg20_7_cif.got.tgz:13943.got - 2010.04.14 01:38:04.
