data_PCOD8160014
_publ_section_title
;
Structure prediction by ZEFSAII (Michael W. Deem and Ramdas Pophale) SiO2 
 PCOD8160014
Probable space group: C 2 2 21
;
_chemical_formula_sum "Si O2"
_cell_formula_units_Z 60
_cell_length_a 20.727139
_cell_length_b 23.703920
_cell_length_c 5.349696
_cell_angle_alpha 90.000000
_cell_angle_beta 90.000000
_cell_angle_gamma 90.000000
_cell_volume 2628.382919
_symmetry_space_group_name_H-M "C 2 2 21"
_symmetry_group_IT_number 20
_symmetry_cell_setting 'orthorhombic'
loop_
_space_group_symop_operation_xyz
x,y,z
-x,-y,1/2+z
x,-y,-z
-x,y,1/2-z
1/2+x,1/2+y,z
1/2-x,1/2-y,1/2+z
1/2+x,1/2-y,-z
1/2-x,1/2+y,1/2-z
loop_
_atom_site_type_symbol
_atom_site_label
_atom_site_fract_x
_atom_site_fract_y
_atom_site_fract_z
Si Si1 0.742276 0.558993 0.617900
Si Si2 0.214644 0.153321 0.228536
Si Si3 0.960000 0.434766 0.997745
Si Si4 0.868591 0.743486 0.715444
Si Si5 0.376841 0.599459 0.653733
Si Si6 0.834285 0.371025 0.098517
Si Si7 0.925732 0.212502 0.798133
Si Si8 0.500000 0.468332 0.250000
O O1 0.760788 0.500000 0.500000
O O2 0.732969 0.615571 0.461653
O O3 0.674149 0.552186 0.756984
O O4 0.803415 0.572119 0.789047
O O5 0.193820 0.217765 0.282086
O O6 0.152153 0.123853 0.102339
O O7 0.280976 0.157310 0.077207
O O8 0.898934 0.393385 0.968018
O O9 0.000000 0.420417 0.250000
O O10 0.938228 0.500000 0.000000
O O11 0.000000 0.421340 0.750000
O O12 0.850060 0.677707 0.700624
O O13 0.898485 0.755980 0.445548
O O14 0.918267 0.751406 0.948369
O O15 0.388007 0.652991 0.838473
O O16 0.444260 0.568198 0.618474
O O17 0.000000 0.199092 0.750000
O O18 0.527318 0.500000 0.500000
#
# Coordination Sequence:
#
# PCOD8160014 Si02
#       8
#     8   8   8   8   8   8   8   4
#     4  11  25  43  71 103 143 183 236 297 354 426
#     4  10  25  43  70 100 145 184 236 295 354 417
#     4  10  25  48  74 104 143 181 231 295 358 431
#     4  11  26  44  71 104 142 184 239 294 352 415
#     4  10  23  44  63 102 140 190 239 293 352 409
#     4  11  28  43  74 104 138 189 235 289 360 442
#     4  11  23  45  70 100 141 189 235 290 349 417
#     4  12  28  40  68 102 140 196 246 296 348 420
#
# _framework density 22.827722000000001
#
# number of rings (size 3 to 8) (size 9 to 14) (size 15 to 20)
#    0.000    1.333    2.000    0.800   11.200    3.200 
#    0.000    0.000    0.000    0.000    0.000    0.000 
#    0.000    0.000    0.000    0.000    0.000    0.000 
#
# Total GULP energy -371766.129788 kJ/mol
# GULP energy per Si atom -12392.204326 kJ/mol
# Density = 2.277577 g / cm^3
# Si number density = 22.827722 Si / 1000 Ang^3
#
#
#
# Elastic Constant Matrix: (Units=GPa)
#
#
# Indices 1 2 3 4 5 6 
#
# 1 132.1837 58.1444 32.5686 0.0000 0.0000 0.0000
# 2 58.1444 100.9734 17.0289 0.0000 0.0000 0.0000
# 3 32.5686 17.0289 95.4634 0.0000 0.0000 0.0000
# 4 0.0000 0.0000 0.0000 21.9889 0.0000 0.0000
# 5 0.0000 0.0000 0.0000 0.0000 15.5266 0.0000
# 6 0.0000 0.0000 0.0000 0.0000 0.0000 0.0047
#
#
#
# Elastic Compliance Matrix: (Units=1/GPa)
#
#
# Indices 1 2 3 4 5 6 
#
# 1 0.010740 -0.005739 -0.002640 0.000000 0.000000 0.000000
# 2 -0.005739 0.013278 -0.000410 0.000000 0.000000 0.000000
# 3 -0.002640 -0.000410 0.011449 0.000000 0.000000 0.000000
# 4 0.000000 0.000000 0.000000 0.045477 0.000000 0.000000
# 5 0.000000 0.000000 0.000000 0.000000 0.064406 0.000000
# 6 0.000000 0.000000 0.000000 0.000000 0.000000211.927918
#
#
# Mechanical properties :
#
#
# Convention : Reuss Voigt Hill
#
# Bulk Modulus (GPa) = 55.90690 60.45603 58.18146
# Shear Modulus (GPa) = 0.02357 22.22929 11.12643
#
# Velocity S-wave (km/s) = 0.10173 3.12394 2.21013
# Velocity P-wave (km/s) = 4.95558 6.28912 5.66175
#
# Compressibility (1/GPa) = 0.01788688
#
# Stress axis : x y z
#
# Youngs Moduli (GPa) = 93.10590 75.31357 87.34197
#
# Poissons Ratio (x) = 0.43226 0.23062
# Poissons Ratio (y) = 0.53438 0.03585
# Poissons Ratio (z) = 0.24584 0.03091
#
# Static dielectric constant tensor:
#      x y z
#    x 4.339690 0.000000 0.000000 
#    y 0.000000 4.028820 0.000000 
#    z 0.000000 0.000000 4.041500 
# 
# 
# High freq. dielectric constant tensor:
#      x y z
#    x 1.909570 0.000000 0.000000 
#    y 0.000000 1.904490 0.000000 
#    z 0.000000 0.000000 1.894760 
# 
# From -- ./inp_files/3343.got.cif
#   From: 2010.03.12/outbox.cif.g09.slc.cpg/sg20_2_cif.got.tgz:3343.got - 2010.04.14 01:38:04.
