data_PCOD8160223
_publ_section_title
;
Structure prediction by ZEFSAII (Michael W. Deem and Ramdas Pophale) SiO2 
 PCOD8160223
Probable space group: C 2 2 21
;
_chemical_formula_sum "Si O2"
_cell_formula_units_Z 40
_cell_length_a 10.511387
_cell_length_b 10.542569
_cell_length_c 15.781888
_cell_angle_alpha 90.000000
_cell_angle_beta 90.000000
_cell_angle_gamma 90.000000
_cell_volume 1748.901841
_symmetry_space_group_name_H-M "C 2 2 21"
_symmetry_group_IT_number 20
_symmetry_cell_setting 'orthorhombic'
loop_
_space_group_symop_operation_xyz
x,y,z
-x,-y,1/2+z
x,-y,-z
-x,y,1/2-z
1/2+x,1/2+y,z
1/2-x,1/2-y,1/2+z
1/2+x,1/2-y,-z
1/2-x,1/2+y,1/2-z
loop_
_atom_site_type_symbol
_atom_site_label
_atom_site_fract_x
_atom_site_fract_y
_atom_site_fract_z
Si Si1 0.375996 0.745669 0.058492
Si Si2 0.134384 0.167604 0.618824
Si Si3 0.369076 0.329238 0.633840
Si Si4 0.752681 0.000000 0.500000
Si Si5 0.234926 0.912753 0.691208
Si Si6 0.500000 0.847555 0.750000
O O1 0.493617 0.733513 0.122843
O O2 0.259186 0.684054 0.111544
O O3 0.341030 0.889575 0.034282
O O4 0.419699 0.662018 0.976752
O O5 0.273224 0.223081 0.601774
O O6 0.045554 0.258215 0.674116
O O7 0.152709 0.033991 0.664021
O O8 0.342909 0.455345 0.577324
O O9 0.345917 0.356520 0.731972
O O10 0.382119 0.936331 0.719367
#
# Coordination Sequence:
#
# PCOD8160223 Si02
#       6
#     8   8   8   4   8   4
#     4  11  25  45  72 106 140 186 241 293 364 435
#     4  10  25  44  70 106 137 189 236 294 367 422
#     4  10  25  44  70 106 137 189 236 294 367 422
#     4  10  26  46  70 100 146 186 232 294 362 426
#     4  11  25  45  72 106 140 186 241 293 364 435
#     4  10  26  46  70 100 146 186 232 294 362 426
#
# _framework density 22.871494999999999
#
# number of rings (size 3 to 8) (size 9 to 14) (size 15 to 20)
#    0.000    1.600    0.000    1.200   16.800    4.800 
#    0.000    0.000    0.000    0.000    0.000    0.000 
#    0.000    0.000    0.000    0.000    0.000    0.000 
#
# Total GULP energy -247921.914929 kJ/mol
# GULP energy per Si atom -12396.095746 kJ/mol
# Density = 2.281944 g / cm^3
# Si number density = 22.871495 Si / 1000 Ang^3
#
#
#
# Elastic Constant Matrix: (Units=GPa)
#
#
# Indices 1 2 3 4 5 6 
#
# 1 77.7652 -3.6382 11.6183 0.0000 0.0000 0.0000
# 2 -3.6382 72.2167 13.5723 0.0000 0.0000 0.0000
# 3 11.6183 13.5723 125.8141 0.0000 0.0000 0.0000
# 4 0.0000 0.0000 0.0000 28.4100 0.0000 0.0000
# 5 0.0000 0.0000 0.0000 0.0000 28.3720 0.0000
# 6 0.0000 0.0000 0.0000 0.0000 0.0000 26.1543
#
#
#
# Elastic Compliance Matrix: (Units=1/GPa)
#
#
# Indices 1 2 3 4 5 6 
#
# 1 0.013097 0.000905 -0.001307 0.000000 0.000000 0.000000
# 2 0.000905 0.014196 -0.001615 0.000000 0.000000 0.000000
# 3 -0.001307 -0.001615 0.008243 0.000000 0.000000 0.000000
# 4 0.000000 0.000000 0.000000 0.035199 0.000000 0.000000
# 5 0.000000 0.000000 0.000000 0.000000 0.035246 0.000000
# 6 0.000000 0.000000 0.000000 0.000000 0.000000 0.038235
#
#
# Mechanical properties :
#
#
# Convention : Reuss Voigt Hill
#
# Bulk Modulus (GPa) = 31.74302 35.43342 33.58822
# Shear Modulus (GPa) = 31.49602 33.53686 32.51644
#
# Velocity S-wave (km/s) = 3.71494 3.83341 3.77464
# Velocity P-wave (km/s) = 5.68419 5.92616 5.80643
#
# Compressibility (1/GPa) = 0.03150299
#
# Stress axis : x y z
#
# Youngs Moduli (GPa) = 76.35416 70.44063 121.31265
#
# Poissons Ratio (x) = -0.06378 0.15857
# Poissons Ratio (y) = -0.06914 0.19593
# Poissons Ratio (z) = 0.09980 0.11377
#
# Static dielectric constant tensor:
#      x y z
#    x 4.287730 0.000000 0.000000 
#    y 0.000000 3.959710 0.000000 
#    z 0.000000 0.000000 4.717000 
# 
# 
# High freq. dielectric constant tensor:
#      x y z
#    x 1.905600 0.000000 0.000000 
#    y 0.000000 1.886610 0.000000 
#    z 0.000000 0.000000 1.928280 
# 
# From -- ./inp_files/19733.got.cif
#   From: 2010.03.12/outbox.cif.g09.slc.cpg/sg20_10_cif.got.tgz:19733.got - 2010.04.14 01:38:04.
