data_PCOD8160681
_publ_section_title
;
Structure prediction by ZEFSAII (Michael W. Deem and Ramdas Pophale) SiO2 
 PCOD8160681
Probable space group: C 2 2 21
;
_chemical_formula_sum "Si O2"
_cell_formula_units_Z 40
_cell_length_a 8.195484
_cell_length_b 11.769727
_cell_length_c 18.705006
_cell_angle_alpha 90.000000
_cell_angle_beta 90.000000
_cell_angle_gamma 90.000000
_cell_volume 1804.258866
_symmetry_space_group_name_H-M "C 2 2 21"
_symmetry_group_IT_number 20
_symmetry_cell_setting 'orthorhombic'
loop_
_space_group_symop_operation_xyz
x,y,z
-x,-y,1/2+z
x,-y,-z
-x,y,1/2-z
1/2+x,1/2+y,z
1/2-x,1/2-y,1/2+z
1/2+x,1/2-y,-z
1/2-x,1/2+y,1/2-z
loop_
_atom_site_type_symbol
_atom_site_label
_atom_site_fract_x
_atom_site_fract_y
_atom_site_fract_z
Si Si1 0.668124 0.290667 0.943696
Si Si2 0.665472 0.211693 0.790938
Si Si3 0.665569 0.613950 0.466294
Si Si4 0.500000 0.195892 0.250000
Si Si5 0.370123 0.000000 0.000000
Si Si6 0.413566 0.021725 0.363815
O O1 0.698492 0.291671 0.859225
O O2 0.475690 0.296810 0.954130
O O3 0.758972 0.390942 0.985097
O O4 0.710456 0.168356 0.976719
O O5 0.500000 0.251732 0.750000
O O6 0.834064 0.226886 0.745367
O O7 0.642139 0.080759 0.812779
O O8 0.591466 0.500000 0.500000
O O9 0.753305 0.586015 0.392054
O O10 0.513020 0.115296 0.319321
O O11 0.479418 0.024194 0.930052
#
# Coordination Sequence:
#
# PCOD8160681 Si02
#       6
#     8   8   8   4   4   8
#     4  12  25  46  75 112 145 192 248 307 379 442
#     4  12  26  50  74 105 150 200 243 305 376 451
#     4  12  24  43  73 107 142 185 242 306 363 434
#     4  12  28  48  76 102 148 200 242 298 382 456
#     4  12  24  46  84 106 148 198 248 316 380 432
#     4  12  24  50  72 108 146 190 248 312 366 446
#
# _framework density 22.169768999999999
#
# number of rings (size 3 to 8) (size 9 to 14) (size 15 to 20)
#    0.000    0.000    7.000    3.600    0.000    0.000 
#    9.000    0.000    0.000    0.000    0.000    0.000 
#    0.000    0.000    0.000    0.000    0.000    0.000 
#
# Total GULP energy -247992.724627 kJ/mol
# GULP energy per Si atom -12399.636231 kJ/mol
# Density = 2.211931 g / cm^3
# Si number density = 22.169769 Si / 1000 Ang^3
#
#
#
# Elastic Constant Matrix: (Units=GPa)
#
#
# Indices 1 2 3 4 5 6 
#
# 1 152.8622 51.7368 37.5952 0.0000 0.0000 0.0000
# 2 51.7368 102.1407 42.1340 0.0000 0.0000 0.0000
# 3 37.5952 42.1340 94.3703 0.0000 0.0000 0.0000
# 4 0.0000 0.0000 0.0000 34.5666 0.0000 0.0000
# 5 0.0000 0.0000 0.0000 0.0000 31.2875 0.0000
# 6 0.0000 0.0000 0.0000 0.0000 0.0000 23.4385
#
#
#
# Elastic Compliance Matrix: (Units=1/GPa)
#
#
# Indices 1 2 3 4 5 6 
#
# 1 0.008115 -0.003404 -0.001713 0.000000 0.000000 0.000000
# 2 -0.003404 0.013428 -0.004639 0.000000 0.000000 0.000000
# 3 -0.001713 -0.004639 0.013350 0.000000 0.000000 0.000000
# 4 0.000000 0.000000 0.000000 0.028930 0.000000 0.000000
# 5 0.000000 0.000000 0.000000 0.000000 0.031962 0.000000
# 6 0.000000 0.000000 0.000000 0.000000 0.000000 0.042665
#
#
# Mechanical properties :
#
#
# Convention : Reuss Voigt Hill
#
# Bulk Modulus (GPa) = 65.01484 68.03390 66.52437
# Shear Modulus (GPa) = 30.65788 32.38566 31.52177
#
# Velocity S-wave (km/s) = 3.72273 3.82619 3.77481
# Velocity P-wave (km/s) = 6.91866 7.09041 7.00506
#
# Compressibility (1/GPa) = 0.01538110
#
# Stress axis : x y z
#
# Youngs Moduli (GPa) = 123.22495 74.46922 74.90385
#
# Poissons Ratio (x) = 0.25348 0.12833
# Poissons Ratio (y) = 0.41944 0.34751
# Poissons Ratio (z) = 0.21111 0.34549
#
# Static dielectric constant tensor:
#      x y z
#    x 4.038170 0.000000 0.000000 
#    y 0.000000 3.857200 0.000000 
#    z 0.000000 0.000000 4.763110 
# 
# 
# High freq. dielectric constant tensor:
#      x y z
#    x 1.884420 0.000000 0.000000 
#    y 0.000000 1.877860 0.000000 
#    z 0.000000 0.000000 1.871980 
# 
# From -- ./inp_files/23203.got.cif
#   From: 2010.03.12/outbox.cif.g09.slc.cpg/sg20_12_cif.got.tgz:23203.got - 2010.04.14 01:38:04.
