data_PCOD8160984
_publ_section_title
;
Structure prediction by ZEFSAII (Michael W. Deem and Ramdas Pophale) SiO2 
 PCOD8160984
Probable space group: C 2 2 2
;
_chemical_formula_sum "Si O2"
_cell_formula_units_Z 36
_cell_length_a 8.515443
_cell_length_b 22.262901
_cell_length_c 8.935567
_cell_angle_alpha 90.000000
_cell_angle_beta 90.000000
_cell_angle_gamma 90.000000
_cell_volume 1693.991071
_symmetry_space_group_name_H-M "C 2 2 2"
_symmetry_group_IT_number 21
_symmetry_cell_setting 'orthorhombic'
loop_
_space_group_symop_operation_xyz
x,y,z
-x,-y,z
x,-y,-z
-x,y,-z
1/2+x,1/2+y,z
1/2-x,1/2-y,z
1/2+x,1/2-y,-z
1/2-x,1/2+y,-z
loop_
_atom_site_type_symbol
_atom_site_label
_atom_site_fract_x
_atom_site_fract_y
_atom_site_fract_z
Si Si1 0.107687 0.707355 0.369184
Si Si2 0.249542 0.500000 0.500000
Si Si3 0.666510 0.370555 0.543740
Si Si4 0.000000 0.599805 0.000000
Si Si5 0.500000 0.000000 0.754667
Si Si6 0.181789 0.314953 0.171336
O O1 0.250000 0.750000 0.319127
O O2 0.188320 0.647875 0.437476
O O3 0.000000 0.737246 0.500000
O O4 0.997032 0.691915 0.230786
O O5 0.356140 0.558665 0.517829
O O6 0.151214 0.502631 0.651820
O O7 0.500000 0.340629 0.500000
O O8 0.703632 0.347788 0.711490
O O9 0.977452 0.559299 0.853970
O O10 0.155942 0.641753 0.972382
O O11 0.250000 0.250000 0.125308
#
# Coordination Sequence:
#
# PCOD8160984 Si02
#       6
#     8   4   8   4   4   8
#     4  10  19  34  57  88 125 167 215 272 332 388
#     4  11  21  38  66 100 122 166 224 296 338 402
#     4  11  21  36  60  98 135 167 218 287 351 401
#     4  11  22  42  62  96 132 181 220 282 336 417
#     4  10  22  40  70  96 128 170 238 284 344 414
#     4  11  23  39  62  94 134 180 230 271 337 419
#
# _framework density 21.251588999999999
#
# number of rings (size 3 to 8) (size 9 to 14) (size 15 to 20)
#    0.000    1.333    2.222    6.333    6.222    0.889 
#    0.000    2.222    0.000    0.000    0.000    0.000 
#    0.000    0.000    0.000    0.000    0.000    0.000 
#
# Total GULP energy -223059.203629 kJ/mol
# GULP energy per Si atom -12392.177979 kJ/mol
# Density = 2.120322 g / cm^3
# Si number density = 21.251589 Si / 1000 Ang^3
#
#
#
# Elastic Constant Matrix: (Units=GPa)
#
#
# Indices 1 2 3 4 5 6 
#
# 1 121.8382 34.2637 40.2672 0.0000 0.0000 0.0000
# 2 34.2637 152.2642 49.1901 0.0000 0.0000 0.0000
# 3 40.2672 49.1901 100.0446 0.0000 0.0000 0.0000
# 4 0.0000 0.0000 0.0000 28.0533 0.0000 0.0000
# 5 0.0000 0.0000 0.0000 0.0000 24.0795 0.0000
# 6 0.0000 0.0000 0.0000 0.0000 0.0000 33.4584
#
#
#
# Elastic Compliance Matrix: (Units=1/GPa)
#
#
# Indices 1 2 3 4 5 6 
#
# 1 0.009616 -0.001086 -0.003336 0.000000 0.000000 0.000000
# 2 -0.001086 0.007930 -0.003462 0.000000 0.000000 0.000000
# 3 -0.003336 -0.003462 0.013041 0.000000 0.000000 0.000000
# 4 0.000000 0.000000 0.000000 0.035646 0.000000 0.000000
# 5 0.000000 0.000000 0.000000 0.000000 0.041529 0.000000
# 6 0.000000 0.000000 0.000000 0.000000 0.000000 0.029888
#
#
# Mechanical properties :
#
#
# Convention : Reuss Voigt Hill
#
# Bulk Modulus (GPa) = 67.48594 69.06545 68.27570
# Shear Modulus (GPa) = 31.57401 33.81330 32.69366
#
# Velocity S-wave (km/s) = 3.85869 3.99318 3.92651
# Velocity P-wave (km/s) = 7.18869 7.33690 7.26318
#
# Compressibility (1/GPa) = 0.01481790
#
# Stress axis : x y z
#
# Youngs Moduli (GPa) = 103.99726 126.09749 76.68340
#
# Poissons Ratio (x) = 0.13694 0.25584
# Poissons Ratio (y) = 0.11294 0.26549
# Poissons Ratio (z) = 0.34696 0.43656
#
# Static dielectric constant tensor:
#      x y z
#    x 3.735390 0.000000 0.000000 
#    y 0.000000 4.028210 0.000000 
#    z 0.000000 0.000000 3.677240 
# 
# 
# High freq. dielectric constant tensor:
#      x y z
#    x 1.825410 0.000000 0.000000 
#    y 0.000000 1.856420 0.000000 
#    z 0.000000 0.000000 1.813300 
# 
# From -- ./inp_files/10648.got.cif
#   From: 2010.03.12/outbox.cif.g09.slc.cpg/sg21_6_cif.got.tgz:10648.got - 2010.04.14 01:59:26.
