data_PCOD8160665
_publ_section_title
;
Structure prediction by ZEFSAII (Michael W. Deem and Ramdas Pophale) SiO2 
 PCOD8160665
Probable space group: C 2 2 21
;
_chemical_formula_sum "Si O2"
_cell_formula_units_Z 60
_cell_length_a 4.896711
_cell_length_b 22.806094
_cell_length_c 22.142551
_cell_angle_alpha 90.000000
_cell_angle_beta 90.000000
_cell_angle_gamma 90.000000
_cell_volume 2472.766092
_symmetry_space_group_name_H-M "C 2 2 21"
_symmetry_group_IT_number 20
_symmetry_cell_setting 'orthorhombic'
loop_
_space_group_symop_operation_xyz
x,y,z
-x,-y,1/2+z
x,-y,-z
-x,y,1/2-z
1/2+x,1/2+y,z
1/2-x,1/2-y,1/2+z
1/2+x,1/2-y,-z
1/2-x,1/2+y,1/2-z
loop_
_atom_site_type_symbol
_atom_site_label
_atom_site_fract_x
_atom_site_fract_y
_atom_site_fract_z
Si Si1 0.627149 0.864465 0.813201
Si Si2 0.500000 0.919550 0.250000
Si Si3 0.973025 0.510492 0.145304
Si Si4 0.234731 0.137470 0.910346
Si Si5 0.425398 0.284267 0.514638
Si Si6 0.002199 0.011662 0.570985
Si Si7 0.362683 0.300128 0.648666
Si Si8 0.260778 0.168874 0.664363
O O1 0.500000 0.846288 0.750000
O O2 0.612570 0.934047 0.822776
O O3 0.436768 0.828822 0.860176
O O4 0.938858 0.842602 0.813173
O O5 0.727730 0.874635 0.222742
O O6 0.390922 0.961358 0.195805
O O7 0.701463 0.532071 0.108286
O O8 0.195610 0.485963 0.097919
O O9 0.158592 0.070600 0.915566
O O10 0.543702 0.143210 0.887924
O O11 0.046070 0.170167 0.861105
O O12 0.211850 0.163469 0.977356
O O13 0.707050 0.268392 0.481569
O O14 0.500756 0.299625 0.582844
O O15 0.020615 0.000000 0.500000
O O16 0.344934 0.235859 0.679633
#
# Coordination Sequence:
#
# PCOD8160665 Si02
#       8
#     8   4   8   8   8   8   8   8
#     4  12  28  48  71  99 141 190 236 295 346 427
#     4  12  26  50  74 106 142 192 238 304 366 426
#     4  12  27  51  74 105 142 193 248 290 365 426
#     4  12  23  45  68 105 142 182 231 291 356 421
#     4  12  23  43  70 101 144 188 227 287 349 430
#     4  12  27  48  72 108 145 184 242 309 355 423
#     4  12  26  48  70 108 142 188 239 286 362 424
#     4  12  26  45  71 105 143 183 235 289 354 429
#
# _framework density 24.264324999999999
#
# number of rings (size 3 to 8) (size 9 to 14) (size 15 to 20)
#    0.000    0.000    6.000    3.200    5.600    2.133 
#    0.000    0.000    0.000    0.000    0.000    0.000 
#    0.000    0.000    0.000    0.000    0.000    0.000 
#
# Total GULP energy -371999.155967 kJ/mol
# GULP energy per Si atom -12399.971866 kJ/mol
# Density = 2.420910 g / cm^3
# Si number density = 24.264325 Si / 1000 Ang^3
#
#
#
# Elastic Constant Matrix: (Units=GPa)
#
#
# Indices 1 2 3 4 5 6 
#
# 1 88.1781 -0.0305 16.9141 0.0000 0.0000 0.0000
# 2 -0.0305 112.5230 18.3097 0.0000 0.0000 0.0000
# 3 16.9141 18.3097 115.6512 0.0000 0.0000 0.0000
# 4 0.0000 0.0000 0.0000 41.4499 0.0000 0.0000
# 5 0.0000 0.0000 0.0000 0.0000 27.4252 0.0000
# 6 0.0000 0.0000 0.0000 0.0000 0.0000 26.1553
#
#
#
# Elastic Compliance Matrix: (Units=1/GPa)
#
#
# Indices 1 2 3 4 5 6 
#
# 1 0.011677 0.000288 -0.001753 0.000000 0.000000 0.000000
# 2 0.000288 0.009129 -0.001488 0.000000 0.000000 0.000000
# 3 -0.001753 -0.001488 0.009139 0.000000 0.000000 0.000000
# 4 0.000000 0.000000 0.000000 0.024126 0.000000 0.000000
# 5 0.000000 0.000000 0.000000 0.000000 0.036463 0.000000
# 6 0.000000 0.000000 0.000000 0.000000 0.000000 0.038233
#
#
# Mechanical properties :
#
#
# Convention : Reuss Voigt Hill
#
# Bulk Modulus (GPa) = 41.59736 42.97099 42.28417
# Shear Modulus (GPa) = 35.04226 37.75000 36.39613
#
# Velocity S-wave (km/s) = 3.80437 3.94862 3.87717
# Velocity P-wave (km/s) = 6.03973 6.20780 6.12434
#
# Compressibility (1/GPa) = 0.02403999
#
# Stress axis : x y z
#
# Youngs Moduli (GPa) = 85.63744 109.53869 109.42549
#
# Poissons Ratio (x) = -0.03160 0.19187
# Poissons Ratio (y) = -0.02471 0.16277
# Poissons Ratio (z) = 0.15016 0.16294
#
# Static dielectric constant tensor:
#      x y z
#    x 4.310250 0.000000 0.000000 
#    y 0.000000 4.392830 0.000000 
#    z 0.000000 0.000000 4.527060 
# 
# 
# High freq. dielectric constant tensor:
#      x y z
#    x 1.969270 0.000000 0.000000 
#    y 0.000000 1.965720 0.000000 
#    z 0.000000 0.000000 1.968090 
# 
# From -- ./inp_files/26241.got.cif
#   From: 2010.03.12/outbox.cif.g09.slc.cpg/sg20_14_cif.got.tgz:26241.got - 2010.04.14 01:38:04.
