data_PCOD8160859
_publ_section_title
;
Structure prediction by ZEFSAII (Michael W. Deem and Ramdas Pophale) SiO2 
 PCOD8160859
Probable space group: C 2 2 2
;
_chemical_formula_sum "Si O2"
_cell_formula_units_Z 34
_cell_length_a 10.619830
_cell_length_b 17.155166
_cell_length_c 9.867022
_cell_angle_alpha 90.000000
_cell_angle_beta 90.000000
_cell_angle_gamma 90.000000
_cell_volume 1797.622876
_symmetry_space_group_name_H-M "C 2 2 2"
_symmetry_group_IT_number 21
_symmetry_cell_setting 'orthorhombic'
loop_
_space_group_symop_operation_xyz
x,y,z
-x,-y,z
x,-y,-z
-x,y,-z
1/2+x,1/2+y,z
1/2-x,1/2-y,z
1/2+x,1/2-y,-z
1/2-x,1/2+y,-z
loop_
_atom_site_type_symbol
_atom_site_label
_atom_site_fract_x
_atom_site_fract_y
_atom_site_fract_z
Si Si1 0.000000 0.500000 0.000000
Si Si2 0.125376 0.782471 0.351462
Si Si3 0.374607 0.783269 0.655151
Si Si4 0.380393 0.043938 0.257713
Si Si5 0.631249 0.532508 0.649503
O O1 0.087537 0.554494 0.903013
O O2 0.250000 0.750000 0.274916
O O3 0.125385 0.744788 0.500390
O O4 0.124622 0.874872 0.356589
O O5 0.000734 0.750910 0.273761
O O6 0.250000 0.750000 0.729606
O O7 0.366656 0.875880 0.662825
O O8 0.500000 0.000000 0.326973
O O9 0.251638 0.994428 0.264426
O O10 0.500000 0.500000 0.712619
O O11 0.649049 0.500000 0.500000
#
# Coordination Sequence:
#
# PCOD8160859 Si02
#       5
#     2   8   8   8   8
#     4   8  24  44  60  76 108 148 232 266 244 304
#     4  10  19  30  46  83 124 137 173 214 281 370
#     4  10  18  32  53  81 114 148 173 228 288 349
#     4  10  21  39  62  75 113 156 205 243 280 318
#     4  11  20  33  55  91 125 148 174 224 302 375
#
# _framework density 18.913868999999998
#
# number of rings (size 3 to 8) (size 9 to 14) (size 15 to 20)
#    0.706    1.176    0.000    8.471    0.000    2.353 
#    0.000    0.588    5.176    0.000    0.000    0.000 
#    0.000    0.000    0.000    0.000    0.000    0.000 
#
# Total GULP energy -210615.762534 kJ/mol
# GULP energy per Si atom -12389.162502 kJ/mol
# Density = 1.887082 g / cm^3
# Si number density = 18.913869 Si / 1000 Ang^3
#
#
#
# Elastic Constant Matrix: (Units=GPa)
#
#
# Indices 1 2 3 4 5 6 
#
# 1 209.5453 60.2017 25.4143 0.0000 0.0000 0.0000
# 2 60.2017 165.0314 25.2142 0.0000 0.0000 0.0000
# 3 25.4143 25.2142 38.6038 0.0000 0.0000 0.0000
# 4 0.0000 0.0000 0.0000 4.3120 0.0000 0.0000
# 5 0.0000 0.0000 0.0000 0.0000 15.1302 0.0000
# 6 0.0000 0.0000 0.0000 0.0000 0.0000 43.5072
#
#
#
# Elastic Compliance Matrix: (Units=1/GPa)
#
#
# Indices 1 2 3 4 5 6 
#
# 1 0.005555 -0.001630 -0.002592 0.000000 0.000000 0.000000
# 2 -0.001630 0.007210 -0.003636 0.000000 0.000000 0.000000
# 3 -0.002592 -0.003636 0.029985 0.000000 0.000000 0.000000
# 4 0.000000 0.000000 0.000000 0.231912 0.000000 0.000000
# 5 0.000000 0.000000 0.000000 0.000000 0.066093 0.000000
# 6 0.000000 0.000000 0.000000 0.000000 0.000000 0.022985
#
#
# Mechanical properties :
#
#
# Convention : Reuss Voigt Hill
#
# Bulk Modulus (GPa) = 36.99107 70.53790 53.76448
# Shear Modulus (GPa) = 12.87110 32.74656 22.80883
#
# Velocity S-wave (km/s) = 2.61149 4.16547 3.47642
# Velocity P-wave (km/s) = 5.35661 7.77882 6.67845
#
# Compressibility (1/GPa) = 0.02703355
#
# Stress axis : x y z
#
# Youngs Moduli (GPa) = 180.01708 138.70263 33.34960
#
# Poissons Ratio (x) = 0.22614 0.08645
# Poissons Ratio (y) = 0.29349 0.12125
# Poissons Ratio (z) = 0.46664 0.50428
#
# Static dielectric constant tensor:
#      x y z
#    x 7.186210 0.000000 0.000000 
#    y 0.000000 3.501840 0.000000 
#    z 0.000000 0.000000 2.794850 
# 
# 
# High freq. dielectric constant tensor:
#      x y z
#    x 1.776950 0.000000 0.000000 
#    y 0.000000 1.744480 0.000000 
#    z 0.000000 0.000000 1.651080 
# 
# From -- ./inp_files/23706.got.cif
#   From: 2010.03.12/outbox.cif.g09.slc.cpg/sg21_12_cif.got.tgz:23706.got - 2010.04.14 01:59:26.
