data_PCOD8160102
_publ_section_title
;
Structure prediction by ZEFSAII (Michael W. Deem and Ramdas Pophale) SiO2 
 PCOD8160102
Probable space group: C 2 2 21
;
_chemical_formula_sum "Si O2"
_cell_formula_units_Z 64
_cell_length_a 5.163926
_cell_length_b 18.641596
_cell_length_c 29.486247
_cell_angle_alpha 90.000000
_cell_angle_beta 90.000000
_cell_angle_gamma 90.000000
_cell_volume 2838.458840
_symmetry_space_group_name_H-M "C 2 2 21"
_symmetry_group_IT_number 20
_symmetry_cell_setting 'orthorhombic'
loop_
_space_group_symop_operation_xyz
x,y,z
-x,-y,1/2+z
x,-y,-z
-x,y,1/2-z
1/2+x,1/2+y,z
1/2-x,1/2-y,1/2+z
1/2+x,1/2-y,-z
1/2-x,1/2+y,1/2-z
loop_
_atom_site_type_symbol
_atom_site_label
_atom_site_fract_x
_atom_site_fract_y
_atom_site_fract_z
Si Si1 0.082712 0.363719 0.589850
Si Si2 0.205887 0.291116 0.504790
Si Si3 0.502169 0.119741 0.923476
Si Si4 0.985807 0.127021 0.634414
Si Si5 0.448250 0.773114 0.827604
Si Si6 0.930835 0.850573 0.799302
Si Si7 0.778443 0.480876 0.550451
Si Si8 0.946429 0.969625 0.634335
O O1 0.280033 0.330837 0.552494
O O2 0.976575 0.299894 0.621456
O O3 0.183848 0.425595 0.624605
O O4 0.862941 0.398527 0.557753
O O5 0.483288 0.268542 0.483957
O O6 0.042401 0.339118 0.470019
O O7 0.286594 0.144792 0.888543
O O8 0.783774 0.134548 0.902115
O O9 0.487744 0.034917 0.935642
O O10 0.035804 0.186521 0.673419
O O11 0.942640 0.048200 0.658127
O O12 0.665568 0.805588 0.794137
O O13 0.159130 0.797844 0.815530
O O14 0.881791 0.916823 0.834095
O O15 0.000000 0.882541 0.750000
O O16 0.680188 0.500000 0.500000
O O17 0.542734 0.491111 0.584469
#
# Coordination Sequence:
#
# PCOD8160102 Si02
#       8
#     8   8   8   8   8   8   8   8
#     4  11  22  39  61  86 128 175 225 268 323 389
#     4  12  26  38  56  85 126 173 227 275 320 372
#     4  11  22  38  57  88 126 172 218 267 315 367
#     4  11  23  41  65  94 130 168 211 266 328 390
#     4  11  23  42  69  96 129 168 210 266 332 398
#     4  11  24  45  71  99 129 167 216 270 328 406
#     4  11  21  37  59  90 129 177 226 274 312 382
#     4  10  24  41  68  96 130 176 225 272 339 394
#
# _framework density 22.547447999999999
#
# number of rings (size 3 to 8) (size 9 to 14) (size 15 to 20)
#    0.000    1.000    3.750    3.375    1.750    3.500 
#    0.000    1.250    0.000    0.000    0.000    0.000 
#    0.000    0.000    0.000    0.000    0.000    0.000 
#
# Total GULP energy -396448.568569 kJ/mol
# GULP energy per Si atom -12389.017768 kJ/mol
# Density = 2.249613 g / cm^3
# Si number density = 22.547448 Si / 1000 Ang^3
#
#
#
# Elastic Constant Matrix: (Units=GPa)
#
#
# Indices 1 2 3 4 5 6 
#
# 1 89.2252 23.2273 4.6587 0.0000 0.0000 0.0000
# 2 23.2273 114.6743 19.0674 0.0000 0.0000 0.0000
# 3 4.6587 19.0674 59.7412 0.0000 0.0000 0.0000
# 4 0.0000 0.0000 0.0000 19.3570 0.0000 0.0000
# 5 0.0000 0.0000 0.0000 0.0000 25.3617 0.0000
# 6 0.0000 0.0000 0.0000 0.0000 0.0000 28.1701
#
#
#
# Elastic Compliance Matrix: (Units=1/GPa)
#
#
# Indices 1 2 3 4 5 6 
#
# 1 0.011833 -0.002369 -0.000167 0.000000 0.000000 0.000000
# 2 -0.002369 0.009683 -0.002906 0.000000 0.000000 0.000000
# 3 -0.000167 -0.002906 0.017679 0.000000 0.000000 0.000000
# 4 0.000000 0.000000 0.000000 0.051661 0.000000 0.000000
# 5 0.000000 0.000000 0.000000 0.000000 0.039430 0.000000
# 6 0.000000 0.000000 0.000000 0.000000 0.000000 0.035499
#
#
# Mechanical properties :
#
#
# Convention : Reuss Voigt Hill
#
# Bulk Modulus (GPa) = 35.31998 39.72749 37.52373
# Shear Modulus (GPa) = 26.86649 29.02357 27.94503
#
# Velocity S-wave (km/s) = 3.45563 3.59168 3.52431
# Velocity P-wave (km/s) = 5.62322 5.90406 5.76535
#
# Compressibility (1/GPa) = 0.02831259
#
# Stress axis : x y z
#
# Youngs Moduli (GPa) = 84.50925 103.26970 56.56325
#
# Poissons Ratio (x) = 0.24465 0.00942
# Poissons Ratio (y) = 0.20021 0.16437
# Poissons Ratio (z) = 0.01408 0.30009
#
# Static dielectric constant tensor:
#      x y z
#    x 3.781810 0.000000 0.000000 
#    y 0.000000 4.770950 0.000000 
#    z 0.000000 0.000000 3.807940 
# 
# 
# High freq. dielectric constant tensor:
#      x y z
#    x 1.882540 0.000000 0.000000 
#    y 0.000000 1.900140 0.000000 
#    z 0.000000 0.000000 1.857150 
# 
# From -- ./inp_files/30844.got.cif
#   From: 2010.03.12/outbox.cif.g09.slc.cpg/sg20_16_cif.got.tgz:30844.got - 2010.04.14 01:38:04.
