data_PCOD8160519
_publ_section_title
;
Structure prediction by ZEFSAII (Michael W. Deem and Ramdas Pophale) SiO2 
 PCOD8160519
Probable space group: C 2 2 21
;
_chemical_formula_sum "Si O2"
_cell_formula_units_Z 60
_cell_length_a 11.936081
_cell_length_b 18.911256
_cell_length_c 10.997691
_cell_angle_alpha 90.000000
_cell_angle_beta 90.000000
_cell_angle_gamma 90.000000
_cell_volume 2482.467916
_symmetry_space_group_name_H-M "C 2 2 21"
_symmetry_group_IT_number 20
_symmetry_cell_setting 'orthorhombic'
loop_
_space_group_symop_operation_xyz
x,y,z
-x,-y,1/2+z
x,-y,-z
-x,y,1/2-z
1/2+x,1/2+y,z
1/2-x,1/2-y,1/2+z
1/2+x,1/2-y,-z
1/2-x,1/2+y,1/2-z
loop_
_atom_site_type_symbol
_atom_site_label
_atom_site_fract_x
_atom_site_fract_y
_atom_site_fract_z
Si Si1 0.014548 0.160001 0.512534
Si Si2 0.000000 0.580491 0.250000
Si Si3 0.713686 0.383829 0.893612
Si Si4 0.647035 0.844071 0.378163
Si Si5 0.223023 0.190974 0.357605
Si Si6 0.788010 0.510632 0.762402
Si Si7 0.037035 0.683173 0.041920
Si Si8 0.433198 0.472653 0.133771
O O1 0.120537 0.153200 0.423835
O O2 0.033204 0.109974 0.629111
O O3 0.912311 0.134893 0.428440
O O4 0.002356 0.237258 0.569542
O O5 0.103780 0.530707 0.215919
O O6 0.976233 0.629835 0.134688
O O7 0.749942 0.350235 0.765113
O O8 0.732945 0.468866 0.877760
O O9 0.794404 0.350644 0.992236
O O10 0.694284 0.771775 0.320137
O O11 0.512166 0.837808 0.407185
O O12 0.676545 0.910045 0.295267
O O13 0.328834 0.182183 0.448818
O O14 0.698746 0.514996 0.653215
O O15 0.500000 0.506162 0.250000
O O16 0.469554 0.500000 0.000000
#
# Coordination Sequence:
#
# PCOD8160519 Si02
#       8
#     8   4   8   8   8   8   8   8
#     4  11  26  45  73 113 146 199 260 329 389 469
#     4  12  26  46  72 104 152 212 252 320 392 486
#     4  12  22  46  75 102 154 196 260 321 401 466
#     4  11  25  45  74 113 148 200 262 326 388 475
#     4  11  24  45  76 109 149 205 262 329 395 463
#     4  12  27  48  74 111 149 208 252 320 391 479
#     4  11  23  46  73 105 150 203 259 320 395 471
#     4  12  28  51  80 117 161 203 261 329 399 475
#
# _framework density 24.169498000000001
#
# number of rings (size 3 to 8) (size 9 to 14) (size 15 to 20)
#    0.000    0.533    4.000    3.200    0.933    3.200 
#    4.800    0.000    0.000    0.000    0.000    0.000 
#    0.000    0.000    0.000    0.000    0.000    0.000 
#
# Total GULP energy -371949.102946 kJ/mol
# GULP energy per Si atom -12398.303432 kJ/mol
# Density = 2.411449 g / cm^3
# Si number density = 24.169498 Si / 1000 Ang^3
#
#
#
# Elastic Constant Matrix: (Units=GPa)
#
#
# Indices 1 2 3 4 5 6 
#
# 1 124.2545 35.8712 27.5053 0.0000 0.0000 0.0000
# 2 35.8712 108.0233 25.9877 0.0000 0.0000 0.0000
# 3 27.5053 25.9877 77.7490 0.0000 0.0000 0.0000
# 4 0.0000 0.0000 0.0000 35.2780 0.0000 0.0000
# 5 0.0000 0.0000 0.0000 0.0000 40.7022 0.0000
# 6 0.0000 0.0000 0.0000 0.0000 0.0000 35.5329
#
#
#
# Elastic Compliance Matrix: (Units=1/GPa)
#
#
# Indices 1 2 3 4 5 6 
#
# 1 0.009314 -0.002501 -0.002459 0.000000 0.000000 0.000000
# 2 -0.002501 0.010739 -0.002704 0.000000 0.000000 0.000000
# 3 -0.002459 -0.002704 0.014636 0.000000 0.000000 0.000000
# 4 0.000000 0.000000 0.000000 0.028346 0.000000 0.000000
# 5 0.000000 0.000000 0.000000 0.000000 0.024569 0.000000
# 6 0.000000 0.000000 0.000000 0.000000 0.000000 0.028143
#
#
# Mechanical properties :
#
#
# Convention : Reuss Voigt Hill
#
# Bulk Modulus (GPa) = 51.65580 54.30614 52.98097
# Shear Modulus (GPa) = 36.35580 37.01346 36.68463
#
# Velocity S-wave (km/s) = 3.88261 3.91757 3.90013
# Velocity P-wave (km/s) = 6.44347 6.55597 6.49996
#
# Compressibility (1/GPa) = 0.01935891
#
# Stress axis : x y z
#
# Youngs Moduli (GPa) = 107.35952 93.12258 68.32559
#
# Poissons Ratio (x) = 0.23294 0.16802
# Poissons Ratio (y) = 0.26856 0.18478
# Poissons Ratio (z) = 0.26401 0.25184
#
# Static dielectric constant tensor:
#      x y z
#    x 4.600530 0.000000 0.000000 
#    y 0.000000 4.684270 0.000000 
#    z 0.000000 0.000000 3.989920 
# 
# 
# High freq. dielectric constant tensor:
#      x y z
#    x 1.979730 0.000000 0.000000 
#    y 0.000000 1.977340 0.000000 
#    z 0.000000 0.000000 1.936170 
# 
# From -- ./inp_files/14382.got.cif
#   From: 2010.03.12/outbox.cif.g09.slc.cpg/sg20_8_cif.got.tgz:14382.got - 2010.04.14 01:38:04.
