data_PCOD8160479
_publ_section_title
;
Structure prediction by ZEFSAII (Michael W. Deem and Ramdas Pophale) SiO2 
 PCOD8160479
Probable space group: C 2 2 21
;
_chemical_formula_sum "Si O2"
_cell_formula_units_Z 64
_cell_length_a 14.939695
_cell_length_b 11.825745
_cell_length_c 17.286588
_cell_angle_alpha 90.000000
_cell_angle_beta 90.000000
_cell_angle_gamma 90.000000
_cell_volume 3054.073767
_symmetry_space_group_name_H-M "C 2 2 21"
_symmetry_group_IT_number 20
_symmetry_cell_setting 'orthorhombic'
loop_
_space_group_symop_operation_xyz
x,y,z
-x,-y,1/2+z
x,-y,-z
-x,y,1/2-z
1/2+x,1/2+y,z
1/2-x,1/2-y,1/2+z
1/2+x,1/2-y,-z
1/2-x,1/2+y,1/2-z
loop_
_atom_site_type_symbol
_atom_site_label
_atom_site_fract_x
_atom_site_fract_y
_atom_site_fract_z
Si Si1 0.013641 0.196192 0.339184
Si Si2 0.712343 0.749392 0.336348
Si Si3 0.025754 0.032123 0.916185
Si Si4 0.739196 0.791982 0.663612
Si Si5 0.467136 0.745387 0.833376
Si Si6 0.229271 0.026539 0.913767
Si Si7 0.872950 0.644771 0.581356
Si Si8 0.877790 0.388066 0.599180
O O1 0.117187 0.201475 0.363440
O O2 0.000000 0.224706 0.250000
O O3 0.957612 0.286286 0.387838
O O4 0.979529 0.070619 0.356504
O O5 0.716832 0.748956 0.243563
O O6 0.716203 0.875526 0.370873
O O7 0.790177 0.669885 0.367046
O O8 0.967435 0.137320 0.888628
O O9 0.128374 0.072174 0.923321
O O10 0.987202 0.000000 0.000000
O O11 0.632795 0.791839 0.668268
O O12 0.778933 0.706693 0.599620
O O13 0.769047 0.917890 0.641442
O O14 0.500000 0.703333 0.750000
O O15 0.531692 0.845030 0.861171
O O16 0.268550 0.000000 0.000000
O O17 0.871454 0.520479 0.618349
O O18 0.883831 0.638255 0.490401
#
# Coordination Sequence:
#
# PCOD8160479 Si02
#       8
#     8   8   8   8   8   8   8   8
#     4  12  25  44  70 100 135 179 228 281 338 403
#     4  12  26  44  72 101 137 179 229 283 341 405
#     4  11  23  43  69  97 137 176 223 280 339 403
#     4  12  26  44  72 101 137 179 229 283 341 405
#     4  12  25  44  70 100 135 179 228 281 338 403
#     4  11  24  45  70  99 140 183 230 282 338 409
#     4  11  26  47  69  99 141 179 222 280 344 407
#     4  11  26  47  69  99 141 179 222 280 344 407
#
# _framework density 20.955617
#
# number of rings (size 3 to 8) (size 9 to 14) (size 15 to 20)
#    0.000    0.500    5.000    1.875    5.250    4.500 
#    0.000    0.000    0.000    0.000    0.000    0.000 
#    0.000    0.000    0.000    0.000    0.000    0.000 
#
# Total GULP energy -397002.710330 kJ/mol
# GULP energy per Si atom -12406.334698 kJ/mol
# Density = 2.090792 g / cm^3
# Si number density = 20.955617 Si / 1000 Ang^3
#
#
#
# Elastic Constant Matrix: (Units=GPa)
#
#
# Indices 1 2 3 4 5 6 
#
# 1 126.1424 23.7921 12.3084 0.0000 0.0000 0.0000
# 2 23.7921 102.3066 12.1634 0.0000 0.0000 0.0000
# 3 12.3084 12.1634 66.5832 0.0000 0.0000 0.0000
# 4 0.0000 0.0000 0.0000 29.9054 0.0000 0.0000
# 5 0.0000 0.0000 0.0000 0.0000 4.8469 0.0000
# 6 0.0000 0.0000 0.0000 0.0000 0.0000 48.1405
#
#
#
# Elastic Compliance Matrix: (Units=1/GPa)
#
#
# Indices 1 2 3 4 5 6 
#
# 1 0.008387 -0.001805 -0.001221 0.000000 0.000000 0.000000
# 2 -0.001805 0.010380 -0.001563 0.000000 0.000000 0.000000
# 3 -0.001221 -0.001563 0.015530 0.000000 0.000000 0.000000
# 4 0.000000 0.000000 0.000000 0.033439 0.000000 0.000000
# 5 0.000000 0.000000 0.000000 0.000000 0.206319 0.000000
# 6 0.000000 0.000000 0.000000 0.000000 0.000000 0.020773
#
#
# Mechanical properties :
#
#
# Convention : Reuss Voigt Hill
#
# Bulk Modulus (GPa) = 39.80861 43.50667 41.65764
# Shear Modulus (GPa) = 16.00627 33.02976 24.51801
#
# Velocity S-wave (km/s) = 2.76672 3.97442 3.42423
# Velocity P-wave (km/s) = 5.40779 6.47053 5.96288
#
# Compressibility (1/GPa) = 0.02512020
#
# Stress axis : x y z
#
# Youngs Moduli (GPa) = 119.22971 96.33757 64.39200
#
# Poissons Ratio (x) = 0.17393 0.07860
# Poissons Ratio (y) = 0.21525 0.10061
# Poissons Ratio (z) = 0.14553 0.15053
#
# Static dielectric constant tensor:
#      x y z
#    x 3.925740 0.000000 0.000000 
#    y 0.000000 4.078760 0.000000 
#    z 0.000000 0.000000 4.006710 
# 
# 
# High freq. dielectric constant tensor:
#      x y z
#    x 1.825250 0.000000 0.000000 
#    y 0.000000 1.830620 0.000000 
#    z 0.000000 0.000000 1.834550 
# 
# From -- ./inp_files/24980.got.cif
#   From: 2010.03.12/outbox.cif.g09.slc.cpg/sg20_13_cif.got.tgz:24980.got - 2010.04.14 01:38:04.
