data_PCOD8160779
_publ_section_title
;
Structure prediction by ZEFSAII (Michael W. Deem and Ramdas Pophale) SiO2 
 PCOD8160779
Probable space group: C 2 2 2
;
_chemical_formula_sum "Si O2"
_cell_formula_units_Z 34
_cell_length_a 5.258787
_cell_length_b 13.870714
_cell_length_c 19.977643
_cell_angle_alpha 90.000000
_cell_angle_beta 90.000000
_cell_angle_gamma 90.000000
_cell_volume 1457.231820
_symmetry_space_group_name_H-M "C 2 2 2"
_symmetry_group_IT_number 21
_symmetry_cell_setting 'orthorhombic'
loop_
_space_group_symop_operation_xyz
x,y,z
-x,-y,z
x,-y,-z
-x,y,-z
1/2+x,1/2+y,z
1/2-x,1/2-y,z
1/2+x,1/2-y,-z
1/2-x,1/2+y,-z
loop_
_atom_site_type_symbol
_atom_site_label
_atom_site_fract_x
_atom_site_fract_y
_atom_site_fract_z
Si Si1 0.741634 0.359671 0.319600
Si Si2 0.738851 0.134078 0.605906
Si Si3 0.248280 0.391104 0.971653
Si Si4 0.249435 0.937884 0.176754
Si Si5 0.500000 0.000000 0.500000
O O1 0.750000 0.250000 0.339659
O O2 0.497748 0.403629 0.358537
O O3 0.712595 0.368810 0.240007
O O4 0.010397 0.400776 0.345059
O O5 0.750000 0.250000 0.591529
O O6 0.690569 0.072332 0.539141
O O7 0.229303 0.379019 0.891865
O O8 0.247667 0.500000 0.000000
O O9 0.500000 0.338856 0.000000
O O10 0.000000 0.336999 0.000000
O O11 0.500000 0.000000 0.188275
O O12 0.000000 0.000000 0.168759
#
# Coordination Sequence:
#
# PCOD8160779 Si02
#       5
#     8   8   8   8   2
#     4  10  24  45  63  89 132 170 205 264 335 385
#     4  10  25  47  70  99 138 172 213 275 333 396
#     4  10  16  30  46  79 120 155 195 263 327 367
#     4  12  21  32  61  92 114 157 220 267 307 385
#     4  12  28  46  80 108 132 182 234 266 336 428
#
# _framework density 23.331907999999999
#
# number of rings (size 3 to 8) (size 9 to 14) (size 15 to 20)
#    0.000    1.412    4.706    1.412    4.941    4.706 
#    0.000    0.000    0.000    1.412    0.000    0.000 
#    0.000    0.000    0.000    0.000    0.000    0.000 
#
# Total GULP energy -210650.501820 kJ/mol
# GULP energy per Si atom -12391.205989 kJ/mol
# Density = 2.327880 g / cm^3
# Si number density = 23.331908 Si / 1000 Ang^3
#
#
#
# Elastic Constant Matrix: (Units=GPa)
#
#
# Indices 1 2 3 4 5 6 
#
# 1 227.7834 17.9283 71.6745 0.0000 0.0000 0.0000
# 2 17.9283 68.2447 40.5604 0.0000 0.0000 0.0000
# 3 71.6745 40.5604 196.9753 0.0000 0.0000 0.0000
# 4 0.0000 0.0000 0.0000 0.4893 0.0000 0.0000
# 5 0.0000 0.0000 0.0000 0.0000 43.4948 0.0000
# 6 0.0000 0.0000 0.0000 0.0000 0.0000 -20.6925
#
#
#
# Elastic Compliance Matrix: (Units=1/GPa)
#
#
# Indices 1 2 3 4 5 6 
#
# 1 0.004962 -0.000263 -0.001751 0.000000 0.000000 0.000000
# 2 -0.000263 0.016710 -0.003345 0.000000 0.000000 0.000000
# 3 -0.001751 -0.003345 0.006403 0.000000 0.000000 0.000000
# 4 0.000000 0.000000 0.000000 2.043771 0.000000 0.000000
# 5 0.000000 0.000000 0.000000 0.000000 0.022991 0.000000
# 6 0.000000 0.000000 0.000000 0.000000 0.000000 -0.048327
#
#
# Mechanical properties :
#
#
# Convention : Reuss Voigt Hill
#
# Bulk Modulus (GPa) = 57.61544 83.70329 70.65936
# Shear Modulus (GPa) = 2.42364 28.84765 15.63565
#
# Velocity S-wave (km/s) = 1.02030 3.52007 2.59151
# Velocity P-wave (km/s) = 5.11229 7.24390 6.26935
#
# Compressibility (1/GPa) = 0.01735646
#
# Stress axis : x y z
#
# Youngs Moduli (GPa) = 201.53508 59.84284 156.17773
#
# Poissons Ratio (x) = 0.01571 0.27354
# Poissons Ratio (y) = 0.05292 0.52248
# Poissons Ratio (z) = 0.35298 0.20020
#
# Static dielectric constant tensor:
#      x y z
#    x 6.269600 0.000000 0.000000 
#    y 0.000000 3.805100 0.000000 
#    z 0.000000 0.000000 4.418970 
# 
# 
# High freq. dielectric constant tensor:
#      x y z
#    x 1.953950 0.000000 0.000000 
#    y 0.000000 1.902380 0.000000 
#    z 0.000000 0.000000 1.926570 
# 
# From -- ./inp_files/34496.got.cif
#   From: 2010.03.12/outbox.cif.g09.slc.cpg/sg21_18_cif.got.tgz:34496.got - 2010.04.14 01:59:26.
