data_PCOD8160861
_publ_section_title
;
Structure prediction by ZEFSAII (Michael W. Deem and Ramdas Pophale) SiO2 
 PCOD8160861
Probable space group: C 2 2 2
;
_chemical_formula_sum "Si O2"
_cell_formula_units_Z 56
_cell_length_a 23.282991
_cell_length_b 8.539024
_cell_length_c 15.445347
_cell_angle_alpha 90.000000
_cell_angle_beta 90.000000
_cell_angle_gamma 90.000000
_cell_volume 3070.751511
_symmetry_space_group_name_H-M "C 2 2 2"
_symmetry_group_IT_number 21
_symmetry_cell_setting 'orthorhombic'
loop_
_space_group_symop_operation_xyz
x,y,z
-x,-y,z
x,-y,-z
-x,y,-z
1/2+x,1/2+y,z
1/2-x,1/2-y,z
1/2+x,1/2-y,-z
1/2-x,1/2+y,-z
loop_
_atom_site_type_symbol
_atom_site_label
_atom_site_fract_x
_atom_site_fract_y
_atom_site_fract_z
Si Si1 0.002278 0.314259 0.100021
Si Si2 0.186344 0.314289 0.682390
Si Si3 0.114559 0.814463 0.161354
Si Si4 0.813721 0.683201 0.328036
Si Si5 0.687966 0.315807 0.999464
Si Si6 0.879045 0.814236 0.167021
Si Si7 0.686261 0.685304 0.505681
O O1 0.951125 0.236946 0.154292
O O2 0.000000 0.500000 0.106946
O O3 0.058849 0.251484 0.145680
O O4 0.000000 0.258673 0.000000
O O5 0.250000 0.250000 0.702524
O O6 0.143678 0.273747 0.759352
O O7 0.191264 0.498464 0.671697
O O8 0.157285 0.241242 0.595392
O O9 0.119235 0.999381 0.174434
O O10 0.145544 0.756191 0.074067
O O11 0.750000 0.750000 0.312590
O O12 0.857389 0.742183 0.256005
O O13 0.841351 0.740941 0.419184
O O14 0.750000 0.250000 0.019044
O O15 0.664562 0.256248 0.907503
O O16 0.691600 0.500000 0.000000
O O17 0.684813 0.500000 0.500000
O O18 0.750000 0.750000 0.511785
#
# Coordination Sequence:
#
# PCOD8160861 Si02
#       7
#     8   8   8   8   8   8   8
#     4  11  23  39  59  82 107 144 191 237 281 330
#     4  11  21  35  55  84 117 150 186 230 280 336
#     4  11  22  38  57  80 109 148 189 233 279 330
#     4  11  21  35  55  84 117 150 186 230 280 336
#     4  10  22  35  52  77 109 144 180 222 275 328
#     4  11  22  38  57  80 109 148 189 233 279 330
#     4  10  18  32  54  81 112 149 186 226 275 334
#
# _framework density 18.236578999999999
#
# number of rings (size 3 to 8) (size 9 to 14) (size 15 to 20)
#    0.000    1.286    1.429    7.714    0.000    5.143 
#    0.000    0.000    0.000    0.857    0.000    6.000 
#    0.000    0.000    0.000    0.000    0.000    0.000 
#
# Total GULP energy -347249.533776 kJ/mol
# GULP energy per Si atom -12401.769063 kJ/mol
# Density = 1.819507 g / cm^3
# Si number density = 18.236579 Si / 1000 Ang^3
#
#
#
# Elastic Constant Matrix: (Units=GPa)
#
#
# Indices 1 2 3 4 5 6 
#
# 1 85.3165 25.0606 30.6468 0.0000 0.0000 0.0000
# 2 25.0606 122.2770 43.3823 0.0000 0.0000 0.0000
# 3 30.6468 43.3823 124.6336 0.0000 0.0000 0.0000
# 4 0.0000 0.0000 0.0000 24.2523 0.0000 0.0000
# 5 0.0000 0.0000 0.0000 0.0000 10.1757 0.0000
# 6 0.0000 0.0000 0.0000 0.0000 0.0000 28.8427
#
#
#
# Elastic Compliance Matrix: (Units=1/GPa)
#
#
# Indices 1 2 3 4 5 6 
#
# 1 0.013184 -0.001771 -0.002626 0.000000 0.000000 0.000000
# 2 -0.001771 0.009568 -0.002895 0.000000 0.000000 0.000000
# 3 -0.002626 -0.002895 0.009677 0.000000 0.000000 0.000000
# 4 0.000000 0.000000 0.000000 0.041233 0.000000 0.000000
# 5 0.000000 0.000000 0.000000 0.000000 0.098274 0.000000
# 6 0.000000 0.000000 0.000000 0.000000 0.000000 0.034671
#
#
# Mechanical properties :
#
#
# Convention : Reuss Voigt Hill
#
# Bulk Modulus (GPa) = 56.03274 58.93405 57.48340
# Shear Modulus (GPa) = 22.01300 28.19662 25.10481
#
# Velocity S-wave (km/s) = 3.47807 3.93639 3.71431
# Velocity P-wave (km/s) = 6.84993 7.28332 7.06994
#
# Compressibility (1/GPa) = 0.01784671
#
# Stress axis : x y z
#
# Youngs Moduli (GPa) = 75.84771 104.51311 103.33910
#
# Poissons Ratio (x) = 0.18505 0.27133
# Poissons Ratio (y) = 0.13429 0.29918
# Poissons Ratio (z) = 0.19915 0.30258
#
# Static dielectric constant tensor:
#      x y z
#    x 3.094920 0.000000 0.000000 
#    y 0.000000 3.468660 0.000000 
#    z 0.000000 0.000000 3.993990 
# 
# 
# High freq. dielectric constant tensor:
#      x y z
#    x 1.681570 0.000000 0.000000 
#    y 0.000000 1.725000 0.000000 
#    z 0.000000 0.000000 1.722030 
# 
# From -- ./inp_files/30745.got.cif
#   From: 2010.03.12/outbox.cif.g09.slc.cpg/sg21_16_cif.got.tgz:30745.got - 2010.04.14 01:59:26.
