data_PCOD8160713
_publ_section_title
;
Structure prediction by ZEFSAII (Michael W. Deem and Ramdas Pophale) SiO2 
 PCOD8160713
Probable space group: C 2 2 21
;
_chemical_formula_sum "Si O2"
_cell_formula_units_Z 40
_cell_length_a 7.662577
_cell_length_b 24.300727
_cell_length_c 9.231360
_cell_angle_alpha 90.000000
_cell_angle_beta 90.000000
_cell_angle_gamma 90.000000
_cell_volume 1718.936391
_symmetry_space_group_name_H-M "C 2 2 21"
_symmetry_group_IT_number 20
_symmetry_cell_setting 'orthorhombic'
loop_
_space_group_symop_operation_xyz
x,y,z
-x,-y,1/2+z
x,-y,-z
-x,y,1/2-z
1/2+x,1/2+y,z
1/2-x,1/2-y,1/2+z
1/2+x,1/2-y,-z
1/2-x,1/2+y,1/2-z
loop_
_atom_site_type_symbol
_atom_site_label
_atom_site_fract_x
_atom_site_fract_y
_atom_site_fract_z
Si Si1 0.485728 0.695619 0.405086
Si Si2 0.680794 0.877931 0.519156
Si Si3 0.500000 0.933156 0.750000
Si Si4 0.702776 0.412841 0.267495
Si Si5 0.828431 0.500000 0.500000
Si Si6 0.654664 0.814554 0.067097
O O1 0.500000 0.666321 0.250000
O O2 0.349830 0.660805 0.501184
O O3 0.412546 0.756535 0.376081
O O4 0.677200 0.696318 0.469962
O O5 0.669746 0.901863 0.683677
O O6 0.701721 0.924265 0.389217
O O7 0.499688 0.844446 0.518564
O O8 0.445067 0.965684 0.608015
O O9 0.500000 0.405273 0.250000
O O10 0.721695 0.458520 0.394515
O O11 0.789697 0.353955 0.301972
#
# Coordination Sequence:
#
# PCOD8160713 Si02
#       6
#     8   8   4   8   4   8
#     4  12  26  43  75 112 155 201 251 302 374 458
#     4  12  25  48  77 107 154 199 247 312 373 452
#     4  12  26  48  78 108 150 194 252 316 386 444
#     4  12  27  50  77 108 153 202 253 319 381 443
#     4  12  28  48  76 112 144 194 260 318 384 452
#     4  12  25  48  71 112 153 200 248 303 374 447
#
# _framework density 23.270204
#
# number of rings (size 3 to 8) (size 9 to 14) (size 15 to 20)
#    0.000    0.000    6.000    4.200    0.000    1.600 
#    1.800    0.000    0.000    0.000    0.000    0.000 
#    0.000    0.000    0.000    0.000    0.000    0.000 
#
# Total GULP energy -247768.030008 kJ/mol
# GULP energy per Si atom -12388.401500 kJ/mol
# Density = 2.321724 g / cm^3
# Si number density = 23.270204 Si / 1000 Ang^3
#
#
#
# Elastic Constant Matrix: (Units=GPa)
#
#
# Indices 1 2 3 4 5 6 
#
# 1 161.8206 39.7296 56.9292 0.0000 0.0000 0.0000
# 2 39.7296 92.5369 47.4622 0.0000 0.0000 0.0000
# 3 56.9292 47.4622 159.0442 0.0000 0.0000 0.0000
# 4 0.0000 0.0000 0.0000 13.1130 0.0000 0.0000
# 5 0.0000 0.0000 0.0000 0.0000 44.6025 0.0000
# 6 0.0000 0.0000 0.0000 0.0000 0.0000 19.9525
#
#
#
# Elastic Compliance Matrix: (Units=1/GPa)
#
#
# Indices 1 2 3 4 5 6 
#
# 1 0.007416 -0.002152 -0.002012 0.000000 0.000000 0.000000
# 2 -0.002152 0.013384 -0.003224 0.000000 0.000000 0.000000
# 3 -0.002012 -0.003224 0.007970 0.000000 0.000000 0.000000
# 4 0.000000 0.000000 0.000000 0.076260 0.000000 0.000000
# 5 0.000000 0.000000 0.000000 0.000000 0.022420 0.000000
# 6 0.000000 0.000000 0.000000 0.000000 0.000000 0.050119
#
#
# Mechanical properties :
#
#
# Convention : Reuss Voigt Hill
#
# Bulk Modulus (GPa) = 71.46029 77.96041 74.71035
# Shear Modulus (GPa) = 25.37947 33.48566 29.43257
#
# Velocity S-wave (km/s) = 3.30607 3.79752 3.56029
# Velocity P-wave (km/s) = 6.73417 7.26658 7.00544
#
# Compressibility (1/GPa) = 0.01399379
#
# Stress axis : x y z
#
# Youngs Moduli (GPa) = 134.84461 74.71696 125.47169
#
# Poissons Ratio (x) = 0.16078 0.25249
# Poissons Ratio (y) = 0.29016 0.40449
# Poissons Ratio (z) = 0.27136 0.24087
#
# Static dielectric constant tensor:
#      x y z
#    x 4.380910 0.000000 0.000000 
#    y 0.000000 4.394350 0.000000 
#    z 0.000000 0.000000 4.299170 
# 
# 
# High freq. dielectric constant tensor:
#      x y z
#    x 1.933560 0.000000 0.000000 
#    y 0.000000 1.912090 0.000000 
#    z 0.000000 0.000000 1.940740 
# 
# From -- ./inp_files/6183.got.cif
#   From: 2010.03.12/outbox.cif.g09.slc.cpg/sg20_4_cif.got.tgz:6183.got - 2010.04.14 01:38:04.
