data_PCOD8160300
_publ_section_title
;
Structure prediction by ZEFSAII (Michael W. Deem and Ramdas Pophale) SiO2 
 PCOD8160300
Probable space group: C 2 2 21
;
_chemical_formula_sum "Si O2"
_cell_formula_units_Z 64
_cell_length_a 11.733213
_cell_length_b 15.762845
_cell_length_c 17.665827
_cell_angle_alpha 90.000000
_cell_angle_beta 90.000000
_cell_angle_gamma 90.000000
_cell_volume 3267.273820
_symmetry_space_group_name_H-M "C 2 2 21"
_symmetry_group_IT_number 20
_symmetry_cell_setting 'orthorhombic'
loop_
_space_group_symop_operation_xyz
x,y,z
-x,-y,1/2+z
x,-y,-z
-x,y,1/2-z
1/2+x,1/2+y,z
1/2-x,1/2-y,1/2+z
1/2+x,1/2-y,-z
1/2-x,1/2+y,1/2-z
loop_
_atom_site_type_symbol
_atom_site_label
_atom_site_fract_x
_atom_site_fract_y
_atom_site_fract_z
Si Si1 0.814919 0.209495 0.365173
Si Si2 0.243394 0.275866 0.805525
Si Si3 0.951410 0.720738 0.902617
Si Si4 0.821303 0.022541 0.414128
Si Si5 0.564636 0.976913 0.416422
Si Si6 0.063948 0.872907 0.172765
Si Si7 0.582184 0.745767 0.572933
Si Si8 0.542465 0.115731 0.166073
O O1 0.767264 0.203055 0.281043
O O2 0.856325 0.118656 0.396203
O O3 0.718970 0.251837 0.418568
O O4 0.924224 0.270167 0.366446
O O5 0.360176 0.268195 0.850602
O O6 0.167606 0.191562 0.813253
O O7 0.174034 0.355914 0.840172
O O8 0.922658 0.622271 0.905213
O O9 0.948185 0.762138 0.985152
O O10 0.853235 0.000000 0.500000
O O11 0.687062 0.017183 0.399853
O O12 0.888854 0.960966 0.358351
O O13 0.520966 0.000000 0.500000
O O14 0.474533 0.016997 0.356235
O O15 0.000000 0.893500 0.250000
O O16 0.972652 0.834794 0.114270
O O17 0.533500 0.832895 0.606329
O O18 0.500000 0.137140 0.250000
#
# Coordination Sequence:
#
# PCOD8160300 Si02
#       8
#     8   8   8   8   8   8   8   8
#     4  12  24  44  63  97 138 167 219 277 332 395
#     4  11  23  43  62  96 128 175 216 266 336 398
#     4  12  26  38  68  97 135 169 210 283 335 380
#     4  11  22  41  68  95 128 172 224 273 322 390
#     4  11  21  40  61  99 126 162 218 270 327 385
#     4  11  22  41  68  93 126 174 228 262 316 404
#     4  11  21  40  65  96 123 170 221 263 322 390
#     4  11  20  39  67  87 122 170 223 261 317 397
#
# _framework density 19.588196
#
# number of rings (size 3 to 8) (size 9 to 14) (size 15 to 20)
#    0.000    0.750    6.250    2.625    3.500    2.000 
#    2.250    1.250    0.000    1.500    0.000    0.000 
#    0.000    0.000    0.000    0.000    0.000    0.000 
#
# Total GULP energy -396963.476447 kJ/mol
# GULP energy per Si atom -12405.108639 kJ/mol
# Density = 1.954361 g / cm^3
# Si number density = 19.588196 Si / 1000 Ang^3
#
#
#
# Elastic Constant Matrix: (Units=GPa)
#
#
# Indices 1 2 3 4 5 6 
#
# 1 101.7988 10.3907 30.1619 0.0000 0.0000 0.0000
# 2 10.3907 49.0800 17.3186 0.0000 0.0000 0.0000
# 3 30.1619 17.3186 66.6841 0.0000 0.0000 0.0000
# 4 0.0000 0.0000 0.0000 27.9375 0.0000 0.0000
# 5 0.0000 0.0000 0.0000 0.0000 32.7316 0.0000
# 6 0.0000 0.0000 0.0000 0.0000 0.0000 26.8468
#
#
#
# Elastic Compliance Matrix: (Units=1/GPa)
#
#
# Indices 1 2 3 4 5 6 
#
# 1 0.011362 -0.000652 -0.004970 0.000000 0.000000 0.000000
# 2 -0.000652 0.022468 -0.005540 0.000000 0.000000 0.000000
# 3 -0.004970 -0.005540 0.018683 0.000000 0.000000 0.000000
# 4 0.000000 0.000000 0.000000 0.035794 0.000000 0.000000
# 5 0.000000 0.000000 0.000000 0.000000 0.030551 0.000000
# 6 0.000000 0.000000 0.000000 0.000000 0.000000 0.037248
#
#
# Mechanical properties :
#
#
# Convention : Reuss Voigt Hill
#
# Bulk Modulus (GPa) = 33.12478 37.03393 35.07935
# Shear Modulus (GPa) = 26.52595 28.14930 27.33763
#
# Velocity S-wave (km/s) = 3.68391 3.79496 3.73985
# Velocity P-wave (km/s) = 5.91965 6.17654 6.04946
#
# Compressibility (1/GPa) = 0.03018888
#
# Stress axis : x y z
#
# Youngs Moduli (GPa) = 88.00949 44.50801 53.52463
#
# Poissons Ratio (x) = 0.02901 0.26602
# Poissons Ratio (y) = 0.05736 0.29654
# Poissons Ratio (z) = 0.43741 0.24659
#
# Static dielectric constant tensor:
#      x y z
#    x 3.612680 0.000000 0.000000 
#    y 0.000000 3.456800 0.000000 
#    z 0.000000 0.000000 3.655990 
# 
# 
# High freq. dielectric constant tensor:
#      x y z
#    x 1.762820 0.000000 0.000000 
#    y 0.000000 1.754790 0.000000 
#    z 0.000000 0.000000 1.774060 
# 
# From -- ./inp_files/24449.got.cif
#   From: 2010.03.12/outbox.cif.g09.slc.cpg/sg20_13_cif.got.tgz:24449.got - 2010.04.14 01:38:04.
