data_PCOD8160710
_publ_section_title
;
Structure prediction by ZEFSAII (Michael W. Deem and Ramdas Pophale) SiO2 
 PCOD8160710
Probable space group: C 2 2 21
;
_chemical_formula_sum "Si O2"
_cell_formula_units_Z 28
_cell_length_a 20.510623
_cell_length_b 5.112470
_cell_length_c 10.782399
_cell_angle_alpha 90.000000
_cell_angle_beta 90.000000
_cell_angle_gamma 90.000000
_cell_volume 1130.641764
_symmetry_space_group_name_H-M "C 2 2 21"
_symmetry_group_IT_number 20
_symmetry_cell_setting 'orthorhombic'
loop_
_space_group_symop_operation_xyz
x,y,z
-x,-y,1/2+z
x,-y,-z
-x,y,1/2-z
1/2+x,1/2+y,z
1/2-x,1/2-y,1/2+z
1/2+x,1/2-y,-z
1/2-x,1/2+y,1/2-z
loop_
_atom_site_type_symbol
_atom_site_label
_atom_site_fract_x
_atom_site_fract_y
_atom_site_fract_z
Si Si1 0.745658 0.715264 0.678461
Si Si2 0.351493 0.000000 0.500000
Si Si3 0.500000 0.594708 0.750000
Si Si4 0.936595 0.000000 0.500000
Si Si5 0.895183 0.747708 0.077739
O O1 0.728156 0.503180 0.784803
O O2 0.805806 0.571535 0.614472
O O3 0.682293 0.757166 0.595612
O O4 0.394966 0.752889 0.535670
O O5 0.477924 0.433412 0.626125
O O6 0.562882 0.764219 0.705079
O O7 0.917390 0.500000 0.000000
O O8 0.914955 0.000000 0.000000
#
# Coordination Sequence:
#
# PCOD8160710 Si02
#       5
#     8   4   4   4   8
#     4  12  25  46  77 115 156 197 257 323 394 468
#     4  12  26  49  76 113 156 202 260 326 394 462
#     4  12  28  56  78 118 158 210 268 318 388 470
#     4  12  30  49  84 113 158 208 262 326 388 464
#     4  12  27  48  79 113 157 206 257 324 393 461
#
# _framework density 24.764696000000001
#
# number of rings (size 3 to 8) (size 9 to 14) (size 15 to 20)
#    0.000    0.000    2.857    6.857    4.000    4.571 
#    0.000    0.000    0.000    0.000    0.000    0.000 
#    0.000    0.000    0.000    0.000    0.000    0.000 
#
# Total GULP energy -173517.542009 kJ/mol
# GULP energy per Si atom -12394.110143 kJ/mol
# Density = 2.470833 g / cm^3
# Si number density = 24.764696 Si / 1000 Ang^3
#
#
#
# Elastic Constant Matrix: (Units=GPa)
#
#
# Indices 1 2 3 4 5 6 
#
# 1 128.4289 31.5404 52.5723 0.0000 0.0000 0.0000
# 2 31.5404 144.0496 31.0184 0.0000 0.0000 0.0000
# 3 52.5723 31.0184 135.9934 0.0000 0.0000 0.0000
# 4 0.0000 0.0000 0.0000 43.8309 0.0000 0.0000
# 5 0.0000 0.0000 0.0000 0.0000 22.7223 0.0000
# 6 0.0000 0.0000 0.0000 0.0000 0.0000 25.4724
#
#
#
# Elastic Compliance Matrix: (Units=1/GPa)
#
#
# Indices 1 2 3 4 5 6 
#
# 1 0.009495 -0.001355 -0.003362 0.000000 0.000000 0.000000
# 2 -0.001355 0.007494 -0.001185 0.000000 0.000000 0.000000
# 3 -0.003362 -0.001185 0.008923 0.000000 0.000000 0.000000
# 4 0.000000 0.000000 0.000000 0.022815 0.000000 0.000000
# 5 0.000000 0.000000 0.000000 0.000000 0.044010 0.000000
# 6 0.000000 0.000000 0.000000 0.000000 0.000000 0.039258
#
#
# Mechanical properties :
#
#
# Convention : Reuss Voigt Hill
#
# Bulk Modulus (GPa) = 70.88099 70.97047 70.92573
# Shear Modulus (GPa) = 33.66953 37.96119 35.81536
#
# Velocity S-wave (km/s) = 3.69125 3.91944 3.80705
# Velocity P-wave (km/s) = 6.84478 7.01447 6.93014
#
# Compressibility (1/GPa) = 0.01410816
#
# Stress axis : x y z
#
# Youngs Moduli (GPa) = 105.31544 133.43949 112.06743
#
# Poissons Ratio (x) = 0.18084 0.37672
# Poissons Ratio (y) = 0.14272 0.13285
# Poissons Ratio (z) = 0.35403 0.15818
#
# Static dielectric constant tensor:
#      x y z
#    x 4.724090 0.000000 0.000000 
#    y 0.000000 4.453320 0.000000 
#    z 0.000000 0.000000 4.473240 
# 
# 
# High freq. dielectric constant tensor:
#      x y z
#    x 2.012360 0.000000 0.000000 
#    y 0.000000 1.976280 0.000000 
#    z 0.000000 0.000000 1.991230 
# 
# From -- ./inp_files/11881.got.cif
#   From: 2010.03.12/outbox.cif.g09.slc.cpg/sg20_6_cif.got.tgz:11881.got - 2010.04.14 01:38:04.
