data_PCOD8160260
_publ_section_title
;
Structure prediction by ZEFSAII (Michael W. Deem and Ramdas Pophale) SiO2 
 PCOD8160260
Probable space group: C 2 2 21
;
_chemical_formula_sum "Si O2"
_cell_formula_units_Z 40
_cell_length_a 28.755156
_cell_length_b 5.447088
_cell_length_c 11.450670
_cell_angle_alpha 90.000000
_cell_angle_beta 90.000000
_cell_angle_gamma 90.000000
_cell_volume 1793.539800
_symmetry_space_group_name_H-M "C 2 2 21"
_symmetry_group_IT_number 20
_symmetry_cell_setting 'orthorhombic'
loop_
_space_group_symop_operation_xyz
x,y,z
-x,-y,1/2+z
x,-y,-z
-x,y,1/2-z
1/2+x,1/2+y,z
1/2-x,1/2-y,1/2+z
1/2+x,1/2-y,-z
1/2-x,1/2+y,1/2-z
loop_
_atom_site_type_symbol
_atom_site_label
_atom_site_fract_x
_atom_site_fract_y
_atom_site_fract_z
Si Si1 0.722875 0.900692 0.225446
Si Si2 0.050028 0.324543 0.702819
Si Si3 0.870648 0.718405 0.801803
Si Si4 0.387327 0.401856 0.381467
Si Si5 0.323575 0.000000 0.500000
Si Si6 0.583297 0.500000 0.500000
O O1 0.750395 0.658972 0.265587
O O2 0.677197 0.934816 0.309721
O O3 0.709280 0.854055 0.089543
O O4 0.083213 0.557173 0.708562
O O5 0.068627 0.139302 0.799363
O O6 0.000000 0.409182 0.750000
O O7 0.050924 0.190916 0.574720
O O8 0.859619 0.884374 0.686470
O O9 0.879313 0.872920 0.917065
O O10 0.409557 0.500000 0.500000
O O11 0.354560 0.172122 0.413787
#
# Coordination Sequence:
#
# PCOD8160260 Si02
#       6
#     8   8   8   8   4   4
#     4  12  28  47  75 112 148 198 259 312 380 451
#     4  11  25  46  74 107 146 192 251 300 376 456
#     4  11  24  48  70 102 153 190 241 311 378 445
#     4  11  21  42  77 103 142 192 243 307 375 431
#     4  12  24  49  72 108 144 198 252 321 366 452
#     4  10  26  47  70 102 154 194 240 309 380 440
#
# _framework density 22.302267000000001
#
# number of rings (size 3 to 8) (size 9 to 14) (size 15 to 20)
#    0.000    0.800    4.000    1.800    4.200    4.000 
#   10.800    0.000    0.000    0.000    0.000    0.000 
#    0.000    0.000    0.000    0.000    0.000    0.000 
#
# Total GULP energy -247800.948956 kJ/mol
# GULP energy per Si atom -12390.047448 kJ/mol
# Density = 2.225151 g / cm^3
# Si number density = 22.302267 Si / 1000 Ang^3
#
#
#
# Elastic Constant Matrix: (Units=GPa)
#
#
# Indices 1 2 3 4 5 6 
#
# 1 139.2447 53.2502 49.5843 0.0000 0.0000 0.0000
# 2 53.2502 124.7926 44.8934 0.0000 0.0000 0.0000
# 3 49.5843 44.8934 145.6373 0.0000 0.0000 0.0000
# 4 0.0000 0.0000 0.0000 36.4697 0.0000 0.0000
# 5 0.0000 0.0000 0.0000 0.0000 4.6208 0.0000
# 6 0.0000 0.0000 0.0000 0.0000 0.0000 14.2384
#
#
#
# Elastic Compliance Matrix: (Units=1/GPa)
#
#
# Indices 1 2 3 4 5 6 
#
# 1 0.009143 -0.003129 -0.002149 0.000000 0.000000 0.000000
# 2 -0.003129 0.010083 -0.002043 0.000000 0.000000 0.000000
# 3 -0.002149 -0.002043 0.008228 0.000000 0.000000 0.000000
# 4 0.000000 0.000000 0.000000 0.027420 0.000000 0.000000
# 5 0.000000 0.000000 0.000000 0.000000 0.216412 0.000000
# 6 0.000000 0.000000 0.000000 0.000000 0.000000 0.070232
#
#
# Mechanical properties :
#
#
# Convention : Reuss Voigt Hill
#
# Bulk Modulus (GPa) = 78.04093 78.34782 78.19438
# Shear Modulus (GPa) = 13.87233 28.52890 21.20062
#
# Velocity S-wave (km/s) = 2.49673 3.58046 3.08653
# Velocity P-wave (km/s) = 6.58634 7.23182 6.91661
#
# Compressibility (1/GPa) = 0.01281379
#
# Stress axis : x y z
#
# Youngs Moduli (GPa) = 109.37211 99.17433 121.54145
#
# Poissons Ratio (x) = 0.31027 0.26113
# Poissons Ratio (y) = 0.34217 0.24832
# Poissons Ratio (z) = 0.23499 0.20262
#
# Static dielectric constant tensor:
#      x y z
#    x 3.906910 0.000000 0.000000 
#    y 0.000000 4.288550 0.000000 
#    z 0.000000 0.000000 4.891480 
# 
# 
# High freq. dielectric constant tensor:
#      x y z
#    x 1.865250 0.000000 0.000000 
#    y 0.000000 1.887280 0.000000 
#    z 0.000000 0.000000 1.895670 
# 
# From -- ./inp_files/16917.got.cif
#   From: 2010.03.12/outbox.cif.g09.slc.cpg/sg20_9_cif.got.tgz:16917.got - 2010.04.14 01:38:04.
