data_PCOD8160898
_publ_section_title
;
Structure prediction by ZEFSAII (Michael W. Deem and Ramdas Pophale) SiO2 
 PCOD8160898
Probable space group: C 2 2 2
;
_chemical_formula_sum "Si O2"
_cell_formula_units_Z 48
_cell_length_a 10.350279
_cell_length_b 19.391566
_cell_length_c 12.534520
_cell_angle_alpha 90.000000
_cell_angle_beta 90.000000
_cell_angle_gamma 90.000000
_cell_volume 2515.779924
_symmetry_space_group_name_H-M "C 2 2 2"
_symmetry_group_IT_number 21
_symmetry_cell_setting 'orthorhombic'
loop_
_space_group_symop_operation_xyz
x,y,z
-x,-y,z
x,-y,-z
-x,y,-z
1/2+x,1/2+y,z
1/2-x,1/2-y,z
1/2+x,1/2-y,-z
1/2-x,1/2+y,-z
loop_
_atom_site_type_symbol
_atom_site_label
_atom_site_fract_x
_atom_site_fract_y
_atom_site_fract_z
Si Si1 0.000000 0.796550 0.000000
Si Si2 0.351803 0.855881 0.488437
Si Si3 0.073649 0.847333 0.775407
Si Si4 0.750000 0.250000 0.100633
Si Si5 0.714062 0.634256 0.732840
Si Si6 0.643193 0.509645 0.273956
Si Si7 0.761027 0.000000 0.500000
Si Si8 0.250000 0.250000 0.344682
O O1 0.878033 0.748756 0.971250
O O2 0.040410 0.844004 0.900528
O O3 0.500000 0.834356 0.500000
O O4 0.293792 0.840846 0.370865
O O5 0.279355 0.814015 0.579567
O O6 0.335143 0.936047 0.512316
O O7 0.176241 0.911151 0.758446
O O8 0.135028 0.775920 0.732875
O O9 0.939958 0.857950 0.709630
O O10 0.760474 0.318754 0.170613
O O11 0.736765 0.553003 0.767476
O O12 0.500000 0.500000 0.227247
O O13 0.643281 0.497803 0.400558
#
# Coordination Sequence:
#
# PCOD8160898 Si02
#       8
#     4   8   8   4   8   8   4   4
#     4  10  22  38  65  84 121 150 204 252 318 348
#     4  11  24  35  55  84 118 165 194 237 283 364
#     4  10  21  39  58  89 115 154 198 255 297 353
#     4  10  20  40  58  88 112 158 190 258 302 368
#     4   9  21  37  61  80 120 149 196 239 306 351
#     4   9  17  34  57  85 113 149 191 235 292 349
#     4  10  18  38  52  80 118 161 191 224 284 354
#     4  12  24  34  58  88 122 150 202 246 290 364
#
# _framework density 19.079568999999999
#
# number of rings (size 3 to 8) (size 9 to 14) (size 15 to 20)
#    0.000    2.000    1.667    1.500    7.000    0.000 
#    0.000   10.417    0.000    0.000    0.000    7.000 
#    0.000    0.000    0.000    0.000    0.000    0.000 
#
# Total GULP energy -297378.342514 kJ/mol
# GULP energy per Si atom -12390.764271 kJ/mol
# Density = 1.903614 g / cm^3
# Si number density = 19.079569 Si / 1000 Ang^3
#
#
#
# Elastic Constant Matrix: (Units=GPa)
#
#
# Indices 1 2 3 4 5 6 
#
# 1 90.1230 35.5287 46.3725 0.0000 0.0000 0.0000
# 2 35.5287 107.3733 56.1550 0.0000 0.0000 0.0000
# 3 46.3725 56.1550 101.4990 0.0000 0.0000 0.0000
# 4 0.0000 0.0000 0.0000 21.2337 0.0000 0.0000
# 5 0.0000 0.0000 0.0000 0.0000 32.8569 0.0000
# 6 0.0000 0.0000 0.0000 0.0000 0.0000 28.0957
#
#
#
# Elastic Compliance Matrix: (Units=1/GPa)
#
#
# Indices 1 2 3 4 5 6 
#
# 1 0.014780 -0.001912 -0.005695 0.000000 0.000000 0.000000
# 2 -0.001912 0.013353 -0.006514 0.000000 0.000000 0.000000
# 3 -0.005695 -0.006514 0.016058 0.000000 0.000000 0.000000
# 4 0.000000 0.000000 0.000000 0.047095 0.000000 0.000000
# 5 0.000000 0.000000 0.000000 0.000000 0.030435 0.000000
# 6 0.000000 0.000000 0.000000 0.000000 0.000000 0.035593
#
#
# Mechanical properties :
#
#
# Convention : Reuss Voigt Hill
#
# Bulk Modulus (GPa) = 62.69950 63.90085 63.30017
# Shear Modulus (GPa) = 26.19573 27.16655 26.68114
#
# Velocity S-wave (km/s) = 3.70938 3.77749 3.74359
# Velocity P-wave (km/s) = 7.16097 7.25193 7.20659
#
# Compressibility (1/GPa) = 0.01594909
#
# Stress axis : x y z
#
# Youngs Moduli (GPa) = 67.65913 74.89118 62.27491
#
# Poissons Ratio (x) = 0.14322 0.35463
# Poissons Ratio (y) = 0.12939 0.40565
# Poissons Ratio (z) = 0.38529 0.48782
#
# Static dielectric constant tensor:
#      x y z
#    x 3.343890 0.000000 0.000000 
#    y 0.000000 3.837010 0.000000 
#    z 0.000000 0.000000 3.394570 
# 
# 
# High freq. dielectric constant tensor:
#      x y z
#    x 1.720340 0.000000 0.000000 
#    y 0.000000 1.755780 0.000000 
#    z 0.000000 0.000000 1.730280 
# 
# From -- ./inp_files/24225.got.cif
#   From: 2010.03.12/outbox.cif.g09.slc.cpg/sg21_13_cif.got.tgz:24225.got - 2010.04.14 01:59:26.
