data_PCOD8160897
_publ_section_title
;
Structure prediction by ZEFSAII (Michael W. Deem and Ramdas Pophale) SiO2 
 PCOD8160897
Probable space group: C 2 2 2
;
_chemical_formula_sum "Si O2"
_cell_formula_units_Z 48
_cell_length_a 9.890004
_cell_length_b 28.275771
_cell_length_c 8.753933
_cell_angle_alpha 90.000000
_cell_angle_beta 90.000000
_cell_angle_gamma 90.000000
_cell_volume 2448.015376
_symmetry_space_group_name_H-M "C 2 2 2"
_symmetry_group_IT_number 21
_symmetry_cell_setting 'orthorhombic'
loop_
_space_group_symop_operation_xyz
x,y,z
-x,-y,z
x,-y,-z
-x,y,-z
1/2+x,1/2+y,z
1/2-x,1/2-y,z
1/2+x,1/2-y,-z
1/2-x,1/2+y,-z
loop_
_atom_site_type_symbol
_atom_site_label
_atom_site_fract_x
_atom_site_fract_y
_atom_site_fract_z
Si Si1 0.757938 0.905821 0.692011
Si Si2 0.474368 0.150136 0.823639
Si Si3 0.495888 0.343017 0.320046
Si Si4 0.090380 0.254919 0.649752
Si Si5 0.350298 0.505081 0.679631
Si Si6 0.267275 0.894190 0.666558
O O1 0.653975 0.883328 0.808389
O O2 0.905277 0.884980 0.731267
O O3 0.718187 0.894213 0.516824
O O4 0.757492 0.961345 0.732139
O O5 0.438768 0.200770 0.755378
O O6 0.594301 0.123038 0.738232
O O7 0.500000 0.157948 0.000000
O O8 0.500000 0.337867 0.500000
O O9 0.542337 0.291864 0.255921
O O10 0.344452 0.356971 0.272331
O O11 0.250000 0.250000 0.607796
O O12 0.000000 0.262096 0.500000
O O13 0.500000 0.500000 0.754106
O O14 0.369062 0.500000 0.500000
O O15 0.275533 0.553629 0.724946
#
# Coordination Sequence:
#
# PCOD8160897 Si02
#       6
#     8   8   8   8   8   8
#     4  10  18  37  64  91 123 155 197 253 307 362
#     4  12  27  43  56  83 128 171 205 248 297 355
#     4   9  18  33  62  93 118 147 191 246 306 362
#     4  11  23  41  67  96 119 152 201 254 308 367
#     4   9  16  30  62 101 125 144 193 263 315 354
#     4  10  20  37  63  94 120 158 201 251 309 359
#
# _framework density 19.607717999999998
#
# number of rings (size 3 to 8) (size 9 to 14) (size 15 to 20)
#    0.000    1.833    3.333    1.500    4.667    0.667 
#    3.000    5.000    0.000    1.000    0.000    0.000 
#    0.000    0.000    0.000    0.000    0.000    0.000 
#
# Total GULP energy -297499.553667 kJ/mol
# GULP energy per Si atom -12395.814736 kJ/mol
# Density = 1.956309 g / cm^3
# Si number density = 19.607718 Si / 1000 Ang^3
#
#
#
# Elastic Constant Matrix: (Units=GPa)
#
#
# Indices 1 2 3 4 5 6 
#
# 1 78.9196 49.2212 32.7835 0.0000 0.0000 0.0000
# 2 49.2212 159.3342 29.9846 0.0000 0.0000 0.0000
# 3 32.7835 29.9846 58.5865 0.0000 0.0000 0.0000
# 4 0.0000 0.0000 0.0000 2.8715 0.0000 0.0000
# 5 0.0000 0.0000 0.0000 0.0000 6.9655 0.0000
# 6 0.0000 0.0000 0.0000 0.0000 0.0000 17.2180
#
#
#
# Elastic Compliance Matrix: (Units=1/GPa)
#
#
# Indices 1 2 3 4 5 6 
#
# 1 0.018774 -0.004230 -0.008341 0.000000 0.000000 0.000000
# 2 -0.004230 0.007898 -0.001675 0.000000 0.000000 0.000000
# 3 -0.008341 -0.001675 0.022593 0.000000 0.000000 0.000000
# 4 0.000000 0.000000 0.000000 0.348247 0.000000 0.000000
# 5 0.000000 0.000000 0.000000 0.000000 0.143564 0.000000
# 6 0.000000 0.000000 0.000000 0.000000 0.000000 0.058079
#
#
# Mechanical properties :
#
#
# Convention : Reuss Voigt Hill
#
# Bulk Modulus (GPa) = 48.13749 57.86876 53.00312
# Shear Modulus (GPa) = 7.87932 17.73440 12.80686
#
# Velocity S-wave (km/s) = 2.00679 3.01069 2.55846
# Velocity P-wave (km/s) = 5.47478 6.45469 5.98482
#
# Compressibility (1/GPa) = 0.02077383
#
# Stress axis : x y z
#
# Youngs Moduli (GPa) = 53.26500 126.61253 44.26089
#
# Poissons Ratio (x) = 0.53558 0.36916
# Poissons Ratio (y) = 0.22531 0.07415
# Poissons Ratio (z) = 0.44426 0.21210
#
# Static dielectric constant tensor:
#      x y z
#    x 3.752790 0.000000 0.000000 
#    y 0.000000 4.292600 0.000000 
#    z 0.000000 0.000000 3.096360 
# 
# 
# High freq. dielectric constant tensor:
#      x y z
#    x 1.775140 0.000000 0.000000 
#    y 0.000000 1.789440 0.000000 
#    z 0.000000 0.000000 1.702810 
# 
# From -- ./inp_files/11509.got.cif
#   From: 2010.03.12/outbox.cif.g09.slc.cpg/sg21_6_cif.got.tgz:11509.got - 2010.04.14 01:59:26.
