data_PCOD8160926
_publ_section_title
;
Structure prediction by ZEFSAII (Michael W. Deem and Ramdas Pophale) SiO2 
 PCOD8160926
Probable space group: C 2 2 2
;
_chemical_formula_sum "Si O2"
_cell_formula_units_Z 64
_cell_length_a 28.984416
_cell_length_b 8.651173
_cell_length_c 15.680893
_cell_angle_alpha 90.000000
_cell_angle_beta 90.000000
_cell_angle_gamma 90.000000
_cell_volume 3931.971330
_symmetry_space_group_name_H-M "C 2 2 2"
_symmetry_group_IT_number 21
_symmetry_cell_setting 'orthorhombic'
loop_
_space_group_symop_operation_xyz
x,y,z
-x,-y,z
x,-y,-z
-x,y,-z
1/2+x,1/2+y,z
1/2-x,1/2-y,z
1/2+x,1/2-y,-z
1/2-x,1/2+y,-z
loop_
_atom_site_type_symbol
_atom_site_label
_atom_site_fract_x
_atom_site_fract_y
_atom_site_fract_z
Si Si1 0.450950 0.317422 0.597376
Si Si2 0.301194 0.817930 0.185102
Si Si3 0.301336 0.183580 0.184634
Si Si4 0.199658 0.682731 0.498117
Si Si5 0.948967 0.183770 0.593966
Si Si6 0.299347 0.178866 0.999731
Si Si7 0.852408 0.181682 0.658378
Si Si8 0.644855 0.315890 0.340345
O O1 0.450354 0.500619 0.592011
O O2 0.501245 0.258033 0.631089
O O3 0.442532 0.252138 0.502033
O O4 0.409143 0.264595 0.658506
O O5 0.250000 0.750000 0.196061
O O6 0.323034 0.776743 0.090891
O O7 0.335115 0.738445 0.251101
O O8 0.299404 0.000800 0.201654
O O9 0.250000 0.250000 0.195391
O O10 0.335573 0.265268 0.249588
O O11 0.323014 0.224103 0.090185
O O12 0.202636 0.500000 0.500000
O O13 0.250000 0.750000 0.484334
O O14 0.179203 0.743343 0.586415
O O15 0.169067 0.733601 0.418912
O O16 0.905457 0.240518 0.649699
O O17 0.250000 0.250000 0.999281
O O18 0.290309 0.000000 0.000000
O O19 0.848711 0.998303 0.649028
#
# Coordination Sequence:
#
# PCOD8160926 Si02
#       8
#     8   8   8   8   8   8   8   8
#     4   8  14  27  48  70  90 116 152 192 231 273
#     4  10  19  32  48  69  95 125 158 193 231 275
#     4  10  19  32  48  69  95 125 158 193 231 275
#     4  12  24  36  47  62  91 129 164 193 223 266
#     4   8  14  27  48  70  90 116 152 192 231 273
#     4   8  16  30  48  66  89 120 155 193 232 271
#     4  11  20  32  49  71  95 122 155 192 232 277
#     4  11  20  32  49  71  95 122 155 192 232 277
#
# _framework density 16.276821999999999
#
# number of rings (size 3 to 8) (size 9 to 14) (size 15 to 20)
#    0.000    2.250    1.250    4.125    0.000    1.000 
#    0.000    0.000    0.000    3.750    0.000    0.875 
#    0.000    7.000    0.000    0.000    0.000    0.000 
#
# Total GULP energy -396425.962767 kJ/mol
# GULP energy per Si atom -12388.311336 kJ/mol
# Density = 1.623978 g / cm^3
# Si number density = 16.276822 Si / 1000 Ang^3
#
#
#
# Elastic Constant Matrix: (Units=GPa)
#
#
# Indices 1 2 3 4 5 6 
#
# 1 109.0371 27.2819 48.9615 0.0000 0.0000 0.0000
# 2 27.2819 63.9535 28.8409 0.0000 0.0000 0.0000
# 3 48.9615 28.8409 111.2865 0.0000 0.0000 0.0000
# 4 0.0000 0.0000 0.0000 14.8563 0.0000 0.0000
# 5 0.0000 0.0000 0.0000 0.0000 6.8112 0.0000
# 6 0.0000 0.0000 0.0000 0.0000 0.0000 14.4034
#
#
#
# Elastic Compliance Matrix: (Units=1/GPa)
#
#
# Indices 1 2 3 4 5 6 
#
# 1 0.011944 -0.003086 -0.004455 0.000000 0.000000 0.000000
# 2 -0.003086 0.018503 -0.003438 0.000000 0.000000 0.000000
# 3 -0.004455 -0.003438 0.011837 0.000000 0.000000 0.000000
# 4 0.000000 0.000000 0.000000 0.067312 0.000000 0.000000
# 5 0.000000 0.000000 0.000000 0.000000 0.146818 0.000000
# 6 0.000000 0.000000 0.000000 0.000000 0.000000 0.069428
#
#
# Mechanical properties :
#
#
# Convention : Reuss Voigt Hill
#
# Bulk Modulus (GPa) = 49.19702 54.93841 52.06771
# Shear Modulus (GPa) = 14.10144 19.16035 16.63089
#
# Velocity S-wave (km/s) = 2.94658 3.43469 3.19996
# Velocity P-wave (km/s) = 6.47049 7.03955 6.76101
#
# Compressibility (1/GPa) = 0.02032644
#
# Stress axis : x y z
#
# Youngs Moduli (GPa) = 83.72550 54.04518 84.48307
#
# Poissons Ratio (x) = 0.16679 0.37637
# Poissons Ratio (y) = 0.25838 0.29041
# Poissons Ratio (z) = 0.37300 0.18578
#
# Static dielectric constant tensor:
#      x y z
#    x 3.299540 0.000000 0.000000 
#    y 0.000000 2.989310 0.000000 
#    z 0.000000 0.000000 3.379560 
# 
# 
# High freq. dielectric constant tensor:
#      x y z
#    x 1.610280 0.000000 0.000000 
#    y 0.000000 1.621930 0.000000 
#    z 0.000000 0.000000 1.621350 
# 
# From -- ./inp_files/34086.got.cif
#   From: 2010.03.12/outbox.cif.g09.slc.cpg/sg21_18_cif.got.tgz:34086.got - 2010.04.14 01:59:26.
