data_PCOD8160562
_publ_section_title
;
Structure prediction by ZEFSAII (Michael W. Deem and Ramdas Pophale) SiO2 
 PCOD8160562
Probable space group: C 2 2 21
;
_chemical_formula_sum "Si O2"
_cell_formula_units_Z 60
_cell_length_a 11.562183
_cell_length_b 9.334412
_cell_length_c 25.534768
_cell_angle_alpha 90.000000
_cell_angle_beta 90.000000
_cell_angle_gamma 90.000000
_cell_volume 2755.869961
_symmetry_space_group_name_H-M "C 2 2 21"
_symmetry_group_IT_number 20
_symmetry_cell_setting 'orthorhombic'
loop_
_space_group_symop_operation_xyz
x,y,z
-x,-y,1/2+z
x,-y,-z
-x,y,1/2-z
1/2+x,1/2+y,z
1/2-x,1/2-y,1/2+z
1/2+x,1/2-y,-z
1/2-x,1/2+y,1/2-z
loop_
_atom_site_type_symbol
_atom_site_label
_atom_site_fract_x
_atom_site_fract_y
_atom_site_fract_z
Si Si1 0.282894 0.371742 0.335735
Si Si2 0.857126 0.099219 0.137959
Si Si3 0.526388 0.717204 0.915024
Si Si4 0.413042 0.716312 0.415852
Si Si5 0.190550 0.661348 0.355947
Si Si6 0.325870 0.988709 0.557787
Si Si7 0.555419 0.500000 0.000000
Si Si8 0.120125 0.869691 0.273327
O O1 0.222963 0.218846 0.336672
O O2 0.402435 0.367872 0.369586
O O3 0.192050 0.488756 0.357165
O O4 0.303249 0.418899 0.275796
O O5 0.780506 0.003943 0.098343
O O6 0.963084 0.169599 0.106725
O O7 0.897945 0.996534 0.184674
O O8 0.409536 0.785492 0.894148
O O9 0.607668 0.838830 0.938449
O O10 0.485767 0.603654 0.959757
O O11 0.317509 0.712792 0.371371
O O12 0.372148 0.610151 0.463335
O O13 0.417363 0.881690 0.434316
O O14 0.173073 0.726823 0.298571
O O15 0.271317 0.000000 0.500000
O O16 0.000000 0.818535 0.250000
#
# Coordination Sequence:
#
# PCOD8160562 Si02
#       8
#     8   8   8   8   8   8   4   8
#     4  11  24  45  71 102 140 179 240 289 354 422
#     4  11  26  45  72 103 144 187 236 298 350 429
#     4  11  24  45  68 102 140 185 232 296 348 422
#     4  12  25  44  69 105 138 186 234 289 353 424
#     4  12  24  45  71 100 141 179 231 300 353 416
#     4  11  24  46  69 101 145 188 239 288 355 427
#     4  12  24  44  68 102 140 186 242 276 354 430
#     4  12  23  45  72 100 136 186 235 290 361 427
#
# _framework density 21.771708
#
# number of rings (size 3 to 8) (size 9 to 14) (size 15 to 20)
#    0.000    0.533    5.333    3.200    0.933    0.000 
#    1.200    0.667    0.000    0.000    0.000    0.000 
#    0.000    0.000    0.000    0.000    0.000    0.000 
#
# Total GULP energy -371883.322108 kJ/mol
# GULP energy per Si atom -12396.110737 kJ/mol
# Density = 2.172216 g / cm^3
# Si number density = 21.771708 Si / 1000 Ang^3
#
#
#
# Elastic Constant Matrix: (Units=GPa)
#
#
# Indices 1 2 3 4 5 6 
#
# 1 102.8910 33.0196 48.0091 0.0000 0.0000 0.0000
# 2 33.0196 116.6764 56.2881 0.0000 0.0000 0.0000
# 3 48.0091 56.2881 144.3345 0.0000 0.0000 0.0000
# 4 0.0000 0.0000 0.0000 41.6167 0.0000 0.0000
# 5 0.0000 0.0000 0.0000 0.0000 24.4828 0.0000
# 6 0.0000 0.0000 0.0000 0.0000 0.0000 37.0221
#
#
#
# Elastic Compliance Matrix: (Units=1/GPa)
#
#
# Indices 1 2 3 4 5 6 
#
# 1 0.011797 -0.001781 -0.003230 0.000000 0.000000 0.000000
# 2 -0.001781 0.010826 -0.003630 0.000000 0.000000 0.000000
# 3 -0.003230 -0.003630 0.009418 0.000000 0.000000 0.000000
# 4 0.000000 0.000000 0.000000 0.024029 0.000000 0.000000
# 5 0.000000 0.000000 0.000000 0.000000 0.040845 0.000000
# 6 0.000000 0.000000 0.000000 0.000000 0.000000 0.027011
#
#
# Mechanical properties :
#
#
# Convention : Reuss Voigt Hill
#
# Bulk Modulus (GPa) = 67.74397 70.94838 69.34617
# Shear Modulus (GPa) = 34.21704 35.73000 34.97352
#
# Velocity S-wave (km/s) = 3.96868 4.05547 4.01231
# Velocity P-wave (km/s) = 7.22383 7.38832 7.30654
#
# Compressibility (1/GPa) = 0.01476146
#
# Stress axis : x y z
#
# Youngs Moduli (GPa) = 84.76418 92.37347 106.17864
#
# Poissons Ratio (x) = 0.16448 0.34293
# Poissons Ratio (y) = 0.15093 0.38538
# Poissons Ratio (z) = 0.27376 0.33527
#
# Static dielectric constant tensor:
#      x y z
#    x 3.721400 0.000000 0.000000 
#    y 0.000000 4.273810 0.000000 
#    z 0.000000 0.000000 4.182310 
# 
# 
# High freq. dielectric constant tensor:
#      x y z
#    x 1.839730 0.000000 0.000000 
#    y 0.000000 1.877170 0.000000 
#    z 0.000000 0.000000 1.867720 
# 
# From -- ./inp_files/30334.got.cif
#   From: 2010.03.12/outbox.cif.g09.slc.cpg/sg20_16_cif.got.tgz:30334.got - 2010.04.14 01:38:04.
