data_PCOD8160363
_publ_section_title
;
Structure prediction by ZEFSAII (Michael W. Deem and Ramdas Pophale) SiO2 
 PCOD8160363
Probable space group: C 2 2 21
;
_chemical_formula_sum "Si O2"
_cell_formula_units_Z 48
_cell_length_a 25.573707
_cell_length_b 6.576280
_cell_length_c 13.395476
_cell_angle_alpha 90.000000
_cell_angle_beta 90.000000
_cell_angle_gamma 90.000000
_cell_volume 2252.849250
_symmetry_space_group_name_H-M "C 2 2 21"
_symmetry_group_IT_number 20
_symmetry_cell_setting 'orthorhombic'
loop_
_space_group_symop_operation_xyz
x,y,z
-x,-y,1/2+z
x,-y,-z
-x,y,1/2-z
1/2+x,1/2+y,z
1/2-x,1/2-y,1/2+z
1/2+x,1/2-y,-z
1/2-x,1/2+y,1/2-z
loop_
_atom_site_type_symbol
_atom_site_label
_atom_site_fract_x
_atom_site_fract_y
_atom_site_fract_z
Si Si1 0.631405 0.000000 0.000000
Si Si2 0.582381 0.364350 0.598770
Si Si3 0.957053 0.500000 0.000000
Si Si4 0.543997 0.300309 0.067322
Si Si5 0.218727 0.329750 0.134919
Si Si6 0.803669 0.174009 0.147406
Si Si7 0.000000 0.025670 0.750000
Si Si8 0.233944 0.500000 0.500000
O O1 0.596865 0.185493 0.039617
O O2 0.665965 0.929791 0.093391
O O3 0.575963 0.500000 0.500000
O O4 0.637474 0.413134 0.651963
O O5 0.533880 0.394609 0.673067
O O6 0.580495 0.123699 0.574631
O O7 0.992852 0.336416 0.944998
O O8 0.542643 0.348717 0.185502
O O9 0.539838 0.500000 0.000000
O O10 0.212111 0.280508 0.250343
O O11 0.265840 0.487924 0.120614
O O12 0.228996 0.121494 0.076139
O O13 0.801628 0.341592 0.060178
#
# Coordination Sequence:
#
# PCOD8160363 Si02
#       8
#     4   8   4   8   8   8   4   4
#     4  11  28  44  75 108 146 191 246 295 374 428
#     4  12  26  46  71 106 143 188 238 300 356 428
#     4  11  21  48  68  98 144 174 240 286 354 420
#     4  11  25  47  69 103 143 187 233 301 360 425
#     4  12  26  47  72 111 144 193 243 305 360 439
#     4  12  27  46  75 106 148 199 245 291 377 433
#     4  12  24  46  74 100 146 184 236 304 352 418
#     4  12  23  48  73  96 156 185 236 311 350 426
#
# _framework density 21.306350999999999
#
# number of rings (size 3 to 8) (size 9 to 14) (size 15 to 20)
#    0.000    0.333    6.667    1.500    3.500    3.333 
#    3.000    0.000    0.000    0.000    0.000    0.000 
#    0.000    0.000    0.000    0.000    0.000    0.000 
#
# Total GULP energy -297637.965932 kJ/mol
# GULP energy per Si atom -12401.581914 kJ/mol
# Density = 2.125786 g / cm^3
# Si number density = 21.306351 Si / 1000 Ang^3
#
#
#
# Elastic Constant Matrix: (Units=GPa)
#
#
# Indices 1 2 3 4 5 6 
#
# 1 146.9619 55.9305 45.4620 0.0000 0.0000 0.0000
# 2 55.9305 126.3612 52.6363 0.0000 0.0000 0.0000
# 3 45.4620 52.6363 126.8448 0.0000 0.0000 0.0000
# 4 0.0000 0.0000 0.0000 39.3028 0.0000 0.0000
# 5 0.0000 0.0000 0.0000 0.0000 31.3461 0.0000
# 6 0.0000 0.0000 0.0000 0.0000 0.0000 16.4096
#
#
#
# Elastic Compliance Matrix: (Units=1/GPa)
#
#
# Indices 1 2 3 4 5 6 
#
# 1 0.008509 -0.003018 -0.001797 0.000000 0.000000 0.000000
# 2 -0.003018 0.010638 -0.003333 0.000000 0.000000 0.000000
# 3 -0.001797 -0.003333 0.009911 0.000000 0.000000 0.000000
# 4 0.000000 0.000000 0.000000 0.025443 0.000000 0.000000
# 5 0.000000 0.000000 0.000000 0.000000 0.031902 0.000000
# 6 0.000000 0.000000 0.000000 0.000000 0.000000 0.060940
#
#
# Mechanical properties :
#
#
# Convention : Reuss Voigt Hill
#
# Bulk Modulus (GPa) = 78.35798 78.69172 78.52485
# Shear Modulus (GPa) = 29.78099 33.82099 31.80099
#
# Velocity S-wave (km/s) = 3.74271 3.98850 3.86756
# Velocity P-wave (km/s) = 7.45210 7.63050 7.54183
#
# Compressibility (1/GPa) = 0.01276194
#
# Stress axis : x y z
#
# Youngs Moduli (GPa) = 117.52363 94.00495 100.89921
#
# Poissons Ratio (x) = 0.28366 0.18137
# Poissons Ratio (y) = 0.35463 0.33628
# Poissons Ratio (z) = 0.21125 0.31330
#
# Static dielectric constant tensor:
#      x y z
#    x 3.894880 0.000000 0.000000 
#    y 0.000000 4.362500 0.000000 
#    z 0.000000 0.000000 4.009400 
# 
# 
# High freq. dielectric constant tensor:
#      x y z
#    x 1.844070 0.000000 0.000000 
#    y 0.000000 1.846390 0.000000 
#    z 0.000000 0.000000 1.842700 
# 
# From -- ./inp_files/17861.got.cif
#   From: 2010.03.12/outbox.cif.g09.slc.cpg/sg20_9_cif.got.tgz:17861.got - 2010.04.14 01:38:04.
