data_PCOD8160475
_publ_section_title
;
Structure prediction by ZEFSAII (Michael W. Deem and Ramdas Pophale) SiO2 
 PCOD8160475
Probable space group: C 2 2 21
;
_chemical_formula_sum "Si O2"
_cell_formula_units_Z 56
_cell_length_a 15.898575
_cell_length_b 11.085785
_cell_length_c 15.107045
_cell_angle_alpha 90.000000
_cell_angle_beta 90.000000
_cell_angle_gamma 90.000000
_cell_volume 2662.589251
_symmetry_space_group_name_H-M "C 2 2 21"
_symmetry_group_IT_number 20
_symmetry_cell_setting 'orthorhombic'
loop_
_space_group_symop_operation_xyz
x,y,z
-x,-y,1/2+z
x,-y,-z
-x,y,1/2-z
1/2+x,1/2+y,z
1/2-x,1/2-y,1/2+z
1/2+x,1/2-y,-z
1/2-x,1/2+y,1/2-z
loop_
_atom_site_type_symbol
_atom_site_label
_atom_site_fract_x
_atom_site_fract_y
_atom_site_fract_z
Si Si1 0.801087 0.240721 0.364606
Si Si2 0.568383 0.661542 0.512571
Si Si3 0.270091 0.525279 0.909761
Si Si4 0.235658 0.277134 0.825182
Si Si5 0.943408 0.828586 0.334379
Si Si6 0.691709 0.138808 0.522568
Si Si7 0.035977 0.899602 0.845083
O O1 0.789178 0.385107 0.355245
O O2 0.757192 0.197031 0.275925
O O3 0.758090 0.192274 0.453167
O O4 0.897681 0.203273 0.370562
O O5 0.637806 0.581931 0.565878
O O6 0.492221 0.696537 0.575772
O O7 0.604397 0.790835 0.484393
O O8 0.533419 0.592672 0.424125
O O9 0.278771 0.395517 0.866020
O O10 0.220206 0.500000 0.000000
O O11 0.135631 0.261217 0.831856
O O12 0.274628 0.161112 0.876879
O O13 0.000000 0.797579 0.250000
O O14 0.918060 0.970639 0.333827
O O15 0.676755 0.000000 0.500000
O O16 0.000000 0.861059 0.750000
#
# Coordination Sequence:
#
# PCOD8160475 Si02
#       7
#     8   8   8   8   8   8   8
#     4  11  25  42  68  99 134 176 234 275 346 410
#     4  11  23  43  68  95 134 175 226 284 344 406
#     4  11  23  44  70  93 137 185 227 274 347 416
#     4  12  25  43  72  98 137 180 232 282 346 415
#     4  11  24  40  66  98 132 175 228 286 343 402
#     4  11  24  43  66  97 132 178 227 284 342 412
#     4  11  24  40  67  98 134 173 232 289 340 400
#
# _framework density 21.032159
#
# number of rings (size 3 to 8) (size 9 to 14) (size 15 to 20)
#    0.000    0.857    2.857    5.571    8.000    0.000 
#    2.571    0.714    0.000    0.000    0.000    0.000 
#    0.000    0.000    0.000    0.000    0.000    0.000 
#
# Total GULP energy -346967.932379 kJ/mol
# GULP energy per Si atom -12391.711871 kJ/mol
# Density = 2.098429 g / cm^3
# Si number density = 21.032159 Si / 1000 Ang^3
#
#
#
# Elastic Constant Matrix: (Units=GPa)
#
#
# Indices 1 2 3 4 5 6 
#
# 1 108.1958 39.9289 28.6409 0.0000 0.0000 0.0000
# 2 39.9289 95.8552 4.3078 0.0000 0.0000 0.0000
# 3 28.6409 4.3078 97.5500 0.0000 0.0000 0.0000
# 4 0.0000 0.0000 0.0000 29.6723 0.0000 0.0000
# 5 0.0000 0.0000 0.0000 0.0000 33.3831 0.0000
# 6 0.0000 0.0000 0.0000 0.0000 0.0000 58.2866
#
#
#
# Elastic Compliance Matrix: (Units=1/GPa)
#
#
# Indices 1 2 3 4 5 6 
#
# 1 0.011882 -0.004802 -0.003277 0.000000 0.000000 0.000000
# 2 -0.004802 0.012394 0.000863 0.000000 0.000000 0.000000
# 3 -0.003277 0.000863 0.011175 0.000000 0.000000 0.000000
# 4 0.000000 0.000000 0.000000 0.033701 0.000000 0.000000
# 5 0.000000 0.000000 0.000000 0.000000 0.029955 0.000000
# 6 0.000000 0.000000 0.000000 0.000000 0.000000 0.017157
#
#
# Mechanical properties :
#
#
# Convention : Reuss Voigt Hill
#
# Bulk Modulus (GPa) = 47.57637 49.70624 48.64130
# Shear Modulus (GPa) = 36.30998 39.51664 37.91331
#
# Velocity S-wave (km/s) = 4.15951 4.33929 4.25035
# Velocity P-wave (km/s) = 6.76303 6.98503 6.87493
#
# Compressibility (1/GPa) = 0.02101884
#
# Stress axis : x y z
#
# Youngs Moduli (GPa) = 84.16025 80.68387 89.48496
#
# Poissons Ratio (x) = 0.38747 0.29320
# Poissons Ratio (y) = 0.40416 -0.07719
# Poissons Ratio (z) = 0.27575 -0.06960
#
# Static dielectric constant tensor:
#      x y z
#    x 3.680590 0.000000 0.000000 
#    y 0.000000 3.884970 0.000000 
#    z 0.000000 0.000000 -10.060730 
# 
# 
# High freq. dielectric constant tensor:
#      x y z
#    x 1.813050 0.000000 0.000000 
#    y 0.000000 1.817500 0.000000 
#    z 0.000000 0.000000 1.847620 
# 
# From -- ./inp_files/20713.got.cif
#   From: 2010.03.12/outbox.cif.g09.slc.cpg/sg20_11_cif.got.tgz:20713.got - 2010.04.14 01:38:04.
