data_PCOD8160273
_publ_section_title
;
Structure prediction by ZEFSAII (Michael W. Deem and Ramdas Pophale) SiO2 
 PCOD8160273
Probable space group: C 2 2 21
;
_chemical_formula_sum "Si O2"
_cell_formula_units_Z 64
_cell_length_a 24.681160
_cell_length_b 8.685613
_cell_length_c 13.329005
_cell_angle_alpha 90.000000
_cell_angle_beta 90.000000
_cell_angle_gamma 90.000000
_cell_volume 2857.352186
_symmetry_space_group_name_H-M "C 2 2 21"
_symmetry_group_IT_number 20
_symmetry_cell_setting 'orthorhombic'
loop_
_space_group_symop_operation_xyz
x,y,z
-x,-y,1/2+z
x,-y,-z
-x,y,1/2-z
1/2+x,1/2+y,z
1/2-x,1/2-y,1/2+z
1/2+x,1/2-y,-z
1/2-x,1/2+y,1/2-z
loop_
_atom_site_type_symbol
_atom_site_label
_atom_site_fract_x
_atom_site_fract_y
_atom_site_fract_z
Si Si1 0.438828 0.538167 0.246437
Si Si2 0.658619 0.023259 0.247737
Si Si3 0.791841 0.370355 0.077683
Si Si4 0.929657 0.728747 0.154166
Si Si5 0.902692 0.220991 0.062627
Si Si6 0.099150 0.286914 0.110313
Si Si7 0.808760 0.661797 0.453585
Si Si8 0.491339 0.937149 0.138482
O O1 0.500000 0.595298 0.250000
O O2 0.435757 0.351616 0.245571
O O3 0.415286 0.585506 0.139173
O O4 0.409745 0.614707 0.344062
O O5 0.708569 0.949174 0.311169
O O6 0.625180 0.883836 0.200044
O O7 0.620284 0.117094 0.322190
O O8 0.679796 0.138665 0.163407
O O9 0.838735 0.244407 0.073152
O O10 0.735962 0.293739 0.042871
O O11 0.807108 0.500000 0.000000
O O12 0.984191 0.623355 0.141333
O O13 0.918251 0.821913 0.051337
O O14 0.936166 0.374055 0.090915
O O15 0.043789 0.375439 0.076490
O O16 0.138167 0.279192 0.013564
O O17 0.788027 0.500000 0.500000
O O18 0.500000 0.871374 0.250000
#
# Coordination Sequence:
#
# PCOD8160273 Si02
#       8
#     8   8   8   8   8   8   8   8
#     4  12  24  44  66 107 153 190 239 294 375 448
#     4  11  23  47  69 103 137 187 244 298 368 442
#     4  12  23  47  76 101 139 184 252 307 366 438
#     4  12  25  38  68 108 140 183 245 298 354 438
#     4  12  22  44  68 103 139 185 238 301 363 435
#     4  11  22  47  72  99 151 190 235 295 371 458
#     4  10  28  47  72 109 139 190 251 307 377 440
#     4  12  19  41  72 101 141 193 238 285 367 452
#
# _framework density 22.398358999999999
#
# number of rings (size 3 to 8) (size 9 to 14) (size 15 to 20)
#    0.000    0.500    7.500    1.125    0.000    7.000 
#    2.250    0.000    0.000    0.000    0.000    0.000 
#    0.000    0.000    0.000    0.000    0.000    0.000 
#
# Total GULP energy -396676.417543 kJ/mol
# GULP energy per Si atom -12396.138048 kJ/mol
# Density = 2.234738 g / cm^3
# Si number density = 22.398359 Si / 1000 Ang^3
#
#
#
# Elastic Constant Matrix: (Units=GPa)
#
#
# Indices 1 2 3 4 5 6 
#
# 1 123.2407 41.2837 36.2796 0.0000 0.0000 0.0000
# 2 41.2837 104.9613 28.4124 0.0000 0.0000 0.0000
# 3 36.2796 28.4124 97.2215 0.0000 0.0000 0.0000
# 4 0.0000 0.0000 0.0000 29.1904 0.0000 0.0000
# 5 0.0000 0.0000 0.0000 0.0000 30.5789 0.0000
# 6 0.0000 0.0000 0.0000 0.0000 0.0000 34.7852
#
#
#
# Elastic Compliance Matrix: (Units=1/GPa)
#
#
# Indices 1 2 3 4 5 6 
#
# 1 0.010004 -0.003175 -0.002805 0.000000 0.000000 0.000000
# 2 -0.003175 0.011354 -0.002133 0.000000 0.000000 0.000000
# 3 -0.002805 -0.002133 0.011956 0.000000 0.000000 0.000000
# 4 0.000000 0.000000 0.000000 0.034258 0.000000 0.000000
# 5 0.000000 0.000000 0.000000 0.000000 0.032702 0.000000
# 6 0.000000 0.000000 0.000000 0.000000 0.000000 0.028748
#
#
# Mechanical properties :
#
#
# Convention : Reuss Voigt Hill
#
# Bulk Modulus (GPa) = 58.52661 59.70833 59.11747
# Shear Modulus (GPa) = 33.12495 33.54076 33.33286
#
# Velocity S-wave (km/s) = 3.84982 3.87391 3.86188
# Velocity P-wave (km/s) = 6.77850 6.83556 6.80709
#
# Compressibility (1/GPa) = 0.01708625
#
# Stress axis : x y z
#
# Youngs Moduli (GPa) = 99.96364 88.07716 83.64056
#
# Poissons Ratio (x) = 0.27968 0.23461
# Poissons Ratio (y) = 0.31742 0.17842
# Poissons Ratio (z) = 0.28040 0.18788
#
# Static dielectric constant tensor:
#      x y z
#    x 3.927200 0.000000 0.000000 
#    y 0.000000 3.910970 0.000000 
#    z 0.000000 0.000000 4.114680 
# 
# 
# High freq. dielectric constant tensor:
#      x y z
#    x 1.865090 0.000000 0.000000 
#    y 0.000000 1.882110 0.000000 
#    z 0.000000 0.000000 1.889790 
# 
# From -- ./inp_files/22050.got.cif
#   From: 2010.03.12/outbox.cif.g09.slc.cpg/sg20_12_cif.got.tgz:22050.got - 2010.04.14 01:38:04.
