data_PCOD8160917
_publ_section_title
;
Structure prediction by ZEFSAII (Michael W. Deem and Ramdas Pophale) SiO2 
 PCOD8160917
Probable space group: C 2 2 2
;
_chemical_formula_sum "Si O2"
_cell_formula_units_Z 32
_cell_length_a 5.080956
_cell_length_b 30.644081
_cell_length_c 9.887646
_cell_angle_alpha 90.000000
_cell_angle_beta 90.000000
_cell_angle_gamma 90.000000
_cell_volume 1539.518617
_symmetry_space_group_name_H-M "C 2 2 2"
_symmetry_group_IT_number 21
_symmetry_cell_setting 'orthorhombic'
loop_
_space_group_symop_operation_xyz
x,y,z
-x,-y,z
x,-y,-z
-x,y,-z
1/2+x,1/2+y,z
1/2-x,1/2-y,z
1/2+x,1/2-y,-z
1/2-x,1/2+y,-z
loop_
_atom_site_type_symbol
_atom_site_label
_atom_site_fract_x
_atom_site_fract_y
_atom_site_fract_z
Si Si1 0.929153 0.336036 0.758378
Si Si2 0.755303 0.980035 0.849091
Si Si3 0.000000 0.723808 0.000000
Si Si4 0.000000 0.720882 0.500000
Si Si5 0.939099 0.881863 0.847052
O O1 0.714095 0.375992 0.764447
O O2 0.864432 0.304006 0.881593
O O3 0.900063 0.310129 0.619744
O O4 0.228337 0.351310 0.774795
O O5 0.793765 0.928520 0.849070
O O6 0.500000 0.000000 0.774045
O O7 0.000000 0.000000 0.767284
O O8 0.752231 0.000000 0.000000
O O9 0.750000 0.750000 0.939518
O O10 0.750000 0.750000 0.545375
O O11 0.000000 0.867829 0.000000
#
# Coordination Sequence:
#
# PCOD8160917 Si02
#       5
#     8   8   4   4   8
#     4  12  25  40  64  91 126 169 211 272 331 377
#     4  10  19  30  53  86 134 166 201 238 312 369
#     4  12  22  36  56  88 119 152 201 260 332 388
#     4  12  26  50  70  88 123 174 233 272 320 400
#     4  12  21  38  59  97 136 163 203 270 322 380
#
# _framework density 20.785717000000002
#
# number of rings (size 3 to 8) (size 9 to 14) (size 15 to 20)
#    0.000    0.500    5.000    6.000    3.500    0.000 
#    0.000    0.000    0.000    0.000    0.000   13.125 
#    0.000    0.000    0.000    0.000    0.000    0.000 
#
# Total GULP energy -198238.106257 kJ/mol
# GULP energy per Si atom -12389.881641 kJ/mol
# Density = 2.073841 g / cm^3
# Si number density = 20.785717 Si / 1000 Ang^3
#
#
#
# Elastic Constant Matrix: (Units=GPa)
#
#
# Indices 1 2 3 4 5 6 
#
# 1 177.0520 42.7079 18.1553 0.0000 0.0000 0.0000
# 2 42.7079 102.9167 37.7467 0.0000 0.0000 0.0000
# 3 18.1553 37.7467 82.5498 0.0000 0.0000 0.0000
# 4 0.0000 0.0000 0.0000 20.8521 0.0000 0.0000
# 5 0.0000 0.0000 0.0000 0.0000 21.4228 0.0000
# 6 0.0000 0.0000 0.0000 0.0000 0.0000 68.2916
#
#
#
# Elastic Compliance Matrix: (Units=1/GPa)
#
#
# Indices 1 2 3 4 5 6 
#
# 1 0.006280 -0.002522 -0.000228 0.000000 0.000000 0.000000
# 2 -0.002522 0.012688 -0.005247 0.000000 0.000000 0.000000
# 3 -0.000228 -0.005247 0.014563 0.000000 0.000000 0.000000
# 4 0.000000 0.000000 0.000000 0.047957 0.000000 0.000000
# 5 0.000000 0.000000 0.000000 0.000000 0.046679 0.000000
# 6 0.000000 0.000000 0.000000 0.000000 0.000000 0.014643
#
#
# Mechanical properties :
#
#
# Convention : Reuss Voigt Hill
#
# Bulk Modulus (GPa) = 57.02316 62.19314 59.60815
# Shear Modulus (GPa) = 30.36752 39.70719 35.03735
#
# Velocity S-wave (km/s) = 3.82642 4.37545 4.11012
# Velocity P-wave (km/s) = 6.85678 7.45065 7.15987
#
# Compressibility (1/GPa) = 0.01753673
#
# Stress axis : x y z
#
# Youngs Moduli (GPa) = 159.23890 78.81633 68.66652
#
# Poissons Ratio (x) = 0.19881 0.01564
# Poissons Ratio (y) = 0.40168 0.36028
# Poissons Ratio (z) = 0.03626 0.41353
#
# Static dielectric constant tensor:
#      x y z
#    x 2.864590 0.000000 0.000000 
#    y 0.000000 3.898870 0.000000 
#    z 0.000000 0.000000 3.068410 
# 
# 
# High freq. dielectric constant tensor:
#      x y z
#    x 1.852740 0.000000 0.000000 
#    y 0.000000 1.819670 0.000000 
#    z 0.000000 0.000000 1.749190 
# 
# From -- ./inp_files/9193.got.cif
#   From: 2010.03.12/outbox.cif.g09.slc.cpg/sg21_5_cif.got.tgz:9193.got - 2010.04.14 01:59:26.
