data_PCOD8160162
_publ_section_title
;
Structure prediction by ZEFSAII (Michael W. Deem and Ramdas Pophale) SiO2 
 PCOD8160162
Probable space group: C 2 2 21
;
_chemical_formula_sum "Si O2"
_cell_formula_units_Z 60
_cell_length_a 10.602088
_cell_length_b 11.924541
_cell_length_c 21.450714
_cell_angle_alpha 90.000000
_cell_angle_beta 90.000000
_cell_angle_gamma 90.000000
_cell_volume 2711.907226
_symmetry_space_group_name_H-M "C 2 2 21"
_symmetry_group_IT_number 20
_symmetry_cell_setting 'orthorhombic'
loop_
_space_group_symop_operation_xyz
x,y,z
-x,-y,1/2+z
x,-y,-z
-x,y,1/2-z
1/2+x,1/2+y,z
1/2-x,1/2-y,1/2+z
1/2+x,1/2-y,-z
1/2-x,1/2+y,1/2-z
loop_
_atom_site_type_symbol
_atom_site_label
_atom_site_fract_x
_atom_site_fract_y
_atom_site_fract_z
Si Si1 0.565926 0.820986 0.989470
Si Si2 0.727373 0.500000 0.500000
Si Si3 0.391425 0.863881 0.099923
Si Si4 0.227159 0.829256 0.681166
Si Si5 0.878496 0.760601 0.210035
Si Si6 0.008331 0.578946 0.133867
Si Si7 0.866808 0.076750 0.557023
Si Si8 0.405221 0.527779 0.868269
O O1 0.691677 0.887327 0.007501
O O2 0.476785 0.801896 0.048769
O O3 0.489071 0.893861 0.938975
O O4 0.602362 0.703958 0.959717
O O5 0.648268 0.502999 0.436482
O O6 0.321271 0.771322 0.139631
O O7 0.281073 0.939811 0.069778
O O8 0.479077 0.946391 0.141791
O O9 0.257900 0.773442 0.747898
O O10 0.349783 0.890876 0.653181
O O11 0.119582 0.925878 0.680608
O O12 0.908519 0.646688 0.174082
O O13 0.844226 0.859908 0.161949
O O14 0.000000 0.800069 0.250000
O O15 0.945318 0.045724 0.619923
O O16 0.909758 0.000000 0.500000
#
# Coordination Sequence:
#
# PCOD8160162 Si02
#       8
#     8   4   8   8   8   8   8   8
#     4  12  22  42  64 101 141 180 228 291 362 428
#     4  12  24  42  74 104 142 174 232 294 370 442
#     4  12  24  41  70 100 139 185 239 285 354 434
#     4  11  24  45  68  99 134 184 240 302 343 435
#     4  10  24  44  71  94 133 192 244 291 359 428
#     4  11  21  45  68  96 132 186 235 290 354 424
#     4  12  24  36  61 101 140 180 220 286 359 433
#     4  12  23  43  72 100 142 187 228 300 379 420
#
# _framework density 22.124652000000001
#
# number of rings (size 3 to 8) (size 9 to 14) (size 15 to 20)
#    0.000    0.533    6.000    2.400    3.733    1.067 
#    0.000    1.333    0.000    0.000    0.000    0.000 
#    0.000    0.000    0.000    0.000    0.000    0.000 
#
# Total GULP energy -371976.528316 kJ/mol
# GULP energy per Si atom -12399.217611 kJ/mol
# Density = 2.207429 g / cm^3
# Si number density = 22.124652 Si / 1000 Ang^3
#
#
#
# Elastic Constant Matrix: (Units=GPa)
#
#
# Indices 1 2 3 4 5 6 
#
# 1 66.4511 36.5074 12.6352 0.0000 0.0000 0.0000
# 2 36.5074 104.1082 11.9804 0.0000 0.0000 0.0000
# 3 12.6352 11.9804 59.1375 0.0000 0.0000 0.0000
# 4 0.0000 0.0000 0.0000 43.2705 0.0000 0.0000
# 5 0.0000 0.0000 0.0000 0.0000 21.3001 0.0000
# 6 0.0000 0.0000 0.0000 0.0000 0.0000 7.9245
#
#
#
# Elastic Compliance Matrix: (Units=1/GPa)
#
#
# Indices 1 2 3 4 5 6 
#
# 1 0.019078 -0.006369 -0.002786 0.000000 0.000000 0.000000
# 2 -0.006369 0.011961 -0.001062 0.000000 0.000000 0.000000
# 3 -0.002786 -0.001062 0.017720 0.000000 0.000000 0.000000
# 4 0.000000 0.000000 0.000000 0.023110 0.000000 0.000000
# 5 0.000000 0.000000 0.000000 0.000000 0.046948 0.000000
# 6 0.000000 0.000000 0.000000 0.000000 0.000000 0.126191
#
#
# Mechanical properties :
#
#
# Convention : Reuss Voigt Hill
#
# Bulk Modulus (GPa) = 35.30558 39.10477 37.20517
# Shear Modulus (GPa) = 18.18944 25.73727 21.96336
#
# Velocity S-wave (km/s) = 2.87040 3.41440 3.15415
# Velocity P-wave (km/s) = 5.19402 5.76691 5.48794
#
# Compressibility (1/GPa) = 0.02832414
#
# Stress axis : x y z
#
# Youngs Moduli (GPa) = 52.41760 83.60404 56.43293
#
# Poissons Ratio (x) = 0.53250 0.15721
# Poissons Ratio (y) = 0.33386 0.05995
# Poissons Ratio (z) = 0.14602 0.08881
#
# Static dielectric constant tensor:
#      x y z
#    x 4.135590 0.000000 0.000000 
#    y 0.000000 4.721810 0.000000 
#    z 0.000000 0.000000 4.094790 
# 
# 
# High freq. dielectric constant tensor:
#      x y z
#    x 1.863280 0.000000 0.000000 
#    y 0.000000 1.880450 0.000000 
#    z 0.000000 0.000000 1.864330 
# 
# From -- ./inp_files/27253.got.cif
#   From: 2010.03.12/outbox.cif.g09.slc.cpg/sg20_14_cif.got.tgz:27253.got - 2010.04.14 01:38:04.
