data_PCOD8160786
_publ_section_title
;
Structure prediction by ZEFSAII (Michael W. Deem and Ramdas Pophale) SiO2 
 PCOD8160786
Probable space group: C 2 2 2
;
_chemical_formula_sum "Si O2"
_cell_formula_units_Z 48
_cell_length_a 18.291843
_cell_length_b 24.527909
_cell_length_c 5.200924
_cell_angle_alpha 90.000000
_cell_angle_beta 90.000000
_cell_angle_gamma 90.000000
_cell_volume 2333.449997
_symmetry_space_group_name_H-M "C 2 2 2"
_symmetry_group_IT_number 21
_symmetry_cell_setting 'orthorhombic'
loop_
_space_group_symop_operation_xyz
x,y,z
-x,-y,z
x,-y,-z
-x,y,-z
1/2+x,1/2+y,z
1/2-x,1/2-y,z
1/2+x,1/2-y,-z
1/2-x,1/2+y,-z
loop_
_atom_site_type_symbol
_atom_site_label
_atom_site_fract_x
_atom_site_fract_y
_atom_site_fract_z
Si Si1 0.196403 0.799492 0.715022
Si Si2 0.535082 0.391794 0.248110
Si Si3 0.582349 0.935070 0.495955
Si Si4 0.028895 0.770920 0.746226
Si Si5 0.800180 0.131409 0.211195
Si Si6 0.833132 0.564564 0.986580
O O1 0.250000 0.750000 0.664201
O O2 0.114293 0.777952 0.704195
O O3 0.215096 0.844923 0.497494
O O4 0.204824 0.820459 0.004526
O O5 0.500000 0.420309 0.500000
O O6 0.514264 0.328250 0.249340
O O7 0.621834 0.398261 0.229101
O O8 0.500000 0.421042 0.000000
O O9 0.500000 0.912071 0.500000
O O10 0.631968 0.913658 0.255593
O O11 0.581487 0.000000 0.500000
O O12 0.614632 0.913648 0.762249
O O13 0.000000 0.737087 0.500000
O O14 0.000000 0.739136 0.000000
O O15 0.745786 0.086350 0.097151
O O16 0.826853 0.500000 0.000000
#
# Coordination Sequence:
#
# PCOD8160786 Si02
#       6
#     8   8   8   8   8   8
#     4  12  23  35  55  85 113 144 189 245 289 335
#     4  10  16  30  54  80 100 135 196 229 257 321
#     4   9  17  33  57  84 107 144 196 236 263 330
#     4  10  16  32  54  76 101 135 192 237 257 319
#     4  12  21  36  57  83 116 150 182 241 291 339
#     4  10  21  35  56  88 118 146 187 237 293 341
#
# _framework density 20.570401
#
# number of rings (size 3 to 8) (size 9 to 14) (size 15 to 20)
#    0.000    1.500    6.667    2.000    0.000    2.000 
#    0.000    0.000    0.000   10.500    0.000    2.333 
#    0.000    0.000    0.000    0.000    0.000    0.000 
#
# Total GULP energy -297317.154824 kJ/mol
# GULP energy per Si atom -12388.214784 kJ/mol
# Density = 2.052358 g / cm^3
# Si number density = 20.570401 Si / 1000 Ang^3
#
#
#
# Elastic Constant Matrix: (Units=GPa)
#
#
# Indices 1 2 3 4 5 6 
#
# 1 171.9119 30.7792 59.8094 0.0000 0.0000 0.0000
# 2 30.7792 16.9086 19.9152 0.0000 0.0000 0.0000
# 3 59.8094 19.9152 190.4683 0.0000 0.0000 0.0000
# 4 0.0000 0.0000 0.0000 18.7763 0.0000 0.0000
# 5 0.0000 0.0000 0.0000 0.0000 40.6185 0.0000
# 6 0.0000 0.0000 0.0000 0.0000 0.0000 22.7547
#
#
#
# Elastic Compliance Matrix: (Units=1/GPa)
#
#
# Indices 1 2 3 4 5 6 
#
# 1 0.008884 -0.014696 -0.001253 0.000000 0.000000 0.000000
# 2 -0.014696 0.091758 -0.004979 0.000000 0.000000 0.000000
# 3 -0.001253 -0.004979 0.006164 0.000000 0.000000 0.000000
# 4 0.000000 0.000000 0.000000 0.053259 0.000000 0.000000
# 5 0.000000 0.000000 0.000000 0.000000 0.024619 0.000000
# 6 0.000000 0.000000 0.000000 0.000000 0.000000 0.043947
#
#
# Mechanical properties :
#
#
# Convention : Reuss Voigt Hill
#
# Bulk Modulus (GPa) = 15.39660 66.69960 41.04810
# Shear Modulus (GPa) = 17.11518 34.34890 25.73204
#
# Velocity S-wave (km/s) = 2.88762 4.09078 3.54068
# Velocity P-wave (km/s) = 4.31496 7.40325 6.05916
#
# Compressibility (1/GPa) = 0.06494940
#
# Stress axis : x y z
#
# Youngs Moduli (GPa) = 112.56076 10.89822 162.22306
#
# Poissons Ratio (x) = 0.16016 0.20328
# Poissons Ratio (y) = 1.65420 0.80778
# Poissons Ratio (z) = 0.14105 0.05427
#
# Static dielectric constant tensor:
#      x y z
#    x 1.824330 0.000000 0.000000 
#    y 0.000000 3.021740 0.000000 
#    z 0.000000 0.000000 2.206440 
# 
# 
# High freq. dielectric constant tensor:
#      x y z
#    x 1.820420 0.000000 0.000000 
#    y 0.000000 1.726810 0.000000 
#    z 0.000000 0.000000 1.842840 
# 
# From -- ./inp_files/4131.got.cif
#   From: 2010.03.12/outbox.cif.g09.slc.cpg/sg21_3_cif.got.tgz:4131.got - 2010.04.14 01:59:26.
