data_PCOD8160495
_publ_section_title
;
Structure prediction by ZEFSAII (Michael W. Deem and Ramdas Pophale) SiO2 
 PCOD8160495
Probable space group: C 2 2 21
;
_chemical_formula_sum "Si O2"
_cell_formula_units_Z 40
_cell_length_a 14.893248
_cell_length_b 15.986631
_cell_length_c 7.505976
_cell_angle_alpha 90.000000
_cell_angle_beta 90.000000
_cell_angle_gamma 90.000000
_cell_volume 1787.119294
_symmetry_space_group_name_H-M "C 2 2 21"
_symmetry_group_IT_number 20
_symmetry_cell_setting 'orthorhombic'
loop_
_space_group_symop_operation_xyz
x,y,z
-x,-y,1/2+z
x,-y,-z
-x,y,1/2-z
1/2+x,1/2+y,z
1/2-x,1/2-y,1/2+z
1/2+x,1/2-y,-z
1/2-x,1/2+y,1/2-z
loop_
_atom_site_type_symbol
_atom_site_label
_atom_site_fract_x
_atom_site_fract_y
_atom_site_fract_z
Si Si1 0.152735 0.238530 0.485637
Si Si2 0.663261 0.187401 0.146364
Si Si3 0.915135 0.936072 0.859562
Si Si4 0.767542 0.486155 0.793144
Si Si5 0.404309 0.126176 0.701950
O O1 0.260139 0.240490 0.456526
O O2 0.125414 0.257932 0.690104
O O3 0.123303 0.144730 0.453481
O O4 0.108549 0.302814 0.349343
O O5 0.695763 0.103128 0.239004
O O6 0.588944 0.167787 0.995208
O O7 0.837822 0.987743 0.753852
O O8 0.000000 0.904976 0.750000
O O9 0.956164 0.000000 0.000000
O O10 0.822978 0.559309 0.692606
O O11 0.783138 0.500000 0.000000
O O12 0.500000 0.082571 0.750000
#
# Coordination Sequence:
#
# PCOD8160495 Si02
#       5
#     8   8   8   8   8
#     4  11  23  45  74 105 138 192 243 296 362 421
#     4  11  23  44  74 101 144 194 235 293 362 427
#     4  11  25  47  72 106 140 187 246 304 360 428
#     4  11  23  44  75 104 145 193 233 291 372 430
#     4  12  26  45  71 111 150 187 242 295 351 438
#
# _framework density 22.382390999999998
#
# number of rings (size 3 to 8) (size 9 to 14) (size 15 to 20)
#    0.000    0.800    4.000    4.200    0.000    2.400 
#    7.200    0.000    0.000    0.000    0.000    0.000 
#    0.000    0.000    0.000    0.000    0.000    0.000 
#
# Total GULP energy -247988.982242 kJ/mol
# GULP energy per Si atom -12399.449112 kJ/mol
# Density = 2.233145 g / cm^3
# Si number density = 22.382391 Si / 1000 Ang^3
#
#
#
# Elastic Constant Matrix: (Units=GPa)
#
#
# Indices 1 2 3 4 5 6 
#
# 1 113.3962 28.8323 47.8285 0.0000 0.0000 0.0000
# 2 28.8323 80.3130 28.0788 0.0000 0.0000 0.0000
# 3 47.8285 28.0788 158.3616 0.0000 0.0000 0.0000
# 4 0.0000 0.0000 0.0000 36.1285 0.0000 0.0000
# 5 0.0000 0.0000 0.0000 0.0000 24.4432 0.0000
# 6 0.0000 0.0000 0.0000 0.0000 0.0000 17.8092
#
#
#
# Elastic Compliance Matrix: (Units=1/GPa)
#
#
# Indices 1 2 3 4 5 6 
#
# 1 0.010701 -0.002891 -0.002719 0.000000 0.000000 0.000000
# 2 -0.002891 0.014055 -0.001619 0.000000 0.000000 0.000000
# 3 -0.002719 -0.001619 0.007423 0.000000 0.000000 0.000000
# 4 0.000000 0.000000 0.000000 0.027679 0.000000 0.000000
# 5 0.000000 0.000000 0.000000 0.000000 0.040911 0.000000
# 6 0.000000 0.000000 0.000000 0.000000 0.000000 0.056151
#
#
# Mechanical properties :
#
#
# Convention : Reuss Voigt Hill
#
# Bulk Modulus (GPa) = 56.43151 62.39444 59.41298
# Shear Modulus (GPa) = 28.20323 32.16491 30.18407
#
# Velocity S-wave (km/s) = 3.55359 3.79497 3.67626
# Velocity P-wave (km/s) = 6.48880 6.86582 6.67997
#
# Compressibility (1/GPa) = 0.01772060
#
# Stress axis : x y z
#
# Youngs Moduli (GPa) = 93.45280 71.14850 134.71661
#
# Poissons Ratio (x) = 0.20568 0.36633
# Poissons Ratio (y) = 0.27015 0.21811
# Poissons Ratio (z) = 0.25412 0.11519
#
# Static dielectric constant tensor:
#      x y z
#    x 4.031560 0.000000 0.000000 
#    y 0.000000 4.034840 0.000000 
#    z 0.000000 0.000000 4.340920 
# 
# 
# High freq. dielectric constant tensor:
#      x y z
#    x 1.869480 0.000000 0.000000 
#    y 0.000000 1.886970 0.000000 
#    z 0.000000 0.000000 1.897360 
# 
# From -- ./inp_files/8101.got.cif
#   From: 2010.03.12/outbox.cif.g09.slc.cpg/sg20_5_cif.got.tgz:8101.got - 2010.04.14 01:38:04.
