data_PCOD8160959
_publ_section_title
;
Structure prediction by ZEFSAII (Michael W. Deem and Ramdas Pophale) SiO2 
 PCOD8160959
Probable space group: C 2 2 2
;
_chemical_formula_sum "Si O2"
_cell_formula_units_Z 64
_cell_length_a 19.124437
_cell_length_b 7.823119
_cell_length_c 22.861346
_cell_angle_alpha 90.000000
_cell_angle_beta 90.000000
_cell_angle_gamma 90.000000
_cell_volume 3420.348763
_symmetry_space_group_name_H-M "C 2 2 2"
_symmetry_group_IT_number 21
_symmetry_cell_setting 'orthorhombic'
loop_
_space_group_symop_operation_xyz
x,y,z
-x,-y,z
x,-y,-z
-x,y,-z
1/2+x,1/2+y,z
1/2-x,1/2-y,z
1/2+x,1/2-y,-z
1/2-x,1/2+y,-z
loop_
_atom_site_type_symbol
_atom_site_label
_atom_site_fract_x
_atom_site_fract_y
_atom_site_fract_z
Si Si1 0.921399 0.429868 0.877801
Si Si2 0.580888 0.685550 0.334335
Si Si3 0.688841 0.868023 0.953890
Si Si4 0.582305 0.986147 0.254376
Si Si5 0.429307 0.308660 0.022047
Si Si6 0.326721 0.803674 0.431172
Si Si7 0.327603 0.204399 0.436038
Si Si8 0.918174 0.805969 0.673205
O O1 0.861399 0.546072 0.906568
O O2 0.896293 0.431941 0.810904
O O3 0.921719 0.239950 0.908346
O O4 0.000000 0.500000 0.883731
O O5 0.613753 0.834454 0.294094
O O6 0.616666 0.691894 0.397704
O O7 0.499172 0.722625 0.341083
O O8 0.594543 0.500111 0.304513
O O9 0.750000 0.750000 0.925160
O O10 0.640442 0.750021 0.992374
O O11 0.723929 0.000000 0.000000
O O12 0.500000 0.000000 0.258567
O O13 0.610580 0.170791 0.277889
O O14 0.438510 0.500000 0.000000
O O15 0.500000 0.211120 0.000000
O O16 0.250000 0.750000 0.409738
O O17 0.338677 0.736098 0.497087
O O18 0.381000 0.714303 0.388694
O O19 0.339320 0.004496 0.428161
O O20 0.250000 0.250000 0.414565
#
# Coordination Sequence:
#
# PCOD8160959 Si02
#       8
#     8   8   8   8   8   8   8   8
#     4  10  19  36  59  83 118 157 197 245 289 347
#     4  10  20  36  58  80 113 147 193 238 288 352
#     4  10  20  34  58  82 119 154 186 228 297 344
#     4   9  19  37  57  81 113 153 197 243 289 335
#     4  10  19  33  55  89 118 146 194 238 282 353
#     4  10  20  34  54  83 112 146 188 239 295 357
#     4  10  20  34  55  80 113 147 187 239 298 353
#     4  10  20  36  57  83 110 148 191 239 291 347
#
# _framework density 18.711541
#
# number of rings (size 3 to 8) (size 9 to 14) (size 15 to 20)
#    0.000    2.125    2.500    1.125    0.000    2.000 
#    2.250    4.375    0.000    0.750    0.000    0.000 
#    0.000    0.000    0.000    0.000    0.000    0.000 
#
# Total GULP energy -396419.954135 kJ/mol
# GULP energy per Si atom -12388.123567 kJ/mol
# Density = 1.866895 g / cm^3
# Si number density = 18.711541 Si / 1000 Ang^3
#
#
#
# Elastic Constant Matrix: (Units=GPa)
#
#
# Indices 1 2 3 4 5 6 
#
# 1 66.2005 37.0145 38.0526 0.0000 0.0000 0.0000
# 2 37.0145 113.3888 58.4096 0.0000 0.0000 0.0000
# 3 38.0526 58.4096 124.6965 0.0000 0.0000 0.0000
# 4 0.0000 0.0000 0.0000 19.0740 0.0000 0.0000
# 5 0.0000 0.0000 0.0000 0.0000 9.3849 0.0000
# 6 0.0000 0.0000 0.0000 0.0000 0.0000 6.2272
#
#
#
# Elastic Compliance Matrix: (Units=1/GPa)
#
#
# Indices 1 2 3 4 5 6 
#
# 1 0.019878 -0.004434 -0.003989 0.000000 0.000000 0.000000
# 2 -0.004434 0.012613 -0.004555 0.000000 0.000000 0.000000
# 3 -0.003989 -0.004555 0.011370 0.000000 0.000000 0.000000
# 4 0.000000 0.000000 0.000000 0.052427 0.000000 0.000000
# 5 0.000000 0.000000 0.000000 0.000000 0.106554 0.000000
# 6 0.000000 0.000000 0.000000 0.000000 0.000000 0.160585
#
#
# Mechanical properties :
#
#
# Convention : Reuss Voigt Hill
#
# Bulk Modulus (GPa) = 55.84998 63.47101 59.66050
# Shear Modulus (GPa) = 12.64696 18.32451 15.48573
#
# Velocity S-wave (km/s) = 2.60261 3.13280 2.87993
# Velocity P-wave (km/s) = 6.24052 6.86151 6.55837
#
# Compressibility (1/GPa) = 0.01790511
#
# Stress axis : x y z
#
# Youngs Moduli (GPa) = 50.30766 79.28278 87.94773
#
# Poissons Ratio (x) = 0.35154 0.35082
# Poissons Ratio (y) = 0.22307 0.40061
# Poissons Ratio (z) = 0.20067 0.36114
#
# Static dielectric constant tensor:
#      x y z
#    x 3.550110 0.000000 0.000000 
#    y 0.000000 3.474670 0.000000 
#    z 0.000000 0.000000 3.667190 
# 
# 
# High freq. dielectric constant tensor:
#      x y z
#    x 1.716020 0.000000 0.000000 
#    y 0.000000 1.735390 0.000000 
#    z 0.000000 0.000000 1.710100 
# 
# From -- ./inp_files/37700.got.cif
#   From: 2010.03.12/outbox.cif.g09.slc.cpg/sg21_19_cif.got.tgz:37700.got - 2010.04.14 01:59:26.
