data_PCOD8160172
_publ_section_title
;
Structure prediction by ZEFSAII (Michael W. Deem and Ramdas Pophale) SiO2 
 PCOD8160172
Probable space group: C 2 2 21
;
_chemical_formula_sum "Si O2"
_cell_formula_units_Z 32
_cell_length_a 14.175989
_cell_length_b 12.457115
_cell_length_c 7.901308
_cell_angle_alpha 90.000000
_cell_angle_beta 90.000000
_cell_angle_gamma 90.000000
_cell_volume 1395.307191
_symmetry_space_group_name_H-M "C 2 2 21"
_symmetry_group_IT_number 20
_symmetry_cell_setting 'orthorhombic'
loop_
_space_group_symop_operation_xyz
x,y,z
-x,-y,1/2+z
x,-y,-z
-x,y,1/2-z
1/2+x,1/2+y,z
1/2-x,1/2-y,1/2+z
1/2+x,1/2-y,-z
1/2-x,1/2+y,1/2-z
loop_
_atom_site_type_symbol
_atom_site_label
_atom_site_fract_x
_atom_site_fract_y
_atom_site_fract_z
Si Si1 0.382092 0.768318 0.529041
Si Si2 0.813182 0.717374 0.851113
Si Si3 0.000000 0.421419 0.750000
Si Si4 0.141277 0.500000 0.500000
Si Si5 0.466517 0.615056 0.062585
O O1 0.292404 0.765105 0.653835
O O2 0.350476 0.799678 0.338873
O O3 0.455071 0.856139 0.595019
O O4 0.441062 0.656899 0.538391
O O5 0.799811 0.608285 0.962981
O O6 0.882050 0.798502 0.951507
O O7 0.919818 0.494590 0.829940
O O8 0.500000 0.597906 0.250000
O O9 0.429725 0.500000 0.000000
#
# Coordination Sequence:
#
# PCOD8160172 Si02
#       5
#     8   8   4   4   8
#     4  11  25  47  70 100 141 178 234 283 345 406
#     4  11  25  47  66 107 137 179 233 284 342 414
#     4  12  24  44  72  98 140 184 224 290 342 412
#     4  12  24  42  72 102 138 180 230 284 344 412
#     4  10  24  45  69  97 135 179 228 281 337 403
#
# _framework density 22.934017999999998
#
# number of rings (size 3 to 8) (size 9 to 14) (size 15 to 20)
#    0.000    1.000    2.500    3.000    5.250    0.000 
#   11.250    0.000    0.000    0.000    0.000    0.000 
#    0.000    0.000    0.000    0.000    0.000    0.000 
#
# Total GULP energy -198374.128432 kJ/mol
# GULP energy per Si atom -12398.383027 kJ/mol
# Density = 2.288182 g / cm^3
# Si number density = 22.934018 Si / 1000 Ang^3
#
#
#
# Elastic Constant Matrix: (Units=GPa)
#
#
# Indices 1 2 3 4 5 6 
#
# 1 112.2523 27.0928 24.4889 0.0000 0.0000 0.0000
# 2 27.0928 116.5705 20.7444 0.0000 0.0000 0.0000
# 3 24.4889 20.7444 57.1740 0.0000 0.0000 0.0000
# 4 0.0000 0.0000 0.0000 21.8134 0.0000 0.0000
# 5 0.0000 0.0000 0.0000 0.0000 45.2708 0.0000
# 6 0.0000 0.0000 0.0000 0.0000 0.0000 17.2729
#
#
#
# Elastic Compliance Matrix: (Units=1/GPa)
#
#
# Indices 1 2 3 4 5 6 
#
# 1 0.010129 -0.001691 -0.003725 0.000000 0.000000 0.000000
# 2 -0.001691 0.009453 -0.002705 0.000000 0.000000 0.000000
# 3 -0.003725 -0.002705 0.020068 0.000000 0.000000 0.000000
# 4 0.000000 0.000000 0.000000 0.045843 0.000000 0.000000
# 5 0.000000 0.000000 0.000000 0.000000 0.022089 0.000000
# 6 0.000000 0.000000 0.000000 0.000000 0.000000 0.057894
#
#
# Mechanical properties :
#
#
# Convention : Reuss Voigt Hill
#
# Bulk Modulus (GPa) = 42.72310 47.84988 45.28649
# Shear Modulus (GPa) = 26.38213 31.11613 28.74913
#
# Velocity S-wave (km/s) = 3.39536 3.68743 3.54440
# Velocity P-wave (km/s) = 5.83442 6.24812 6.04481
#
# Compressibility (1/GPa) = 0.02340654
#
# Stress axis : x y z
#
# Youngs Moduli (GPa) = 98.72292 105.78610 49.83175
#
# Poissons Ratio (x) = 0.17892 0.18562
# Poissons Ratio (y) = 0.16697 0.13481
# Poissons Ratio (z) = 0.36774 0.28619
#
# Static dielectric constant tensor:
#      x y z
#    x 4.175600 0.000000 0.000000 
#    y 0.000000 4.283010 0.000000 
#    z 0.000000 0.000000 3.222110 
# 
# 
# High freq. dielectric constant tensor:
#      x y z
#    x 1.906880 0.000000 0.000000 
#    y 0.000000 1.903150 0.000000 
#    z 0.000000 0.000000 1.912190 
# 
# From -- ./inp_files/6833.got.cif
#   From: 2010.03.12/outbox.cif.g09.slc.cpg/sg20_4_cif.got.tgz:6833.got - 2010.04.14 01:38:04.
