data_PCOD8160101
_publ_section_title
;
Structure prediction by ZEFSAII (Michael W. Deem and Ramdas Pophale) SiO2 
 PCOD8160101
Probable space group: C 2 2 21
;
_chemical_formula_sum "Si O2"
_cell_formula_units_Z 48
_cell_length_a 12.714071
_cell_length_b 13.196681
_cell_length_c 13.779956
_cell_angle_alpha 90.000000
_cell_angle_beta 90.000000
_cell_angle_gamma 90.000000
_cell_volume 2312.049788
_symmetry_space_group_name_H-M "C 2 2 21"
_symmetry_group_IT_number 20
_symmetry_cell_setting 'orthorhombic'
loop_
_space_group_symop_operation_xyz
x,y,z
-x,-y,1/2+z
x,-y,-z
-x,y,1/2-z
1/2+x,1/2+y,z
1/2-x,1/2-y,1/2+z
1/2+x,1/2-y,-z
1/2-x,1/2+y,1/2-z
loop_
_atom_site_type_symbol
_atom_site_label
_atom_site_fract_x
_atom_site_fract_y
_atom_site_fract_z
Si Si1 0.028162 0.109852 0.534723
Si Si2 0.000000 0.324575 0.250000
Si Si3 0.937300 0.508250 0.612228
Si Si4 0.154734 0.804893 0.167401
Si Si5 0.854628 0.186007 0.146452
Si Si6 0.500000 0.838013 0.750000
Si Si7 0.700632 0.535326 0.679055
O O1 0.066852 0.179123 0.445147
O O2 0.128862 0.096090 0.603600
O O3 0.932652 0.166352 0.587793
O O4 0.987307 0.000000 0.500000
O O5 0.992378 0.392025 0.346354
O O6 0.899095 0.254293 0.233702
O O7 0.958395 0.500000 0.500000
O O8 0.815110 0.518743 0.635522
O O9 0.993496 0.408797 0.655562
O O10 0.244641 0.738378 0.114351
O O11 0.201825 0.905467 0.218468
O O12 0.102506 0.734373 0.251066
O O13 0.843970 0.076531 0.196099
#
# Coordination Sequence:
#
# PCOD8160101 Si02
#       7
#     8   4   8   8   8   4   8
#     4  10  24  41  65  99 132 174 221 281 340 400
#     4  11  26  41  66 102 126 177 232 281 336 402
#     4  11  24  44  66  95 137 176 226 281 337 409
#     4  12  23  45  67  98 135 175 227 277 342 405
#     4  11  25  42  67  96 135 174 223 276 341 405
#     4  11  24  41  66  96 130 185 218 275 338 404
#     4  11  22  41  68  99 132 172 221 280 338 407
#
# _framework density 20.760798999999999
#
# number of rings (size 3 to 8) (size 9 to 14) (size 15 to 20)
#    0.000    1.000    5.000    1.500    7.000    0.000 
#    0.000    2.500    0.000    0.000    0.000    0.000 
#    0.000    0.000    0.000    0.000    0.000    0.000 
#
# Total GULP energy -297572.429154 kJ/mol
# GULP energy per Si atom -12398.851215 kJ/mol
# Density = 2.071355 g / cm^3
# Si number density = 20.760799 Si / 1000 Ang^3
#
#
#
# Elastic Constant Matrix: (Units=GPa)
#
#
# Indices 1 2 3 4 5 6 
#
# 1 100.3929 51.8655 46.8575 0.0000 0.0000 0.0000
# 2 51.8655 136.4429 69.2832 0.0000 0.0000 0.0000
# 3 46.8575 69.2832 124.2398 0.0000 0.0000 0.0000
# 4 0.0000 0.0000 0.0000 5.4253 0.0000 0.0000
# 5 0.0000 0.0000 0.0000 0.0000 33.8161 0.0000
# 6 0.0000 0.0000 0.0000 0.0000 0.0000 4647.9880
#
#
#
# Elastic Compliance Matrix: (Units=1/GPa)
#
#
# Indices 1 2 3 4 5 6 
#
# 1 0.013167 -0.003464 -0.003034 0.000000 0.000000 0.000000
# 2 -0.003464 0.011136 -0.004903 0.000000 0.000000 0.000000
# 3 -0.003034 -0.004903 0.011928 0.000000 0.000000 0.000000
# 4 0.000000 0.000000 0.000000 0.184322 0.000000 0.000000
# 5 0.000000 0.000000 0.000000 0.000000 0.029572 0.000000
# 6 0.000000 0.000000 0.000000 0.000000 0.000000 0.000215
#
#
# Mechanical properties :
#
#
# Convention : Reuss Voigt Hill
#
# Bulk Modulus (GPa) = 74.47825 77.45423 75.96624
# Shear Modulus (GPa) = 18.01036 950.31718 484.16377
#
# Velocity S-wave (km/s) = 2.94856 21.41821 15.28780
# Velocity P-wave (km/s) = 6.89524 25.47630 18.66261
#
# Compressibility (1/GPa) = 0.01342674
#
# Stress axis : x y z
#
# Youngs Moduli (GPa) = 75.94892 89.80018 83.83930
#
# Poissons Ratio (x) = 0.31111 0.25436
# Poissons Ratio (y) = 0.26312 0.41109
# Poissons Ratio (z) = 0.23042 0.44032
#
# Static dielectric constant tensor:
#      x y z
#    x 3.784520 0.000000 0.000000 
#    y 0.000000 4.128840 0.000000 
#    z 0.000000 0.000000 -1.182690 
# 
# 
# High freq. dielectric constant tensor:
#      x y z
#    x 1.813120 0.000000 0.000000 
#    y 0.000000 1.836950 0.000000 
#    z 0.000000 0.000000 1.793120 
# 
# From -- ./inp_files/20690.got.cif
#   From: 2010.03.12/outbox.cif.g09.slc.cpg/sg20_11_cif.got.tgz:20690.got - 2010.04.14 01:38:04.
