data_PCOD8160582
_publ_section_title
;
Structure prediction by ZEFSAII (Michael W. Deem and Ramdas Pophale) SiO2 
 PCOD8160582
Probable space group: C 2 2 21
;
_chemical_formula_sum "Si O2"
_cell_formula_units_Z 24
_cell_length_a 21.818665
_cell_length_b 5.473228
_cell_length_c 7.691764
_cell_angle_alpha 90.000000
_cell_angle_beta 90.000000
_cell_angle_gamma 90.000000
_cell_volume 918.539136
_symmetry_space_group_name_H-M "C 2 2 21"
_symmetry_group_IT_number 20
_symmetry_cell_setting 'orthorhombic'
loop_
_space_group_symop_operation_xyz
x,y,z
-x,-y,1/2+z
x,-y,-z
-x,y,1/2-z
1/2+x,1/2+y,z
1/2-x,1/2-y,1/2+z
1/2+x,1/2-y,-z
1/2-x,1/2+y,1/2-z
loop_
_atom_site_type_symbol
_atom_site_label
_atom_site_fract_x
_atom_site_fract_y
_atom_site_fract_z
Si Si1 0.247775 0.741121 0.351991
Si Si2 0.139773 0.000000 0.500000
Si Si3 0.852638 0.500000 0.500000
Si Si4 0.568034 0.130314 0.685372
O O1 0.245284 0.467482 0.281897
O O2 0.183166 0.773030 0.448710
O O3 0.306370 0.766018 0.483399
O O4 0.098518 0.898443 0.658971
O O5 0.895000 0.527297 0.328922
O O6 0.500000 0.177337 0.750000
O O7 0.567257 0.000000 0.500000
#
# Coordination Sequence:
#
# PCOD8160582 Si02
#       4
#     8   4   4   8
#     4  11  24  47  79 119 159 205 263 340 408 488
#     4  11  26  44  74 112 162 193 278 326 410 479
#     4  11  24  48  80 110 156 209 270 332 416 473
#     4  12  26  51  77 112 153 217 270 341 398 499
#
# _framework density 26.128443999999998
#
# number of rings (size 3 to 8) (size 9 to 14) (size 15 to 20)
#    0.000    0.667    5.000    2.000    0.000    5.333 
#   12.000    0.000    0.000    0.000    0.000    0.000 
#    0.000    0.000    0.000    0.000    0.000    0.000 
#
# Total GULP energy -148681.416513 kJ/mol
# GULP energy per Si atom -12390.118043 kJ/mol
# Density = 2.606897 g / cm^3
# Si number density = 26.128444 Si / 1000 Ang^3
#
#
#
# Elastic Constant Matrix: (Units=GPa)
#
#
# Indices 1 2 3 4 5 6 
#
# 1 231.4394 55.6058 102.6632 0.0000 0.0000 0.0000
# 2 55.6058 127.9827 63.6422 0.0000 0.0000 0.0000
# 3 102.6632 63.6422 166.7644 0.0000 0.0000 0.0000
# 4 0.0000 0.0000 0.0000 62.0975 0.0000 0.0000
# 5 0.0000 0.0000 0.0000 0.0000 65.0898 0.0000
# 6 0.0000 0.0000 0.0000 0.0000 0.0000 20.6415
#
#
#
# Elastic Compliance Matrix: (Units=1/GPa)
#
#
# Indices 1 2 3 4 5 6 
#
# 1 0.006037 -0.000956 -0.003352 0.000000 0.000000 0.000000
# 2 -0.000956 0.009795 -0.003149 0.000000 0.000000 0.000000
# 3 -0.003352 -0.003149 0.009262 0.000000 0.000000 0.000000
# 4 0.000000 0.000000 0.000000 0.016104 0.000000 0.000000
# 5 0.000000 0.000000 0.000000 0.000000 0.015363 0.000000
# 6 0.000000 0.000000 0.000000 0.000000 0.000000 0.048446
#
#
# Mechanical properties :
#
#
# Convention : Reuss Voigt Hill
#
# Bulk Modulus (GPa) = 98.23812 107.77878 103.00845
# Shear Modulus (GPa) = 40.54642 49.85079 45.19861
#
# Velocity S-wave (km/s) = 3.94358 4.37270 4.16367
# Velocity P-wave (km/s) = 7.64300 8.17516 7.91356
#
# Compressibility (1/GPa) = 0.01017935
#
# Stress axis : x y z
#
# Youngs Moduli (GPa) = 165.63592 102.09113 107.97104
#
# Poissons Ratio (x) = 0.09764 0.36189
# Poissons Ratio (y) = 0.15841 0.34004
# Poissons Ratio (z) = 0.55516 0.32152
#
# Static dielectric constant tensor:
#      x y z
#    x 5.184900 0.000000 0.000000 
#    y 0.000000 4.467180 0.000000 
#    z 0.000000 0.000000 5.364320 
# 
# 
# High freq. dielectric constant tensor:
#      x y z
#    x 2.064690 0.000000 0.000000 
#    y 0.000000 2.033950 0.000000 
#    z 0.000000 0.000000 2.067060 
# 
# From -- ./inp_files/10434.got.cif
#   From: 2010.03.12/outbox.cif.g09.slc.cpg/sg20_6_cif.got.tgz:10434.got - 2010.04.14 01:38:04.
