data_PCOD8160210
_publ_section_title
;
Structure prediction by ZEFSAII (Michael W. Deem and Ramdas Pophale) SiO2 
 PCOD8160210
Probable space group: C 2 2 21
;
_chemical_formula_sum "Si O2"
_cell_formula_units_Z 32
_cell_length_a 10.072991
_cell_length_b 14.317094
_cell_length_c 9.229775
_cell_angle_alpha 90.000000
_cell_angle_beta 90.000000
_cell_angle_gamma 90.000000
_cell_volume 1331.080853
_symmetry_space_group_name_H-M "C 2 2 21"
_symmetry_group_IT_number 20
_symmetry_cell_setting 'orthorhombic'
loop_
_space_group_symop_operation_xyz
x,y,z
-x,-y,1/2+z
x,-y,-z
-x,y,1/2-z
1/2+x,1/2+y,z
1/2-x,1/2-y,1/2+z
1/2+x,1/2-y,-z
1/2-x,1/2+y,1/2-z
loop_
_atom_site_type_symbol
_atom_site_label
_atom_site_fract_x
_atom_site_fract_y
_atom_site_fract_z
Si Si1 0.123076 0.963190 0.657454
Si Si2 0.178663 0.251116 0.372353
Si Si3 0.874504 0.578463 0.673000
Si Si4 0.042541 0.683812 0.089039
O O1 0.144704 0.853534 0.673916
O O2 0.000000 0.997413 0.750000
O O3 0.090492 0.000000 0.500000
O O4 0.252631 0.014786 0.716729
O O5 0.145321 0.317194 0.237298
O O6 0.336302 0.258953 0.408836
O O7 0.088726 0.276700 0.511262
O O8 0.899206 0.592571 0.498878
O O9 0.000000 0.530713 0.750000
O O10 0.000000 0.653846 0.250000
#
# Coordination Sequence:
#
# PCOD8160210 Si02
#       4
#     8   8   8   8
#     4  12  27  49  72 111 148 185 245 303 363 437
#     4  11  25  47  75 105 148 194 239 300 368 438
#     4  10  24  49  71 103 146 191 241 296 362 438
#     4  11  23  42  75 105 140 194 242 292 361 432
#
# _framework density 24.040611999999999
#
# number of rings (size 3 to 8) (size 9 to 14) (size 15 to 20)
#    0.000    1.000    2.500    3.750    3.500    1.000 
#    4.500    0.000    0.000    0.000    0.000    0.000 
#    0.000    0.000    0.000    0.000    0.000    0.000 
#
# Total GULP energy -198438.014418 kJ/mol
# GULP energy per Si atom -12402.375901 kJ/mol
# Density = 2.398589 g / cm^3
# Si number density = 24.040612 Si / 1000 Ang^3
#
#
#
# Elastic Constant Matrix: (Units=GPa)
#
#
# Indices 1 2 3 4 5 6 
#
# 1 186.1848 55.9677 72.8466 0.0000 0.0000 0.0000
# 2 55.9677 124.9019 35.3344 0.0000 0.0000 0.0000
# 3 72.8466 35.3344 127.5828 0.0000 0.0000 0.0000
# 4 0.0000 0.0000 0.0000 0.1453 0.0000 0.0000
# 5 0.0000 0.0000 0.0000 0.0000 47.0522 0.0000
# 6 0.0000 0.0000 0.0000 0.0000 0.0000 38.2271
#
#
#
# Elastic Compliance Matrix: (Units=1/GPa)
#
#
# Indices 1 2 3 4 5 6 
#
# 1 0.007493 -0.002330 -0.003633 0.000000 0.000000 0.000000
# 2 -0.002330 0.009411 -0.001276 0.000000 0.000000 0.000000
# 3 -0.003633 -0.001276 0.010266 0.000000 0.000000 0.000000
# 4 0.000000 0.000000 0.000000 6.880624 0.000000 0.000000
# 5 0.000000 0.000000 0.000000 0.000000 0.021253 0.000000
# 6 0.000000 0.000000 0.000000 0.000000 0.000000 0.026159
#
#
# Mechanical properties :
#
#
# Convention : Reuss Voigt Hill
#
# Bulk Modulus (GPa) = 78.78982 85.21854 82.00418
# Shear Modulus (GPa) = 0.71696 35.38632 18.05164
#
# Velocity S-wave (km/s) = 0.54669 3.84075 2.74319
# Velocity P-wave (km/s) = 5.76570 7.42921 6.64968
#
# Compressibility (1/GPa) = 0.01269199
#
# Stress axis : x y z
#
# Youngs Moduli (GPa) = 133.46230 106.25572 97.41036
#
# Poissons Ratio (x) = 0.24754 0.35389
# Poissons Ratio (y) = 0.31093 0.12432
# Poissons Ratio (z) = 0.48486 0.13561
#
# Static dielectric constant tensor:
#      x y z
#    x 5.098330 0.000000 0.000000 
#    y 0.000000 4.203530 0.000000 
#    z 0.000000 0.000000 4.329480 
# 
# 
# High freq. dielectric constant tensor:
#      x y z
#    x 1.983160 0.000000 0.000000 
#    y 0.000000 1.951930 0.000000 
#    z 0.000000 0.000000 1.956710 
# 
# From -- ./inp_files/6795.got.cif
#   From: 2010.03.12/outbox.cif.g09.slc.cpg/sg20_4_cif.got.tgz:6795.got - 2010.04.14 01:38:04.
