data_PCOD8160606
_publ_section_title
;
Structure prediction by ZEFSAII (Michael W. Deem and Ramdas Pophale) SiO2 
 PCOD8160606
Probable space group: C 2 2 21
;
_chemical_formula_sum "Si O2"
_cell_formula_units_Z 64
_cell_length_a 11.266392
_cell_length_b 8.709765
_cell_length_c 29.743454
_cell_angle_alpha 90.000000
_cell_angle_beta 90.000000
_cell_angle_gamma 90.000000
_cell_volume 2918.654551
_symmetry_space_group_name_H-M "C 2 2 21"
_symmetry_group_IT_number 20
_symmetry_cell_setting 'orthorhombic'
loop_
_space_group_symop_operation_xyz
x,y,z
-x,-y,1/2+z
x,-y,-z
-x,y,1/2-z
1/2+x,1/2+y,z
1/2-x,1/2-y,1/2+z
1/2+x,1/2-y,-z
1/2-x,1/2+y,1/2-z
loop_
_atom_site_type_symbol
_atom_site_label
_atom_site_fract_x
_atom_site_fract_y
_atom_site_fract_z
Si Si1 0.522921 0.575432 0.544914
Si Si2 0.926914 0.383275 0.381211
Si Si3 0.570242 0.918888 0.547188
Si Si4 0.730166 0.678882 0.836473
Si Si5 0.477420 0.310712 0.200382
Si Si6 0.428761 0.968858 0.205734
Si Si7 0.681331 0.572185 0.090146
Si Si8 0.830465 0.011753 0.131927
O O1 0.576876 0.500000 0.500000
O O2 0.507069 0.757166 0.539539
O O3 0.388304 0.520820 0.552024
O O4 0.606878 0.521677 0.585127
O O5 0.908857 0.206263 0.394603
O O6 0.798684 0.442054 0.368134
O O7 0.986194 0.475175 0.422353
O O8 0.008424 0.399860 0.337947
O O9 0.694415 0.871344 0.570178
O O10 0.593326 0.000000 0.500000
O O11 0.602143 0.741315 0.821970
O O12 0.800162 0.613555 0.792748
O O13 0.711698 0.535636 0.868591
O O14 0.812264 0.807041 0.860368
O O15 0.500000 0.379844 0.250000
O O16 0.408036 0.437358 0.171888
O O17 0.405396 0.151541 0.202905
O O18 0.500000 0.922623 0.250000
#
# Coordination Sequence:
#
# PCOD8160606 Si02
#       8
#     8   8   8   8   8   8   8   8
#     4  12  26  47  70 104 139 182 234 290 351 420
#     4  12  24  47  72 101 141 188 229 290 356 412
#     4  12  27  47  71 103 141 181 234 292 351 423
#     4  12  25  44  73 101 140 189 229 290 352 414
#     4  11  26  46  70 105 141 183 236 292 351 423
#     4  11  25  46  69 105 144 182 235 292 349 421
#     4  12  25  47  73 100 138 185 234 286 350 420
#     4  12  25  46  73 100 143 185 234 288 354 420
#
# _framework density 21.927911999999999
#
# number of rings (size 3 to 8) (size 9 to 14) (size 15 to 20)
#    0.000    0.250    5.000    4.125    3.500    1.000 
#    2.250    0.000    0.000    0.000    0.000    0.000 
#    0.000    0.000    0.000    0.000    0.000    0.000 
#
# Total GULP energy -396867.797526 kJ/mol
# GULP energy per Si atom -12402.118673 kJ/mol
# Density = 2.187800 g / cm^3
# Si number density = 21.927912 Si / 1000 Ang^3
#
#
#
# Elastic Constant Matrix: (Units=GPa)
#
#
# Indices 1 2 3 4 5 6 
#
# 1 71.2224 19.0787 8.5454 0.0000 0.0000 0.0000
# 2 19.0787 131.1002 34.4125 0.0000 0.0000 0.0000
# 3 8.5454 34.4125 116.0848 0.0000 0.0000 0.0000
# 4 0.0000 0.0000 0.0000 32.0797 0.0000 0.0000
# 5 0.0000 0.0000 0.0000 0.0000 29.8352 0.0000
# 6 0.0000 0.0000 0.0000 0.0000 0.0000 21.5437
#
#
#
# Elastic Compliance Matrix: (Units=1/GPa)
#
#
# Indices 1 2 3 4 5 6 
#
# 1 0.014635 -0.002003 -0.000484 0.000000 0.000000 0.000000
# 2 -0.002003 0.008545 -0.002386 0.000000 0.000000 0.000000
# 3 -0.000484 -0.002386 0.009357 0.000000 0.000000 0.000000
# 4 0.000000 0.000000 0.000000 0.031172 0.000000 0.000000
# 5 0.000000 0.000000 0.000000 0.000000 0.033517 0.000000
# 6 0.000000 0.000000 0.000000 0.000000 0.000000 0.046417
#
#
# Mechanical properties :
#
#
# Convention : Reuss Voigt Hill
#
# Bulk Modulus (GPa) = 43.87267 49.16452 46.51859
# Shear Modulus (GPa) = 31.05836 33.78310 32.42073
#
# Velocity S-wave (km/s) = 3.76757 3.92936 3.84932
# Velocity P-wave (km/s) = 6.24318 6.56172 6.40443
#
# Compressibility (1/GPa) = 0.02279324
#
# Stress axis : x y z
#
# Youngs Moduli (GPa) = 68.32906 117.02098 106.86902
#
# Poissons Ratio (x) = 0.23438 0.05168
# Poissons Ratio (y) = 0.13685 0.25497
# Poissons Ratio (z) = 0.03304 0.27919
#
# Static dielectric constant tensor:
#      x y z
#    x 4.700680 0.000000 0.000000 
#    y 0.000000 4.181630 0.000000 
#    z 0.000000 0.000000 4.069930 
# 
# 
# High freq. dielectric constant tensor:
#      x y z
#    x 1.878110 0.000000 0.000000 
#    y 0.000000 1.875670 0.000000 
#    z 0.000000 0.000000 1.864710 
# 
# From -- ./inp_files/31199.got.cif
#   From: 2010.03.12/outbox.cif.g09.slc.cpg/sg20_16_cif.got.tgz:31199.got - 2010.04.14 01:38:04.
