data_PCOD8160718
_publ_section_title
;
Structure prediction by ZEFSAII (Michael W. Deem and Ramdas Pophale) SiO2 
 PCOD8160718
Probable space group: C 2 2 21
;
_chemical_formula_sum "Si O2"
_cell_formula_units_Z 40
_cell_length_a 17.023537
_cell_length_b 8.408455
_cell_length_c 11.701590
_cell_angle_alpha 90.000000
_cell_angle_beta 90.000000
_cell_angle_gamma 90.000000
_cell_volume 1674.984839
_symmetry_space_group_name_H-M "C 2 2 21"
_symmetry_group_IT_number 20
_symmetry_cell_setting 'orthorhombic'
loop_
_space_group_symop_operation_xyz
x,y,z
-x,-y,1/2+z
x,-y,-z
-x,y,1/2-z
1/2+x,1/2+y,z
1/2-x,1/2-y,1/2+z
1/2+x,1/2-y,-z
1/2-x,1/2+y,1/2-z
loop_
_atom_site_type_symbol
_atom_site_label
_atom_site_fract_x
_atom_site_fract_y
_atom_site_fract_z
Si Si1 0.547878 0.684827 0.984177
Si Si2 0.384669 0.830216 0.958785
Si Si3 0.869011 0.383243 0.708012
Si Si4 0.587284 0.762238 0.221895
Si Si5 0.201018 0.877883 0.601040
O O1 0.454909 0.712220 0.995518
O O2 0.574239 0.771149 0.866688
O O3 0.565907 0.500000 0.000000
O O4 0.599380 0.761120 0.085467
O O5 0.358421 0.795650 0.828958
O O6 0.308355 0.791869 0.037254
O O7 0.415550 0.000000 0.000000
O O8 0.903831 0.551330 0.750541
O O9 0.788161 0.412120 0.642341
O O10 0.500000 0.702014 0.250000
O O11 0.645278 0.638182 0.286529
O O12 0.174965 0.000000 0.500000
#
# Coordination Sequence:
#
# PCOD8160718 Si02
#       5
#     8   8   8   8   8
#     4  12  27  45  75 117 154 203 267 334 394 474
#     4  12  25  50  77 108 153 208 264 325 405 487
#     4  12  28  48  80 109 160 209 272 324 412 485
#     4  12  25  50  79 108 154 214 258 319 399 491
#     4  12  29  47  75 116 161 201 265 343 403 468
#
# _framework density 23.880814000000001
#
# number of rings (size 3 to 8) (size 9 to 14) (size 15 to 20)
#    0.000    0.000    4.000    5.400    8.400    0.800 
#    0.000    0.000    0.000    0.000    0.000    0.000 
#    0.000    0.000    0.000    0.000    0.000    0.000 
#
# Total GULP energy -247811.426851 kJ/mol
# GULP energy per Si atom -12390.571343 kJ/mol
# Density = 2.382646 g / cm^3
# Si number density = 23.880814 Si / 1000 Ang^3
#
#
#
# Elastic Constant Matrix: (Units=GPa)
#
#
# Indices 1 2 3 4 5 6 
#
# 1 91.4741 26.7172 21.8509 0.0000 0.0000 0.0000
# 2 26.7172 79.5119 19.4002 0.0000 0.0000 0.0000
# 3 21.8509 19.4002 169.2860 0.0000 0.0000 0.0000
# 4 0.0000 0.0000 0.0000 49.6281 0.0000 0.0000
# 5 0.0000 0.0000 0.0000 0.0000 41.5690 0.0000
# 6 0.0000 0.0000 0.0000 0.0000 0.0000 19.3508
#
#
#
# Elastic Compliance Matrix: (Units=1/GPa)
#
#
# Indices 1 2 3 4 5 6 
#
# 1 0.012335 -0.003864 -0.001149 0.000000 0.000000 0.000000
# 2 -0.003864 0.014149 -0.001123 0.000000 0.000000 0.000000
# 3 -0.001149 -0.001123 0.006184 0.000000 0.000000 0.000000
# 4 0.000000 0.000000 0.000000 0.020150 0.000000 0.000000
# 5 0.000000 0.000000 0.000000 0.000000 0.024056 0.000000
# 6 0.000000 0.000000 0.000000 0.000000 0.000000 0.051678
#
#
# Mechanical properties :
#
#
# Convention : Reuss Voigt Hill
#
# Bulk Modulus (GPa) = 49.02982 52.91206 50.97094
# Shear Modulus (GPa) = 33.86984 40.26315 37.06649
#
# Velocity S-wave (km/s) = 3.77010 4.11055 3.94400
# Velocity P-wave (km/s) = 6.28706 6.68832 6.49080
#
# Compressibility (1/GPa) = 0.02039575
#
# Stress axis : x y z
#
# Youngs Moduli (GPa) = 81.06820 70.67558 161.70299
#
# Poissons Ratio (x) = 0.27312 0.18585
# Poissons Ratio (y) = 0.31328 0.18154
# Poissons Ratio (z) = 0.09318 0.07935
#
# Static dielectric constant tensor:
#      x y z
#    x 3.944590 0.000000 0.000000 
#    y 0.000000 4.221420 0.000000 
#    z 0.000000 0.000000 4.846460 
# 
# 
# High freq. dielectric constant tensor:
#      x y z
#    x 1.932130 0.000000 0.000000 
#    y 0.000000 1.943320 0.000000 
#    z 0.000000 0.000000 1.981800 
# 
# From -- ./inp_files/12664.got.cif
#   From: 2010.03.12/outbox.cif.g09.slc.cpg/sg20_7_cif.got.tgz:12664.got - 2010.04.14 01:38:04.
