data_PCOD8160018
_publ_section_title
;
Structure prediction by ZEFSAII (Michael W. Deem and Ramdas Pophale) SiO2 
 PCOD8160018
Probable space group: C 2 2 21
;
_chemical_formula_sum "Si O2"
_cell_formula_units_Z 40
_cell_length_a 7.580980
_cell_length_b 20.473823
_cell_length_c 11.837818
_cell_angle_alpha 90.000000
_cell_angle_beta 90.000000
_cell_angle_gamma 90.000000
_cell_volume 1837.367178
_symmetry_space_group_name_H-M "C 2 2 21"
_symmetry_group_IT_number 20
_symmetry_cell_setting 'orthorhombic'
loop_
_space_group_symop_operation_xyz
x,y,z
-x,-y,1/2+z
x,-y,-z
-x,y,1/2-z
1/2+x,1/2+y,z
1/2-x,1/2-y,1/2+z
1/2+x,1/2-y,-z
1/2-x,1/2+y,1/2-z
loop_
_atom_site_type_symbol
_atom_site_label
_atom_site_fract_x
_atom_site_fract_y
_atom_site_fract_z
Si Si1 0.443922 0.428883 0.986374
Si Si2 0.500000 0.867378 0.250000
Si Si3 0.346264 0.929075 0.033417
Si Si4 0.500000 0.369384 0.750000
Si Si5 0.139778 0.676457 0.343577
Si Si6 0.852683 0.823105 0.159076
O O1 0.635911 0.431520 0.043311
O O2 0.441238 0.415027 0.853316
O O3 0.352841 0.500000 0.000000
O O4 0.339659 0.372763 0.053837
O O5 0.564286 0.914785 0.348261
O O6 0.661338 0.820790 0.216307
O O7 0.396490 0.872613 0.945414
O O8 0.420499 0.000000 0.000000
O O9 0.663399 0.325972 0.792254
O O10 0.104442 0.750382 0.386640
O O11 0.000000 0.656059 0.250000
O O12 0.000000 0.844967 0.250000
#
# Coordination Sequence:
#
# PCOD8160018 Si02
#       6
#     8   4   8   4   8   8
#     4  10  23  44  71  97 133 178 222 275 331 394
#     4  12  25  42  68  98 135 178 220 274 335 390
#     4  10  24  43  66 101 135 172 226 277 318 408
#     4  10  23  44  66  96 131 178 218 276 333 392
#     4  10  24  43  65  95 132 172 224 276 329 392
#     4  11  24  43  66  96 131 175 222 275 331 391
#
# _framework density 21.77028
#
# number of rings (size 3 to 8) (size 9 to 14) (size 15 to 20)
#    0.000    1.600    2.000    0.600    5.600    7.200 
#    0.000    0.000    0.000    0.000    0.000    0.000 
#    0.000    0.000    0.000    0.000    0.000    0.000 
#
# Total GULP energy -248027.815615 kJ/mol
# GULP energy per Si atom -12401.390781 kJ/mol
# Density = 2.172073 g / cm^3
# Si number density = 21.770280 Si / 1000 Ang^3
#
#
#
# Elastic Constant Matrix: (Units=GPa)
#
#
# Indices 1 2 3 4 5 6 
#
# 1 72.1362 15.4772 39.3267 0.0000 0.0000 0.0000
# 2 15.4772 163.9864 81.4770 0.0000 0.0000 0.0000
# 3 39.3267 81.4770 148.9087 0.0000 0.0000 0.0000
# 4 0.0000 0.0000 0.0000 6.2760 0.0000 0.0000
# 5 0.0000 0.0000 0.0000 0.0000 34.0498 0.0000
# 6 0.0000 0.0000 0.0000 0.0000 0.0000 19.8482
#
#
#
# Elastic Compliance Matrix: (Units=1/GPa)
#
#
# Indices 1 2 3 4 5 6 
#
# 1 0.016275 0.000823 -0.004749 0.000000 0.000000 0.000000
# 2 0.000823 0.008416 -0.004823 0.000000 0.000000 0.000000
# 3 -0.004749 -0.004823 0.010608 0.000000 0.000000 0.000000
# 4 0.000000 0.000000 0.000000 0.159336 0.000000 0.000000
# 5 0.000000 0.000000 0.000000 0.000000 0.029369 0.000000
# 6 0.000000 0.000000 0.000000 0.000000 0.000000 0.050382
#
#
# Mechanical properties :
#
#
# Convention : Reuss Voigt Hill
#
# Bulk Modulus (GPa) = 56.16762 73.06589 64.61676
# Shear Modulus (GPa) = 16.78880 28.61818 22.70349
#
# Velocity S-wave (km/s) = 2.78003 3.62961 3.23285
# Velocity P-wave (km/s) = 6.01339 7.15545 6.60914
#
# Compressibility (1/GPa) = 0.01780385
#
# Stress axis : x y z
#
# Youngs Moduli (GPa) = 61.44444 118.81432 94.26484
#
# Poissons Ratio (x) = -0.09783 0.44764
# Poissons Ratio (y) = -0.05059 0.45460
# Poissons Ratio (z) = 0.29178 0.57300
#
# Static dielectric constant tensor:
#      x y z
#    x 3.993920 0.000000 0.000000 
#    y 0.000000 3.926400 0.000000 
#    z 0.000000 0.000000 3.807440 
# 
# 
# High freq. dielectric constant tensor:
#      x y z
#    x 1.858720 0.000000 0.000000 
#    y 0.000000 1.862120 0.000000 
#    z 0.000000 0.000000 1.854170 
# 
# From -- ./inp_files/12757.got.cif
#   From: 2010.03.12/outbox.cif.g09.slc.cpg/sg20_7_cif.got.tgz:12757.got - 2010.04.14 01:38:04.
