data_PCOD8160650
_publ_section_title
;
Structure prediction by ZEFSAII (Michael W. Deem and Ramdas Pophale) SiO2 
 PCOD8160650
Probable space group: C 2 2 21
;
_chemical_formula_sum "Si O2"
_cell_formula_units_Z 48
_cell_length_a 27.623838
_cell_length_b 4.968330
_cell_length_c 16.994476
_cell_angle_alpha 90.000000
_cell_angle_beta 90.000000
_cell_angle_gamma 90.000000
_cell_volume 2332.395694
_symmetry_space_group_name_H-M "C 2 2 21"
_symmetry_group_IT_number 20
_symmetry_cell_setting 'orthorhombic'
loop_
_space_group_symop_operation_xyz
x,y,z
-x,-y,1/2+z
x,-y,-z
-x,y,1/2-z
1/2+x,1/2+y,z
1/2-x,1/2-y,1/2+z
1/2+x,1/2-y,-z
1/2-x,1/2+y,1/2-z
loop_
_atom_site_type_symbol
_atom_site_label
_atom_site_fract_x
_atom_site_fract_y
_atom_site_fract_z
Si Si1 0.383493 0.294646 0.854740
Si Si2 0.712309 0.258470 0.552883
Si Si3 0.487174 0.408321 0.912932
Si Si4 0.974402 0.418529 0.670980
Si Si5 0.230541 0.273973 0.793859
Si Si6 0.622780 0.793248 0.751855
O O1 0.338050 0.357422 0.909803
O O2 0.431334 0.322302 0.907154
O O3 0.384365 0.492036 0.779922
O O4 0.379781 0.991562 0.822690
O O5 0.733192 0.500000 0.500000
O O6 0.751147 0.186047 0.620210
O O7 0.703057 0.000000 0.500000
O O8 0.497378 0.650090 0.853259
O O9 0.520894 0.152162 0.893803
O O10 0.500465 0.500000 0.000000
O O11 0.918017 0.358348 0.683869
O O12 0.000000 0.528237 0.750000
O O13 0.258138 0.545146 0.769799
O O14 0.173389 0.324934 0.796947
#
# Coordination Sequence:
#
# PCOD8160650 Si02
#       6
#     8   8   8   8   8   8
#     4  12  22  40  67  97 134 163 213 279 332 390
#     4  12  25  41  64  98 134 168 208 270 340 390
#     4  12  25  42  64 100 137 174 210 271 338 388
#     4  12  23  42  68  93 135 174 224 264 317 397
#     4  12  23  44  68  93 131 172 222 270 323 397
#     4  12  23  40  69 100 121 170 232 270 313 386
#
# _framework density 20.579695999999998
#
# number of rings (size 3 to 8) (size 9 to 14) (size 15 to 20)
#    0.000    0.000    6.667    4.500    0.000    1.333 
#    0.000    2.500    0.000    0.000    0.000    0.000 
#    0.000    0.000    0.000    0.000    0.000    0.000 
#
# Total GULP energy -297851.007151 kJ/mol
# GULP energy per Si atom -12410.458631 kJ/mol
# Density = 2.053286 g / cm^3
# Si number density = 20.579696 Si / 1000 Ang^3
#
#
#
# Elastic Constant Matrix: (Units=GPa)
#
#
# Indices 1 2 3 4 5 6 
#
# 1 125.2771 39.2501 65.9251 0.0000 0.0000 0.0000
# 2 39.2501 97.6880 20.6102 0.0000 0.0000 0.0000
# 3 65.9251 20.6102 87.5646 0.0000 0.0000 0.0000
# 4 0.0000 0.0000 0.0000 43.2634 0.0000 0.0000
# 5 0.0000 0.0000 0.0000 0.0000 17.5755 0.0000
# 6 0.0000 0.0000 0.0000 0.0000 0.0000 22.4101
#
#
#
# Elastic Compliance Matrix: (Units=1/GPa)
#
#
# Indices 1 2 3 4 5 6 
#
# 1 0.014373 -0.003674 -0.009956 0.000000 0.000000 0.000000
# 2 -0.003674 0.011711 0.000010 0.000000 0.000000 0.000000
# 3 -0.009956 0.000010 0.018913 0.000000 0.000000 0.000000
# 4 0.000000 0.000000 0.000000 0.023114 0.000000 0.000000
# 5 0.000000 0.000000 0.000000 0.000000 0.056897 0.000000
# 6 0.000000 0.000000 0.000000 0.000000 0.000000 0.044623
#
#
# Mechanical properties :
#
#
# Convention : Reuss Voigt Hill
#
# Bulk Modulus (GPa) = 56.31850 62.45564 59.38707
# Shear Modulus (GPa) = 24.65597 28.96610 26.81104
#
# Velocity S-wave (km/s) = 3.46507 3.75575 3.61333
# Velocity P-wave (km/s) = 6.59048 7.01581 6.80647
#
# Compressibility (1/GPa) = 0.01775615
#
# Stress axis : x y z
#
# Youngs Moduli (GPa) = 69.57653 85.39062 52.87252
#
# Poissons Ratio (x) = 0.31375 0.52640
# Poissons Ratio (y) = 0.25564 -0.00052
# Poissons Ratio (z) = 0.69270 -0.00084
#
# Static dielectric constant tensor:
#      x y z
#    x 3.784080 0.000000 0.000000 
#    y 0.000000 3.908600 0.000000 
#    z 0.000000 0.000000 3.641870 
# 
# 
# High freq. dielectric constant tensor:
#      x y z
#    x 1.806660 0.000000 0.000000 
#    y 0.000000 1.824920 0.000000 
#    z 0.000000 0.000000 1.792630 
# 
# From -- ./inp_files/17776.got.cif
#   From: 2010.03.12/outbox.cif.g09.slc.cpg/sg20_9_cif.got.tgz:17776.got - 2010.04.14 01:38:04.
