data_PCOD8160498
_publ_section_title
;
Structure prediction by ZEFSAII (Michael W. Deem and Ramdas Pophale) SiO2 
 PCOD8160498
Probable space group: C 2 2 21
;
_chemical_formula_sum "Si O2"
_cell_formula_units_Z 60
_cell_length_a 8.469531
_cell_length_b 11.750531
_cell_length_c 26.165889
_cell_angle_alpha 90.000000
_cell_angle_beta 90.000000
_cell_angle_gamma 90.000000
_cell_volume 2604.068171
_symmetry_space_group_name_H-M "C 2 2 21"
_symmetry_group_IT_number 20
_symmetry_cell_setting 'orthorhombic'
loop_
_space_group_symop_operation_xyz
x,y,z
-x,-y,1/2+z
x,-y,-z
-x,y,1/2-z
1/2+x,1/2+y,z
1/2-x,1/2-y,1/2+z
1/2+x,1/2-y,-z
1/2-x,1/2+y,1/2-z
loop_
_atom_site_type_symbol
_atom_site_label
_atom_site_fract_x
_atom_site_fract_y
_atom_site_fract_z
Si Si1 0.102722 0.831708 0.967940
Si Si2 0.274642 0.840920 0.818976
Si Si3 0.492293 0.544676 0.132099
Si Si4 0.500000 0.971120 0.750000
Si Si5 0.360204 0.344267 0.420404
Si Si6 0.492293 0.886096 0.070154
Si Si7 0.798792 0.589045 0.666040
Si Si8 0.433126 0.866214 0.923423
O O1 0.287630 0.817822 0.955556
O O2 0.000458 0.891581 0.923183
O O3 0.039935 0.701211 0.975355
O O4 0.094284 0.894316 0.022958
O O5 0.354494 0.893249 0.768745
O O6 0.286263 0.703852 0.813763
O O7 0.372137 0.892021 0.866454
O O8 0.093092 0.885017 0.825829
O O9 0.559869 0.418479 0.123358
O O10 0.317765 0.518567 0.154285
O O11 0.431751 0.050967 0.705689
O O12 0.176257 0.346617 0.408647
O O13 0.418341 0.215638 0.417787
O O14 0.620770 0.869355 0.114061
O O15 0.489114 0.015763 0.050817
#
# Coordination Sequence:
#
# PCOD8160498 Si02
#       8
#     8   8   8   4   8   8   8   8
#     4  11  24  42  66 105 141 183 243 282 331 418
#     4  11  24  49  70 102 141 175 231 290 359 427
#     4  11  23  44  74  96 144 187 221 288 356 407
#     4  12  28  46  74 104 132 176 234 298 352 438
#     4  12  23  40  72 100 141 190 233 285 339 405
#     4  12  24  43  71  97 139 190 230 287 355 409
#     4  12  26  48  72 103 138 179 239 290 359 436
#     4  11  23  45  66  95 142 185 225 289 348 410
#
# _framework density 23.040870999999999
#
# number of rings (size 3 to 8) (size 9 to 14) (size 15 to 20)
#    0.000    0.533    8.000    1.200    1.867    4.267 
#    2.400    0.000    2.933    0.000    0.000    0.000 
#    0.000    0.000    0.000    0.000    0.000    0.000 
#
# Total GULP energy -371941.493087 kJ/mol
# GULP energy per Si atom -12398.049770 kJ/mol
# Density = 2.298843 g / cm^3
# Si number density = 23.040871 Si / 1000 Ang^3
#
#
#
# Elastic Constant Matrix: (Units=GPa)
#
#
# Indices 1 2 3 4 5 6 
#
# 1 85.0233 39.0757 21.9633 0.0000 0.0000 0.0000
# 2 39.0757 123.7068 1.1886 0.0000 0.0000 0.0000
# 3 21.9633 1.1886 40.6733 0.0000 0.0000 0.0000
# 4 0.0000 0.0000 0.0000 25.6768 0.0000 0.0000
# 5 0.0000 0.0000 0.0000 0.0000 30.5445 0.0000
# 6 0.0000 0.0000 0.0000 0.0000 0.0000 47.7665
#
#
#
# Elastic Compliance Matrix: (Units=1/GPa)
#
#
# Indices 1 2 3 4 5 6 
#
# 1 0.016335 -0.005076 -0.008672 0.000000 0.000000 0.000000
# 2 -0.005076 0.009664 0.002459 0.000000 0.000000 0.000000
# 3 -0.008672 0.002459 0.029197 0.000000 0.000000 0.000000
# 4 0.000000 0.000000 0.000000 0.038946 0.000000 0.000000
# 5 0.000000 0.000000 0.000000 0.000000 0.032739 0.000000
# 6 0.000000 0.000000 0.000000 0.000000 0.000000 0.020935
#
#
# Mechanical properties :
#
#
# Convention : Reuss Voigt Hill
#
# Bulk Modulus (GPa) = 30.65997 41.53981 36.09989
# Shear Modulus (GPa) = 27.58359 33.27595 30.42977
#
# Velocity S-wave (km/s) = 3.46375 3.80440 3.63807
# Velocity P-wave (km/s) = 5.41594 6.11276 5.77487
#
# Compressibility (1/GPa) = 0.03261582
#
# Stress axis : x y z
#
# Youngs Moduli (GPa) = 61.21912 103.48215 34.24975
#
# Poissons Ratio (x) = 0.52532 0.29702
# Poissons Ratio (y) = 0.31077 -0.08421
# Poissons Ratio (z) = 0.53091 -0.25444
#
# Static dielectric constant tensor:
#      x y z
#    x 4.168050 0.000000 0.000000 
#    y 0.000000 4.231280 0.000000 
#    z 0.000000 0.000000 4.033390 
# 
# 
# High freq. dielectric constant tensor:
#      x y z
#    x 1.908970 0.000000 0.000000 
#    y 0.000000 1.922960 0.000000 
#    z 0.000000 0.000000 1.890680 
# 
# From -- ./inp_files/30157.got.cif
#   From: 2010.03.12/outbox.cif.g09.slc.cpg/sg20_16_cif.got.tgz:30157.got - 2010.04.14 01:38:04.
