data_PCOD8160946
_publ_section_title
;
Structure prediction by ZEFSAII (Michael W. Deem and Ramdas Pophale) SiO2 
 PCOD8160946
Probable space group: C 2 2 2
;
_chemical_formula_sum "Si O2"
_cell_formula_units_Z 48
_cell_length_a 15.057762
_cell_length_b 8.411402
_cell_length_c 19.230386
_cell_angle_alpha 90.000000
_cell_angle_beta 90.000000
_cell_angle_gamma 90.000000
_cell_volume 2435.660873
_symmetry_space_group_name_H-M "C 2 2 2"
_symmetry_group_IT_number 21
_symmetry_cell_setting 'orthorhombic'
loop_
_space_group_symop_operation_xyz
x,y,z
-x,-y,z
x,-y,-z
-x,y,-z
1/2+x,1/2+y,z
1/2-x,1/2-y,z
1/2+x,1/2-y,-z
1/2-x,1/2+y,-z
loop_
_atom_site_type_symbol
_atom_site_label
_atom_site_fract_x
_atom_site_fract_y
_atom_site_fract_z
Si Si1 0.000000 0.689168 0.741907
Si Si2 0.599869 0.189209 0.500000
Si Si3 0.352307 0.311465 1.000000
Si Si4 0.500000 0.189232 0.100639
Si Si5 0.658067 0.188289 0.648075
Si Si6 0.658067 0.811711 0.648075
O O1 0.084676 0.756239 0.700534
O O2 0.000000 0.500000 0.742164
O O3 0.000000 0.752475 0.820489
O O4 0.915324 0.756239 0.700534
O O5 0.500000 0.252563 0.500000
O O6 0.646153 0.256438 0.569677
O O7 0.646153 0.256439 0.430323
O O8 0.601326 0.000000 0.500000
O O9 0.250000 0.250000 1.000000
O O10 0.408649 0.252709 0.066624
O O11 0.348446 0.500000 0.000000
O O12 0.408649 0.252709 0.933376
O O13 0.500000 0.000000 0.094660
O O14 0.750000 0.250000 0.678723
O O15 0.653365 1.000000 0.646409
O O16 0.750000 0.750000 0.678722
#
# Coordination Sequence:
#
# PCOD8160946 Si02
#       6
#     8   8   8   8   8   8
#     4   9  19  35  55  77 108 145 180 214 260 325
#     4   9  15  28  53  74  95 136 185 225 264 318
#     4  11  22  39  62  88 114 145 182 223 268 322
#     4  10  20  37  59  86 116 147 182 225 272 325
#     4  10  19  33  52  76 103 138 182 225 269 317
#     4  10  19  33  52  76 103 138 182 225 269 317
#
# _framework density 19.707177000000001
#
# number of rings (size 3 to 8) (size 9 to 14) (size 15 to 20)
#    0.000    2.167    1.667    3.500    0.000    1.333 
#    0.000    7.500    0.000    1.000    0.000    0.000 
#    0.000    0.000    0.000    0.000    0.000    0.000 
#
# Total GULP energy -297488.506627 kJ/mol
# GULP energy per Si atom -12395.354443 kJ/mol
# Density = 1.966232 g / cm^3
# Si number density = 19.707177 Si / 1000 Ang^3
#
#
#
# Elastic Constant Matrix: (Units=GPa)
#
#
# Indices 1 2 3 4 5 6 
#
# 1 202.0163 30.0040 94.5616 0.0000 0.0000 0.0000
# 2 30.0040 56.6997 28.7015 0.0000 0.0000 0.0000
# 3 94.5616 28.7015 190.4800 0.0000 0.0000 0.0000
# 4 0.0000 0.0000 0.0000 11.0900 0.0000 0.0000
# 5 0.0000 0.0000 0.0000 0.0000 9.3141 0.0000
# 6 0.0000 0.0000 0.0000 0.0000 0.0000 31.2351
#
#
#
# Elastic Compliance Matrix: (Units=1/GPa)
#
#
# Indices 1 2 3 4 5 6 
#
# 1 0.006652 -0.002001 -0.003001 0.000000 0.000000 0.000000
# 2 -0.002001 0.019695 -0.001974 0.000000 0.000000 0.000000
# 3 -0.003001 -0.001974 0.007037 0.000000 0.000000 0.000000
# 4 0.000000 0.000000 0.000000 0.090171 0.000000 0.000000
# 5 0.000000 0.000000 0.000000 0.000000 0.107364 0.000000
# 6 0.000000 0.000000 0.000000 0.000000 0.000000 0.032015
#
#
# Mechanical properties :
#
#
# Convention : Reuss Voigt Hill
#
# Bulk Modulus (GPa) = 51.46168 83.97003 67.71585
# Shear Modulus (GPa) = 17.64515 30.05644 23.85079
#
# Velocity S-wave (km/s) = 2.99551 3.90956 3.48265
# Velocity P-wave (km/s) = 6.17527 7.94235 7.11389
#
# Compressibility (1/GPa) = 0.01943194
#
# Stress axis : x y z
#
# Youngs Moduli (GPa) = 150.33269 50.77420 142.10473
#
# Poissons Ratio (x) = 0.10160 0.42642
# Poissons Ratio (y) = 0.30082 0.28055
# Poissons Ratio (z) = 0.45111 0.10024
#
# Static dielectric constant tensor:
#      x y z
#    x 4.098140 0.000000 0.000000 
#    y 0.000000 3.171300 0.000000 
#    z 0.000000 0.000000 3.891120 
# 
# 
# High freq. dielectric constant tensor:
#      x y z
#    x 1.781160 0.000000 0.000000 
#    y 0.000000 1.734960 0.000000 
#    z 0.000000 0.000000 1.771770 
# 
# From -- ./inp_files/36644.got.cif
#   From: 2010.03.12/outbox.cif.g09.slc.cpg/sg21_19_cif.got.tgz:36644.got - 2010.04.14 01:59:26.
