data_PCOD8160314
_publ_section_title
;
Structure prediction by ZEFSAII (Michael W. Deem and Ramdas Pophale) SiO2 
 PCOD8160314
Probable space group: C 2 2 21
;
_chemical_formula_sum "Si O2"
_cell_formula_units_Z 52
_cell_length_a 17.626173
_cell_length_b 13.425390
_cell_length_c 10.918989
_cell_angle_alpha 90.000000
_cell_angle_beta 90.000000
_cell_angle_gamma 90.000000
_cell_volume 2583.850413
_symmetry_space_group_name_H-M "C 2 2 21"
_symmetry_group_IT_number 20
_symmetry_cell_setting 'orthorhombic'
loop_
_space_group_symop_operation_xyz
x,y,z
-x,-y,1/2+z
x,-y,-z
-x,y,1/2-z
1/2+x,1/2+y,z
1/2-x,1/2-y,1/2+z
1/2+x,1/2-y,-z
1/2-x,1/2+y,1/2-z
loop_
_atom_site_type_symbol
_atom_site_label
_atom_site_fract_x
_atom_site_fract_y
_atom_site_fract_z
Si Si1 0.934011 0.074622 0.168664
Si Si2 0.455549 0.642147 0.898200
Si Si3 0.273649 0.604592 0.276001
Si Si4 0.699467 0.702668 0.657589
Si Si5 0.690011 0.893572 0.973405
Si Si6 0.377035 0.692723 0.594124
Si Si7 0.185177 0.000000 0.000000
O O1 0.855625 0.119773 0.215512
O O2 0.000000 0.120512 0.250000
O O3 0.930775 0.954191 0.182405
O O4 0.959424 0.108295 0.036467
O O5 0.386835 0.721776 0.889017
O O6 0.536374 0.688662 0.853678
O O7 0.250915 0.700188 0.357362
O O8 0.216182 0.591438 0.165686
O O9 0.267683 0.512702 0.373258
O O10 0.740800 0.618703 0.572850
O O11 0.688089 0.677931 0.801924
O O12 0.633920 0.798322 0.976738
O O13 0.648955 0.000000 0.000000
O O14 0.367633 0.598717 0.503331
#
# Coordination Sequence:
#
# PCOD8160314 Si02
#       7
#     8   8   8   8   8   8   4
#     4  11  21  34  58  92 130 161 196 256 329 379
#     4  11  21  37  59  90 126 163 205 260 319 385
#     4  11  23  37  61  94 124 166 204 263 324 381
#     4  11  22  39  60  90 126 165 214 260 319 384
#     4  11  22  41  60  88 123 171 215 261 308 388
#     4  11  23  36  64  92 125 167 211 264 326 380
#     4  12  20  38  58  94 130 154 202 268 328 370
#
# _framework density 20.125005999999999
#
# number of rings (size 3 to 8) (size 9 to 14) (size 15 to 20)
#    0.000    0.923    3.077    6.923    0.000    0.000 
#    0.000    0.000    1.692    0.000    8.000    0.000 
#    0.000    0.000    0.000    0.000    0.000    0.000 
#
# Total GULP energy -322163.700687 kJ/mol
# GULP energy per Si atom -12390.911565 kJ/mol
# Density = 2.007920 g / cm^3
# Si number density = 20.125006 Si / 1000 Ang^3
#
#
#
# Elastic Constant Matrix: (Units=GPa)
#
#
# Indices 1 2 3 4 5 6 
#
# 1 90.1869 49.7961 1.7653 0.0000 0.0000 0.0000
# 2 49.7961 133.3759 25.3442 0.0000 0.0000 0.0000
# 3 1.7653 25.3442 53.5273 0.0000 0.0000 0.0000
# 4 0.0000 0.0000 0.0000 28.3220 0.0000 0.0000
# 5 0.0000 0.0000 0.0000 0.0000 25.1980 0.0000
# 6 0.0000 0.0000 0.0000 0.0000 0.0000 21.8371
#
#
#
# Elastic Compliance Matrix: (Units=1/GPa)
#
#
# Indices 1 2 3 4 5 6 
#
# 1 0.014209 -0.005731 0.002245 0.000000 0.000000 0.000000
# 2 -0.005731 0.010551 -0.004807 0.000000 0.000000 0.000000
# 3 0.002245 -0.004807 0.020884 0.000000 0.000000 0.000000
# 4 0.000000 0.000000 0.000000 0.035308 0.000000 0.000000
# 5 0.000000 0.000000 0.000000 0.000000 0.039686 0.000000
# 6 0.000000 0.000000 0.000000 0.000000 0.000000 0.045794
#
#
# Mechanical properties :
#
#
# Convention : Reuss Voigt Hill
#
# Bulk Modulus (GPa) = 34.41445 47.87791 41.14618
# Shear Modulus (GPa) = 25.94671 28.41705 27.18188
#
# Velocity S-wave (km/s) = 3.59455 3.76177 3.67911
# Velocity P-wave (km/s) = 5.86218 6.53527 6.20786
#
# Compressibility (1/GPa) = 0.02905756
#
# Stress axis : x y z
#
# Youngs Moduli (GPa) = 70.37924 94.77940 47.88392
#
# Poissons Ratio (x) = 0.54323 -0.10751
# Poissons Ratio (y) = 0.40338 0.23016
# Poissons Ratio (z) = -0.15801 0.45557
#
# Static dielectric constant tensor:
#      x y z
#    x 3.517190 0.000000 0.000000 
#    y 0.000000 3.744740 0.000000 
#    z 0.000000 0.000000 3.899280 
# 
# 
# High freq. dielectric constant tensor:
#      x y z
#    x 1.759930 0.000000 0.000000 
#    y 0.000000 1.761580 0.000000 
#    z 0.000000 0.000000 1.815700 
# 
# From -- ./inp_files/15833.got.cif
#   From: 2010.03.12/outbox.cif.g09.slc.cpg/sg20_8_cif.got.tgz:15833.got - 2010.04.14 01:38:04.
