data_PCOD8160675
_publ_section_title
;
Structure prediction by ZEFSAII (Michael W. Deem and Ramdas Pophale) SiO2 
 PCOD8160675
Probable space group: C 2 2 21
;
_chemical_formula_sum "Si O2"
_cell_formula_units_Z 40
_cell_length_a 25.314641
_cell_length_b 8.318162
_cell_length_c 8.589075
_cell_angle_alpha 90.000000
_cell_angle_beta 90.000000
_cell_angle_gamma 90.000000
_cell_volume 1808.612558
_symmetry_space_group_name_H-M "C 2 2 21"
_symmetry_group_IT_number 20
_symmetry_cell_setting 'orthorhombic'
loop_
_space_group_symop_operation_xyz
x,y,z
-x,-y,1/2+z
x,-y,-z
-x,y,1/2-z
1/2+x,1/2+y,z
1/2-x,1/2-y,1/2+z
1/2+x,1/2-y,-z
1/2-x,1/2+y,1/2-z
loop_
_atom_site_type_symbol
_atom_site_label
_atom_site_fract_x
_atom_site_fract_y
_atom_site_fract_z
Si Si1 0.296781 0.546258 0.831348
Si Si2 0.500000 0.275361 0.750000
Si Si3 0.544162 0.500000 0.000000
Si Si4 0.123265 0.241216 0.859411
Si Si5 0.313605 0.785012 0.326288
Si Si6 0.904282 0.452657 0.176165
O O1 0.332495 0.687039 0.762773
O O2 0.297180 0.395863 0.714534
O O3 0.237633 0.608242 0.853015
O O4 0.319673 0.500000 0.000000
O O5 0.493901 0.384550 0.597405
O O6 0.551588 0.168402 0.735505
O O7 0.580989 0.399988 0.117709
O O8 0.093109 0.393380 0.788496
O O9 0.151087 0.289624 0.019591
O O10 0.347623 0.864046 0.187404
O O11 0.915640 0.500000 0.000000
#
# Coordination Sequence:
#
# PCOD8160675 Si02
#       6
#     8   4   4   8   8   8
#     4  12  24  41  72 107 151 199 249 295 366 443
#     4  12  30  50  78 108 140 196 252 314 386 438
#     4  12  28  52  78 108 144 192 252 312 384 444
#     4  12  25  49  75 106 155 194 243 314 371 448
#     4  12  24  46  68 110 148 204 246 301 369 438
#     4  12  28  46  74 108 146 191 254 312 372 441
#
# _framework density 22.116401
#
# number of rings (size 3 to 8) (size 9 to 14) (size 15 to 20)
#    0.000    0.000    4.000    5.400    5.600    1.600 
#    1.800    0.000    0.000    0.000    0.000    0.000 
#    0.000    0.000    0.000    0.000    0.000    0.000 
#
# Total GULP energy -248203.433255 kJ/mol
# GULP energy per Si atom -12410.171663 kJ/mol
# Density = 2.206606 g / cm^3
# Si number density = 22.116401 Si / 1000 Ang^3
#
#
#
# Elastic Constant Matrix: (Units=GPa)
#
#
# Indices 1 2 3 4 5 6 
#
# 1 80.9433 51.2283 26.4974 0.0000 0.0000 0.0000
# 2 51.2283 147.7230 53.8277 0.0000 0.0000 0.0000
# 3 26.4974 53.8277 125.2566 0.0000 0.0000 0.0000
# 4 0.0000 0.0000 0.0000 48.3380 0.0000 0.0000
# 5 0.0000 0.0000 0.0000 0.0000 30.7490 0.0000
# 6 0.0000 0.0000 0.0000 0.0000 0.0000 -11.8795
#
#
#
# Elastic Compliance Matrix: (Units=1/GPa)
#
#
# Indices 1 2 3 4 5 6 
#
# 1 0.015975 -0.005108 -0.001184 0.000000 0.000000 0.000000
# 2 -0.005108 0.009660 -0.003071 0.000000 0.000000 0.000000
# 3 -0.001184 -0.003071 0.009554 0.000000 0.000000 0.000000
# 4 0.000000 0.000000 0.000000 0.020688 0.000000 0.000000
# 5 0.000000 0.000000 0.000000 0.000000 0.032521 0.000000
# 6 0.000000 0.000000 0.000000 0.000000 0.000000 -0.084178
#
#
# Mechanical properties :
#
#
# Convention : Reuss Voigt Hill
#
# Bulk Modulus (GPa) = 60.74500 68.55886 64.65193
# Shear Modulus (GPa) = 175.85280 28.26612 102.05946
#
# Velocity S-wave (km/s) = 8.92665 3.57888 6.80049
# Velocity P-wave (km/s) = 11.56600 6.93860 9.53721
#
# Compressibility (1/GPa) = 0.01646226
#
# Stress axis : x y z
#
# Youngs Moduli (GPa) = 62.59761 103.52166 104.67215
#
# Poissons Ratio (x) = 0.52883 0.12395
# Poissons Ratio (y) = 0.31978 0.32140
# Poissons Ratio (z) = 0.07412 0.31787
#
# Static dielectric constant tensor:
#      x y z
#    x 3.988560 0.000000 0.000000 
#    y 0.000000 4.231190 0.000000 
#    z 0.000000 0.000000 4.331640 
# 
# 
# High freq. dielectric constant tensor:
#      x y z
#    x 1.873520 0.000000 0.000000 
#    y 0.000000 1.894120 0.000000 
#    z 0.000000 0.000000 1.878600 
# 
# From -- ./inp_files/6138.got.cif
#   From: 2010.03.12/outbox.cif.g09.slc.cpg/sg20_4_cif.got.tgz:6138.got - 2010.04.14 01:38:04.
