data_PCOD8160920
_publ_section_title
;
Structure prediction by ZEFSAII (Michael W. Deem and Ramdas Pophale) SiO2 
 PCOD8160920
Probable space group: C 2 2 2
;
_chemical_formula_sum "Si O2"
_cell_formula_units_Z 56
_cell_length_a 18.100051
_cell_length_b 21.899901
_cell_length_c 7.864453
_cell_angle_alpha 90.000000
_cell_angle_beta 90.000000
_cell_angle_gamma 90.000000
_cell_volume 3117.385216
_symmetry_space_group_name_H-M "C 2 2 2"
_symmetry_group_IT_number 21
_symmetry_cell_setting 'orthorhombic'
loop_
_space_group_symop_operation_xyz
x,y,z
-x,-y,z
x,-y,-z
-x,y,-z
1/2+x,1/2+y,z
1/2-x,1/2-y,z
1/2+x,1/2-y,-z
1/2-x,1/2+y,-z
loop_
_atom_site_type_symbol
_atom_site_label
_atom_site_fract_x
_atom_site_fract_y
_atom_site_fract_z
Si Si1 0.128576 0.389015 0.163158
Si Si2 0.777543 0.625592 0.844536
Si Si3 0.826527 0.787265 0.982028
Si Si4 0.165519 0.263951 0.326931
Si Si5 0.336552 0.985613 0.304098
Si Si6 0.525878 0.900142 0.688059
Si Si7 0.877213 0.285550 0.316771
O O1 0.152943 0.335775 0.291493
O O2 0.171563 0.451456 0.203899
O O3 0.041459 0.402832 0.178606
O O4 0.152040 0.370121 0.973906
O O5 0.770333 0.558581 0.761367
O O6 0.800685 0.675020 0.699823
O O7 0.699887 0.643454 0.936629
O O8 0.750000 0.750000 0.986895
O O9 0.863736 0.778493 0.168905
O O10 0.882243 0.763500 0.836740
O O11 0.250000 0.250000 0.360938
O O12 0.122441 0.249786 0.502515
O O13 0.412832 0.950163 0.261406
O O14 0.327062 0.000000 0.500000
O O15 0.500000 0.918602 0.500000
O O16 0.553422 0.830570 0.689886
#
# Coordination Sequence:
#
# PCOD8160920 Si02
#       7
#     8   8   8   8   8   8   8
#     4  12  20  33  51  68  99 141 176 213 261 292
#     4  10  20  36  47  71  96 127 176 229 257 313
#     4   9  17  34  50  68  95 113 170 225 264 307
#     4  11  18  31  53  70  89 127 173 216 266 309
#     4  11  22  33  50  69 101 144 181 213 257 298
#     4  11  21  34  49  70 107 142 181 222 248 299
#     4  10  19  31  50  72  92 127 170 216 265 303
#
# _framework density 17.963773
#
# number of rings (size 3 to 8) (size 9 to 14) (size 15 to 20)
#    0.000    1.429    7.143    3.000    0.000    2.286 
#    0.000    2.857    0.000    0.000    0.000    0.000 
#    0.000    0.000    0.000    1.286    6.857    1.714 
#
# Total GULP energy -347001.733662 kJ/mol
# GULP energy per Si atom -12392.919059 kJ/mol
# Density = 1.792289 g / cm^3
# Si number density = 17.963773 Si / 1000 Ang^3
#
#
#
# Elastic Constant Matrix: (Units=GPa)
#
#
# Indices 1 2 3 4 5 6 
#
# 1 16.6458 31.5107 16.9844 0.0000 0.0000 0.0000
# 2 31.5107 85.1079 36.0031 0.0000 0.0000 0.0000
# 3 16.9844 36.0031 112.3960 0.0000 0.0000 0.0000
# 4 0.0000 0.0000 0.0000 26.2670 0.0000 0.0000
# 5 0.0000 0.0000 0.0000 0.0000 19.9496 0.0000
# 6 0.0000 0.0000 0.0000 0.0000 0.0000 27.6726
#
#
#
# Elastic Compliance Matrix: (Units=1/GPa)
#
#
# Indices 1 2 3 4 5 6 
#
# 1 0.206536 -0.073182 -0.007768 0.000000 0.000000 0.000000
# 2 -0.073182 0.039523 -0.001601 0.000000 0.000000 0.000000
# 3 -0.007768 -0.001601 0.010584 0.000000 0.000000 0.000000
# 4 0.000000 0.000000 0.000000 0.038071 0.000000 0.000000
# 5 0.000000 0.000000 0.000000 0.000000 0.050126 0.000000
# 6 0.000000 0.000000 0.000000 0.000000 0.000000 0.036137
#
#
# Mechanical properties :
#
#
# Convention : Reuss Voigt Hill
#
# Bulk Modulus (GPa) = 10.92434 42.57179 26.74807
# Shear Modulus (GPa) = 8.67164 23.42129 16.04647
#
# Velocity S-wave (km/s) = 2.19949 3.61474 2.99200
# Velocity P-wave (km/s) = 3.54188 6.41654 5.18251
#
# Compressibility (1/GPa) = 0.09153869
#
# Stress axis : x y z
#
# Youngs Moduli (GPa) = 4.84178 25.30203 94.48343
#
# Poissons Ratio (x) = 1.85166 0.73395
# Poissons Ratio (y) = 0.35433 0.15129
# Poissons Ratio (z) = 0.03761 0.04051
#
# Static dielectric constant tensor:
#      x y z
#    x 3.017770 0.000000 0.000000 
#    y 0.000000 3.623700 0.000000 
#    z 0.000000 0.000000 3.780010 
# 
# 
# High freq. dielectric constant tensor:
#      x y z
#    x 1.628220 0.000000 0.000000 
#    y 0.000000 1.675870 0.000000 
#    z 0.000000 0.000000 1.721430 
# 
# From -- ./inp_files/16793.got.cif
#   From: 2010.03.12/outbox.cif.g09.slc.cpg/sg21_9_cif.got.tgz:16793.got - 2010.04.14 01:59:26.
