data_PCOD8160741
_publ_section_title
;
Structure prediction by ZEFSAII (Michael W. Deem and Ramdas Pophale) SiO2 
 PCOD8160741
Probable space group: C 2 2 21
;
_chemical_formula_sum "Si O2"
_cell_formula_units_Z 32
_cell_length_a 28.031801
_cell_length_b 5.350353
_cell_length_c 8.026140
_cell_angle_alpha 90.000000
_cell_angle_beta 90.000000
_cell_angle_gamma 90.000000
_cell_volume 1203.760723
_symmetry_space_group_name_H-M "C 2 2 21"
_symmetry_group_IT_number 20
_symmetry_cell_setting 'orthorhombic'
loop_
_space_group_symop_operation_xyz
x,y,z
-x,-y,1/2+z
x,-y,-z
-x,y,1/2-z
1/2+x,1/2+y,z
1/2-x,1/2-y,1/2+z
1/2+x,1/2-y,-z
1/2-x,1/2+y,1/2-z
loop_
_atom_site_type_symbol
_atom_site_label
_atom_site_fract_x
_atom_site_fract_y
_atom_site_fract_z
Si Si1 0.648163 0.500000 0.500000
Si Si2 0.279207 0.686158 0.726766
Si Si3 0.907475 0.682671 0.760371
Si Si4 0.000000 0.361890 0.750000
Si Si5 0.165308 0.500000 0.000000
Si Si6 0.957829 0.000000 0.500000
O O1 0.679663 0.381709 0.355878
O O2 0.614046 0.719501 0.432830
O O3 0.244955 0.446659 0.708565
O O4 0.301357 0.759598 0.544826
O O5 0.953734 0.519684 0.794864
O O6 0.866381 0.535631 0.663359
O O7 0.923360 0.913170 0.646505
O O8 0.991816 0.209021 0.579461
#
# Coordination Sequence:
#
# PCOD8160741 Si02
#       6
#     4   8   8   4   4   4
#     4  12  31  53  88 132 168 224 298 362 433 525
#     4  12  30  58  90 128 177 232 292 366 456 530
#     4  12  28  54  81 122 174 223 286 357 427 510
#     4  12  28  54  82 116 174 236 284 352 426 514
#     4  12  27  56  84 121 180 222 289 368 435 516
#     4  12  26  53  78 117 164 236 283 348 426 509
#
# _framework density 26.583355999999998
#
# number of rings (size 3 to 8) (size 9 to 14) (size 15 to 20)
#    0.000    0.000    2.500    4.500    0.000   19.000 
#    4.500    0.000    0.000    0.000    0.000    0.000 
#    0.000    0.000    0.000    0.000    0.000    0.000 
#
# Total GULP energy -198444.089840 kJ/mol
# GULP energy per Si atom -12402.755615 kJ/mol
# Density = 2.652285 g / cm^3
# Si number density = 26.583356 Si / 1000 Ang^3
#
#
#
# Elastic Constant Matrix: (Units=GPa)
#
#
# Indices 1 2 3 4 5 6 
#
# 1 157.9302 67.4793 32.3418 0.0000 0.0000 0.0000
# 2 67.4793 142.9061 12.2140 0.0000 0.0000 0.0000
# 3 32.3418 12.2140 69.0390 0.0000 0.0000 0.0000
# 4 0.0000 0.0000 0.0000 63.5276 0.0000 0.0000
# 5 0.0000 0.0000 0.0000 0.0000 45.2525 0.0000
# 6 0.0000 0.0000 0.0000 0.0000 0.0000 14.2459
#
#
#
# Elastic Compliance Matrix: (Units=1/GPa)
#
#
# Indices 1 2 3 4 5 6 
#
# 1 0.008644 -0.003793 -0.003378 0.000000 0.000000 0.000000
# 2 -0.003793 0.008769 0.000225 0.000000 0.000000 0.000000
# 3 -0.003378 0.000225 0.016027 0.000000 0.000000 0.000000
# 4 0.000000 0.000000 0.000000 0.015741 0.000000 0.000000
# 5 0.000000 0.000000 0.000000 0.000000 0.022098 0.000000
# 6 0.000000 0.000000 0.000000 0.000000 0.000000 0.070196
#
#
# Mechanical properties :
#
#
# Convention : Reuss Voigt Hill
#
# Bulk Modulus (GPa) = 51.15362 65.99394 58.57378
# Shear Modulus (GPa) = 30.88616 41.79454 36.34035
#
# Velocity S-wave (km/s) = 3.41231 3.96941 3.70135
# Velocity P-wave (km/s) = 5.89997 6.77403 6.35205
#
# Compressibility (1/GPa) = 0.01954896
#
# Stress axis : x y z
#
# Youngs Moduli (GPa) = 115.68091 114.03272 62.39331
#
# Poissons Ratio (x) = 0.43254 0.21080
# Poissons Ratio (y) = 0.43879 -0.01407
# Poissons Ratio (z) = 0.39083 -0.02571
#
# Static dielectric constant tensor:
#      x y z
#    x 5.133060 0.000000 0.000000 
#    y 0.000000 5.056870 0.000000 
#    z 0.000000 0.000000 4.883760 
# 
# 
# High freq. dielectric constant tensor:
#      x y z
#    x 2.089950 0.000000 0.000000 
#    y 0.000000 2.078730 0.000000 
#    z 0.000000 0.000000 2.077230 
# 
# From -- ./inp_files/11327.got.cif
#   From: 2010.03.12/outbox.cif.g09.slc.cpg/sg20_6_cif.got.tgz:11327.got - 2010.04.14 01:38:04.
