data_PCOD8160163
_publ_section_title
;
Structure prediction by ZEFSAII (Michael W. Deem and Ramdas Pophale) SiO2 
 PCOD8160163
Probable space group: C 2 2 21
;
_chemical_formula_sum "Si O2"
_cell_formula_units_Z 64
_cell_length_a 14.210167
_cell_length_b 8.511370
_cell_length_c 24.196559
_cell_angle_alpha 90.000000
_cell_angle_beta 90.000000
_cell_angle_gamma 90.000000
_cell_volume 2926.525154
_symmetry_space_group_name_H-M "C 2 2 21"
_symmetry_group_IT_number 20
_symmetry_cell_setting 'orthorhombic'
loop_
_space_group_symop_operation_xyz
x,y,z
-x,-y,1/2+z
x,-y,-z
-x,y,1/2-z
1/2+x,1/2+y,z
1/2-x,1/2-y,1/2+z
1/2+x,1/2-y,-z
1/2-x,1/2+y,1/2-z
loop_
_atom_site_type_symbol
_atom_site_label
_atom_site_fract_x
_atom_site_fract_y
_atom_site_fract_z
Si Si1 0.141243 0.338446 0.248571
Si Si2 0.576417 0.360559 0.114435
Si Si3 0.831355 0.322639 0.520810
Si Si4 0.596661 0.825912 0.622393
Si Si5 0.724968 0.450352 0.811039
Si Si6 0.373272 0.315234 0.002657
Si Si7 0.454192 0.673075 0.436546
Si Si8 0.497744 0.878609 0.339441
O O1 0.233516 0.435039 0.264445
O O2 0.162215 0.171547 0.221819
O O3 0.082302 0.302944 0.303999
O O4 0.081154 0.441175 0.204004
O O5 0.616726 0.213092 0.078817
O O6 0.482456 0.297959 0.146996
O O7 0.658232 0.441781 0.150400
O O8 0.538414 0.484950 0.069147
O O9 0.847715 0.500000 0.500000
O O10 0.722632 0.279191 0.529731
O O11 0.861320 0.210139 0.470819
O O12 0.691370 0.852738 0.658137
O O13 0.628008 0.764059 0.562756
O O14 0.539438 0.988658 0.620470
O O15 0.388344 0.500000 0.000000
O O16 0.458297 0.243530 0.967336
O O17 0.447450 0.744413 0.375303
#
# Coordination Sequence:
#
# PCOD8160163 Si02
#       8
#     8   8   8   8   8   8   8   8
#     4  10  24  49  68 101 138 176 243 306 363 424
#     4  12  24  46  71 101 144 188 234 293 364 427
#     4  11  25  42  65 101 143 187 233 287 354 435
#     4  11  24  45  68 104 140 190 235 290 364 435
#     4  11  26  47  74 106 138 186 242 307 365 433
#     4  11  23  41  64  98 141 181 228 280 346 436
#     4  12  22  43  67 101 142 182 229 288 350 440
#     4  10  24  44  71  97 139 183 233 301 362 422
#
# _framework density 21.868936999999999
#
# number of rings (size 3 to 8) (size 9 to 14) (size 15 to 20)
#    0.000    1.000    3.750    1.875    5.250    1.000 
#    0.000    0.000    0.000    0.000    0.000    0.000 
#    0.000    0.000    0.000    0.000    0.000    0.000 
#
# Total GULP energy -396557.217407 kJ/mol
# GULP energy per Si atom -12392.413044 kJ/mol
# Density = 2.181916 g / cm^3
# Si number density = 21.868937 Si / 1000 Ang^3
#
#
#
# Elastic Constant Matrix: (Units=GPa)
#
#
# Indices 1 2 3 4 5 6 
#
# 1 118.2360 36.4790 34.5945 0.0000 0.0000 0.0000
# 2 36.4790 92.0700 39.5106 0.0000 0.0000 0.0000
# 3 34.5945 39.5106 86.5458 0.0000 0.0000 0.0000
# 4 0.0000 0.0000 0.0000 43.1127 0.0000 0.0000
# 5 0.0000 0.0000 0.0000 0.0000 31.6278 0.0000
# 6 0.0000 0.0000 0.0000 0.0000 0.0000 34.1233
#
#
#
# Elastic Compliance Matrix: (Units=1/GPa)
#
#
# Indices 1 2 3 4 5 6 
#
# 1 0.010139 -0.002833 -0.002760 0.000000 0.000000 0.000000
# 2 -0.002833 0.014299 -0.005396 0.000000 0.000000 0.000000
# 3 -0.002760 -0.005396 0.015121 0.000000 0.000000 0.000000
# 4 0.000000 0.000000 0.000000 0.023195 0.000000 0.000000
# 5 0.000000 0.000000 0.000000 0.000000 0.031618 0.000000
# 6 0.000000 0.000000 0.000000 0.000000 0.000000 0.029306
#
#
# Mechanical properties :
#
#
# Convention : Reuss Voigt Hill
#
# Bulk Modulus (GPa) = 56.87312 57.55779 57.21545
# Shear Modulus (GPa) = 33.00011 34.19059 33.59535
#
# Velocity S-wave (km/s) = 3.88879 3.95832 3.92371
# Velocity P-wave (km/s) = 6.79900 6.87514 6.83718
#
# Compressibility (1/GPa) = 0.01758300
#
# Stress axis : x y z
#
# Youngs Moduli (GPa) = 98.62784 69.93397 66.13385
#
# Poissons Ratio (x) = 0.19812 0.18250
# Poissons Ratio (y) = 0.27941 0.35683
# Poissons Ratio (z) = 0.27216 0.37733
#
# Static dielectric constant tensor:
#      x y z
#    x 4.293980 0.000000 0.000000 
#    y 0.000000 3.890890 0.000000 
#    z 0.000000 0.000000 3.821170 
# 
# 
# High freq. dielectric constant tensor:
#      x y z
#    x 1.881960 0.000000 0.000000 
#    y 0.000000 1.852840 0.000000 
#    z 0.000000 0.000000 1.852150 
# 
# From -- ./inp_files/29343.got.cif
#   From: 2010.03.12/outbox.cif.g09.slc.cpg/sg20_15_cif.got.tgz:29343.got - 2010.04.14 01:38:04.
