data_PCOD8160791
_publ_section_title
;
Structure prediction by ZEFSAII (Michael W. Deem and Ramdas Pophale) SiO2 
 PCOD8160791
Probable space group: C 2 2 2
;
_chemical_formula_sum "Si O2"
_cell_formula_units_Z 44
_cell_length_a 5.293361
_cell_length_b 25.187448
_cell_length_c 16.274460
_cell_angle_alpha 90.000000
_cell_angle_beta 90.000000
_cell_angle_gamma 90.000000
_cell_volume 2169.812803
_symmetry_space_group_name_H-M "C 2 2 2"
_symmetry_group_IT_number 21
_symmetry_cell_setting 'orthorhombic'
loop_
_space_group_symop_operation_xyz
x,y,z
-x,-y,z
x,-y,-z
-x,y,-z
1/2+x,1/2+y,z
1/2-x,1/2-y,z
1/2+x,1/2-y,-z
1/2-x,1/2+y,-z
loop_
_atom_site_type_symbol
_atom_site_label
_atom_site_fract_x
_atom_site_fract_y
_atom_site_fract_z
Si Si1 0.531046 0.940303 0.809078
Si Si2 0.529468 0.588382 0.092128
Si Si3 0.441697 0.844090 0.708765
Si Si4 0.359105 0.301474 0.144168
Si Si5 0.750000 0.250000 0.264342
Si Si6 0.249138 0.187452 0.451983
O O1 0.294830 0.929632 0.869623
O O2 0.543848 0.903401 0.726834
O O3 0.795273 0.933597 0.856279
O O4 0.500000 0.000000 0.776479
O O5 0.522586 0.653089 0.086861
O O6 0.500000 0.566227 0.000000
O O7 0.357906 0.827374 0.800074
O O8 0.637193 0.797472 0.678880
O O9 0.236446 0.843917 0.635720
O O10 0.250000 0.250000 0.093494
O O11 0.555814 0.280229 0.208391
O O12 0.500000 0.168976 0.500000
O O13 0.250000 0.250000 0.434954
O O14 0.000000 0.169200 0.500000
#
# Coordination Sequence:
#
# PCOD8160791 Si02
#       6
#     8   8   8   8   4   8
#     4  11  24  42  64  88 115 159 213 261 305 360
#     4  11  23  41  59  88 123 156 202 259 320 369
#     4  10  21  35  59  84 119 156 202 244 292 357
#     4   9  19  34  53  83 114 159 197 241 292 362
#     4  10  16  32  60  78 116 154 200 238 290 352
#     4  10  22  34  53  87 127 155 184 229 296 359
#
# _framework density 20.278248000000001
#
# number of rings (size 3 to 8) (size 9 to 14) (size 15 to 20)
#    0.000    1.818    1.818    2.727    6.364    2.182 
#    1.636    0.000    0.000    0.545    0.000    1.273 
#    0.000    0.000    0.000    0.000    0.000    0.000 
#
# Total GULP energy -272555.340047 kJ/mol
# GULP energy per Si atom -12388.879093 kJ/mol
# Density = 2.023209 g / cm^3
# Si number density = 20.278248 Si / 1000 Ang^3
#
#
#
# Elastic Constant Matrix: (Units=GPa)
#
#
# Indices 1 2 3 4 5 6 
#
# 1 90.4099 20.6137 15.3168 0.0000 0.0000 0.0000
# 2 20.6137 122.8946 30.0550 0.0000 0.0000 0.0000
# 3 15.3168 30.0550 77.9582 0.0000 0.0000 0.0000
# 4 0.0000 0.0000 0.0000 10.5936 0.0000 0.0000
# 5 0.0000 0.0000 0.0000 0.0000 24.7570 0.0000
# 6 0.0000 0.0000 0.0000 0.0000 0.0000 22.2190
#
#
#
# Elastic Compliance Matrix: (Units=1/GPa)
#
#
# Indices 1 2 3 4 5 6 
#
# 1 0.011702 -0.001546 -0.001703 0.000000 0.000000 0.000000
# 2 -0.001546 0.009188 -0.003239 0.000000 0.000000 0.000000
# 3 -0.001703 -0.003239 0.014411 0.000000 0.000000 0.000000
# 4 0.000000 0.000000 0.000000 0.094397 0.000000 0.000000
# 5 0.000000 0.000000 0.000000 0.000000 0.040393 0.000000
# 6 0.000000 0.000000 0.000000 0.000000 0.000000 0.045007
#
#
# Mechanical properties :
#
#
# Convention : Reuss Voigt Hill
#
# Bulk Modulus (GPa) = 44.79270 47.02596 45.90933
# Shear Modulus (GPa) = 21.23015 26.53240 23.88128
#
# Velocity S-wave (km/s) = 3.23916 3.62113 3.43546
# Velocity P-wave (km/s) = 6.01053 6.38155 6.19882
#
# Compressibility (1/GPa) = 0.02232507
#
# Stress axis : x y z
#
# Youngs Moduli (GPa) = 85.45684 108.83221 69.39371
#
# Poissons Ratio (x) = 0.16829 0.11817
# Poissons Ratio (y) = 0.13214 0.22474
# Poissons Ratio (z) = 0.14553 0.35246
#
# Static dielectric constant tensor:
#      x y z
#    x 3.882080 0.000000 0.000000 
#    y 0.000000 3.978730 0.000000 
#    z 0.000000 0.000000 3.382340 
# 
# 
# High freq. dielectric constant tensor:
#      x y z
#    x 1.804430 0.000000 0.000000 
#    y 0.000000 1.780420 0.000000 
#    z 0.000000 0.000000 1.761990 
# 
# From -- ./inp_files/29312.got.cif
#   From: 2010.03.12/outbox.cif.g09.slc.cpg/sg21_15_cif.got.tgz:29312.got - 2010.04.14 01:59:26.
