data_PCOD8160061
_publ_section_title
;
Structure prediction by ZEFSAII (Michael W. Deem and Ramdas Pophale) SiO2 
 PCOD8160061
Probable space group: C 2 2 21
;
_chemical_formula_sum "Si O2"
_cell_formula_units_Z 56
_cell_length_a 8.327616
_cell_length_b 16.220534
_cell_length_c 18.728853
_cell_angle_alpha 90.000000
_cell_angle_beta 90.000000
_cell_angle_gamma 90.000000
_cell_volume 2529.863094
_symmetry_space_group_name_H-M "C 2 2 21"
_symmetry_group_IT_number 20
_symmetry_cell_setting 'orthorhombic'
loop_
_space_group_symop_operation_xyz
x,y,z
-x,-y,1/2+z
x,-y,-z
-x,y,1/2-z
1/2+x,1/2+y,z
1/2-x,1/2-y,1/2+z
1/2+x,1/2-y,-z
1/2-x,1/2+y,1/2-z
loop_
_atom_site_type_symbol
_atom_site_label
_atom_site_fract_x
_atom_site_fract_y
_atom_site_fract_z
Si Si1 0.041581 0.454846 0.169446
Si Si2 0.090517 0.734582 0.032437
Si Si3 0.218308 0.129538 0.862698
Si Si4 0.728967 0.061241 0.065741
Si Si5 0.179890 0.301886 0.222126
Si Si6 0.254965 0.694084 0.405219
Si Si7 0.584676 0.472837 0.918852
O O1 0.105611 0.533943 0.127387
O O2 0.179222 0.384533 0.173675
O O3 0.000000 0.483507 0.250000
O O4 0.893656 0.411745 0.128287
O O5 0.178176 0.808061 0.074288
O O6 0.191634 0.652357 0.041011
O O7 0.909043 0.719340 0.055813
O O8 0.099154 0.763335 0.949574
O O9 0.202276 0.180619 0.788941
O O10 0.098109 0.051720 0.866726
O O11 0.909123 0.063682 0.095476
O O12 0.711415 0.000000 0.000000
O O13 0.247668 0.226531 0.176100
O O14 0.000000 0.282667 0.250000
O O15 0.280448 0.595759 0.400581
O O16 0.611357 0.500000 0.000000
#
# Coordination Sequence:
#
# PCOD8160061 Si02
#       7
#     8   8   8   8   8   8   8
#     4   9  21  44  70  93 137 180 228 274 353 417
#     4  12  27  41  74 101 142 182 236 300 355 425
#     4  10  23  46  68 101 136 181 229 293 346 423
#     4  11  25  42  68 104 137 179 232 295 354 421
#     4   9  23  44  72 100 140 187 229 288 356 432
#     4  12  26  44  72 106 143 188 241 295 362 429
#     4  11  24  44  70 104 139 176 243 298 357 420
#
# _framework density 22.135584999999999
#
# number of rings (size 3 to 8) (size 9 to 14) (size 15 to 20)
#    0.000    1.714    1.429    2.571   14.000    1.714 
#   10.286    0.000    0.000    0.000    0.000    0.000 
#    0.000    0.000    0.000    0.000    0.000    0.000 
#
# Total GULP energy -347195.826418 kJ/mol
# GULP energy per Si atom -12399.850943 kJ/mol
# Density = 2.208520 g / cm^3
# Si number density = 22.135585 Si / 1000 Ang^3
#
#
#
# Elastic Constant Matrix: (Units=GPa)
#
#
# Indices 1 2 3 4 5 6 
#
# 1 78.6652 31.5550 36.9946 0.0000 0.0000 0.0000
# 2 31.5550 142.3166 52.0517 0.0000 0.0000 0.0000
# 3 36.9946 52.0517 95.6512 0.0000 0.0000 0.0000
# 4 0.0000 0.0000 0.0000 40.6705 0.0000 0.0000
# 5 0.0000 0.0000 0.0000 0.0000 24.5899 0.0000
# 6 0.0000 0.0000 0.0000 0.0000 0.0000 30.9651
#
#
#
# Elastic Compliance Matrix: (Units=1/GPa)
#
#
# Indices 1 2 3 4 5 6 
#
# 1 0.015820 -0.001585 -0.005256 0.000000 0.000000 0.000000
# 2 -0.001585 0.008931 -0.004247 0.000000 0.000000 0.000000
# 3 -0.005256 -0.004247 0.014799 0.000000 0.000000 0.000000
# 4 0.000000 0.000000 0.000000 0.024588 0.000000 0.000000
# 5 0.000000 0.000000 0.000000 0.000000 0.040667 0.000000
# 6 0.000000 0.000000 0.000000 0.000000 0.000000 0.032294
#
#
# Mechanical properties :
#
#
# Convention : Reuss Voigt Hill
#
# Bulk Modulus (GPa) = 57.55996 61.98174 59.77085
# Shear Modulus (GPa) = 30.29070 32.31386 31.30228
#
# Velocity S-wave (km/s) = 3.70322 3.82490 3.76455
# Velocity P-wave (km/s) = 6.65920 6.89697 6.77913
#
# Compressibility (1/GPa) = 0.01737319
#
# Stress axis : x y z
#
# Youngs Moduli (GPa) = 63.21215 111.96344 67.57353
#
# Poissons Ratio (x) = 0.17750 0.35516
# Poissons Ratio (y) = 0.10021 0.28700
# Poissons Ratio (z) = 0.33223 0.47553
#
# Static dielectric constant tensor:
#      x y z
#    x 3.892430 0.000000 0.000000 
#    y 0.000000 4.037600 0.000000 
#    z 0.000000 0.000000 4.019460 
# 
# 
# High freq. dielectric constant tensor:
#      x y z
#    x 1.865130 0.000000 0.000000 
#    y 0.000000 1.879080 0.000000 
#    z 0.000000 0.000000 1.865200 
# 
# From -- ./inp_files/26736.got.cif
#   From: 2010.03.12/outbox.cif.g09.slc.cpg/sg20_14_cif.got.tgz:26736.got - 2010.04.14 01:38:04.
