data_PCOD8160201
_publ_section_title
;
Structure prediction by ZEFSAII (Michael W. Deem and Ramdas Pophale) SiO2 
 PCOD8160201
Probable space group: C 2 2 21
;
_chemical_formula_sum "Si O2"
_cell_formula_units_Z 24
_cell_length_a 22.805151
_cell_length_b 8.790243
_cell_length_c 5.113631
_cell_angle_alpha 90.000000
_cell_angle_beta 90.000000
_cell_angle_gamma 90.000000
_cell_volume 1025.092885
_symmetry_space_group_name_H-M "C 2 2 21"
_symmetry_group_IT_number 20
_symmetry_cell_setting 'orthorhombic'
loop_
_space_group_symop_operation_xyz
x,y,z
-x,-y,1/2+z
x,-y,-z
-x,y,1/2-z
1/2+x,1/2+y,z
1/2-x,1/2-y,1/2+z
1/2+x,1/2-y,-z
1/2-x,1/2+y,1/2-z
loop_
_atom_site_type_symbol
_atom_site_label
_atom_site_fract_x
_atom_site_fract_y
_atom_site_fract_z
Si Si1 0.283747 0.602243 0.753220
Si Si2 0.432878 0.398579 0.749678
Si Si3 0.342614 0.168655 0.565384
O O1 0.290062 0.500000 0.500000
O O2 0.328205 0.744030 0.708711
O O3 0.217846 0.666143 0.770448
O O4 0.302699 0.500000 0.000000
O O5 0.418555 0.500000 0.500000
O O6 0.500000 0.342670 0.750000
O O7 0.392242 0.249451 0.739453
O O8 0.418013 0.500000 0.000000
O O9 0.365124 0.000000 0.500000
#
# Coordination Sequence:
#
# PCOD8160201 Si02
#       3
#     8   8   8
#     4  11  25  43  64  98 143 182 214 258 331 410
#     4  10  24  47  71  94 127 177 227 269 327 400
#     4  11  24  42  69 104 135 171 220 279 329 382
#
# _framework density 23.412512
#
# number of rings (size 3 to 8) (size 9 to 14) (size 15 to 20)
#    0.000    1.333    0.000    5.000    0.000   17.333 
#    0.000    6.667    0.000    0.000    0.000    0.000 
#    0.000    0.000    0.000    0.000    0.000    0.000 
#
# Total GULP energy -148818.636692 kJ/mol
# GULP energy per Si atom -12401.553058 kJ/mol
# Density = 2.335922 g / cm^3
# Si number density = 23.412512 Si / 1000 Ang^3
#
#
#
# Elastic Constant Matrix: (Units=GPa)
#
#
# Indices 1 2 3 4 5 6 
#
# 1 145.3399 97.7572 38.7879 0.0000 0.0000 0.0000
# 2 97.7572 203.5498 87.8321 0.0000 0.0000 0.0000
# 3 38.7879 87.8321 174.1391 0.0000 0.0000 0.0000
# 4 0.0000 0.0000 0.0000 22.8546 0.0000 0.0000
# 5 0.0000 0.0000 0.0000 0.0000 50.8295 0.0000
# 6 0.0000 0.0000 0.0000 0.0000 0.0000 60.9634
#
#
#
# Elastic Compliance Matrix: (Units=1/GPa)
#
#
# Indices 1 2 3 4 5 6 
#
# 1 0.010172 -0.004995 0.000253 0.000000 0.000000 0.000000
# 2 -0.004995 0.008732 -0.003292 0.000000 0.000000 0.000000
# 3 0.000253 -0.003292 0.007346 0.000000 0.000000 0.000000
# 4 0.000000 0.000000 0.000000 0.043755 0.000000 0.000000
# 5 0.000000 0.000000 0.000000 0.000000 0.019674 0.000000
# 6 0.000000 0.000000 0.000000 0.000000 0.000000 0.016403
#
#
# Mechanical properties :
#
#
# Convention : Reuss Voigt Hill
#
# Bulk Modulus (GPa) = 98.18691 107.97593 103.08142
# Shear Modulus (GPa) = 39.82691 46.83958 43.33324
#
# Velocity S-wave (km/s) = 4.12891 4.47768 4.30683
# Velocity P-wave (km/s) = 8.04732 8.54119 8.29793
#
# Compressibility (1/GPa) = 0.01018466
#
# Stress axis : x y z
#
# Youngs Moduli (GPa) = 98.30624 114.52200 136.12226
#
# Poissons Ratio (x) = 0.57201 -0.03450
# Poissons Ratio (y) = 0.49101 0.44807
# Poissons Ratio (z) = -0.02492 0.37697
#
# Static dielectric constant tensor:
#      x y z
#    x 4.702630 0.000000 0.000000 
#    y 0.000000 -19.210150 0.000000 
#    z 0.000000 0.000000 3.809170 
# 
# 
# High freq. dielectric constant tensor:
#      x y z
#    x 1.925170 0.000000 0.000000 
#    y 0.000000 1.932380 0.000000 
#    z 0.000000 0.000000 1.934490 
# 
# From -- ./inp_files/3457.got.cif
#   From: 2010.03.12/outbox.cif.g09.slc.cpg/sg20_2_cif.got.tgz:3457.got - 2010.04.14 01:38:04.
