data_PCOD8160853
_publ_section_title
;
Structure prediction by ZEFSAII (Michael W. Deem and Ramdas Pophale) SiO2 
 PCOD8160853
Probable space group: C 2 2 2
;
_chemical_formula_sum "Si O2"
_cell_formula_units_Z 64
_cell_length_a 8.785299
_cell_length_b 15.085474
_cell_length_c 24.635046
_cell_angle_alpha 90.000000
_cell_angle_beta 90.000000
_cell_angle_gamma 90.000000
_cell_volume 3264.892492
_symmetry_space_group_name_H-M "C 2 2 2"
_symmetry_group_IT_number 21
_symmetry_cell_setting 'orthorhombic'
loop_
_space_group_symop_operation_xyz
x,y,z
-x,-y,z
x,-y,-z
-x,y,-z
1/2+x,1/2+y,z
1/2-x,1/2-y,z
1/2+x,1/2-y,-z
1/2-x,1/2+y,-z
loop_
_atom_site_type_symbol
_atom_site_label
_atom_site_fract_x
_atom_site_fract_y
_atom_site_fract_z
Si Si1 0.679214 0.845980 0.391198
Si Si2 0.177381 0.155693 0.000000
Si Si3 0.320048 0.346357 0.117363
Si Si4 0.320786 0.845980 0.391198
Si Si5 0.818576 0.847550 0.500000
Si Si6 0.175581 0.500000 0.308624
Si Si7 0.179903 1.000000 0.807060
Si Si8 0.320048 0.653643 0.117363
O O1 0.750000 0.750000 0.377696
O O2 0.500000 0.835093 0.401196
O O3 0.754745 0.891345 0.444800
O O4 0.715782 0.911646 0.341998
O O5 0.250000 0.250000 0.000000
O O6 0.223698 0.110922 0.057682
O O7 0.223698 0.110922 0.942318
O O8 0.000000 0.169949 0.000000
O O9 0.250000 0.250000 0.126873
O O10 0.254505 0.412686 0.162944
O O11 0.500000 0.336204 0.122741
O O12 0.250000 0.750000 0.377696
O O13 0.245255 0.891345 0.444800
O O14 0.284218 0.911646 0.341998
O O15 0.750000 0.750000 0.500000
O O16 0.000000 0.849296 0.500000
O O17 0.276022 0.500000 0.255300
O O18 0.000000 0.500000 0.291903
O O19 0.245495 0.087314 0.837056
O O20 0.000000 0.000000 0.812496
O O21 0.250000 0.750000 0.126873
#
# Coordination Sequence:
#
# PCOD8160853 Si02
#       8
#     8   8   8   8   8   8   8   8
#     4  10  20  37  58  81 108 140 175 215 261 311
#     4   8  14  27  49  75 104 132 166 207 255 313
#     4   9  18  33  53  78 105 137 171 212 262 313
#     4  10  20  37  58  81 108 140 175 215 261 311
#     4  10  18  31  54  85 114 140 170 209 259 315
#     4  10  24  41  56  75 104 142 183 220 261 310
#     4  10  22  37  53  75 104 136 178 222 261 306
#     4   9  18  33  53  78 105 137 171 212 262 313
#
# _framework density 19.602482999999999
#
# number of rings (size 3 to 8) (size 9 to 14) (size 15 to 20)
#    0.000    2.500    0.000    3.375    0.000    5.000 
#    0.000   10.000    0.000    0.000    0.000    9.625 
#    0.000    0.000    0.000    0.000    0.000    0.000 
#
# Total GULP energy -396463.124582 kJ/mol
# GULP energy per Si atom -12389.472643 kJ/mol
# Density = 1.955787 g / cm^3
# Si number density = 19.602483 Si / 1000 Ang^3
#
#
#
# Elastic Constant Matrix: (Units=GPa)
#
#
# Indices 1 2 3 4 5 6 
#
# 1 71.1483 37.5202 51.6063 0.0000 0.0000 0.0000
# 2 37.5202 109.3926 71.6761 0.0000 0.0000 0.0000
# 3 51.6063 71.6761 161.7157 0.0000 0.0000 0.0000
# 4 0.0000 0.0000 0.0000 -32.3807 0.0000 0.0000
# 5 0.0000 0.0000 0.0000 0.0000 30.9855 0.0000
# 6 0.0000 0.0000 0.0000 0.0000 0.0000 23.4755
#
#
#
# Elastic Compliance Matrix: (Units=1/GPa)
#
#
# Indices 1 2 3 4 5 6 
#
# 1 0.019262 -0.003635 -0.004536 0.000000 0.000000 0.000000
# 2 -0.003635 0.013568 -0.004854 0.000000 0.000000 0.000000
# 3 -0.004536 -0.004854 0.009783 0.000000 0.000000 0.000000
# 4 0.000000 0.000000 0.000000 -0.030883 0.000000 0.000000
# 5 0.000000 0.000000 0.000000 0.000000 0.032273 0.000000
# 6 0.000000 0.000000 0.000000 0.000000 0.000000 0.042598
#
#
# Mechanical properties :
#
#
# Convention : Reuss Voigt Hill
#
# Bulk Modulus (GPa) = 60.37187 73.76242 67.06715
# Shear Modulus (GPa) = 42.31148 16.51299 29.41224
#
# Velocity S-wave (km/s) = 4.65098 2.90555 3.87775
# Velocity P-wave (km/s) = 7.72704 6.99765 7.37137
#
# Compressibility (1/GPa) = 0.01656401
#
# Stress axis : x y z
#
# Youngs Moduli (GPa) = 51.91604 73.70054 102.22267
#
# Poissons Ratio (x) = 0.26787 0.46367
# Poissons Ratio (y) = 0.18869 0.49619
# Poissons Ratio (z) = 0.23548 0.35774
#
# Static dielectric constant tensor:
#      x y z
#    x 3.497080 0.000000 0.000000 
#    y 0.000000 3.518920 0.000000 
#    z 0.000000 0.000000 4.200630 
# 
# 
# High freq. dielectric constant tensor:
#      x y z
#    x 1.757300 0.000000 0.000000 
#    y 0.000000 1.750340 0.000000 
#    z 0.000000 0.000000 1.776910 
# 
# From -- ./inp_files/38521.got.cif
#   From: 2010.03.12/outbox.cif.g09.slc.cpg/sg21_20_cif.got.tgz:38521.got - 2010.04.14 01:59:26.
