data_PCOD8160660
_publ_section_title
;
Structure prediction by ZEFSAII (Michael W. Deem and Ramdas Pophale) SiO2 
 PCOD8160660
Probable space group: C 2 2 21
;
_chemical_formula_sum "Si O2"
_cell_formula_units_Z 32
_cell_length_a 7.746622
_cell_length_b 17.303409
_cell_length_c 10.979987
_cell_angle_alpha 90.000000
_cell_angle_beta 90.000000
_cell_angle_gamma 90.000000
_cell_volume 1471.790055
_symmetry_space_group_name_H-M "C 2 2 21"
_symmetry_group_IT_number 20
_symmetry_cell_setting 'orthorhombic'
loop_
_space_group_symop_operation_xyz
x,y,z
-x,-y,1/2+z
x,-y,-z
-x,y,1/2-z
1/2+x,1/2+y,z
1/2-x,1/2-y,1/2+z
1/2+x,1/2-y,-z
1/2-x,1/2+y,1/2-z
loop_
_atom_site_type_symbol
_atom_site_label
_atom_site_fract_x
_atom_site_fract_y
_atom_site_fract_z
Si Si1 0.400356 0.864522 0.565780
Si Si2 0.500000 0.254930 0.250000
Si Si3 0.799716 0.022164 0.243185
Si Si4 0.187018 0.645014 0.812493
Si Si5 0.630577 0.000000 0.500000
O O1 0.512071 0.798642 0.630518
O O2 0.288840 0.907516 0.670033
O O3 0.297770 0.825412 0.453273
O O4 0.517321 0.923301 0.486690
O O5 0.672187 0.306333 0.237139
O O6 0.000000 0.039394 0.250000
O O7 0.747261 0.943706 0.177620
O O8 0.743142 0.014570 0.381821
O O9 0.000000 0.656535 0.750000
#
# Coordination Sequence:
#
# PCOD8160660 Si02
#       5
#     8   4   8   8   4
#     4  12  25  49  71 105 146 192 247 302 359 447
#     4  12  30  48  70 110 148 188 244 300 382 432
#     4  12  25  44  75 110 140 193 248 298 363 433
#     4  12  26  48  74 104 147 193 236 305 370 435
#     4  12  22  44  78 100 144 190 250 300 354 430
#
# _framework density 21.742232999999999
#
# number of rings (size 3 to 8) (size 9 to 14) (size 15 to 20)
#    0.000    0.000    8.750    0.000    7.000    1.000 
#    0.000    0.000    0.000    0.000    0.000    0.000 
#    0.000    0.000    0.000    0.000    0.000    0.000 
#
# Total GULP energy -198339.903336 kJ/mol
# GULP energy per Si atom -12396.243958 kJ/mol
# Density = 2.169275 g / cm^3
# Si number density = 21.742233 Si / 1000 Ang^3
#
#
#
# Elastic Constant Matrix: (Units=GPa)
#
#
# Indices 1 2 3 4 5 6 
#
# 1 139.4449 35.2071 32.0285 0.0000 0.0000 0.0000
# 2 35.2071 71.9460 11.1797 0.0000 0.0000 0.0000
# 3 32.0285 11.1797 147.3109 0.0000 0.0000 0.0000
# 4 0.0000 0.0000 0.0000 35.6084 0.0000 0.0000
# 5 0.0000 0.0000 0.0000 0.0000 26.4995 0.0000
# 6 0.0000 0.0000 0.0000 0.0000 0.0000 41.7688
#
#
#
# Elastic Compliance Matrix: (Units=1/GPa)
#
#
# Indices 1 2 3 4 5 6 
#
# 1 0.008520 -0.003928 -0.001554 0.000000 0.000000 0.000000
# 2 -0.003928 0.015876 -0.000351 0.000000 0.000000 0.000000
# 3 -0.001554 -0.000351 0.007153 0.000000 0.000000 0.000000
# 4 0.000000 0.000000 0.000000 0.028083 0.000000 0.000000
# 5 0.000000 0.000000 0.000000 0.000000 0.037737 0.000000
# 6 0.000000 0.000000 0.000000 0.000000 0.000000 0.023941
#
#
# Mechanical properties :
#
#
# Convention : Reuss Voigt Hill
#
# Bulk Modulus (GPa) = 50.29454 57.28137 53.78795
# Shear Modulus (GPa) = 35.81572 39.46112 37.63842
#
# Velocity S-wave (km/s) = 4.06308 4.26485 4.16519
# Velocity P-wave (km/s) = 6.72264 7.11722 6.92274
#
# Compressibility (1/GPa) = 0.01988287
#
# Stress axis : x y z
#
# Youngs Moduli (GPa) = 117.37114 62.98855 139.80273
#
# Poissons Ratio (x) = 0.24740 0.21730
# Poissons Ratio (y) = 0.46101 0.04905
# Poissons Ratio (z) = 0.18243 0.02210
#
# Static dielectric constant tensor:
#      x y z
#    x 3.883130 0.000000 0.000000 
#    y 0.000000 4.045640 0.000000 
#    z 0.000000 0.000000 3.826350 
# 
# 
# High freq. dielectric constant tensor:
#      x y z
#    x 1.848860 0.000000 0.000000 
#    y 0.000000 1.850730 0.000000 
#    z 0.000000 0.000000 1.880730 
# 
# From -- ./inp_files/12582.got.cif
#   From: 2010.03.12/outbox.cif.g09.slc.cpg/sg20_7_cif.got.tgz:12582.got - 2010.04.14 01:38:04.
