data_PCOD8160079
_publ_section_title
;
Structure prediction by ZEFSAII (Michael W. Deem and Ramdas Pophale) SiO2 
 PCOD8160079
Probable space group: C 2 2 21
;
_chemical_formula_sum "Si O2"
_cell_formula_units_Z 60
_cell_length_a 17.005904
_cell_length_b 10.862842
_cell_length_c 14.436776
_cell_angle_alpha 90.000000
_cell_angle_beta 90.000000
_cell_angle_gamma 90.000000
_cell_volume 2666.940975
_symmetry_space_group_name_H-M "C 2 2 21"
_symmetry_group_IT_number 20
_symmetry_cell_setting 'orthorhombic'
loop_
_space_group_symop_operation_xyz
x,y,z
-x,-y,1/2+z
x,-y,-z
-x,y,1/2-z
1/2+x,1/2+y,z
1/2-x,1/2-y,1/2+z
1/2+x,1/2-y,-z
1/2-x,1/2+y,1/2-z
loop_
_atom_site_type_symbol
_atom_site_label
_atom_site_fract_x
_atom_site_fract_y
_atom_site_fract_z
Si Si1 0.950582 0.234475 0.986833
Si Si2 0.458983 0.500000 0.500000
Si Si3 0.374367 0.273166 0.818087
Si Si4 0.799699 0.788886 0.342231
Si Si5 0.659970 0.432007 0.847532
Si Si6 0.902109 0.389441 0.564624
Si Si7 0.090115 0.485538 0.252267
Si Si8 0.823249 0.322055 0.852799
O O1 0.936372 0.223513 0.097493
O O2 0.987355 0.105211 0.952374
O O3 0.867178 0.251889 0.935926
O O4 0.008888 0.348627 0.961832
O O5 0.407733 0.571620 0.423839
O O6 0.287626 0.259924 0.859026
O O7 0.377663 0.393501 0.751906
O O8 0.396007 0.159858 0.751116
O O9 0.850309 0.735647 0.429436
O O10 0.834296 0.753774 0.241795
O O11 0.801020 0.935052 0.344038
O O12 0.730707 0.338519 0.875628
O O13 0.873366 0.500000 0.500000
O O14 0.878441 0.451299 0.660987
O O15 0.134476 0.544927 0.340494
O O16 0.000000 0.520672 0.250000
#
# Coordination Sequence:
#
# PCOD8160079 Si02
#       8
#     8   4   8   8   8   8   8   8
#     4  12  27  47  69 110 143 188 248 305 374 434
#     4  12  30  48  70 108 148 190 244 300 372 446
#     4  11  27  44  71 104 146 189 241 303 369 438
#     4  10  23  49  70 102 142 193 245 299 376 445
#     4  11  25  48  73  99 147 199 242 295 373 450
#     4  11  24  43  72 105 140 183 241 307 371 435
#     4  11  21  40  68 102 136 177 233 298 362 423
#     4  10  24  44  75 102 139 194 241 301 360 447
#
# _framework density 22.497686999999999
#
# number of rings (size 3 to 8) (size 9 to 14) (size 15 to 20)
#    0.000    1.067    4.000    0.800    7.467    0.000 
#    3.600    0.000    0.000    0.000    0.000    0.000 
#    0.000    0.000    0.000    0.000    0.000    0.000 
#
# Total GULP energy -371884.937803 kJ/mol
# GULP energy per Si atom -12396.164593 kJ/mol
# Density = 2.244648 g / cm^3
# Si number density = 22.497687 Si / 1000 Ang^3
#
#
#
# Elastic Constant Matrix: (Units=GPa)
#
#
# Indices 1 2 3 4 5 6 
#
# 1 93.2525 29.0204 59.4264 0.0000 0.0000 0.0000
# 2 29.0204 92.5504 43.6363 0.0000 0.0000 0.0000
# 3 59.4264 43.6363 99.9386 0.0000 0.0000 0.0000
# 4 0.0000 0.0000 0.0000 -22.0557 0.0000 0.0000
# 5 0.0000 0.0000 0.0000 0.0000 34.1377 0.0000
# 6 0.0000 0.0000 0.0000 0.0000 0.0000 32.8896
#
#
#
# Elastic Compliance Matrix: (Units=1/GPa)
#
#
# Indices 1 2 3 4 5 6 
#
# 1 0.017305 -0.000724 -0.009974 0.000000 0.000000 0.000000
# 2 -0.000724 0.013636 -0.005524 0.000000 0.000000 0.000000
# 3 -0.009974 -0.005524 0.018349 0.000000 0.000000 0.000000
# 4 0.000000 0.000000 0.000000 -0.045340 0.000000 0.000000
# 5 0.000000 0.000000 0.000000 0.000000 0.029293 0.000000
# 6 0.000000 0.000000 0.000000 0.000000 0.000000 0.030405
#
#
# Mechanical properties :
#
#
# Convention : Reuss Voigt Hill
#
# Bulk Modulus (GPa) = 59.35704 61.10087 60.22896
# Shear Modulus (GPa) = 49.16118 19.23821 34.19970
#
# Velocity S-wave (km/s) = 4.67965 2.92742 3.90313
# Velocity P-wave (km/s) = 7.45920 6.21643 6.86599
#
# Compressibility (1/GPa) = 0.01684720
#
# Stress axis : x y z
#
# Youngs Moduli (GPa) = 57.78739 73.33438 54.49934
#
# Poissons Ratio (x) = 0.05306 0.54358
# Poissons Ratio (y) = 0.04181 0.30104
# Poissons Ratio (z) = 0.57637 0.40508
#
# Static dielectric constant tensor:
#      x y z
#    x 4.051110 0.000000 0.000000 
#    y 0.000000 4.249260 0.000000 
#    z 0.000000 0.000000 3.527390 
# 
# 
# High freq. dielectric constant tensor:
#      x y z
#    x 1.890600 0.000000 0.000000 
#    y 0.000000 1.891360 0.000000 
#    z 0.000000 0.000000 1.876480 
# 
# From -- ./inp_files/21455.got.cif
#   From: 2010.03.12/outbox.cif.g09.slc.cpg/sg20_11_cif.got.tgz:21455.got - 2010.04.14 01:38:04.
