data_PCOD8160306
_publ_section_title
;
Structure prediction by ZEFSAII (Michael W. Deem and Ramdas Pophale) SiO2 
 PCOD8160306
Probable space group: C 2 2 21
;
_chemical_formula_sum "Si O2"
_cell_formula_units_Z 48
_cell_length_a 16.561952
_cell_length_b 8.199886
_cell_length_c 17.820467
_cell_angle_alpha 90.000000
_cell_angle_beta 90.000000
_cell_angle_gamma 90.000000
_cell_volume 2420.128450
_symmetry_space_group_name_H-M "C 2 2 21"
_symmetry_group_IT_number 20
_symmetry_cell_setting 'orthorhombic'
loop_
_space_group_symop_operation_xyz
x,y,z
-x,-y,1/2+z
x,-y,-z
-x,y,1/2-z
1/2+x,1/2+y,z
1/2-x,1/2-y,1/2+z
1/2+x,1/2-y,-z
1/2-x,1/2+y,1/2-z
loop_
_atom_site_type_symbol
_atom_site_label
_atom_site_fract_x
_atom_site_fract_y
_atom_site_fract_z
Si Si1 0.192756 0.511937 0.179467
Si Si2 0.249867 0.335665 0.038057
Si Si3 0.372845 0.371760 0.439786
Si Si4 0.525255 0.180149 0.169908
Si Si5 0.739605 0.864817 0.336477
Si Si6 0.619214 0.939217 0.576678
O O1 0.203857 0.380148 0.114512
O O2 0.097991 0.554418 0.185465
O O3 0.246312 0.671751 0.164919
O O4 0.225826 0.433288 0.254718
O O5 0.321803 0.212698 0.059429
O O6 0.285824 0.500000 0.000000
O O7 0.182971 0.262675 0.981172
O O8 0.405358 0.500000 0.500000
O O9 0.450811 0.303264 0.396714
O O10 0.318044 0.452706 0.374238
O O11 0.500000 0.262626 0.250000
O O12 0.446056 0.093076 0.139871
O O13 0.666688 0.904100 0.392081
O O14 0.577241 0.000000 0.500000
#
# Coordination Sequence:
#
# PCOD8160306 Si02
#       6
#     8   8   8   8   8   8
#     4  11  24  38  68  94 129 175 221 266 319 392
#     4  12  21  40  67 100 121 166 229 267 313 393
#     4  11  23  43  68  96 128 176 223 275 328 391
#     4  11  25  42  63  95 137 172 214 266 349 388
#     4  11  20  41  62  96 123 169 220 266 315 380
#     4  12  23  40  66  95 132 167 215 275 324 384
#
# _framework density 19.833659000000001
#
# number of rings (size 3 to 8) (size 9 to 14) (size 15 to 20)
#    0.000    0.667    8.333    1.000    4.667    0.667 
#    0.000    0.000    0.000    5.000    0.000    0.000 
#    0.000    0.000    0.000    0.000    0.000    0.000 
#
# Total GULP energy -297437.848037 kJ/mol
# GULP energy per Si atom -12393.243668 kJ/mol
# Density = 1.978852 g / cm^3
# Si number density = 19.833659 Si / 1000 Ang^3
#
#
#
# Elastic Constant Matrix: (Units=GPa)
#
#
# Indices 1 2 3 4 5 6 
#
# 1 80.4303 38.0283 30.9648 0.0000 0.0000 0.0000
# 2 38.0283 80.9534 45.2095 0.0000 0.0000 0.0000
# 3 30.9648 45.2095 140.8439 0.0000 0.0000 0.0000
# 4 0.0000 0.0000 0.0000 46.9037 0.0000 0.0000
# 5 0.0000 0.0000 0.0000 0.0000 39.5828 0.0000
# 6 0.0000 0.0000 0.0000 0.0000 0.0000 15.1569
#
#
#
# Elastic Compliance Matrix: (Units=1/GPa)
#
#
# Indices 1 2 3 4 5 6 
#
# 1 0.016195 -0.006847 -0.001363 0.000000 0.000000 0.000000
# 2 -0.006847 0.017945 -0.004255 0.000000 0.000000 0.000000
# 3 -0.001363 -0.004255 0.008765 0.000000 0.000000 0.000000
# 4 0.000000 0.000000 0.000000 0.021320 0.000000 0.000000
# 5 0.000000 0.000000 0.000000 0.000000 0.025264 0.000000
# 6 0.000000 0.000000 0.000000 0.000000 0.000000 0.065976
#
#
# Mechanical properties :
#
#
# Convention : Reuss Voigt Hill
#
# Bulk Modulus (GPa) = 55.62697 58.95921 57.29309
# Shear Modulus (GPa) = 26.82591 32.86367 29.84479
#
# Velocity S-wave (km/s) = 3.68169 4.07500 3.88333
# Velocity P-wave (km/s) = 6.79564 7.20640 7.00403
#
# Compressibility (1/GPa) = 0.01797689
#
# Stress axis : x y z
#
# Youngs Moduli (GPa) = 61.74770 55.72497 114.08365
#
# Poissons Ratio (x) = 0.38153 0.15547
# Poissons Ratio (y) = 0.42276 0.48543
# Poissons Ratio (z) = 0.08415 0.23711
#
# Static dielectric constant tensor:
#      x y z
#    x 3.477170 0.000000 0.000000 
#    y 0.000000 3.599150 0.000000 
#    z 0.000000 0.000000 4.218180 
# 
# 
# High freq. dielectric constant tensor:
#      x y z
#    x 1.756620 0.000000 0.000000 
#    y 0.000000 1.756930 0.000000 
#    z 0.000000 0.000000 1.813760 
# 
# From -- ./inp_files/24801.got.cif
#   From: 2010.03.12/outbox.cif.g09.slc.cpg/sg20_13_cif.got.tgz:24801.got - 2010.04.14 01:38:04.
