data_PCOD8160147
_publ_section_title
;
Structure prediction by ZEFSAII (Michael W. Deem and Ramdas Pophale) SiO2 
 PCOD8160147
Probable space group: C 2 2 21
;
_chemical_formula_sum "Si O2"
_cell_formula_units_Z 56
_cell_length_a 13.510458
_cell_length_b 11.636804
_cell_length_c 17.259778
_cell_angle_alpha 90.000000
_cell_angle_beta 90.000000
_cell_angle_gamma 90.000000
_cell_volume 2713.557300
_symmetry_space_group_name_H-M "C 2 2 21"
_symmetry_group_IT_number 20
_symmetry_cell_setting 'orthorhombic'
loop_
_space_group_symop_operation_xyz
x,y,z
-x,-y,1/2+z
x,-y,-z
-x,y,1/2-z
1/2+x,1/2+y,z
1/2-x,1/2-y,1/2+z
1/2+x,1/2-y,-z
1/2-x,1/2+y,1/2-z
loop_
_atom_site_type_symbol
_atom_site_label
_atom_site_fract_x
_atom_site_fract_y
_atom_site_fract_z
Si Si1 0.076702 0.180804 0.417509
Si Si2 0.577140 0.877810 0.681795
Si Si3 0.396384 0.138647 0.789664
Si Si4 0.533656 0.547549 0.662361
Si Si5 0.271655 0.684331 0.833803
Si Si6 0.276792 0.868914 0.501338
Si Si7 0.958406 0.248906 0.561643
O O1 0.120120 0.277814 0.361584
O O2 0.165399 0.129146 0.467726
O O3 0.995145 0.233552 0.474128
O O4 0.022855 0.080906 0.369122
O O5 0.500000 0.847975 0.750000
O O6 0.676811 0.803338 0.691784
O O7 0.526576 0.846077 0.600668
O O8 0.606956 0.009618 0.679086
O O9 0.500000 0.168411 0.750000
O O10 0.309001 0.153127 0.729190
O O11 0.500000 0.553411 0.750000
O O12 0.648149 0.583134 0.658963
O O13 0.464564 0.631245 0.610853
O O14 0.218831 0.691280 0.917186
O O15 0.346054 0.794234 0.558447
O O16 0.316278 0.000000 0.500000
#
# Coordination Sequence:
#
# PCOD8160147 Si02
#       7
#     8   8   8   8   8   8   8
#     4  12  24  46  68 102 138 177 230 287 338 416
#     4  10  24  44  68  96 136 178 228 282 341 416
#     4  11  27  42  66 102 136 180 229 281 346 412
#     4  11  24  45  70 100 137 184 225 285 342 415
#     4  11  23  45  67 101 130 176 231 277 348 411
#     4  12  25  42  72  97 134 182 226 281 346 410
#     4  11  24  43  71  98 134 176 233 277 347 401
#
# _framework density 20.637115999999999
#
# number of rings (size 3 to 8) (size 9 to 14) (size 15 to 20)
#    0.000    0.857    4.286    3.429   12.000    0.000 
#    0.000    1.429    0.000    0.000    0.000    0.000 
#    0.000    0.000    0.000    0.000    0.000    0.000 
#
# Total GULP energy -347362.257950 kJ/mol
# GULP energy per Si atom -12405.794927 kJ/mol
# Density = 2.059014 g / cm^3
# Si number density = 20.637116 Si / 1000 Ang^3
#
#
#
# Elastic Constant Matrix: (Units=GPa)
#
#
# Indices 1 2 3 4 5 6 
#
# 1 70.2711 37.9837 14.8145 0.0000 0.0000 0.0000
# 2 37.9837 143.0776 61.8288 0.0000 0.0000 0.0000
# 3 14.8145 61.8288 107.5318 0.0000 0.0000 0.0000
# 4 0.0000 0.0000 0.0000 23.7442 0.0000 0.0000
# 5 0.0000 0.0000 0.0000 0.0000 41.3688 0.0000
# 6 0.0000 0.0000 0.0000 0.0000 0.0000 14.4860
#
#
#
# Elastic Compliance Matrix: (Units=1/GPa)
#
#
# Indices 1 2 3 4 5 6 
#
# 1 0.016624 -0.004555 0.000329 0.000000 0.000000 0.000000
# 2 -0.004555 0.010548 -0.005437 0.000000 0.000000 0.000000
# 3 0.000329 -0.005437 0.012381 0.000000 0.000000 0.000000
# 4 0.000000 0.000000 0.000000 0.042116 0.000000 0.000000
# 5 0.000000 0.000000 0.000000 0.000000 0.024173 0.000000
# 6 0.000000 0.000000 0.000000 0.000000 0.000000 0.069032
#
#
# Mechanical properties :
#
#
# Convention : Reuss Voigt Hill
#
# Bulk Modulus (GPa) = 49.44391 61.12607 55.28499
# Shear Modulus (GPa) = 24.88279 29.67004 27.27641
#
# Velocity S-wave (km/s) = 3.47613 3.79582 3.63949
# Velocity P-wave (km/s) = 6.33420 6.99248 6.67146
#
# Compressibility (1/GPa) = 0.02022494
#
# Stress axis : x y z
#
# Youngs Moduli (GPa) = 60.15565 94.80227 80.77093
#
# Poissons Ratio (x) = 0.43186 -0.02658
# Poissons Ratio (y) = 0.27403 0.43919
# Poissons Ratio (z) = -0.01979 0.51549
#
# Static dielectric constant tensor:
#      x y z
#    x 3.838020 0.000000 0.000000 
#    y 0.000000 3.811190 0.000000 
#    z 0.000000 0.000000 3.868120 
# 
# 
# High freq. dielectric constant tensor:
#      x y z
#    x 1.803980 0.000000 0.000000 
#    y 0.000000 1.812580 0.000000 
#    z 0.000000 0.000000 1.822450 
# 
# From -- ./inp_files/20757.got.cif
#   From: 2010.03.12/outbox.cif.g09.slc.cpg/sg20_11_cif.got.tgz:20757.got - 2010.04.14 01:38:04.
