data_PCOD8160624
_publ_section_title
;
Structure prediction by ZEFSAII (Michael W. Deem and Ramdas Pophale) SiO2 
 PCOD8160624
Probable space group: C 2 2 21
;
_chemical_formula_sum "Si O2"
_cell_formula_units_Z 32
_cell_length_a 8.939860
_cell_length_b 19.321780
_cell_length_c 7.605908
_cell_angle_alpha 90.000000
_cell_angle_beta 90.000000
_cell_angle_gamma 90.000000
_cell_volume 1313.798974
_symmetry_space_group_name_H-M "C 2 2 21"
_symmetry_group_IT_number 20
_symmetry_cell_setting 'orthorhombic'
loop_
_space_group_symop_operation_xyz
x,y,z
-x,-y,1/2+z
x,-y,-z
-x,y,1/2-z
1/2+x,1/2+y,z
1/2-x,1/2-y,1/2+z
1/2+x,1/2-y,-z
1/2-x,1/2+y,1/2-z
loop_
_atom_site_type_symbol
_atom_site_label
_atom_site_fract_x
_atom_site_fract_y
_atom_site_fract_z
Si Si1 0.106577 0.318145 0.002307
Si Si2 0.769270 0.317482 0.882676
Si Si3 0.096951 0.065585 0.910587
Si Si4 0.150110 0.461300 0.172319
O O1 0.072388 0.310952 0.517617
O O2 0.175667 0.252459 0.099964
O O3 0.136668 0.380121 0.135257
O O4 0.193826 0.332537 0.820484
O O5 0.657168 0.376107 0.957084
O O6 0.234852 0.025180 0.826100
O O7 0.000000 0.099517 0.750000
O O8 0.008989 0.000000 0.000000
O O9 0.000000 0.494892 0.250000
O O10 0.202629 0.500000 0.000000
#
# Coordination Sequence:
#
# PCOD8160624 Si02
#       4
#     8   8   8   8
#     4  11  26  46  73 110 142 189 237 300 361 424
#     4  11  26  46  76 106 147 185 242 297 360 427
#     4  12  27  49  71 105 145 189 240 294 360 426
#     4  12  25  44  74 103 140 185 241 298 352 423
#
# _framework density 24.356846999999998
#
# number of rings (size 3 to 8) (size 9 to 14) (size 15 to 20)
#    0.000    0.500    2.500    4.500   10.500    0.000 
#    0.000    0.000    0.000    0.000    0.000    0.000 
#    0.000    0.000    0.000    0.000    0.000    0.000 
#
# Total GULP energy -198361.651250 kJ/mol
# GULP energy per Si atom -12397.603203 kJ/mol
# Density = 2.430141 g / cm^3
# Si number density = 24.356847 Si / 1000 Ang^3
#
#
#
# Elastic Constant Matrix: (Units=GPa)
#
#
# Indices 1 2 3 4 5 6 
#
# 1 83.3792 8.0905 9.2955 0.0000 0.0000 0.0000
# 2 8.0905 106.9790 12.0265 0.0000 0.0000 0.0000
# 3 9.2955 12.0265 84.8550 0.0000 0.0000 0.0000
# 4 0.0000 0.0000 0.0000 28.0477 0.0000 0.0000
# 5 0.0000 0.0000 0.0000 0.0000 48.2219 0.0000
# 6 0.0000 0.0000 0.0000 0.0000 0.0000 46.6420
#
#
#
# Elastic Compliance Matrix: (Units=1/GPa)
#
#
# Indices 1 2 3 4 5 6 
#
# 1 0.012206 -0.000785 -0.001226 0.000000 0.000000 0.000000
# 2 -0.000785 0.009550 -0.001267 0.000000 0.000000 0.000000
# 3 -0.001226 -0.001267 0.012099 0.000000 0.000000 0.000000
# 4 0.000000 0.000000 0.000000 0.035654 0.000000 0.000000
# 5 0.000000 0.000000 0.000000 0.000000 0.020737 0.000000
# 6 0.000000 0.000000 0.000000 0.000000 0.000000 0.021440
#
#
# Mechanical properties :
#
#
# Convention : Reuss Voigt Hill
#
# Bulk Modulus (GPa) = 36.63360 37.11534 36.87447
# Shear Modulus (GPa) = 39.26442 40.96902 40.11672
#
# Velocity S-wave (km/s) = 4.01939 4.10571 4.06278
# Velocity P-wave (km/s) = 6.05092 6.14386 6.09757
#
# Compressibility (1/GPa) = 0.02729734
#
# Stress axis : x y z
#
# Youngs Moduli (GPa) = 81.92514 104.71748 82.65333
#
# Poissons Ratio (x) = 0.08224 0.10132
# Poissons Ratio (y) = 0.06434 0.10476
# Poissons Ratio (z) = 0.10043 0.13272
#
# Static dielectric constant tensor:
#      x y z
#    x 4.648610 0.000000 0.000000 
#    y 0.000000 4.305160 0.000000 
#    z 0.000000 0.000000 4.844440 
# 
# 
# High freq. dielectric constant tensor:
#      x y z
#    x 1.978420 0.000000 0.000000 
#    y 0.000000 1.967100 0.000000 
#    z 0.000000 0.000000 1.987710 
# 
# From -- ./inp_files/986.got.cif
#   From: 2010.03.12/outbox.cif.g09.slc.cpg/sg20_1_cif.got.tgz:986.got - 2010.04.14 01:38:04.
