data_PCOD8160590
_publ_section_title
;
Structure prediction by ZEFSAII (Michael W. Deem and Ramdas Pophale) SiO2 
 PCOD8160590
Probable space group: C 2 2 21
;
_chemical_formula_sum "Si O2"
_cell_formula_units_Z 28
_cell_length_a 13.584860
_cell_length_b 7.094467
_cell_length_c 11.107774
_cell_angle_alpha 90.000000
_cell_angle_beta 90.000000
_cell_angle_gamma 90.000000
_cell_volume 1070.537722
_symmetry_space_group_name_H-M "C 2 2 21"
_symmetry_group_IT_number 20
_symmetry_cell_setting 'orthorhombic'
loop_
_space_group_symop_operation_xyz
x,y,z
-x,-y,1/2+z
x,-y,-z
-x,y,1/2-z
1/2+x,1/2+y,z
1/2-x,1/2-y,1/2+z
1/2+x,1/2-y,-z
1/2-x,1/2+y,1/2-z
loop_
_atom_site_type_symbol
_atom_site_label
_atom_site_fract_x
_atom_site_fract_y
_atom_site_fract_z
Si Si1 0.931979 0.731405 0.423204
Si Si2 0.280199 0.352845 0.895635
Si Si3 0.107241 0.500000 0.500000
Si Si4 0.412763 0.628441 0.322380
O O1 0.835581 0.640471 0.363514
O O2 0.891186 0.744582 0.561589
O O3 0.032000 0.610294 0.409995
O O4 0.958058 0.931352 0.367591
O O5 0.321234 0.145542 0.931260
O O6 0.320803 0.408107 0.764249
O O7 0.311632 0.500000 0.000000
O O8 0.500000 0.732340 0.250000
#
# Coordination Sequence:
#
# PCOD8160590 Si02
#       4
#     8   8   4   8
#     4  11  26  49  77 117 151 206 268 316 397 477
#     4  12  27  50  77 114 158 205 263 329 393 470
#     4  12  24  50  78 108 156 204 260 312 396 464
#     4  11  24  50  76 107 162 203 259 334 391 465
#
# _framework density 26.155080000000002
#
# number of rings (size 3 to 8) (size 9 to 14) (size 15 to 20)
#    0.000    0.571    4.286    3.429    4.000    0.000 
#   20.571    0.000    0.000    0.000    0.000    0.000 
#    0.000    0.000    0.000    0.000    0.000    0.000 
#
# Total GULP energy -173532.969711 kJ/mol
# GULP energy per Si atom -12395.212122 kJ/mol
# Density = 2.609555 g / cm^3
# Si number density = 26.155080 Si / 1000 Ang^3
#
#
#
# Elastic Constant Matrix: (Units=GPa)
#
#
# Indices 1 2 3 4 5 6 
#
# 1 109.9482 3.6600 3.1202 0.0000 0.0000 0.0000
# 2 3.6600 93.5718 -5.7405 0.0000 0.0000 0.0000
# 3 3.1202 -5.7405 90.8468 0.0000 0.0000 0.0000
# 4 0.0000 0.0000 0.0000 18.8952 0.0000 0.0000
# 5 0.0000 0.0000 0.0000 0.0000 40.7576 0.0000
# 6 0.0000 0.0000 0.0000 0.0000 0.0000 38.9202
#
#
#
# Elastic Compliance Matrix: (Units=1/GPa)
#
#
# Indices 1 2 3 4 5 6 
#
# 1 0.009117 -0.000377 -0.000337 0.000000 0.000000 0.000000
# 2 -0.000377 0.010744 0.000692 0.000000 0.000000 0.000000
# 3 -0.000337 0.000692 0.011063 0.000000 0.000000 0.000000
# 4 0.000000 0.000000 0.000000 0.052924 0.000000 0.000000
# 5 0.000000 0.000000 0.000000 0.000000 0.024535 0.000000
# 6 0.000000 0.000000 0.000000 0.000000 0.000000 0.025694
#
#
# Mechanical properties :
#
#
# Convention : Reuss Voigt Hill
#
# Bulk Modulus (GPa) = 32.38394 32.93848 32.66121
# Shear Modulus (GPa) = 34.62249 39.26974 36.94612
#
# Velocity S-wave (km/s) = 3.64227 3.87902 3.76251
# Velocity P-wave (km/s) = 5.48603 5.71693 5.60267
#
# Compressibility (1/GPa) = 0.03087951
#
# Stress axis : x y z
#
# Youngs Moduli (GPa) = 109.68145 93.07367 90.39279
#
# Poissons Ratio (x) = 0.03512 0.03046
# Poissons Ratio (y) = 0.04138 -0.06254
# Poissons Ratio (z) = 0.03696 -0.06439
#
# Static dielectric constant tensor:
#      x y z
#    x 4.599200 0.000000 0.000000 
#    y 0.000000 4.757390 0.000000 
#    z 0.000000 0.000000 4.841570 
# 
# 
# High freq. dielectric constant tensor:
#      x y z
#    x 2.057130 0.000000 0.000000 
#    y 0.000000 2.051120 0.000000 
#    z 0.000000 0.000000 2.042180 
# 
# From -- ./inp_files/14596.got.cif
#   From: 2010.03.12/outbox.cif.g09.slc.cpg/sg20_8_cif.got.tgz:14596.got - 2010.04.14 01:38:04.
