data_PCOD8160735
_publ_section_title
;
Structure prediction by ZEFSAII (Michael W. Deem and Ramdas Pophale) SiO2 
 PCOD8160735
Probable space group: C 2 2 21
;
_chemical_formula_sum "Si O2"
_cell_formula_units_Z 28
_cell_length_a 5.196398
_cell_length_b 14.534401
_cell_length_c 14.886290
_cell_angle_alpha 90.000000
_cell_angle_beta 90.000000
_cell_angle_gamma 90.000000
_cell_volume 1124.309862
_symmetry_space_group_name_H-M "C 2 2 21"
_symmetry_group_IT_number 20
_symmetry_cell_setting 'orthorhombic'
loop_
_space_group_symop_operation_xyz
x,y,z
-x,-y,1/2+z
x,-y,-z
-x,y,1/2-z
1/2+x,1/2+y,z
1/2-x,1/2-y,1/2+z
1/2+x,1/2-y,-z
1/2-x,1/2+y,1/2-z
loop_
_atom_site_type_symbol
_atom_site_label
_atom_site_fract_x
_atom_site_fract_y
_atom_site_fract_z
Si Si1 0.000000 0.484786 0.250000
Si Si2 0.760101 0.366475 0.866792
Si Si3 0.237719 0.896178 0.520747
Si Si4 0.307451 0.334485 0.169763
O O1 0.206853 0.551665 0.295422
O O2 0.092839 0.414287 0.172945
O O3 0.720478 0.270365 0.813059
O O4 0.491412 0.392542 0.909421
O O5 0.000998 0.354232 0.935743
O O6 0.119047 0.840523 0.435494
O O7 0.308717 0.000000 0.500000
O O8 0.500000 0.362450 0.250000
#
# Coordination Sequence:
#
# PCOD8160735 Si02
#       4
#     4   8   8   8
#     4  12  28  50  80 112 160 206 262 334 386 468
#     4  12  28  51  78 114 160 204 262 322 395 469
#     4  12  26  50  79 113 159 207 256 325 394 466
#     4  12  28  48  79 114 156 207 263 326 392 467
#
# _framework density 24.904167999999999
#
# number of rings (size 3 to 8) (size 9 to 14) (size 15 to 20)
#    0.000    0.000    4.286    4.286    8.000    0.000 
#    0.000    0.000    0.000    0.000    0.000    0.000 
#    0.000    0.000    0.000    0.000    0.000    0.000 
#
# Total GULP energy -173456.110241 kJ/mol
# GULP energy per Si atom -12389.722160 kJ/mol
# Density = 2.484748 g / cm^3
# Si number density = 24.904168 Si / 1000 Ang^3
#
#
#
# Elastic Constant Matrix: (Units=GPa)
#
#
# Indices 1 2 3 4 5 6 
#
# 1 75.8287 19.7593 12.5795 0.0000 0.0000 0.0000
# 2 19.7593 214.3023 40.0439 0.0000 0.0000 0.0000
# 3 12.5795 40.0439 88.6375 0.0000 0.0000 0.0000
# 4 0.0000 0.0000 0.0000 78.7888 0.0000 0.0000
# 5 0.0000 0.0000 0.0000 0.0000 41.2311 0.0000
# 6 0.0000 0.0000 0.0000 0.0000 0.0000 30.9670
#
#
#
# Elastic Compliance Matrix: (Units=1/GPa)
#
#
# Indices 1 2 3 4 5 6 
#
# 1 0.013692 -0.000982 -0.001499 0.000000 0.000000 0.000000
# 2 -0.000982 0.005167 -0.002195 0.000000 0.000000 0.000000
# 3 -0.001499 -0.002195 0.012486 0.000000 0.000000 0.000000
# 4 0.000000 0.000000 0.000000 0.012692 0.000000 0.000000
# 5 0.000000 0.000000 0.000000 0.000000 0.024254 0.000000
# 6 0.000000 0.000000 0.000000 0.000000 0.000000 0.032292
#
#
# Mechanical properties :
#
#
# Convention : Reuss Voigt Hill
#
# Bulk Modulus (GPa) = 45.47032 58.17041 51.82037
# Shear Modulus (GPa) = 42.63743 50.62311 46.63027
#
# Velocity S-wave (km/s) = 4.14219 4.51346 4.33180
# Velocity P-wave (km/s) = 6.41676 7.11127 6.77292
#
# Compressibility (1/GPa) = 0.02199237
#
# Stress axis : x y z
#
# Youngs Moduli (GPa) = 73.03357 193.53558 80.08773
#
# Poissons Ratio (x) = 0.19011 0.12009
# Poissons Ratio (y) = 0.07174 0.17578
# Poissons Ratio (z) = 0.10951 0.42479
#
# Static dielectric constant tensor:
#      x y z
#    x 4.140730 0.000000 0.000000 
#    y 0.000000 4.817000 0.000000 
#    z 0.000000 0.000000 4.377370 
# 
# 
# High freq. dielectric constant tensor:
#      x y z
#    x 1.971200 0.000000 0.000000 
#    y 0.000000 2.023390 0.000000 
#    z 0.000000 0.000000 2.008190 
# 
# From -- ./inp_files/20394.got.cif
#   From: 2010.03.12/outbox.cif.g09.slc.cpg/sg20_11_cif.got.tgz:20394.got - 2010.04.14 01:38:04.
