data_PCOD8160521
_publ_section_title
;
Structure prediction by ZEFSAII (Michael W. Deem and Ramdas Pophale) SiO2 
 PCOD8160521
Probable space group: C 2 2 21
;
_chemical_formula_sum "Si O2"
_cell_formula_units_Z 40
_cell_length_a 12.283021
_cell_length_b 6.162757
_cell_length_c 17.268709
_cell_angle_alpha 90.000000
_cell_angle_beta 90.000000
_cell_angle_gamma 90.000000
_cell_volume 1307.194191
_symmetry_space_group_name_H-M "C 2 2 21"
_symmetry_group_IT_number 20
_symmetry_cell_setting 'orthorhombic'
loop_
_space_group_symop_operation_xyz
x,y,z
-x,-y,1/2+z
x,-y,-z
-x,y,1/2-z
1/2+x,1/2+y,z
1/2-x,1/2-y,1/2+z
1/2+x,1/2-y,-z
1/2-x,1/2+y,1/2-z
loop_
_atom_site_type_symbol
_atom_site_label
_atom_site_fract_x
_atom_site_fract_y
_atom_site_fract_z
Si Si1 0.287624 0.846718 0.856510
Si Si2 0.257779 0.126930 0.315144
Si Si3 0.521481 0.294331 0.124829
Si Si4 0.373877 0.778647 0.467960
Si Si5 0.033377 0.724367 0.664692
O O1 0.235518 0.926326 0.775251
O O2 0.264525 0.587382 0.863289
O O3 0.419932 0.880633 0.865818
O O4 0.209468 0.904155 0.930795
O O5 0.378232 0.217104 0.323465
O O6 0.167914 0.310698 0.346156
O O7 0.478805 0.516272 0.161233
O O8 0.554839 0.333723 0.035729
O O9 0.456969 0.874618 0.402368
O O10 0.316678 0.000000 0.500000
O O11 0.000000 0.639976 0.750000
#
# Coordination Sequence:
#
# PCOD8160521 Si02
#       5
#     8   8   8   8   8
#     4  11  25  46  74 105 148 193 248 311 373 452
#     4  11  23  46  77 105 145 192 255 310 372 449
#     4  11  25  45  75 107 146 194 250 305 384 445
#     4  12  26  47  68 110 154 195 244 315 376 441
#     4  11  24  48  73 105 146 198 249 305 375 450
#
# _framework density 30.599891
#
# number of rings (size 3 to 8) (size 9 to 14) (size 15 to 20)
#    0.000    0.800    4.000    3.600    2.800    1.600 
#    3.600    0.000    0.000    0.000    0.000    0.000 
#    0.000    0.000    0.000    0.000    0.000    0.000 
#
# Total GULP energy -248089.730300 kJ/mol
# GULP energy per Si atom -12404.486515 kJ/mol
# Density = 3.053024 g / cm^3
# Si number density = 30.599891 Si / 1000 Ang^3
#
#
#
# Elastic Constant Matrix: (Units=GPa)
#
#
# Indices 1 2 3 4 5 6 
#
# 1 240.8977 29.4834 53.7733 0.0000 0.0000 0.0000
# 2 29.4834 73.8133 4.8180 0.0000 0.0000 0.0000
# 3 53.7733 4.8180 193.3832 0.0000 0.0000 0.0000
# 4 0.0000 0.0000 0.0000 49.8510 0.0000 0.0000
# 5 0.0000 0.0000 0.0000 0.0000 60.2159 0.0000
# 6 0.0000 0.0000 0.0000 0.0000 0.0000 53.6420
#
#
#
# Elastic Compliance Matrix: (Units=1/GPa)
#
#
# Indices 1 2 3 4 5 6 
#
# 1 0.004647 -0.001775 -0.001248 0.000000 0.000000 0.000000
# 2 -0.001775 0.014248 0.000139 0.000000 0.000000 0.000000
# 3 -0.001248 0.000139 0.005515 0.000000 0.000000 0.000000
# 4 0.000000 0.000000 0.000000 0.020060 0.000000 0.000000
# 5 0.000000 0.000000 0.000000 0.000000 0.016607 0.000000
# 6 0.000000 0.000000 0.000000 0.000000 0.000000 0.018642
#
#
# Mechanical properties :
#
#
# Convention : Reuss Voigt Hill
#
# Bulk Modulus (GPa) = 53.64553 76.02705 64.83629
# Shear Modulus (GPa) = 54.52585 60.74309 57.63447
#
# Velocity S-wave (km/s) = 4.22583 4.46025 4.34462
# Velocity P-wave (km/s) = 6.43269 7.17109 6.81191
#
# Compressibility (1/GPa) = 0.01864088
#
# Stress axis : x y z
#
# Youngs Moduli (GPa) = 215.19700 70.18768 181.33559
#
# Poissons Ratio (x) = 0.12456 0.22629
# Poissons Ratio (y) = 0.38190 -0.02512
# Poissons Ratio (z) = 0.26855 -0.00972
#
# Static dielectric constant tensor:
#      x y z
#    x 6.263070 0.000000 0.000000 
#    y 0.000000 6.600010 0.000000 
#    z 0.000000 0.000000 5.499850 
# 
# 
# High freq. dielectric constant tensor:
#      x y z
#    x 2.270470 0.000000 0.000000 
#    y 0.000000 2.340180 0.000000 
#    z 0.000000 0.000000 2.246160 
# 
# From -- ./inp_files/24078.got.cif
#   From: 2010.03.12/outbox.cif.g09.slc.cpg/sg20_13_cif.got.tgz:24078.got - 2010.04.14 01:38:04.
