data_PCOD8160136
_publ_section_title
;
Structure prediction by ZEFSAII (Michael W. Deem and Ramdas Pophale) SiO2 
 PCOD8160136
Probable space group: C 2 2 21
;
_chemical_formula_sum "Si O2"
_cell_formula_units_Z 36
_cell_length_a 9.192032
_cell_length_b 8.512603
_cell_length_c 20.027630
_cell_angle_alpha 90.000000
_cell_angle_beta 90.000000
_cell_angle_gamma 90.000000
_cell_volume 1567.124379
_symmetry_space_group_name_H-M "C 2 2 21"
_symmetry_group_IT_number 20
_symmetry_cell_setting 'orthorhombic'
loop_
_space_group_symop_operation_xyz
x,y,z
-x,-y,1/2+z
x,-y,-z
-x,y,1/2-z
1/2+x,1/2+y,z
1/2-x,1/2-y,1/2+z
1/2+x,1/2-y,-z
1/2-x,1/2+y,1/2-z
loop_
_atom_site_type_symbol
_atom_site_label
_atom_site_fract_x
_atom_site_fract_y
_atom_site_fract_z
Si Si1 0.534773 0.332130 0.531490
Si Si2 0.477294 0.025014 0.177146
Si Si3 0.500000 0.721691 0.250000
Si Si4 0.850792 0.723144 0.414862
Si Si5 0.664225 0.555040 0.144402
O O1 0.566068 0.500000 0.500000
O O2 0.686825 0.266372 0.558472
O O3 0.464191 0.218343 0.476287
O O4 0.417179 0.338264 0.590566
O O5 0.500000 0.104746 0.250000
O O6 0.615835 0.068419 0.130304
O O7 0.335734 0.089629 0.139001
O O8 0.451199 0.836796 0.188769
O O9 0.622185 0.606208 0.220079
O O10 0.878477 0.874367 0.368169
#
# Coordination Sequence:
#
# PCOD8160136 Si02
#       5
#     8   8   4   8   8
#     4  10  24  43  69 101 132 174 222 288 339 402
#     4  10  26  40  65 100 135 178 223 276 338 397
#     4  10  26  40  66  98 138 176 222 274 332 394
#     4  11  24  45  71  99 133 177 227 276 345 401
#     4  11  24  43  67  95 136 175 226 274 338 397
#
# _framework density 22.972010000000001
#
# number of rings (size 3 to 8) (size 9 to 14) (size 15 to 20)
#    0.667    0.889    0.000    2.667    7.778    7.111 
#    0.000    0.000    0.000    0.000    0.000    0.000 
#    0.000    0.000    0.000    0.000    0.000    0.000 
#
# Total GULP energy -223055.624384 kJ/mol
# GULP energy per Si atom -12391.979132 kJ/mol
# Density = 2.291972 g / cm^3
# Si number density = 22.972010 Si / 1000 Ang^3
#
#
#
# Elastic Constant Matrix: (Units=GPa)
#
#
# Indices 1 2 3 4 5 6 
#
# 1 148.0368 33.5550 67.9429 0.0000 0.0000 0.0000
# 2 33.5550 68.5165 59.0052 0.0000 0.0000 0.0000
# 3 67.9429 59.0052 113.5136 0.0000 0.0000 0.0000
# 4 0.0000 0.0000 0.0000 45.3676 0.0000 0.0000
# 5 0.0000 0.0000 0.0000 0.0000 54.3213 0.0000
# 6 0.0000 0.0000 0.0000 0.0000 0.0000 23.1679
#
#
#
# Elastic Compliance Matrix: (Units=1/GPa)
#
#
# Indices 1 2 3 4 5 6 
#
# 1 0.009321 0.000434 -0.005804 0.000000 0.000000 0.000000
# 2 0.000434 0.026444 -0.014005 0.000000 0.000000 0.000000
# 3 -0.005804 -0.014005 0.019564 0.000000 0.000000 0.000000
# 4 0.000000 0.000000 0.000000 0.022042 0.000000 0.000000
# 5 0.000000 0.000000 0.000000 0.000000 0.018409 0.000000
# 6 0.000000 0.000000 0.000000 0.000000 0.000000 0.043163
#
#
# Mechanical properties :
#
#
# Convention : Reuss Voigt Hill
#
# Bulk Modulus (GPa) = 60.32618 72.34145 66.33381
# Shear Modulus (GPa) = 27.28966 35.87562 31.58264
#
# Velocity S-wave (km/s) = 3.45041 3.95614 3.71189
# Velocity P-wave (km/s) = 6.49550 7.24068 6.87819
#
# Compressibility (1/GPa) = 0.01657655
#
# Stress axis : x y z
#
# Youngs Moduli (GPa) = 107.28798 37.81627 51.11476
#
# Poissons Ratio (x) = -0.01641 0.29669
# Poissons Ratio (y) = -0.04656 0.71588
# Poissons Ratio (z) = 0.62275 0.52963
#
# Static dielectric constant tensor:
#      x y z
#    x 3.939200 0.000000 0.000000 
#    y 0.000000 3.857770 0.000000 
#    z 0.000000 0.000000 4.314990 
# 
# 
# High freq. dielectric constant tensor:
#      x y z
#    x 1.902330 0.000000 0.000000 
#    y 0.000000 1.888720 0.000000 
#    z 0.000000 0.000000 1.922510 
# 
# From -- ./inp_files/26400.got.cif
#   From: 2010.03.12/outbox.cif.g09.slc.cpg/sg20_14_cif.got.tgz:26400.got - 2010.04.14 01:38:04.
