data_PCOD8160645
_publ_section_title
;
Structure prediction by ZEFSAII (Michael W. Deem and Ramdas Pophale) SiO2 
 PCOD8160645
Probable space group: C 2 2 21
;
_chemical_formula_sum "Si O2"
_cell_formula_units_Z 32
_cell_length_a 9.156141
_cell_length_b 12.459220
_cell_length_c 12.207301
_cell_angle_alpha 90.000000
_cell_angle_beta 90.000000
_cell_angle_gamma 90.000000
_cell_volume 1392.589062
_symmetry_space_group_name_H-M "C 2 2 21"
_symmetry_group_IT_number 20
_symmetry_cell_setting 'orthorhombic'
loop_
_space_group_symop_operation_xyz
x,y,z
-x,-y,1/2+z
x,-y,-z
-x,y,1/2-z
1/2+x,1/2+y,z
1/2-x,1/2-y,1/2+z
1/2+x,1/2-y,-z
1/2-x,1/2+y,1/2-z
loop_
_atom_site_type_symbol
_atom_site_label
_atom_site_fract_x
_atom_site_fract_y
_atom_site_fract_z
Si Si1 0.000000 0.424216 0.750000
Si Si2 0.263148 0.529979 0.873901
Si Si3 0.906490 0.373414 0.977364
Si Si4 0.838668 0.749887 0.596282
Si Si5 0.500000 0.595660 0.250000
O O1 0.132382 0.496991 0.793499
O O2 0.055203 0.351048 0.649931
O O3 0.274739 0.658617 0.862890
O O4 0.416592 0.477507 0.838957
O O5 0.225131 0.500000 0.000000
O O6 0.746222 0.320467 0.996236
O O7 0.903047 0.500000 0.000000
O O8 0.018947 0.310774 0.052924
O O9 0.880243 0.829806 0.693298
#
# Coordination Sequence:
#
# PCOD8160645 Si02
#       5
#     4   8   8   8   4
#     4  12  21  51  74 102 154 196 233 319 378 426
#     4  12  25  52  73 108 156 191 253 316 363 458
#     4  12  27  46  75 109 149 195 253 309 373 456
#     4  12  26  46  76 106 145 200 245 306 384 441
#     4  12  29  47  74 108 148 196 249 313 370 442
#
# _framework density 22.978783
#
# number of rings (size 3 to 8) (size 9 to 14) (size 15 to 20)
#    0.000    0.000    7.500    2.250    0.000    4.000 
#    0.000    0.000    0.000    0.000    0.000    0.000 
#    0.000    0.000    0.000    0.000    0.000    0.000 
#
# Total GULP energy -198377.238341 kJ/mol
# GULP energy per Si atom -12398.577396 kJ/mol
# Density = 2.292648 g / cm^3
# Si number density = 22.978783 Si / 1000 Ang^3
#
#
#
# Elastic Constant Matrix: (Units=GPa)
#
#
# Indices 1 2 3 4 5 6 
#
# 1 84.0870 73.2651 12.6223 0.0000 0.0000 0.0000
# 2 73.2651 136.1061 31.3509 0.0000 0.0000 0.0000
# 3 12.6223 31.3509 83.4441 0.0000 0.0000 0.0000
# 4 0.0000 0.0000 0.0000 19.7716 0.0000 0.0000
# 5 0.0000 0.0000 0.0000 0.0000 40.4350 0.0000
# 6 0.0000 0.0000 0.0000 0.0000 0.0000 27.3188
#
#
#
# Elastic Compliance Matrix: (Units=1/GPa)
#
#
# Indices 1 2 3 4 5 6 
#
# 1 0.022517 -0.012410 0.001257 0.000000 0.000000 0.000000
# 2 -0.012410 0.014883 -0.003715 0.000000 0.000000 0.000000
# 3 0.001257 -0.003715 0.013190 0.000000 0.000000 0.000000
# 4 0.000000 0.000000 0.000000 0.050578 0.000000 0.000000
# 5 0.000000 0.000000 0.000000 0.000000 0.024731 0.000000
# 6 0.000000 0.000000 0.000000 0.000000 0.000000 0.036605
#
#
# Mechanical properties :
#
#
# Convention : Reuss Voigt Hill
#
# Bulk Modulus (GPa) = 47.95390 59.79043 53.87216
# Shear Modulus (GPa) = 25.10170 29.93170 27.51670
#
# Velocity S-wave (km/s) = 3.30871 3.61304 3.46422
# Velocity P-wave (km/s) = 5.95910 6.59407 6.28461
#
# Compressibility (1/GPa) = 0.02085336
#
# Stress axis : x y z
#
# Youngs Moduli (GPa) = 44.41151 67.19054 75.81747
#
# Poissons Ratio (x) = 0.83384 -0.09527
# Poissons Ratio (y) = 0.55115 0.28162
# Poissons Ratio (z) = -0.05581 0.24958
#
# Static dielectric constant tensor:
#      x y z
#    x 4.330400 0.000000 0.000000 
#    y 0.000000 4.400990 0.000000 
#    z 0.000000 0.000000 4.221960 
# 
# 
# High freq. dielectric constant tensor:
#      x y z
#    x 1.919380 0.000000 0.000000 
#    y 0.000000 1.919770 0.000000 
#    z 0.000000 0.000000 1.898220 
# 
# From -- ./inp_files/12585.got.cif
#   From: 2010.03.12/outbox.cif.g09.slc.cpg/sg20_7_cif.got.tgz:12585.got - 2010.04.14 01:38:04.
