data_PCOD8160842
_publ_section_title
;
Structure prediction by ZEFSAII (Michael W. Deem and Ramdas Pophale) SiO2 
 PCOD8160842
Probable space group: C 2 2 2
;
_chemical_formula_sum "Si O2"
_cell_formula_units_Z 56
_cell_length_a 38.630629
_cell_length_b 5.031112
_cell_length_c 15.521180
_cell_angle_alpha 90.000000
_cell_angle_beta 90.000000
_cell_angle_gamma 90.000000
_cell_volume 3016.619267
_symmetry_space_group_name_H-M "C 2 2 2"
_symmetry_group_IT_number 21
_symmetry_cell_setting 'orthorhombic'
loop_
_space_group_symop_operation_xyz
x,y,z
-x,-y,z
x,-y,-z
-x,y,-z
1/2+x,1/2+y,z
1/2-x,1/2-y,z
1/2+x,1/2-y,-z
1/2-x,1/2+y,-z
loop_
_atom_site_type_symbol
_atom_site_label
_atom_site_fract_x
_atom_site_fract_y
_atom_site_fract_z
Si Si1 0.842258 0.424893 0.295681
Si Si2 0.021935 0.765671 0.830433
Si Si3 0.411415 0.743640 0.942962
Si Si4 0.933123 0.074099 0.685556
Si Si5 0.273705 0.997692 0.401939
Si Si6 0.368528 0.444890 0.206167
Si Si7 0.907837 0.405616 0.402884
O O1 0.804769 0.465326 0.335564
O O2 0.851696 0.705575 0.256832
O O3 0.868748 0.340688 0.372027
O O4 0.843267 0.200835 0.219333
O O5 0.056758 0.681432 0.880546
O O6 0.030944 0.893948 0.736715
O O7 0.000000 0.500000 0.819296
O O8 0.000000 0.000000 0.878265
O O9 0.376768 0.646472 0.891771
O O10 0.424423 0.500000 0.000000
O O11 0.401540 0.000000 0.000000
O O12 0.905088 0.966159 0.753833
O O13 0.923917 0.364600 0.653825
O O14 0.932672 0.854747 0.608672
O O15 0.250000 0.750000 0.386179
O O16 0.287994 0.000000 0.500000
O O17 0.250000 0.250000 0.380821
O O18 0.906938 0.500000 0.500000
#
# Coordination Sequence:
#
# PCOD8160842 Si02
#       7
#     8   8   8   8   8   8   8
#     4  10  18  32  51  73 103 138 179 210 244 305
#     4  11  22  36  54  73  98 137 174 199 243 321
#     4  11  22  36  54  79 110 132 157 209 269 318
#     4   9  19  33  48  70  97 125 163 212 258 299
#     4  10  20  32  47  73 112 151 181 214 255 294
#     4   9  19  33  51  73  99 134 169 208 254 304
#     4  10  18  30  51  74  95 124 167 220 266 298
#
# _framework density 18.563828000000001
#
# number of rings (size 3 to 8) (size 9 to 14) (size 15 to 20)
#    0.000    2.000    0.000    4.286    0.000    6.286 
#    0.000    4.286    0.000    6.429    0.000    0.000 
#    0.000   32.000    0.000    0.000    0.000    0.000 
#
# Total GULP energy -347042.796483 kJ/mol
# GULP energy per Si atom -12394.385589 kJ/mol
# Density = 1.852158 g / cm^3
# Si number density = 18.563828 Si / 1000 Ang^3
#
#
#
# Elastic Constant Matrix: (Units=GPa)
#
#
# Indices 1 2 3 4 5 6 
#
# 1 84.8106 45.1804 46.9011 0.0000 0.0000 0.0000
# 2 45.1804 132.4920 30.0573 0.0000 0.0000 0.0000
# 3 46.9011 30.0573 78.5746 0.0000 0.0000 0.0000
# 4 0.0000 0.0000 0.0000 36.4023 0.0000 0.0000
# 5 0.0000 0.0000 0.0000 0.0000 16.9454 0.0000
# 6 0.0000 0.0000 0.0000 0.0000 0.0000 36.5963
#
#
#
# Elastic Compliance Matrix: (Units=1/GPa)
#
#
# Indices 1 2 3 4 5 6 
#
# 1 0.019730 -0.004442 -0.010078 0.000000 0.000000 0.000000
# 2 -0.004442 0.009265 -0.000893 0.000000 0.000000 0.000000
# 3 -0.010078 -0.000893 0.019084 0.000000 0.000000 0.000000
# 4 0.000000 0.000000 0.000000 0.027471 0.000000 0.000000
# 5 0.000000 0.000000 0.000000 0.000000 0.059013 0.000000
# 6 0.000000 0.000000 0.000000 0.000000 0.000000 0.027325
#
#
# Mechanical properties :
#
#
# Convention : Reuss Voigt Hill
#
# Bulk Modulus (GPa) = 57.95773 60.01723 58.98748
# Shear Modulus (GPa) = 25.19343 29.57136 27.38240
#
# Velocity S-wave (km/s) = 3.68791 3.99552 3.84479
# Velocity P-wave (km/s) = 7.03014 7.32707 7.18014
#
# Compressibility (1/GPa) = 0.01725395
#
# Stress axis : x y z
#
# Youngs Moduli (GPa) = 50.68305 107.93468 52.40056
#
# Poissons Ratio (x) = 0.47943 0.52809
# Poissons Ratio (y) = 0.22513 0.04678
# Poissons Ratio (z) = 0.51078 0.09636
#
# Static dielectric constant tensor:
#      x y z
#    x 3.224080 0.000000 0.000000 
#    y 0.000000 3.682320 0.000000 
#    z 0.000000 0.000000 3.365780 
# 
# 
# High freq. dielectric constant tensor:
#      x y z
#    x 1.689910 0.000000 0.000000 
#    y 0.000000 1.747110 0.000000 
#    z 0.000000 0.000000 1.702410 
# 
# From -- ./inp_files/34031.got.cif
#   From: 2010.03.12/outbox.cif.g09.slc.cpg/sg21_18_cif.got.tgz:34031.got - 2010.04.14 01:59:26.
