data_PCOD8160797
_publ_section_title
;
Structure prediction by ZEFSAII (Michael W. Deem and Ramdas Pophale) SiO2 
 PCOD8160797
Probable space group: C 2 2 2
;
_chemical_formula_sum "Si O2"
_cell_formula_units_Z 64
_cell_length_a 15.807710
_cell_length_b 23.935507
_cell_length_c 9.857828
_cell_angle_alpha 90.000000
_cell_angle_beta 90.000000
_cell_angle_gamma 90.000000
_cell_volume 3729.862546
_symmetry_space_group_name_H-M "C 2 2 2"
_symmetry_group_IT_number 21
_symmetry_cell_setting 'orthorhombic'
loop_
_space_group_symop_operation_xyz
x,y,z
-x,-y,z
x,-y,-z
-x,y,-z
1/2+x,1/2+y,z
1/2-x,1/2-y,z
1/2+x,1/2-y,-z
1/2-x,1/2+y,-z
loop_
_atom_site_type_symbol
_atom_site_label
_atom_site_fract_x
_atom_site_fract_y
_atom_site_fract_z
Si Si1 0.086414 0.938243 0.058111
Si Si2 0.725698 0.185780 0.735333
Si Si3 0.777435 0.848863 0.986638
Si Si4 0.384014 0.663664 0.564138
Si Si5 0.551845 0.624735 0.700237
Si Si6 0.404946 0.795134 0.522744
Si Si7 0.078878 0.222580 0.910197
Si Si8 0.816234 0.700753 0.747910
O O1 0.073730 0.934036 0.223113
O O2 0.169650 0.905841 0.008407
O O3 0.000000 0.910710 0.000000
O O4 0.096210 0.000000 0.000000
O O5 0.750000 0.250000 0.751370
O O6 0.717381 0.155261 0.881116
O O7 0.797688 0.155456 0.645319
O O8 0.635210 0.179722 0.660465
O O9 0.839717 0.794814 0.000710
O O10 0.724808 0.846804 0.844774
O O11 0.457246 0.630320 0.643865
O O12 0.377879 0.634440 0.416387
O O13 0.406846 0.728060 0.535142
O O14 0.560783 0.670119 0.816983
O O15 0.500000 0.817303 0.500000
O O16 0.345795 0.818810 0.400721
O O17 0.099459 0.276722 0.821321
O O18 0.000000 0.239816 0.000000
O O19 0.750000 0.750000 0.724165
#
# Coordination Sequence:
#
# PCOD8160797 Si02
#       8
#     8   8   8   8   8   8   8   8
#     4  10  21  36  55  74 100 135 179 232 276 307
#     4  10  20  29  46  70 104 141 174 211 251 300
#     4  10  20  32  48  71  98 136 179 214 258 321
#     4  10  17  29  48  72 104 141 181 208 244 320
#     4  10  17  28  49  75 101 141 181 205 259 319
#     4  11  20  31  44  70 108 143 173 213 248 305
#     4  10  17  26  45  68 103 136 172 203 241 298
#     4  10  19  30  45  68 100 137 179 208 247 312
#
# _framework density 17.158808000000001
#
# number of rings (size 3 to 8) (size 9 to 14) (size 15 to 20)
#    0.000    1.875    2.500    5.250    3.500    3.000 
#    0.000    0.000    0.000   12.750    0.000    0.000 
#    0.000    5.500    0.000    0.000    0.000    0.000 
#
# Total GULP energy -396551.396664 kJ/mol
# GULP energy per Si atom -12392.231146 kJ/mol
# Density = 1.711975 g / cm^3
# Si number density = 17.158808 Si / 1000 Ang^3
#
#
#
# Elastic Constant Matrix: (Units=GPa)
#
#
# Indices 1 2 3 4 5 6 
#
# 1 73.6245 15.3587 47.0455 0.0000 0.0000 0.0000
# 2 15.3587 45.9246 32.2328 0.0000 0.0000 0.0000
# 3 47.0455 32.2328 125.4646 0.0000 0.0000 0.0000
# 4 0.0000 0.0000 0.0000 18.1813 0.0000 0.0000
# 5 0.0000 0.0000 0.0000 0.0000 21.9187 0.0000
# 6 0.0000 0.0000 0.0000 0.0000 0.0000 15.9376
#
#
#
# Elastic Compliance Matrix: (Units=1/GPa)
#
#
# Indices 1 2 3 4 5 6 
#
# 1 0.017954 -0.001561 -0.006331 0.000000 0.000000 0.000000
# 2 -0.001561 0.026700 -0.006274 0.000000 0.000000 0.000000
# 3 -0.006331 -0.006274 0.011956 0.000000 0.000000 0.000000
# 4 0.000000 0.000000 0.000000 0.055001 0.000000 0.000000
# 5 0.000000 0.000000 0.000000 0.000000 0.045623 0.000000
# 6 0.000000 0.000000 0.000000 0.000000 0.000000 0.062745
#
#
# Mechanical properties :
#
#
# Convention : Reuss Voigt Hill
#
# Bulk Modulus (GPa) = 35.36314 48.25419 41.80866
# Shear Modulus (GPa) = 19.39956 21.23264 20.31610
#
# Velocity S-wave (km/s) = 3.36607 3.52151 3.44467
# Velocity P-wave (km/s) = 5.98008 6.68714 6.34347
#
# Compressibility (1/GPa) = 0.02827803
#
# Stress axis : x y z
#
# Youngs Moduli (GPa) = 55.69939 37.45250 83.63816
#
# Poissons Ratio (x) = 0.05845 0.52952
# Poissons Ratio (y) = 0.08693 0.52477
# Poissons Ratio (z) = 0.35264 0.23499
#
# Static dielectric constant tensor:
#      x y z
#    x 3.372010 0.000000 0.000000 
#    y 0.000000 2.667810 0.000000 
#    z 0.000000 0.000000 3.776170 
# 
# 
# High freq. dielectric constant tensor:
#      x y z
#    x 1.659010 0.000000 0.000000 
#    y 0.000000 1.579510 0.000000 
#    z 0.000000 0.000000 1.687390 
# 
# From -- ./inp_files/16944.got.cif
#   From: 2010.03.12/outbox.cif.g09.slc.cpg/sg21_9_cif.got.tgz:16944.got - 2010.04.14 01:59:26.
