data_PCOD8160253
_publ_section_title
;
Structure prediction by ZEFSAII (Michael W. Deem and Ramdas Pophale) SiO2 
 PCOD8160253
Probable space group: C 2 2 21
;
_chemical_formula_sum "Si O2"
_cell_formula_units_Z 40
_cell_length_a 11.288645
_cell_length_b 15.269548
_cell_length_c 10.680987
_cell_angle_alpha 90.000000
_cell_angle_beta 90.000000
_cell_angle_gamma 90.000000
_cell_volume 1841.108503
_symmetry_space_group_name_H-M "C 2 2 21"
_symmetry_group_IT_number 20
_symmetry_cell_setting 'orthorhombic'
loop_
_space_group_symop_operation_xyz
x,y,z
-x,-y,1/2+z
x,-y,-z
-x,y,1/2-z
1/2+x,1/2+y,z
1/2-x,1/2-y,1/2+z
1/2+x,1/2-y,-z
1/2-x,1/2+y,1/2-z
loop_
_atom_site_type_symbol
_atom_site_label
_atom_site_fract_x
_atom_site_fract_y
_atom_site_fract_z
Si Si1 0.419855 0.270958 0.861862
Si Si2 0.013815 0.350397 0.947827
Si Si3 0.733915 0.401302 0.490623
Si Si4 0.760562 0.129603 0.705157
Si Si5 0.500000 0.710780 0.750000
Si Si6 0.344023 0.000000 0.000000
O O1 0.500000 0.313099 0.750000
O O2 0.300169 0.222535 0.821538
O O3 0.503514 0.193913 0.915951
O O4 0.378617 0.344973 0.961277
O O5 0.959463 0.276178 0.858766
O O6 0.149802 0.379204 0.925455
O O7 0.928845 0.433179 0.926806
O O8 0.691304 0.500000 0.500000
O O9 0.772327 0.392454 0.346851
O O10 0.732196 0.052153 0.604950
O O11 0.899939 0.146812 0.696782
#
# Coordination Sequence:
#
# PCOD8160253 Si02
#       6
#     8   8   8   8   4   4
#     4  11  23  45  73 101 142 187 240 297 366 428
#     4  11  23  41  73 102 137 185 241 296 353 425
#     4  12  25  45  68 107 140 184 241 302 361 429
#     4  11  25  46  71 103 142 189 241 295 363 436
#     4  12  24  44  70 100 142 192 240 284 356 446
#     4  10  26  44  70 108 142 182 240 306 356 410
#
# _framework density 21.726042
#
# number of rings (size 3 to 8) (size 9 to 14) (size 15 to 20)
#    0.000    0.800    7.000    0.000    2.800    0.000 
#    7.200    0.000    0.000    0.000    0.000    0.000 
#    0.000    0.000    0.000    0.000    0.000    0.000 
#
# Total GULP energy -247850.159849 kJ/mol
# GULP energy per Si atom -12392.507992 kJ/mol
# Density = 2.167659 g / cm^3
# Si number density = 21.726042 Si / 1000 Ang^3
#
#
#
# Elastic Constant Matrix: (Units=GPa)
#
#
# Indices 1 2 3 4 5 6 
#
# 1 121.9798 63.9422 32.4613 0.0000 0.0000 0.0000
# 2 63.9422 141.1795 46.0153 0.0000 0.0000 0.0000
# 3 32.4613 46.0153 98.4249 0.0000 0.0000 0.0000
# 4 0.0000 0.0000 0.0000 36.1605 0.0000 0.0000
# 5 0.0000 0.0000 0.0000 0.0000 35.4725 0.0000
# 6 0.0000 0.0000 0.0000 0.0000 0.0000 25.2336
#
#
#
# Elastic Compliance Matrix: (Units=1/GPa)
#
#
# Indices 1 2 3 4 5 6 
#
# 1 0.010941 -0.004459 -0.001524 0.000000 0.000000 0.000000
# 2 -0.004459 0.010173 -0.003286 0.000000 0.000000 0.000000
# 3 -0.001524 -0.003286 0.012199 0.000000 0.000000 0.000000
# 4 0.000000 0.000000 0.000000 0.027654 0.000000 0.000000
# 5 0.000000 0.000000 0.000000 0.000000 0.028191 0.000000
# 6 0.000000 0.000000 0.000000 0.000000 0.000000 0.039630
#
#
# Mechanical properties :
#
#
# Convention : Reuss Voigt Hill
#
# Bulk Modulus (GPa) = 67.67483 71.82464 69.74974
# Shear Modulus (GPa) = 32.84070 33.98437 33.41254
#
# Velocity S-wave (km/s) = 3.89213 3.95932 3.92586
# Velocity P-wave (km/s) = 7.17042 7.35069 7.26111
#
# Compressibility (1/GPa) = 0.01477654
#
# Stress axis : x y z
#
# Youngs Moduli (GPa) = 91.40094 98.29481 81.97528
#
# Poissons Ratio (x) = 0.43825 0.12492
# Poissons Ratio (y) = 0.40752 0.26935
# Poissons Ratio (z) = 0.13929 0.32298
#
# Static dielectric constant tensor:
#      x y z
#    x 3.726150 0.000000 0.000000 
#    y 0.000000 3.907080 0.000000 
#    z 0.000000 0.000000 4.011280 
# 
# 
# High freq. dielectric constant tensor:
#      x y z
#    x 1.850760 0.000000 0.000000 
#    y 0.000000 1.855230 0.000000 
#    z 0.000000 0.000000 1.856690 
# 
# From -- ./inp_files/13922.got.cif
#   From: 2010.03.12/outbox.cif.g09.slc.cpg/sg20_7_cif.got.tgz:13922.got - 2010.04.14 01:38:04.
