data_PCOD8160951
_publ_section_title
;
Structure prediction by ZEFSAII (Michael W. Deem and Ramdas Pophale) SiO2 
 PCOD8160951
Probable space group: C 2 2 2
;
_chemical_formula_sum "Si O2"
_cell_formula_units_Z 64
_cell_length_a 16.944699
_cell_length_b 21.834736
_cell_length_c 8.424289
_cell_angle_alpha 90.000000
_cell_angle_beta 90.000000
_cell_angle_gamma 90.000000
_cell_volume 3116.843964
_symmetry_space_group_name_H-M "C 2 2 2"
_symmetry_group_IT_number 21
_symmetry_cell_setting 'orthorhombic'
loop_
_space_group_symop_operation_xyz
x,y,z
-x,-y,z
x,-y,-z
-x,y,-z
1/2+x,1/2+y,z
1/2-x,1/2-y,z
1/2+x,1/2-y,-z
1/2-x,1/2+y,-z
loop_
_atom_site_type_symbol
_atom_site_label
_atom_site_fract_x
_atom_site_fract_y
_atom_site_fract_z
Si Si1 0.180750 0.197959 0.170152
Si Si2 0.679161 0.441436 0.290052
Si Si3 0.988002 0.643887 0.816153
Si Si4 0.625705 0.944909 0.209807
Si Si5 0.073782 0.854228 0.100195
Si Si6 0.978768 0.767810 0.324439
Si Si7 0.280585 0.575270 0.646291
Si Si8 0.340211 0.921549 0.134305
O O1 0.250000 0.250000 0.150649
O O2 0.112857 0.222790 0.285224
O O3 0.209383 0.136223 0.253330
O O4 0.143221 0.178425 0.001157
O O5 0.603867 0.411689 0.204371
O O6 0.682706 0.419346 0.471978
O O7 0.677900 0.515476 0.271895
O O8 0.754523 0.413301 0.204334
O O9 0.041052 0.585752 0.764574
O O10 0.008410 0.696081 0.693091
O O11 0.895660 0.630642 0.792910
O O12 0.000000 0.662931 0.000000
O O13 0.685789 0.936286 0.358670
O O14 0.614218 0.016314 0.179113
O O15 0.667694 0.914637 0.055487
O O16 0.039181 0.801653 0.210198
O O17 0.000000 0.880761 0.000000
O O18 0.000000 0.789929 0.500000
#
# Coordination Sequence:
#
# PCOD8160951 Si02
#       8
#     8   8   8   8   8   8   8   8
#     4  11  23  41  64  89 117 155 200 245 291 346
#     4  10  21  39  60  88 120 150 192 244 296 353
#     4  10  19  33  53  79 115 157 198 240 286 337
#     4   9  17  32  52  81 116 153 195 240 285 336
#     4  10  23  43  65  87 114 150 195 245 298 353
#     4  11  24  41  58  82 118 154 191 239 294 355
#     4  10  21  37  61  89 120 154 190 240 297 350
#     4   9  18  31  54  82 113 153 198 240 282 335
#
# _framework density 20.533591000000001
#
# number of rings (size 3 to 8) (size 9 to 14) (size 15 to 20)
#    0.000    2.000    0.000    3.750    0.000    8.000 
#    0.000    5.625    0.000   10.500    0.000    0.000 
#    0.000    0.000    0.000    0.000    0.000    0.000 
#
# Total GULP energy -396621.002616 kJ/mol
# GULP energy per Si atom -12394.406332 kJ/mol
# Density = 2.048686 g / cm^3
# Si number density = 20.533591 Si / 1000 Ang^3
#
#
#
# Elastic Constant Matrix: (Units=GPa)
#
#
# Indices 1 2 3 4 5 6 
#
# 1 104.7242 46.2264 45.7932 0.0000 0.0000 0.0000
# 2 46.2264 86.7468 29.2513 0.0000 0.0000 0.0000
# 3 45.7932 29.2513 86.9323 0.0000 0.0000 0.0000
# 4 0.0000 0.0000 0.0000 23.0827 0.0000 0.0000
# 5 0.0000 0.0000 0.0000 0.0000 17.1305 0.0000
# 6 0.0000 0.0000 0.0000 0.0000 0.0000 33.0687
#
#
#
# Elastic Compliance Matrix: (Units=1/GPa)
#
#
# Indices 1 2 3 4 5 6 
#
# 1 0.014652 -0.005871 -0.005742 0.000000 0.000000 0.000000
# 2 -0.005871 0.015356 -0.002074 0.000000 0.000000 0.000000
# 3 -0.005742 -0.002074 0.015226 0.000000 0.000000 0.000000
# 4 0.000000 0.000000 0.000000 0.043323 0.000000 0.000000
# 5 0.000000 0.000000 0.000000 0.000000 0.058375 0.000000
# 6 0.000000 0.000000 0.000000 0.000000 0.000000 0.030240
#
#
# Mechanical properties :
#
#
# Convention : Reuss Voigt Hill
#
# Bulk Modulus (GPa) = 55.99798 57.88278 56.94038
# Shear Modulus (GPa) = 23.75299 25.13188 24.44244
#
# Velocity S-wave (km/s) = 3.40485 3.50228 3.45391
# Velocity P-wave (km/s) = 6.54125 6.67871 6.61033
#
# Compressibility (1/GPa) = 0.01785779
#
# Stress axis : x y z
#
# Youngs Moduli (GPa) = 68.25223 65.12118 65.67690
#
# Poissons Ratio (x) = 0.38235 0.37714
# Poissons Ratio (y) = 0.40073 0.13623
# Poissons Ratio (z) = 0.39193 0.13508
#
# Static dielectric constant tensor:
#      x y z
#    x 3.777080 0.000000 0.000000 
#    y 0.000000 3.676290 0.000000 
#    z 0.000000 0.000000 3.740600 
# 
# 
# High freq. dielectric constant tensor:
#      x y z
#    x 1.803620 0.000000 0.000000 
#    y 0.000000 1.802200 0.000000 
#    z 0.000000 0.000000 1.795090 
# 
# From -- ./inp_files/16875.got.cif
#   From: 2010.03.12/outbox.cif.g09.slc.cpg/sg21_9_cif.got.tgz:16875.got - 2010.04.14 01:59:26.
