data_PCOD8160017
_publ_section_title
;
Structure prediction by ZEFSAII (Michael W. Deem and Ramdas Pophale) SiO2 
 PCOD8160017
Probable space group: C 2 2 21
;
_chemical_formula_sum "Si O2"
_cell_formula_units_Z 48
_cell_length_a 8.794582
_cell_length_b 11.057966
_cell_length_c 20.898861
_cell_angle_alpha 90.000000
_cell_angle_beta 90.000000
_cell_angle_gamma 90.000000
_cell_volume 2032.418177
_symmetry_space_group_name_H-M "C 2 2 21"
_symmetry_group_IT_number 20
_symmetry_cell_setting 'orthorhombic'
loop_
_space_group_symop_operation_xyz
x,y,z
-x,-y,1/2+z
x,-y,-z
-x,y,1/2-z
1/2+x,1/2+y,z
1/2-x,1/2-y,1/2+z
1/2+x,1/2-y,-z
1/2-x,1/2+y,1/2-z
loop_
_atom_site_type_symbol
_atom_site_label
_atom_site_fract_x
_atom_site_fract_y
_atom_site_fract_z
Si Si1 0.856209 0.432993 0.562348
Si Si2 0.192351 0.774786 0.703039
Si Si3 0.454645 0.030766 0.822279
Si Si4 0.232862 0.819984 0.845865
Si Si5 0.033312 0.793163 0.121775
Si Si6 0.958854 0.061855 0.110361
O O1 0.923013 0.500000 0.500000
O O2 0.911811 0.292637 0.563010
O O3 0.671302 0.432610 0.556333
O O4 0.912278 0.502869 0.626393
O O5 0.093508 0.669532 0.669813
O O6 0.167179 0.770486 0.778702
O O7 0.369885 0.752003 0.683768
O O8 0.131738 0.903815 0.676281
O O9 0.500000 0.998113 0.750000
O O10 0.309425 0.949541 0.837040
O O11 0.352445 0.722396 0.870291
O O12 0.094328 0.838690 0.896335
O O13 0.048893 0.934936 0.109782
#
# Coordination Sequence:
#
# PCOD8160017 Si02
#       6
#     8   8   8   8   8   8
#     4  10  25  50  69  96 139 185 238 300 355 425
#     4  11  23  37  63 103 146 180 232 279 353 425
#     4  11  22  41  68 102 142 185 227 291 360 419
#     4  11  22  37  63 100 140 183 223 283 345 419
#     4  10  23  44  64  98 138 181 228 289 347 418
#     4  11  23  41  65  96 130 181 231 284 341 417
#
# _framework density 23.617187999999999
#
# number of rings (size 3 to 8) (size 9 to 14) (size 15 to 20)
#    0.000    1.333    1.667    5.000    7.000    1.333 
#    6.000    3.333    0.000    0.000    0.000    0.000 
#    0.000    0.000    0.000    0.000    0.000    0.000 
#
# Total GULP energy -297383.997386 kJ/mol
# GULP energy per Si atom -12390.999891 kJ/mol
# Density = 2.356343 g / cm^3
# Si number density = 23.617188 Si / 1000 Ang^3
#
#
#
# Elastic Constant Matrix: (Units=GPa)
#
#
# Indices 1 2 3 4 5 6 
#
# 1 114.5644 17.5229 9.9323 0.0000 0.0000 0.0000
# 2 17.5229 73.7916 -12.6900 0.0000 0.0000 0.0000
# 3 9.9323 -12.6900 53.0992 0.0000 0.0000 0.0000
# 4 0.0000 0.0000 0.0000 11.2835 0.0000 0.0000
# 5 0.0000 0.0000 0.0000 0.0000 20.0831 0.0000
# 6 0.0000 0.0000 0.0000 0.0000 0.0000 39.0896
#
#
#
# Elastic Compliance Matrix: (Units=1/GPa)
#
#
# Indices 1 2 3 4 5 6 
#
# 1 0.009336 -0.002625 -0.002374 0.000000 0.000000 0.000000
# 2 -0.002625 0.014871 0.004045 0.000000 0.000000 0.000000
# 3 -0.002374 0.004045 0.020243 0.000000 0.000000 0.000000
# 4 0.000000 0.000000 0.000000 0.088625 0.000000 0.000000
# 5 0.000000 0.000000 0.000000 0.000000 0.049793 0.000000
# 6 0.000000 0.000000 0.000000 0.000000 0.000000 0.025582
#
#
# Mechanical properties :
#
#
# Convention : Reuss Voigt Hill
#
# Bulk Modulus (GPa) = 23.50611 30.10954 26.80783
# Shear Modulus (GPa) = 22.26784 29.20390 25.73587
#
# Velocity S-wave (km/s) = 3.07394 3.52028 3.30466
# Velocity P-wave (km/s) = 4.75115 5.41293 5.09280
#
# Compressibility (1/GPa) = 0.04254212
#
# Stress axis : x y z
#
# Youngs Moduli (GPa) = 107.11185 67.24639 49.39894
#
# Poissons Ratio (x) = 0.17653 0.11726
# Poissons Ratio (y) = 0.28119 -0.19982
# Poissons Ratio (z) = 0.25425 -0.27201
#
# Static dielectric constant tensor:
#      x y z
#    x 4.542020 0.000000 0.000000 
#    y 0.000000 4.263060 0.000000 
#    z 0.000000 0.000000 3.725360 
# 
# 
# High freq. dielectric constant tensor:
#      x y z
#    x 1.960560 0.000000 0.000000 
#    y 0.000000 1.946520 0.000000 
#    z 0.000000 0.000000 1.876600 
# 
# From -- ./inp_files/28713.got.cif
#   From: 2010.03.12/outbox.cif.g09.slc.cpg/sg20_15_cif.got.tgz:28713.got - 2010.04.14 01:38:04.
