data_PCOD8160457
_publ_section_title
;
Structure prediction by ZEFSAII (Michael W. Deem and Ramdas Pophale) SiO2 
 PCOD8160457
Probable space group: C 2 2 21
;
_chemical_formula_sum "Si O2"
_cell_formula_units_Z 40
_cell_length_a 10.990866
_cell_length_b 19.295858
_cell_length_c 8.627154
_cell_angle_alpha 90.000000
_cell_angle_beta 90.000000
_cell_angle_gamma 90.000000
_cell_volume 1829.631202
_symmetry_space_group_name_H-M "C 2 2 21"
_symmetry_group_IT_number 20
_symmetry_cell_setting 'orthorhombic'
loop_
_space_group_symop_operation_xyz
x,y,z
-x,-y,1/2+z
x,-y,-z
-x,y,1/2-z
1/2+x,1/2+y,z
1/2-x,1/2-y,1/2+z
1/2+x,1/2-y,-z
1/2-x,1/2+y,1/2-z
loop_
_atom_site_type_symbol
_atom_site_label
_atom_site_fract_x
_atom_site_fract_y
_atom_site_fract_z
Si Si1 0.229437 0.597068 0.103461
Si Si2 0.130108 0.703387 0.327049
Si Si3 0.866581 0.140134 0.822535
Si Si4 0.226360 0.473114 0.341538
Si Si5 0.018685 0.615944 0.584510
O O1 0.225873 0.660224 0.224946
O O2 0.239587 0.525576 0.197742
O O3 0.348355 0.605037 0.993032
O O4 0.108190 0.598578 0.998605
O O5 0.180558 0.781102 0.344207
O O6 0.110609 0.664805 0.489427
O O7 0.000000 0.706941 0.250000
O O8 0.783842 0.100601 0.699850
O O9 0.000000 0.135341 0.750000
O O10 0.290092 0.500000 0.500000
O O11 0.085011 0.457679 0.380367
O O12 0.000000 0.653986 0.750000
#
# Coordination Sequence:
#
# PCOD8160457 Si02
#       5
#     8   8   8   8   8
#     4  11  24  40  70 100 136 180 223 285 346 398
#     4   9  22  43  66 101 135 176 220 284 339 404
#     4  11  26  46  65  93 141 185 234 269 327 407
#     4  12  26  40  68 101 137 178 224 281 349 400
#     4  11  23  39  69 107 139 165 224 286 357 405
#
# _framework density 21.862328000000002
#
# number of rings (size 3 to 8) (size 9 to 14) (size 15 to 20)
#    0.000    1.200    4.000    0.600    5.600    1.600 
#    0.000    4.000    0.000    1.200    0.000    0.000 
#    0.000    0.000    0.000    0.000    0.000    0.000 
#
# Total GULP energy -247864.160004 kJ/mol
# GULP energy per Si atom -12393.208000 kJ/mol
# Density = 2.181257 g / cm^3
# Si number density = 21.862328 Si / 1000 Ang^3
#
#
#
# Elastic Constant Matrix: (Units=GPa)
#
#
# Indices 1 2 3 4 5 6 
#
# 1 72.1763 45.0567 51.5112 0.0000 0.0000 0.0000
# 2 45.0567 130.8186 65.2676 0.0000 0.0000 0.0000
# 3 51.5112 65.2676 181.9208 0.0000 0.0000 0.0000
# 4 0.0000 0.0000 0.0000 34.3908 0.0000 0.0000
# 5 0.0000 0.0000 0.0000 0.0000 39.9638 0.0000
# 6 0.0000 0.0000 0.0000 0.0000 0.0000 30.3842
#
#
#
# Elastic Compliance Matrix: (Units=1/GPa)
#
#
# Indices 1 2 3 4 5 6 
#
# 1 0.019602 -0.004850 -0.003810 0.000000 0.000000 0.000000
# 2 -0.004850 0.010511 -0.002398 0.000000 0.000000 0.000000
# 3 -0.003810 -0.002398 0.007436 0.000000 0.000000 0.000000
# 4 0.000000 0.000000 0.000000 0.029078 0.000000 0.000000
# 5 0.000000 0.000000 0.000000 0.000000 0.025023 0.000000
# 6 0.000000 0.000000 0.000000 0.000000 0.000000 0.032912
#
#
# Mechanical properties :
#
#
# Convention : Reuss Voigt Hill
#
# Bulk Modulus (GPa) = 64.79783 78.73185 71.76484
# Shear Modulus (GPa) = 32.93335 35.81977 34.37656
#
# Velocity S-wave (km/s) = 3.88544 4.05214 3.96967
# Velocity P-wave (km/s) = 7.05920 7.61471 7.34221
#
# Compressibility (1/GPa) = 0.01543262
#
# Stress axis : x y z
#
# Youngs Moduli (GPa) = 51.01476 95.13872 134.48170
#
# Poissons Ratio (x) = 0.46146 0.51240
# Poissons Ratio (y) = 0.24744 0.32243
# Poissons Ratio (z) = 0.19438 0.22811
#
# Static dielectric constant tensor:
#      x y z
#    x 3.690130 0.000000 0.000000 
#    y 0.000000 4.217030 0.000000 
#    z 0.000000 0.000000 4.450190 
# 
# 
# High freq. dielectric constant tensor:
#      x y z
#    x 1.824390 0.000000 0.000000 
#    y 0.000000 1.864830 0.000000 
#    z 0.000000 0.000000 1.885390 
# 
# From -- ./inp_files/7231.got.cif
#   From: 2010.03.12/outbox.cif.g09.slc.cpg/sg20_4_cif.got.tgz:7231.got - 2010.04.14 01:38:04.
