data_PCOD8160390
_publ_section_title
;
Structure prediction by ZEFSAII (Michael W. Deem and Ramdas Pophale) SiO2 
 PCOD8160390
Probable space group: C 2 2 21
;
_chemical_formula_sum "Si O2"
_cell_formula_units_Z 48
_cell_length_a 10.569362
_cell_length_b 8.055716
_cell_length_c 24.607903
_cell_angle_alpha 90.000000
_cell_angle_beta 90.000000
_cell_angle_gamma 90.000000
_cell_volume 2095.209844
_symmetry_space_group_name_H-M "C 2 2 21"
_symmetry_group_IT_number 20
_symmetry_cell_setting 'orthorhombic'
loop_
_space_group_symop_operation_xyz
x,y,z
-x,-y,1/2+z
x,-y,-z
-x,y,1/2-z
1/2+x,1/2+y,z
1/2-x,1/2-y,1/2+z
1/2+x,1/2-y,-z
1/2-x,1/2+y,1/2-z
loop_
_atom_site_type_symbol
_atom_site_label
_atom_site_fract_x
_atom_site_fract_y
_atom_site_fract_z
Si Si1 0.322829 0.354729 0.966311
Si Si2 0.720441 0.104282 0.617972
Si Si3 0.552458 0.115576 0.456390
Si Si4 0.508500 0.436429 0.099067
Si Si5 0.883264 0.136101 0.789139
Si Si6 0.639271 0.976791 0.269455
O O1 0.256777 0.281007 0.912468
O O2 0.455224 0.435465 0.945257
O O3 0.248602 0.500000 0.000000
O O4 0.337973 0.203215 0.008057
O O5 0.853410 0.004468 0.618830
O O6 0.676422 0.139023 0.679394
O O7 0.611972 0.996127 0.590451
O O8 0.467330 0.256888 0.429384
O O9 0.475785 0.000000 0.500000
O O10 0.413574 0.418801 0.149602
O O11 0.749999 0.047943 0.774866
O O12 0.864501 0.332837 0.787373
O O13 0.000000 0.082676 0.750000
O O14 0.500000 0.918641 0.250000
#
# Coordination Sequence:
#
# PCOD8160390 Si02
#       6
#     8   8   8   8   8   8
#     4   9  22  39  62  97 129 164 218 263 321 397
#     4  11  22  42  68  93 133 175 212 272 334 391
#     4   9  20  41  61  91 132 165 213 264 322 388
#     4  11  22  40  68  94 127 171 217 266 333 394
#     4  11  24  44  66  96 132 169 221 275 328 397
#     4  11  26  43  67  98 133 174 223 277 334 397
#
# _framework density 22.909400999999999
#
# number of rings (size 3 to 8) (size 9 to 14) (size 15 to 20)
#    0.000    1.667    3.333    0.000    2.333    8.667 
#    0.000    3.333    0.000    0.000    0.000    0.000 
#    0.000    0.000    0.000    0.000    0.000    0.000 
#
# Total GULP energy -297363.535759 kJ/mol
# GULP energy per Si atom -12390.147323 kJ/mol
# Density = 2.285726 g / cm^3
# Si number density = 22.909401 Si / 1000 Ang^3
#
#
#
# Elastic Constant Matrix: (Units=GPa)
#
#
# Indices 1 2 3 4 5 6 
#
# 1 130.7237 1.8794 26.5308 0.0000 0.0000 0.0000
# 2 1.8794 51.6327 13.7267 0.0000 0.0000 0.0000
# 3 26.5308 13.7267 111.5173 0.0000 0.0000 0.0000
# 4 0.0000 0.0000 0.0000 36.6791 0.0000 0.0000
# 5 0.0000 0.0000 0.0000 0.0000 -13.1762 0.0000
# 6 0.0000 0.0000 0.0000 0.0000 0.0000 31.8561
#
#
#
# Elastic Compliance Matrix: (Units=1/GPa)
#
#
# Indices 1 2 3 4 5 6 
#
# 1 0.008040 0.000223 -0.001940 0.000000 0.000000 0.000000
# 2 0.000223 0.020029 -0.002518 0.000000 0.000000 0.000000
# 3 -0.001940 -0.002518 0.009739 0.000000 0.000000 0.000000
# 4 0.000000 0.000000 0.000000 0.027264 0.000000 0.000000
# 5 0.000000 0.000000 0.000000 0.000000 -0.075895 0.000000
# 6 0.000000 0.000000 0.000000 0.000000 0.000000 0.031391
#
#
# Mechanical properties :
#
#
# Convention : Reuss Voigt Hill
#
# Bulk Modulus (GPa) = 34.08676 42.01639 38.05158
# Shear Modulus (GPa) = 128.80497 27.85426 78.32962
#
# Velocity S-wave (km/s) = 7.50638 3.49068 5.85365
# Velocity P-wave (km/s) = 9.48888 5.88443 7.89510
#
# Compressibility (1/GPa) = 0.02933690
#
# Stress axis : x y z
#
# Youngs Moduli (GPa) = 124.37335 49.92763 102.68168
#
# Poissons Ratio (x) = -0.01114 0.19924
# Poissons Ratio (y) = -0.02776 0.25860
# Poissons Ratio (z) = 0.24132 0.12574
#
# Static dielectric constant tensor:
#      x y z
#    x 3.781290 0.000000 0.000000 
#    y 0.000000 4.125190 0.000000 
#    z 0.000000 0.000000 4.290980 
# 
# 
# High freq. dielectric constant tensor:
#      x y z
#    x 1.887530 0.000000 0.000000 
#    y 0.000000 1.898110 0.000000 
#    z 0.000000 0.000000 1.920670 
# 
# From -- ./inp_files/29096.got.cif
#   From: 2010.03.12/outbox.cif.g09.slc.cpg/sg20_15_cif.got.tgz:29096.got - 2010.04.14 01:38:04.
