data_PCOD8160825
_publ_section_title
;
Structure prediction by ZEFSAII (Michael W. Deem and Ramdas Pophale) SiO2 
 PCOD8160825
Probable space group: C 2 2 2
;
_chemical_formula_sum "Si O2"
_cell_formula_units_Z 56
_cell_length_a 13.803169
_cell_length_b 29.669022
_cell_length_c 8.458986
_cell_angle_alpha 90.000000
_cell_angle_beta 90.000000
_cell_angle_gamma 90.000000
_cell_volume 3464.179139
_symmetry_space_group_name_H-M "C 2 2 2"
_symmetry_group_IT_number 21
_symmetry_cell_setting 'orthorhombic'
loop_
_space_group_symop_operation_xyz
x,y,z
-x,-y,z
x,-y,-z
-x,y,-z
1/2+x,1/2+y,z
1/2-x,1/2-y,z
1/2+x,1/2-y,-z
1/2-x,1/2+y,-z
loop_
_atom_site_type_symbol
_atom_site_label
_atom_site_fract_x
_atom_site_fract_y
_atom_site_fract_z
Si Si1 0.384966 0.000000 0.326787
Si Si2 0.110165 0.764396 0.183463
Si Si3 0.610165 0.735604 0.183463
Si Si4 0.608774 0.096633 0.310561
Si Si5 0.722907 0.817494 0.314900
Si Si6 0.108774 0.596633 0.689439
Si Si7 0.277093 0.817494 0.314900
O O1 0.355664 0.047477 0.242283
O O2 0.500000 0.000000 0.344671
O O3 0.336527 0.000000 0.500000
O O4 0.355664 0.952523 0.242283
O O5 0.176375 0.807501 0.225696
O O6 0.144566 0.721573 0.284109
O O7 0.000000 0.776169 0.227938
O O8 0.121908 0.752464 0.000000
O O9 0.644566 0.778426 0.284109
O O10 0.676375 0.692499 0.225695
O O11 0.608188 0.094865 0.500000
O O12 0.500000 0.107504 0.250052
O O13 0.680795 0.135369 0.248741
O O14 0.680795 0.864631 0.248740
O O15 0.743668 0.820249 0.500000
#
# Coordination Sequence:
#
# PCOD8160825 Si02
#       7
#     8   8   8   8   8   8   8
#     4   7  10  18  32  52  82 113 132 150 185 237
#     4  10  20  32  43  56  79 111 142 169 199 240
#     4  10  20  32  43  56  79 111 142 169 199 240
#     4   8  13  21  35  58  86 111 132 156 192 238
#     4  10  18  27  43  65  85 105 133 170 206 239
#     4   8  13  21  35  58  86 111 132 156 192 238
#     4  10  18  27  43  65  85 105 133 170 206 239
#
# _framework density 16.165445999999999
#
# number of rings (size 3 to 8) (size 9 to 14) (size 15 to 20)
#    0.000    3.000    0.000    6.000    0.000    3.429 
#    0.000    0.000    0.000    0.000    0.000    5.000 
#    0.000   24.000    0.000    0.000    0.000    0.000 
#
# Total GULP energy -346910.649664 kJ/mol
# GULP energy per Si atom -12389.666059 kJ/mol
# Density = 1.612865 g / cm^3
# Si number density = 16.165446 Si / 1000 Ang^3
#
#
#
# Elastic Constant Matrix: (Units=GPa)
#
#
# Indices 1 2 3 4 5 6 
#
# 1 107.8497 60.6739 10.8175 0.0000 0.0000 0.0000
# 2 60.6739 142.3964 1.9845 0.0000 0.0000 0.0000
# 3 10.8175 1.9845 21.9162 0.0000 0.0000 0.0000
# 4 0.0000 0.0000 0.0000 0.1083 0.0000 0.0000
# 5 0.0000 0.0000 0.0000 0.0000 20.4954 0.0000
# 6 0.0000 0.0000 0.0000 0.0000 0.0000 26.3181
#
#
#
# Elastic Compliance Matrix: (Units=1/GPa)
#
#
# Indices 1 2 3 4 5 6 
#
# 1 0.012911 -0.005419 -0.005882 0.000000 0.000000 0.000000
# 2 -0.005419 0.009306 0.001832 0.000000 0.000000 0.000000
# 3 -0.005882 0.001832 0.048366 0.000000 0.000000 0.000000
# 4 0.000000 0.000000 0.000000 9.234882 0.000000 0.000000
# 5 0.000000 0.000000 0.000000 0.000000 0.048791 0.000000
# 6 0.000000 0.000000 0.000000 0.000000 0.000000 0.037997
#
#
# Mechanical properties :
#
#
# Convention : Reuss Voigt Hill
#
# Bulk Modulus (GPa) = 19.36300 46.56821 32.96561
# Shear Modulus (GPa) = 0.53031 22.63012 11.58022
#
# Velocity S-wave (km/s) = 0.57338 3.74559 2.67939
# Velocity P-wave (km/s) = 3.52738 6.89752 5.47805
#
# Compressibility (1/GPa) = 0.05164488
#
# Stress axis : x y z
#
# Youngs Moduli (GPa) = 77.45404 107.45515 20.67579
#
# Poissons Ratio (x) = 0.58233 0.12161
# Poissons Ratio (y) = 0.41974 -0.03788
# Poissons Ratio (z) = 0.45558 -0.19688
#
# Static dielectric constant tensor:
#      x y z
#    x 2.978220 0.000000 0.000000 
#    y 0.000000 3.513290 0.000000 
#    z 0.000000 0.000000 2.768630 
# 
# 
# High freq. dielectric constant tensor:
#      x y z
#    x 1.590420 0.000000 0.000000 
#    y 0.000000 1.624230 0.000000 
#    z 0.000000 0.000000 1.594870 
# 
# From -- ./inp_files/15569.got.cif
#   From: 2010.03.12/outbox.cif.g09.slc.cpg/sg21_8_cif.got.tgz:15569.got - 2010.04.14 01:59:26.
