data_PCOD8160770
_publ_section_title
;
Structure prediction by ZEFSAII (Michael W. Deem and Ramdas Pophale) SiO2 
 PCOD8160770
Probable space group: C 2 2 2
;
_chemical_formula_sum "Si O2"
_cell_formula_units_Z 42
_cell_length_a 21.904755
_cell_length_b 8.970115
_cell_length_c 11.346776
_cell_angle_alpha 90.000000
_cell_angle_beta 90.000000
_cell_angle_gamma 90.000000
_cell_volume 2229.507267
_symmetry_space_group_name_H-M "C 2 2 2"
_symmetry_group_IT_number 21
_symmetry_cell_setting 'orthorhombic'
loop_
_space_group_symop_operation_xyz
x,y,z
-x,-y,z
x,-y,-z
-x,y,-z
1/2+x,1/2+y,z
1/2-x,1/2-y,z
1/2+x,1/2-y,-z
1/2-x,1/2+y,-z
loop_
_atom_site_type_symbol
_atom_site_label
_atom_site_fract_x
_atom_site_fract_y
_atom_site_fract_z
Si Si1 0.603324 0.294389 0.967178
Si Si2 0.940551 0.413743 0.784615
Si Si3 0.750000 0.250000 0.168536
Si Si4 0.290085 0.500000 0.000000
Si Si5 0.000000 0.000000 0.000000
Si Si6 0.990923 0.832204 0.638057
Si Si7 0.119004 0.292732 0.762678
O O1 0.599598 0.145292 0.892737
O O2 0.665287 0.382483 0.933538
O O3 0.545153 0.394096 0.924912
O O4 0.599400 0.253069 0.104703
O O5 0.895006 0.535452 0.728282
O O6 0.000000 0.500000 0.833162
O O7 0.960989 0.283697 0.695461
O O8 0.809247 0.256708 0.252149
O O9 0.751106 0.401807 0.089008
O O10 0.920551 0.801658 0.670994
O O11 0.000000 0.816502 0.500000
O O12 0.000000 0.000000 0.682753
#
# Coordination Sequence:
#
# PCOD8160770 Si02
#       7
#     8   8   4   4   2   8   8
#     4  10  20  30  50  85 118 152 189 226 291 353
#     4  10  21  33  56  86 116 152 187 245 294 353
#     4  10  22  38  54  86 120 168 202 232 282 342
#     4   9  22  33  52  76 117 172 189 236 266 346
#     4  10  16  24  42  72 110 148 172 232 270 326
#     4  10  23  40  61  84 113 148 195 251 307 356
#     4  10  22  36  57  84 117 156 191 239 284 349
#
# _framework density 18.838242999999999
#
# number of rings (size 3 to 8) (size 9 to 14) (size 15 to 20)
#    0.000    2.095    0.000    2.857   16.000    5.714 
#    0.000    0.000    0.000    4.571    0.000    0.000 
#    0.000    0.000    0.000    0.000    0.000    0.000 
#
# Total GULP energy -260215.432285 kJ/mol
# GULP energy per Si atom -12391.211061 kJ/mol
# Density = 1.879537 g / cm^3
# Si number density = 18.838243 Si / 1000 Ang^3
#
#
#
# Elastic Constant Matrix: (Units=GPa)
#
#
# Indices 1 2 3 4 5 6 
#
# 1 125.8829 48.8938 40.2635 0.0000 0.0000 0.0000
# 2 48.8938 134.5766 39.0786 0.0000 0.0000 0.0000
# 3 40.2635 39.0786 63.6196 0.0000 0.0000 0.0000
# 4 0.0000 0.0000 0.0000 14.5905 0.0000 0.0000
# 5 0.0000 0.0000 0.0000 0.0000 18.5962 0.0000
# 6 0.0000 0.0000 0.0000 0.0000 0.0000 27.2389
#
#
#
# Elastic Compliance Matrix: (Units=1/GPa)
#
#
# Indices 1 2 3 4 5 6 
#
# 1 0.010513 -0.002297 -0.005242 0.000000 0.000000 0.000000
# 2 -0.002297 0.009546 -0.004410 0.000000 0.000000 0.000000
# 3 -0.005242 -0.004410 0.021745 0.000000 0.000000 0.000000
# 4 0.000000 0.000000 0.000000 0.068538 0.000000 0.000000
# 5 0.000000 0.000000 0.000000 0.000000 0.053775 0.000000
# 6 0.000000 0.000000 0.000000 0.000000 0.000000 0.036712
#
#
# Mechanical properties :
#
#
# Convention : Reuss Voigt Hill
#
# Bulk Modulus (GPa) = 55.85000 64.50566 60.17783
# Shear Modulus (GPa) = 21.67366 25.14134 23.40750
#
# Velocity S-wave (km/s) = 3.39560 3.65717 3.52881
# Velocity P-wave (km/s) = 6.71454 7.22145 6.97260
#
# Compressibility (1/GPa) = 0.01790510
#
# Stress axis : x y z
#
# Youngs Moduli (GPa) = 95.12125 104.75781 45.98793
#
# Poissons Ratio (x) = 0.24065 0.24108
# Poissons Ratio (y) = 0.21852 0.20279
# Poissons Ratio (z) = 0.49865 0.46195
#
# Static dielectric constant tensor:
#      x y z
#    x 3.548290 0.000000 0.000000 
#    y 0.000000 3.971040 0.000000 
#    z 0.000000 0.000000 3.016380 
# 
# 
# High freq. dielectric constant tensor:
#      x y z
#    x 1.728120 0.000000 0.000000 
#    y 0.000000 1.761930 0.000000 
#    z 0.000000 0.000000 1.676950 
# 
# From -- ./inp_files/22725.got.cif
#   From: 2010.03.12/outbox.cif.g09.slc.cpg/sg21_12_cif.got.tgz:22725.got - 2010.04.14 01:59:26.
