data_PCOD8160517
_publ_section_title
;
Structure prediction by ZEFSAII (Michael W. Deem and Ramdas Pophale) SiO2 
 PCOD8160517
Probable space group: C 2 2 21
;
_chemical_formula_sum "Si O2"
_cell_formula_units_Z 36
_cell_length_a 16.069694
_cell_length_b 6.649201
_cell_length_c 14.221977
_cell_angle_alpha 90.000000
_cell_angle_beta 90.000000
_cell_angle_gamma 90.000000
_cell_volume 1519.627137
_symmetry_space_group_name_H-M "C 2 2 21"
_symmetry_group_IT_number 20
_symmetry_cell_setting 'orthorhombic'
loop_
_space_group_symop_operation_xyz
x,y,z
-x,-y,1/2+z
x,-y,-z
-x,y,1/2-z
1/2+x,1/2+y,z
1/2-x,1/2-y,1/2+z
1/2+x,1/2-y,-z
1/2-x,1/2+y,1/2-z
loop_
_atom_site_type_symbol
_atom_site_label
_atom_site_fract_x
_atom_site_fract_y
_atom_site_fract_z
Si Si1 0.185521 0.245943 0.143438
Si Si2 0.320048 0.058160 0.903147
Si Si3 0.833957 0.968732 0.825350
Si Si4 0.457027 0.194838 0.151569
Si Si5 0.073989 0.500000 0.000000
O O1 0.233784 0.063243 0.093939
O O2 0.135365 0.139863 0.228889
O O3 0.251260 0.398433 0.193030
O O4 0.128338 0.355209 0.066977
O O5 0.388282 0.979855 0.827720
O O6 0.306122 0.296389 0.898602
O O7 0.366398 0.000000 0.000000
O O8 0.908007 0.097590 0.871562
O O9 0.500000 0.227476 0.250000
O O10 0.520456 0.144840 0.067527
#
# Coordination Sequence:
#
# PCOD8160517 Si02
#       5
#     8   8   8   8   4
#     4  11  24  44  80 111 149 195 269 313 377 462
#     4  11  23  46  71 107 146 192 242 314 373 453
#     4  11  24  46  76 109 151 203 246 321 391 449
#     4  11  27  48  71 110 159 198 251 318 397 459
#     4  12  26  50  80 120 152 204 270 320 386 478
#
# _framework density 23.690023
#
# number of rings (size 3 to 8) (size 9 to 14) (size 15 to 20)
#    0.000    0.889    3.333    2.667    3.111    7.111 
#    4.000    2.222    0.000    0.000    0.000    0.000 
#    0.000    0.000    0.000    0.000    0.000    0.000 
#
# Total GULP energy -223101.387425 kJ/mol
# GULP energy per Si atom -12394.521524 kJ/mol
# Density = 2.363610 g / cm^3
# Si number density = 23.690023 Si / 1000 Ang^3
#
#
#
# Elastic Constant Matrix: (Units=GPa)
#
#
# Indices 1 2 3 4 5 6 
#
# 1 122.5682 73.2121 51.8632 0.0000 0.0000 0.0000
# 2 73.2121 176.9103 58.9324 0.0000 0.0000 0.0000
# 3 51.8632 58.9324 112.4594 0.0000 0.0000 0.0000
# 4 0.0000 0.0000 0.0000 33.9592 0.0000 0.0000
# 5 0.0000 0.0000 0.0000 0.0000 42.8979 0.0000
# 6 0.0000 0.0000 0.0000 0.0000 0.0000 37.1101
#
#
#
# Elastic Compliance Matrix: (Units=1/GPa)
#
#
# Indices 1 2 3 4 5 6 
#
# 1 0.011885 -0.003747 -0.003518 0.000000 0.000000 0.000000
# 2 -0.003747 0.008029 -0.002480 0.000000 0.000000 0.000000
# 3 -0.003518 -0.002480 0.011814 0.000000 0.000000 0.000000
# 4 0.000000 0.000000 0.000000 0.029447 0.000000 0.000000
# 5 0.000000 0.000000 0.000000 0.000000 0.023311 0.000000
# 6 0.000000 0.000000 0.000000 0.000000 0.000000 0.026947
#
#
# Mechanical properties :
#
#
# Convention : Reuss Voigt Hill
#
# Bulk Modulus (GPa) = 81.69970 86.66148 84.18059
# Shear Modulus (GPa) = 37.03667 37.98878 37.51273
#
# Velocity S-wave (km/s) = 3.95826 4.00881 3.98362
# Velocity P-wave (km/s) = 7.44663 7.62157 7.53460
#
# Compressibility (1/GPa) = 0.01223995
#
# Stress axis : x y z
#
# Youngs Moduli (GPa) = 84.13844 124.54652 84.64679
#
# Poissons Ratio (x) = 0.46664 0.29776
# Poissons Ratio (y) = 0.31524 0.20989
# Poissons Ratio (z) = 0.29598 0.30883
#
# Static dielectric constant tensor:
#      x y z
#    x 4.163650 0.000000 0.000000 
#    y 0.000000 4.495860 0.000000 
#    z 0.000000 0.000000 4.388460 
# 
# 
# High freq. dielectric constant tensor:
#      x y z
#    x 1.927170 0.000000 0.000000 
#    y 0.000000 1.952860 0.000000 
#    z 0.000000 0.000000 1.946450 
# 
# From -- ./inp_files/21598.got.cif
#   From: 2010.03.12/outbox.cif.g09.slc.cpg/sg20_11_cif.got.tgz:21598.got - 2010.04.14 01:38:04.
