data_PCOD8160050
_publ_section_title
;
Structure prediction by ZEFSAII (Michael W. Deem and Ramdas Pophale) SiO2 
 PCOD8160050
Probable space group: C 2 2 21
;
_chemical_formula_sum "Si O2"
_cell_formula_units_Z 36
_cell_length_a 8.511697
_cell_length_b 21.508122
_cell_length_c 8.056872
_cell_angle_alpha 90.000000
_cell_angle_beta 90.000000
_cell_angle_gamma 90.000000
_cell_volume 1474.976532
_symmetry_space_group_name_H-M "C 2 2 21"
_symmetry_group_IT_number 20
_symmetry_cell_setting 'orthorhombic'
loop_
_space_group_symop_operation_xyz
x,y,z
-x,-y,1/2+z
x,-y,-z
-x,y,1/2-z
1/2+x,1/2+y,z
1/2-x,1/2-y,1/2+z
1/2+x,1/2-y,-z
1/2-x,1/2+y,1/2-z
loop_
_atom_site_type_symbol
_atom_site_label
_atom_site_fract_x
_atom_site_fract_y
_atom_site_fract_z
Si Si1 0.402276 0.616353 0.414883
Si Si2 0.376090 0.177868 0.514256
Si Si3 0.907758 0.000000 0.000000
Si Si4 0.719304 0.208106 0.617576
Si Si5 0.335123 0.059414 0.297918
O O1 0.500000 0.635917 0.250000
O O2 0.490023 0.562175 0.517484
O O3 0.370249 0.674209 0.534122
O O4 0.228850 0.593624 0.364452
O O5 0.558194 0.198100 0.515548
O O6 0.300568 0.184295 0.695919
O O7 0.271974 0.219737 0.387545
O O8 0.358343 0.107288 0.451059
O O9 0.792518 0.006286 0.158944
O O10 0.500000 0.027508 0.250000
#
# Coordination Sequence:
#
# PCOD8160050 Si02
#       5
#     8   8   4   8   8
#     4  10  23  45  73 102 145 190 241 302 362 436
#     4  11  26  43  70 109 146 198 240 299 370 432
#     4  10  26  44  72 106 134 186 238 296 372 424
#     4  11  25  44  71 107 153 192 245 299 362 442
#     4  11  23  47  71 103 142 191 245 304 366 432
#
# _framework density 24.407167999999999
#
# number of rings (size 3 to 8) (size 9 to 14) (size 15 to 20)
#    0.000    1.333    2.222    1.333    9.333    6.222 
#    4.000    0.000    0.000    0.000    0.000    0.000 
#    0.000    0.000    0.000    0.000    0.000    0.000 
#
# Total GULP energy -223153.004458 kJ/mol
# GULP energy per Si atom -12397.389137 kJ/mol
# Density = 2.435162 g / cm^3
# Si number density = 24.407168 Si / 1000 Ang^3
#
#
#
# Elastic Constant Matrix: (Units=GPa)
#
#
# Indices 1 2 3 4 5 6 
#
# 1 135.4957 35.1017 41.3847 0.0000 0.0000 0.0000
# 2 35.1017 67.9667 38.1211 0.0000 0.0000 0.0000
# 3 41.3847 38.1211 82.7867 0.0000 0.0000 0.0000
# 4 0.0000 0.0000 0.0000 38.3230 0.0000 0.0000
# 5 0.0000 0.0000 0.0000 0.0000 40.2324 0.0000
# 6 0.0000 0.0000 0.0000 0.0000 0.0000 35.5592
#
#
#
# Elastic Compliance Matrix: (Units=1/GPa)
#
#
# Indices 1 2 3 4 5 6 
#
# 1 0.009116 -0.002901 -0.003221 0.000000 0.000000 0.000000
# 2 -0.002901 0.020760 -0.008109 0.000000 0.000000 0.000000
# 3 -0.003221 -0.008109 0.017423 0.000000 0.000000 0.000000
# 4 0.000000 0.000000 0.000000 0.026094 0.000000 0.000000
# 5 0.000000 0.000000 0.000000 0.000000 0.024856 0.000000
# 6 0.000000 0.000000 0.000000 0.000000 0.000000 0.028122
#
#
# Mechanical properties :
#
#
# Convention : Reuss Voigt Hill
#
# Bulk Modulus (GPa) = 53.08889 57.27380 55.18135
# Shear Modulus (GPa) = 31.03446 34.26570 32.65008
#
# Velocity S-wave (km/s) = 3.56972 3.75096 3.66146
# Velocity P-wave (km/s) = 6.22809 6.50204 6.36654
#
# Compressibility (1/GPa) = 0.01883633
#
# Stress axis : x y z
#
# Youngs Moduli (GPa) = 109.70095 48.17052 57.39447
#
# Poissons Ratio (x) = 0.13976 0.18486
# Poissons Ratio (y) = 0.31828 0.46541
# Poissons Ratio (z) = 0.35334 0.39061
#
# Static dielectric constant tensor:
#      x y z
#    x 4.749780 0.000000 0.000000 
#    y 0.000000 4.273390 0.000000 
#    z 0.000000 0.000000 4.205460 
# 
# 
# High freq. dielectric constant tensor:
#      x y z
#    x 1.996530 0.000000 0.000000 
#    y 0.000000 1.954620 0.000000 
#    z 0.000000 0.000000 1.955720 
# 
# From -- ./inp_files/5897.got.cif
#   From: 2010.03.12/outbox.cif.g09.slc.cpg/sg20_3_cif.got.tgz:5897.got - 2010.04.14 01:38:04.
