data_PCOD8160385
_publ_section_title
;
Structure prediction by ZEFSAII (Michael W. Deem and Ramdas Pophale) SiO2 
 PCOD8160385
Probable space group: C 2 2 21
;
_chemical_formula_sum "Si O2"
_cell_formula_units_Z 48
_cell_length_a 13.638095
_cell_length_b 16.535690
_cell_length_c 9.652808
_cell_angle_alpha 90.000000
_cell_angle_beta 90.000000
_cell_angle_gamma 90.000000
_cell_volume 2176.855999
_symmetry_space_group_name_H-M "C 2 2 21"
_symmetry_group_IT_number 20
_symmetry_cell_setting 'orthorhombic'
loop_
_space_group_symop_operation_xyz
x,y,z
-x,-y,1/2+z
x,-y,-z
-x,y,1/2-z
1/2+x,1/2+y,z
1/2-x,1/2-y,1/2+z
1/2+x,1/2-y,-z
1/2-x,1/2+y,1/2-z
loop_
_atom_site_type_symbol
_atom_site_label
_atom_site_fract_x
_atom_site_fract_y
_atom_site_fract_z
Si Si1 0.852190 0.297394 0.076904
Si Si2 0.283376 0.965175 0.146104
Si Si3 0.084669 0.544173 0.147431
Si Si4 0.743688 0.233770 0.835715
Si Si5 0.931691 0.714199 0.478159
Si Si6 0.894747 0.870839 0.297030
O O1 0.842454 0.381164 0.159946
O O2 0.794072 0.235165 0.183034
O O3 0.791774 0.303737 0.931611
O O4 0.964211 0.275355 0.053856
O O5 0.166036 0.947347 0.144021
O O6 0.312957 0.023182 0.274683
O O7 0.317054 0.000000 0.000000
O O8 0.070452 0.640729 0.131269
O O9 0.000000 0.511839 0.250000
O O10 0.076618 0.500000 0.000000
O O11 0.829607 0.165862 0.828287
O O12 0.649168 0.194380 0.907662
O O13 0.908915 0.799098 0.406517
O O14 0.000000 0.903850 0.250000
#
# Coordination Sequence:
#
# PCOD8160385 Si02
#       6
#     8   8   8   8   8   8
#     4  11  23  40  67 100 138 171 228 282 347 409
#     4  11  25  44  66  95 139 180 224 282 347 415
#     4  12  25  41  67 100 138 180 221 283 356 420
#     4  11  22  40  66 102 134 171 219 289 339 400
#     4  12  23  40  70 100 133 178 230 281 348 406
#     4  11  23  42  68  94 132 173 225 284 334 404
#
# _framework density 22.050148
#
# number of rings (size 3 to 8) (size 9 to 14) (size 15 to 20)
#    0.000    0.667    5.000    5.500    2.333    0.000 
#    0.000    2.500    3.667    0.000    0.000    0.000 
#    0.000    0.000    0.000    0.000    0.000    0.000 
#
# Total GULP energy -297437.211053 kJ/mol
# GULP energy per Si atom -12393.217127 kJ/mol
# Density = 2.199996 g / cm^3
# Si number density = 22.050148 Si / 1000 Ang^3
#
#
#
# Elastic Constant Matrix: (Units=GPa)
#
#
# Indices 1 2 3 4 5 6 
#
# 1 174.3120 19.8509 57.0695 0.0000 0.0000 0.0000
# 2 19.8509 34.2079 21.6325 0.0000 0.0000 0.0000
# 3 57.0695 21.6325 130.4550 0.0000 0.0000 0.0000
# 4 0.0000 0.0000 0.0000 30.3168 0.0000 0.0000
# 5 0.0000 0.0000 0.0000 0.0000 48.3301 0.0000
# 6 0.0000 0.0000 0.0000 0.0000 0.0000 25.2539
#
#
#
# Elastic Compliance Matrix: (Units=1/GPa)
#
#
# Indices 1 2 3 4 5 6 
#
# 1 0.006858 -0.002326 -0.002614 0.000000 0.000000 0.000000
# 2 -0.002326 0.033447 -0.004529 0.000000 0.000000 0.000000
# 3 -0.002614 -0.004529 0.009560 0.000000 0.000000 0.000000
# 4 0.000000 0.000000 0.000000 0.032985 0.000000 0.000000
# 5 0.000000 0.000000 0.000000 0.000000 0.020691 0.000000
# 6 0.000000 0.000000 0.000000 0.000000 0.000000 0.039598
#
#
# Mechanical properties :
#
#
# Convention : Reuss Voigt Hill
#
# Bulk Modulus (GPa) = 32.33501 59.56453 45.94977
# Shear Modulus (GPa) = 29.00480 36.80830 32.90655
#
# Velocity S-wave (km/s) = 3.63078 4.09014 3.86729
# Velocity P-wave (km/s) = 5.68092 7.02691 6.38946
#
# Compressibility (1/GPa) = 0.03092623
#
# Stress axis : x y z
#
# Youngs Moduli (GPa) = 145.82234 29.89828 104.60197
#
# Poissons Ratio (x) = 0.06955 0.27345
# Poissons Ratio (y) = 0.33923 0.47370
# Poissons Ratio (z) = 0.38121 0.13540
#
# Static dielectric constant tensor:
#      x y z
#    x 4.336730 0.000000 0.000000 
#    y 0.000000 3.721760 0.000000 
#    z 0.000000 0.000000 4.384610 
# 
# 
# High freq. dielectric constant tensor:
#      x y z
#    x 1.883810 0.000000 0.000000 
#    y 0.000000 1.826480 0.000000 
#    z 0.000000 0.000000 1.880500 
# 
# From -- ./inp_files/8414.got.cif
#   From: 2010.03.12/outbox.cif.g09.slc.cpg/sg20_5_cif.got.tgz:8414.got - 2010.04.14 01:38:04.
