data_PCOD8160597
_publ_section_title
;
Structure prediction by ZEFSAII (Michael W. Deem and Ramdas Pophale) SiO2 
 PCOD8160597
Probable space group: C 2 2 21
;
_chemical_formula_sum "Si O2"
_cell_formula_units_Z 32
_cell_length_a 4.999620
_cell_length_b 13.307669
_cell_length_c 20.549347
_cell_angle_alpha 90.000000
_cell_angle_beta 90.000000
_cell_angle_gamma 90.000000
_cell_volume 1367.215624
_symmetry_space_group_name_H-M "C 2 2 21"
_symmetry_group_IT_number 20
_symmetry_cell_setting 'orthorhombic'
loop_
_space_group_symop_operation_xyz
x,y,z
-x,-y,1/2+z
x,-y,-z
-x,y,1/2-z
1/2+x,1/2+y,z
1/2-x,1/2-y,1/2+z
1/2+x,1/2-y,-z
1/2-x,1/2+y,1/2-z
loop_
_atom_site_type_symbol
_atom_site_label
_atom_site_fract_x
_atom_site_fract_y
_atom_site_fract_z
Si Si1 0.255271 0.208868 0.205626
Si Si2 0.578882 0.840872 0.088381
Si Si3 0.888940 0.446292 0.897494
Si Si4 0.394756 0.639417 0.035373
O O1 0.500000 0.243430 0.250000
O O2 0.216550 0.294909 0.151928
O O3 0.308573 0.101669 0.171510
O O4 0.000000 0.194689 0.250000
O O5 0.398776 0.758514 0.050915
O O6 0.390257 0.933299 0.109228
O O7 0.810517 0.879339 0.039187
O O8 0.184552 0.409541 0.915365
O O9 0.684121 0.411017 0.953772
#
# Coordination Sequence:
#
# PCOD8160597 Si02
#       4
#     8   8   8   8
#     4  11  25  47  69  98 138 182 239 285 321 400
#     4  11  25  46  73 101 141 184 219 282 355 401
#     4  11  26  46  70 101 138 180 223 282 347 407
#     4  11  25  43  70 108 139 168 226 283 343 424
#
# _framework density 23.405232999999999
#
# number of rings (size 3 to 8) (size 9 to 14) (size 15 to 20)
#    0.000    1.000    0.000    6.750    0.000   17.000 
#    0.000    7.500    0.000    0.000    0.000    0.000 
#    0.000    0.000    0.000    0.000    0.000    0.000 
#
# Total GULP energy -198522.660458 kJ/mol
# GULP energy per Si atom -12407.666279 kJ/mol
# Density = 2.335196 g / cm^3
# Si number density = 23.405233 Si / 1000 Ang^3
#
#
#
# Elastic Constant Matrix: (Units=GPa)
#
#
# Indices 1 2 3 4 5 6 
#
# 1 100.0792 52.2298 40.4134 0.0000 0.0000 0.0000
# 2 52.2298 137.5319 49.3360 0.0000 0.0000 0.0000
# 3 40.4134 49.3360 159.8442 0.0000 0.0000 0.0000
# 4 0.0000 0.0000 0.0000 25.3569 0.0000 0.0000
# 5 0.0000 0.0000 0.0000 0.0000 39.0523 0.0000
# 6 0.0000 0.0000 0.0000 0.0000 0.0000 35.0071
#
#
#
# Elastic Compliance Matrix: (Units=1/GPa)
#
#
# Indices 1 2 3 4 5 6 
#
# 1 0.012997 -0.004225 -0.001982 0.000000 0.000000 0.000000
# 2 -0.004225 0.009550 -0.001879 0.000000 0.000000 0.000000
# 3 -0.001982 -0.001879 0.007337 0.000000 0.000000 0.000000
# 4 0.000000 0.000000 0.000000 0.039437 0.000000 0.000000
# 5 0.000000 0.000000 0.000000 0.000000 0.025607 0.000000
# 6 0.000000 0.000000 0.000000 0.000000 0.000000 0.028566
#
#
# Mechanical properties :
#
#
# Convention : Reuss Voigt Hill
#
# Bulk Modulus (GPa) = 72.93071 75.71265 74.32168
# Shear Modulus (GPa) = 34.66517 36.91500 35.79008
#
# Velocity S-wave (km/s) = 3.85266 3.97572 3.91468
# Velocity P-wave (km/s) = 7.14271 7.31396 7.22884
#
# Compressibility (1/GPa) = 0.01371164
#
# Stress axis : x y z
#
# Youngs Moduli (GPa) = 76.93841 104.71558 136.29024
#
# Poissons Ratio (x) = 0.44242 0.27014
# Poissons Ratio (y) = 0.32506 0.25613
# Poissons Ratio (z) = 0.15250 0.19679
#
# Static dielectric constant tensor:
#      x y z
#    x 4.185990 0.000000 0.000000 
#    y 0.000000 4.377780 0.000000 
#    z 0.000000 0.000000 4.222290 
# 
# 
# High freq. dielectric constant tensor:
#      x y z
#    x 1.937500 0.000000 0.000000 
#    y 0.000000 1.933490 0.000000 
#    z 0.000000 0.000000 1.922800 
# 
# From -- ./inp_files/25889.got.cif
#   From: 2010.03.12/outbox.cif.g09.slc.cpg/sg20_13_cif.got.tgz:25889.got - 2010.04.14 01:38:04.
