data_PCOD8160024
_publ_section_title
;
Structure prediction by ZEFSAII (Michael W. Deem and Ramdas Pophale) SiO2 
 PCOD8160024
Probable space group: C 2 2 21
;
_chemical_formula_sum "Si O2"
_cell_formula_units_Z 64
_cell_length_a 11.963773
_cell_length_b 15.192145
_cell_length_c 16.329067
_cell_angle_alpha 90.000000
_cell_angle_beta 90.000000
_cell_angle_gamma 90.000000
_cell_volume 2967.895682
_symmetry_space_group_name_H-M "C 2 2 21"
_symmetry_group_IT_number 20
_symmetry_cell_setting 'orthorhombic'
loop_
_space_group_symop_operation_xyz
x,y,z
-x,-y,1/2+z
x,-y,-z
-x,y,1/2-z
1/2+x,1/2+y,z
1/2-x,1/2-y,1/2+z
1/2+x,1/2-y,-z
1/2-x,1/2+y,1/2-z
loop_
_atom_site_type_symbol
_atom_site_label
_atom_site_fract_x
_atom_site_fract_y
_atom_site_fract_z
Si Si1 0.005300 0.472950 0.090471
Si Si2 0.615913 0.423332 0.853388
Si Si3 0.005662 0.340925 0.655352
Si Si4 0.227153 0.580515 0.639579
Si Si5 0.784452 0.588477 0.671414
Si Si6 0.280966 0.227966 0.412826
Si Si7 0.863828 0.926109 0.840311
Si Si8 0.234867 0.265546 0.597408
O O1 0.097556 0.406078 0.124681
O O2 0.003126 0.554120 0.153352
O O3 0.885091 0.426403 0.086050
O O4 0.042119 0.500000 0.000000
O O5 0.684166 0.506545 0.889509
O O6 0.486704 0.431552 0.880881
O O7 0.625696 0.423357 0.756493
O O8 0.662867 0.331904 0.887994
O O9 0.120281 0.316795 0.611013
O O10 0.000000 0.309363 0.750000
O O11 0.907810 0.301415 0.600163
O O12 0.195891 0.567511 0.733985
O O13 0.278159 0.675484 0.625100
O O14 0.705934 0.512366 0.632237
O O15 0.730763 0.684567 0.660967
O O16 0.197467 0.162864 0.366366
O O17 0.246107 0.226455 0.507072
#
# Coordination Sequence:
#
# PCOD8160024 Si02
#       8
#     8   8   8   8   8   8   8   8
#     4  12  24  42  68  99 134 169 222 282 340 392
#     4  10  23  44  68  95 131 171 219 274 334 402
#     4  12  24  46  72  94 132 186 234 275 331 412
#     4  11  24  43  68  97 129 176 223 268 331 404
#     4  11  24  43  68  97 129 176 223 268 331 404
#     4  12  27  43  67 100 138 174 223 282 340 395
#     4  10  23  44  68  95 131 171 219 274 334 402
#     4  12  27  43  67 100 138 174 223 282 340 395
#
# _framework density 21.5641
#
# number of rings (size 3 to 8) (size 9 to 14) (size 15 to 20)
#    0.000    0.750    2.500    4.875    5.250    0.000 
#    0.000    1.250    0.000    0.000    0.000    0.000 
#    0.000    0.000    0.000    0.000    0.000    0.000 
#
# Total GULP energy -396997.372728 kJ/mol
# GULP energy per Si atom -12406.167898 kJ/mol
# Density = 2.151502 g / cm^3
# Si number density = 21.564100 Si / 1000 Ang^3
#
#
#
# Elastic Constant Matrix: (Units=GPa)
#
#
# Indices 1 2 3 4 5 6 
#
# 1 120.5456 29.5031 8.6207 0.0000 0.0000 0.0000
# 2 29.5031 125.0826 -3.9297 0.0000 0.0000 0.0000
# 3 8.6207 -3.9297 56.6126 0.0000 0.0000 0.0000
# 4 0.0000 0.0000 0.0000 -15.7453 0.0000 0.0000
# 5 0.0000 0.0000 0.0000 0.0000 22.9513 0.0000
# 6 0.0000 0.0000 0.0000 0.0000 0.0000 288.9774
#
#
#
# Elastic Compliance Matrix: (Units=1/GPa)
#
#
# Indices 1 2 3 4 5 6 
#
# 1 0.008931 -0.002154 -0.001509 0.000000 0.000000 0.000000
# 2 -0.002154 0.008532 0.000920 0.000000 0.000000 0.000000
# 3 -0.001509 0.000920 0.017958 0.000000 0.000000 0.000000
# 4 0.000000 0.000000 0.000000 -0.063511 0.000000 0.000000
# 5 0.000000 0.000000 0.000000 0.000000 0.043571 0.000000
# 6 0.000000 0.000000 0.000000 0.000000 0.000000 0.003460
#
#
# Mechanical properties :
#
#
# Convention : Reuss Voigt Hill
#
# Bulk Modulus (GPa) = 33.40711 41.18098 37.29404
# Shear Modulus (GPa) = 145.33019 77.10644 111.21832
#
# Velocity S-wave (km/s) = 8.21832 5.98619 7.18941
# Velocity P-wave (km/s) = 10.27522 8.18033 9.28703
#
# Compressibility (1/GPa) = 0.02993375
#
# Stress axis : x y z
#
# Youngs Moduli (GPa) = 111.97304 117.21036 55.68666
#
# Poissons Ratio (x) = 0.25246 0.08406
# Poissons Ratio (y) = 0.24118 -0.05124
# Poissons Ratio (z) = 0.16902 -0.10786
#
# Static dielectric constant tensor:
#      x y z
#    x 4.398790 0.000000 0.000000 
#    y 0.000000 3.956950 0.000000 
#    z 0.000000 0.000000 3.825790 
# 
# 
# High freq. dielectric constant tensor:
#      x y z
#    x 1.858320 0.000000 0.000000 
#    y 0.000000 1.856200 0.000000 
#    z 0.000000 0.000000 1.844010 
# 
# From -- ./inp_files/24472.got.cif
#   From: 2010.03.12/outbox.cif.g09.slc.cpg/sg20_13_cif.got.tgz:24472.got - 2010.04.14 01:38:04.
