data_PCOD8160805
_publ_section_title
;
Structure prediction by ZEFSAII (Michael W. Deem and Ramdas Pophale) SiO2 
 PCOD8160805
Probable space group: C 2 2 2
;
_chemical_formula_sum "Si O2"
_cell_formula_units_Z 48
_cell_length_a 30.067743
_cell_length_b 17.488001
_cell_length_c 4.937456
_cell_angle_alpha 90.000000
_cell_angle_beta 90.000000
_cell_angle_gamma 90.000000
_cell_volume 2596.236417
_symmetry_space_group_name_H-M "C 2 2 2"
_symmetry_group_IT_number 21
_symmetry_cell_setting 'orthorhombic'
loop_
_space_group_symop_operation_xyz
x,y,z
-x,-y,z
x,-y,-z
-x,y,-z
1/2+x,1/2+y,z
1/2-x,1/2-y,z
1/2+x,1/2-y,-z
1/2-x,1/2+y,-z
loop_
_atom_site_type_symbol
_atom_site_label
_atom_site_fract_x
_atom_site_fract_y
_atom_site_fract_z
Si Si1 0.268878 0.333394 0.939531
Si Si2 0.140785 0.767501 0.968316
Si Si3 0.140946 0.338281 0.531023
Si Si4 0.731114 0.913245 0.438669
Si Si5 0.454366 0.735306 0.073984
Si Si6 0.545700 0.162976 0.573493
O O1 0.250000 0.250000 0.007369
O O2 0.322097 0.331997 0.981086
O O3 0.245873 0.395231 0.133660
O O4 0.258370 0.356379 0.632702
O O5 0.145321 0.734720 0.666492
O O6 0.092255 0.807916 0.011933
O O7 0.146808 0.694769 0.167600
O O8 0.178355 0.401220 0.474075
O O9 0.092463 0.379578 0.492649
O O10 0.743499 0.000000 0.500000
O O11 0.454885 0.812096 0.886394
O O12 0.500000 0.688136 0.000000
O O13 0.455300 0.760276 0.386482
O O14 0.500000 0.115703 0.500000
#
# Coordination Sequence:
#
# PCOD8160805 Si02
#       6
#     8   8   8   8   8   8
#     4  12  21  36  55  74  99 130 173 211 243 294
#     4  10  18  28  50  72  92 124 165 200 238 287
#     4  10  17  30  46  68  94 127 163 201 240 285
#     4  12  24  36  50  73 104 135 166 208 254 295
#     4   8  14  24  38  64  96 118 142 191 247 284
#     4   8  14  23  39  61  88 120 155 193 237 277
#
# _framework density 18.488301
#
# number of rings (size 3 to 8) (size 9 to 14) (size 15 to 20)
#    0.000    2.000    3.333    2.000    0.000    0.000 
#    0.000    0.000    0.000    0.500    0.000    0.000 
#    0.000   20.000    0.000    0.000    0.000    2.333 
#
# Total GULP energy -297394.538281 kJ/mol
# GULP energy per Si atom -12391.439095 kJ/mol
# Density = 1.844622 g / cm^3
# Si number density = 18.488301 Si / 1000 Ang^3
#
#
#
# Elastic Constant Matrix: (Units=GPa)
#
#
# Indices 1 2 3 4 5 6 
#
# 1 159.5343 21.2026 2.7383 0.0000 0.0000 0.0000
# 2 21.2026 37.7535 1.6078 0.0000 0.0000 0.0000
# 3 2.7383 1.6078 66.0697 0.0000 0.0000 0.0000
# 4 0.0000 0.0000 0.0000 14.8345 0.0000 0.0000
# 5 0.0000 0.0000 0.0000 0.0000 28.8431 0.0000
# 6 0.0000 0.0000 0.0000 0.0000 0.0000 9.6608
#
#
#
# Elastic Compliance Matrix: (Units=1/GPa)
#
#
# Indices 1 2 3 4 5 6 
#
# 1 0.006776 -0.003798 -0.000188 0.000000 0.000000 0.000000
# 2 -0.003798 0.028643 -0.000540 0.000000 0.000000 0.000000
# 3 -0.000188 -0.000540 0.015156 0.000000 0.000000 0.000000
# 4 0.000000 0.000000 0.000000 0.067410 0.000000 0.000000
# 5 0.000000 0.000000 0.000000 0.000000 0.034670 0.000000
# 6 0.000000 0.000000 0.000000 0.000000 0.000000 0.103511
#
#
# Mechanical properties :
#
#
# Convention : Reuss Voigt Hill
#
# Bulk Modulus (GPa) = 24.08203 34.93943 29.51073
# Shear Modulus (GPa) = 17.91725 26.52161 22.21943
#
# Velocity S-wave (km/s) = 3.11644 3.79160 3.47047
# Velocity P-wave (km/s) = 5.09935 6.17312 5.66175
#
# Compressibility (1/GPa) = 0.04152474
#
# Stress axis : x y z
#
# Youngs Moduli (GPa) = 147.57571 34.91222 65.97844
#
# Poissons Ratio (x) = 0.13258 0.01243
# Poissons Ratio (y) = 0.56042 0.03560
# Poissons Ratio (z) = 0.02781 0.01884
#
# Static dielectric constant tensor:
#      x y z
#    x 4.223850 0.000000 0.000000 
#    y 0.000000 2.521720 0.000000 
#    z 0.000000 0.000000 3.529160 
# 
# 
# High freq. dielectric constant tensor:
#      x y z
#    x 1.755260 0.000000 0.000000 
#    y 0.000000 1.603340 0.000000 
#    z 0.000000 0.000000 1.744900 
# 
# From -- ./inp_files/7991.got.cif
#   From: 2010.03.12/outbox.cif.g09.slc.cpg/sg21_4_cif.got.tgz:7991.got - 2010.04.14 01:59:26.
