data_PCOD8160598
_publ_section_title
;
Structure prediction by ZEFSAII (Michael W. Deem and Ramdas Pophale) SiO2 
 PCOD8160598
Probable space group: C 2 2 21
;
_chemical_formula_sum "Si O2"
_cell_formula_units_Z 36
_cell_length_a 21.320106
_cell_length_b 12.450795
_cell_length_c 6.045707
_cell_angle_alpha 90.000000
_cell_angle_beta 90.000000
_cell_angle_gamma 90.000000
_cell_volume 1604.846642
_symmetry_space_group_name_H-M "C 2 2 21"
_symmetry_group_IT_number 20
_symmetry_cell_setting 'orthorhombic'
loop_
_space_group_symop_operation_xyz
x,y,z
-x,-y,1/2+z
x,-y,-z
-x,y,1/2-z
1/2+x,1/2+y,z
1/2-x,1/2-y,1/2+z
1/2+x,1/2-y,-z
1/2-x,1/2+y,1/2-z
loop_
_atom_site_type_symbol
_atom_site_label
_atom_site_fract_x
_atom_site_fract_y
_atom_site_fract_z
Si Si1 0.833872 0.701763 0.833804
Si Si2 0.944966 0.380847 0.418671
Si Si3 0.000000 0.049118 0.750000
Si Si4 0.097629 0.221424 0.736820
Si Si5 0.705537 0.374828 0.994127
O O1 0.872439 0.627694 0.662629
O O2 0.807483 0.816375 0.741774
O O3 0.888945 0.721399 0.007637
O O4 0.777932 0.632402 0.935972
O O5 0.958507 0.500000 0.500000
O O6 0.948388 0.296381 0.618835
O O7 0.000000 0.347236 0.250000
O O8 0.937134 0.111349 0.805473
O O9 0.987015 0.000000 0.500000
O O10 0.165488 0.194377 0.835524
O O11 0.685969 0.500000 0.000000
#
# Coordination Sequence:
#
# PCOD8160598 Si02
#       5
#     8   8   4   8   8
#     4  11  25  46  70 107 146 190 245 305 371 448
#     4  11  28  45  73 106 144 194 244 305 377 446
#     4  12  30  48  78 110 146 204 256 312 382 442
#     4  11  26  48  71 103 149 192 242 313 363 457
#     4  11  25  43  72 104 145 192 245 302 371 443
#
# _framework density 22.432048000000002
#
# number of rings (size 3 to 8) (size 9 to 14) (size 15 to 20)
#    0.000    0.889    2.222    2.000   18.667    0.000 
#    0.000    0.000    0.000    0.000    0.000    0.000 
#    0.000    0.000    0.000    0.000    0.000    0.000 
#
# Total GULP energy -223009.216735 kJ/mol
# GULP energy per Si atom -12389.400930 kJ/mol
# Density = 2.238099 g / cm^3
# Si number density = 22.432048 Si / 1000 Ang^3
#
#
#
# Elastic Constant Matrix: (Units=GPa)
#
#
# Indices 1 2 3 4 5 6 
#
# 1 109.3547 20.7430 23.0503 0.0000 0.0000 0.0000
# 2 20.7430 99.0037 25.8460 0.0000 0.0000 0.0000
# 3 23.0503 25.8460 88.8331 0.0000 0.0000 0.0000
# 4 0.0000 0.0000 0.0000 32.0276 0.0000 0.0000
# 5 0.0000 0.0000 0.0000 0.0000 42.7912 0.0000
# 6 0.0000 0.0000 0.0000 0.0000 0.0000 39.5758
#
#
#
# Elastic Compliance Matrix: (Units=1/GPa)
#
#
# Indices 1 2 3 4 5 6 
#
# 1 0.009879 -0.001516 -0.002122 0.000000 0.000000 0.000000
# 2 -0.001516 0.011163 -0.002855 0.000000 0.000000 0.000000
# 3 -0.002122 -0.002855 0.012638 0.000000 0.000000 0.000000
# 4 0.000000 0.000000 0.000000 0.031223 0.000000 0.000000
# 5 0.000000 0.000000 0.000000 0.000000 0.023369 0.000000
# 6 0.000000 0.000000 0.000000 0.000000 0.000000 0.025268
#
#
# Mechanical properties :
#
#
# Convention : Reuss Voigt Hill
#
# Bulk Modulus (GPa) = 48.32006 48.49665 48.40836
# Shear Modulus (GPa) = 37.47395 38.04908 37.76152
#
# Velocity S-wave (km/s) = 4.09168 4.12295 4.10734
# Velocity P-wave (km/s) = 6.62645 6.65818 6.64233
#
# Compressibility (1/GPa) = 0.02069534
#
# Stress axis : x y z
#
# Youngs Moduli (GPa) = 101.22004 89.57787 79.12412
#
# Poissons Ratio (x) = 0.13578 0.16794
# Poissons Ratio (y) = 0.15343 0.22587
# Poissons Ratio (z) = 0.21484 0.25572
#
# Static dielectric constant tensor:
#      x y z
#    x 3.970200 0.000000 0.000000 
#    y 0.000000 3.866740 0.000000 
#    z 0.000000 0.000000 4.352310 
# 
# 
# High freq. dielectric constant tensor:
#      x y z
#    x 1.908750 0.000000 0.000000 
#    y 0.000000 1.871460 0.000000 
#    z 0.000000 0.000000 1.893050 
# 
# From -- ./inp_files/1217.got.cif
#   From: 2010.03.12/outbox.cif.g09.slc.cpg/sg20_1_cif.got.tgz:1217.got - 2010.04.14 01:38:04.
