data_PCOD8160600
_publ_section_title
;
Structure prediction by ZEFSAII (Michael W. Deem and Ramdas Pophale) SiO2 
 PCOD8160600
Probable space group: C 2 2 21
;
_chemical_formula_sum "Si O2"
_cell_formula_units_Z 64
_cell_length_a 11.137746
_cell_length_b 13.789901
_cell_length_c 18.511186
_cell_angle_alpha 90.000000
_cell_angle_beta 90.000000
_cell_angle_gamma 90.000000
_cell_volume 2843.103712
_symmetry_space_group_name_H-M "C 2 2 21"
_symmetry_group_IT_number 20
_symmetry_cell_setting 'orthorhombic'
loop_
_space_group_symop_operation_xyz
x,y,z
-x,-y,1/2+z
x,-y,-z
-x,y,1/2-z
1/2+x,1/2+y,z
1/2-x,1/2-y,1/2+z
1/2+x,1/2-y,-z
1/2-x,1/2+y,1/2-z
loop_
_atom_site_type_symbol
_atom_site_label
_atom_site_fract_x
_atom_site_fract_y
_atom_site_fract_z
Si Si1 0.938886 0.461975 0.078260
Si Si2 0.180996 0.215912 0.201429
Si Si3 0.409972 0.756514 0.566334
Si Si4 0.431638 0.131983 0.175167
Si Si5 0.590758 0.500757 0.809323
Si Si6 0.825785 0.645088 0.575641
Si Si7 0.063393 0.074144 0.562187
Si Si8 0.276877 0.159861 0.835823
O O1 0.892712 0.527664 0.145053
O O2 0.869046 0.362827 0.098370
O O3 0.082119 0.445287 0.079213
O O4 0.895176 0.500000 0.000000
O O5 0.323053 0.203743 0.190719
O O6 0.117502 0.112000 0.205942
O O7 0.131466 0.275553 0.133601
O O8 0.155713 0.279309 0.273287
O O9 0.496466 0.832593 0.604770
O O10 0.334292 0.806770 0.503218
O O11 0.487833 0.667079 0.534953
O O12 0.324048 0.727388 0.630969
O O13 0.500000 0.119257 0.250000
O O14 0.500000 0.542112 0.750000
O O15 0.521054 0.514054 0.884100
O O16 0.712485 0.563273 0.804355
O O17 0.691960 0.607874 0.594122
O O18 0.096022 0.000000 0.500000
#
# Coordination Sequence:
#
# PCOD8160600 Si02
#       8
#     8   8   8   8   8   8   8   8
#     4  12  28  48  72 107 147 189 246 302 365 439
#     4  12  26  47  71 108 143 191 238 307 363 438
#     4  11  25  45  70 107 138 196 241 305 362 447
#     4  12  25  48  74 102 142 192 244 292 371 431
#     4  11  26  46  71 102 142 187 242 293 366 431
#     4  12  27  43  73 103 151 187 247 304 369 434
#     4  11  25  45  68  99 143 189 238 298 363 433
#     4  11  27  45  77 104 147 193 247 303 367 442
#
# _framework density 22.510611000000001
#
# number of rings (size 3 to 8) (size 9 to 14) (size 15 to 20)
#    0.000    0.500    5.000    1.875    8.750    4.000 
#    0.000    0.000    0.000    0.000    0.000    0.000 
#    0.000    0.000    0.000    0.000    0.000    0.000 
#
# Total GULP energy -396803.672109 kJ/mol
# GULP energy per Si atom -12400.114753 kJ/mol
# Density = 2.245938 g / cm^3
# Si number density = 22.510611 Si / 1000 Ang^3
#
#
#
# Elastic Constant Matrix: (Units=GPa)
#
#
# Indices 1 2 3 4 5 6 
#
# 1 80.0619 26.7019 25.3038 0.0000 0.0000 0.0000
# 2 26.7019 101.2925 47.8093 0.0000 0.0000 0.0000
# 3 25.3038 47.8093 112.3518 0.0000 0.0000 0.0000
# 4 0.0000 0.0000 0.0000 43.6286 0.0000 0.0000
# 5 0.0000 0.0000 0.0000 0.0000 36.0821 0.0000
# 6 0.0000 0.0000 0.0000 0.0000 0.0000 29.4280
#
#
#
# Elastic Compliance Matrix: (Units=1/GPa)
#
#
# Indices 1 2 3 4 5 6 
#
# 1 0.014040 -0.002764 -0.001986 0.000000 0.000000 0.000000
# 2 -0.002764 0.012898 -0.004866 0.000000 0.000000 0.000000
# 3 -0.001986 -0.004866 0.011419 0.000000 0.000000 0.000000
# 4 0.000000 0.000000 0.000000 0.022921 0.000000 0.000000
# 5 0.000000 0.000000 0.000000 0.000000 0.027715 0.000000
# 6 0.000000 0.000000 0.000000 0.000000 0.000000 0.033981
#
#
# Mechanical properties :
#
#
# Convention : Reuss Voigt Hill
#
# Bulk Modulus (GPa) = 52.28840 54.81513 53.55176
# Shear Modulus (GPa) = 33.65224 34.75382 34.20303
#
# Velocity S-wave (km/s) = 3.87065 3.93349 3.90220
# Velocity P-wave (km/s) = 6.57683 6.71070 6.64410
#
# Compressibility (1/GPa) = 0.01912470
#
# Stress axis : x y z
#
# Youngs Moduli (GPa) = 71.22637 77.53371 87.57714
#
# Poissons Ratio (x) = 0.21428 0.17393
# Poissons Ratio (y) = 0.19685 0.42614
# Poissons Ratio (z) = 0.14145 0.37727
#
# Static dielectric constant tensor:
#      x y z
#    x 4.050900 0.000000 0.000000 
#    y 0.000000 4.154880 0.000000 
#    z 0.000000 0.000000 3.962780 
# 
# 
# High freq. dielectric constant tensor:
#      x y z
#    x 1.892730 0.000000 0.000000 
#    y 0.000000 1.898010 0.000000 
#    z 0.000000 0.000000 1.889960 
# 
# From -- ./inp_files/24456.got.cif
#   From: 2010.03.12/outbox.cif.g09.slc.cpg/sg20_13_cif.got.tgz:24456.got - 2010.04.14 01:38:04.
