data_PCOD8160940
_publ_section_title
;
Structure prediction by ZEFSAII (Michael W. Deem and Ramdas Pophale) SiO2 
 PCOD8160940
Probable space group: C 2 2 2
;
_chemical_formula_sum "Si O2"
_cell_formula_units_Z 48
_cell_length_a 5.092856
_cell_length_b 15.492471
_cell_length_c 28.341126
_cell_angle_alpha 90.000000
_cell_angle_beta 90.000000
_cell_angle_gamma 90.000000
_cell_volume 2236.141025
_symmetry_space_group_name_H-M "C 2 2 2"
_symmetry_group_IT_number 21
_symmetry_cell_setting 'orthorhombic'
loop_
_space_group_symop_operation_xyz
x,y,z
-x,-y,z
x,-y,-z
-x,y,-z
1/2+x,1/2+y,z
1/2-x,1/2-y,z
1/2+x,1/2-y,-z
1/2-x,1/2+y,-z
loop_
_atom_site_type_symbol
_atom_site_label
_atom_site_fract_x
_atom_site_fract_y
_atom_site_fract_z
Si Si1 0.498224 0.808669 0.305866
Si Si2 0.746401 0.352247 0.527522
Si Si3 0.001876 0.399205 0.107232
Si Si4 0.999296 0.896682 0.946594
Si Si5 0.264482 0.055969 0.377001
Si Si6 0.008881 0.306289 0.799539
O O1 0.250000 0.750000 0.325559
O O2 0.586266 0.893215 0.334756
O O3 0.428459 0.841982 0.253125
O O4 0.750000 0.750000 0.305037
O O5 0.500000 0.391129 0.500000
O O6 0.750000 0.250000 0.526442
O O7 0.698816 0.377774 0.581655
O O8 0.000000 0.389298 0.500000
O O9 0.250377 0.358272 0.080668
O O10 0.000000 0.500000 0.099102
O O11 0.747633 0.358883 0.082077
O O12 0.018988 0.383507 0.163331
O O13 0.000000 0.000000 0.946307
O O14 0.000000 0.861850 0.000000
O O15 0.500000 0.000000 0.398340
O O16 0.000000 0.000000 0.362317
O O17 0.250000 0.250000 0.817788
O O18 0.750000 0.250000 0.798539
#
# Coordination Sequence:
#
# PCOD8160940 Si02
#       6
#     8   8   8   8   8   8
#     4  10  22  42  64  84 114 160 204 236 283 362
#     4  10  22  40  62  86 117 163 209 241 281 353
#     4  10  19  32  54  81 106 138 181 231 280 327
#     4   9  17  30  50  77 107 140 181 225 271 330
#     4  12  25  39  61  94 126 154 191 252 315 349
#     4  10  21  38  59  81 109 148 188 230 283 343
#
# _framework density 21.465551999999999
#
# number of rings (size 3 to 8) (size 9 to 14) (size 15 to 20)
#    0.000    1.833    0.000    4.000    0.000    6.667 
#    0.000    2.500    0.000   10.000    0.000    0.000 
#    0.000    0.000    0.000    0.000    0.000    0.000 
#
# Total GULP energy -297407.492839 kJ/mol
# GULP energy per Si atom -12391.978868 kJ/mol
# Density = 2.141670 g / cm^3
# Si number density = 21.465552 Si / 1000 Ang^3
#
#
#
# Elastic Constant Matrix: (Units=GPa)
#
#
# Indices 1 2 3 4 5 6 
#
# 1 186.4137 32.0293 53.7995 0.0000 0.0000 0.0000
# 2 32.0293 29.0137 30.2138 0.0000 0.0000 0.0000
# 3 53.7995 30.2138 143.3296 0.0000 0.0000 0.0000
# 4 0.0000 0.0000 0.0000 42.7544 0.0000 0.0000
# 5 0.0000 0.0000 0.0000 0.0000 42.8249 0.0000
# 6 0.0000 0.0000 0.0000 0.0000 0.0000 18.9249
#
#
#
# Elastic Compliance Matrix: (Units=1/GPa)
#
#
# Indices 1 2 3 4 5 6 
#
# 1 0.006788 -0.006202 -0.001241 0.000000 0.000000 0.000000
# 2 -0.006202 0.049826 -0.008176 0.000000 0.000000 0.000000
# 3 -0.001241 -0.008176 0.009166 0.000000 0.000000 0.000000
# 4 0.000000 0.000000 0.000000 0.023389 0.000000 0.000000
# 5 0.000000 0.000000 0.000000 0.000000 0.023351 0.000000
# 6 0.000000 0.000000 0.000000 0.000000 0.000000 0.052841
#
#
# Mechanical properties :
#
#
# Convention : Reuss Voigt Hill
#
# Bulk Modulus (GPa) = 28.94789 65.64914 47.29851
# Shear Modulus (GPa) = 24.02554 37.08179 30.55367
#
# Velocity S-wave (km/s) = 3.34916 4.16083 3.77687
# Velocity P-wave (km/s) = 5.33581 7.33030 6.41109
#
# Compressibility (1/GPa) = 0.03454483
#
# Stress axis : x y z
#
# Youngs Moduli (GPa) = 147.31869 20.06967 109.09871
#
# Poissons Ratio (x) = 0.12446 0.13535
# Poissons Ratio (y) = 0.91361 0.89195
# Poissons Ratio (z) = 0.18277 0.16408
#
# Static dielectric constant tensor:
#      x y z
#    x 4.310090 0.000000 0.000000 
#    y 0.000000 3.243870 0.000000 
#    z 0.000000 0.000000 4.058910 
# 
# 
# High freq. dielectric constant tensor:
#      x y z
#    x 1.866670 0.000000 0.000000 
#    y 0.000000 1.812910 0.000000 
#    z 0.000000 0.000000 1.849680 
# 
# From -- ./inp_files/39059.got.cif
#   From: 2010.03.12/outbox.cif.g09.slc.cpg/sg21_20_cif.got.tgz:39059.got - 2010.04.14 01:59:26.
