data_PCOD8160100
_publ_section_title
;
Structure prediction by ZEFSAII (Michael W. Deem and Ramdas Pophale) SiO2 
 PCOD8160100
Probable space group: C 2 2 21
;
_chemical_formula_sum "Si O2"
_cell_formula_units_Z 64
_cell_length_a 16.564070
_cell_length_b 20.964796
_cell_length_c 9.405114
_cell_angle_alpha 90.000000
_cell_angle_beta 90.000000
_cell_angle_gamma 90.000000
_cell_volume 3266.041975
_symmetry_space_group_name_H-M "C 2 2 21"
_symmetry_group_IT_number 20
_symmetry_cell_setting 'orthorhombic'
loop_
_space_group_symop_operation_xyz
x,y,z
-x,-y,1/2+z
x,-y,-z
-x,y,1/2-z
1/2+x,1/2+y,z
1/2-x,1/2-y,1/2+z
1/2+x,1/2-y,-z
1/2-x,1/2+y,1/2-z
loop_
_atom_site_type_symbol
_atom_site_label
_atom_site_fract_x
_atom_site_fract_y
_atom_site_fract_z
Si Si1 0.090898 0.735990 0.708887
Si Si2 0.238873 0.571620 0.057990
Si Si3 0.907629 0.398032 0.099724
Si Si4 0.341472 0.682769 0.991655
Si Si5 0.808040 0.229408 0.472470
Si Si6 0.301450 0.125256 0.146585
Si Si7 0.415916 0.934274 0.414681
Si Si8 0.405043 0.243642 0.259050
O O1 0.120547 0.674557 0.621092
O O2 0.094025 0.799755 0.614075
O O3 0.152407 0.738606 0.836779
O O4 0.000000 0.722578 0.750000
O O5 0.230018 0.577799 0.228978
O O6 0.247870 0.500000 0.000000
O O7 0.317851 0.608795 0.003308
O O8 0.159292 0.603443 0.984351
O O9 0.899331 0.441015 0.243664
O O10 0.001641 0.397064 0.054307
O O11 0.851015 0.419367 0.967058
O O12 0.263717 0.726005 0.028346
O O13 0.380853 0.697436 0.841441
O O14 0.774922 0.158844 0.431249
O O15 0.878454 0.228529 0.589373
O O16 0.359247 0.179222 0.214206
O O17 0.422027 0.000000 0.500000
O O18 0.500000 0.230097 0.250000
#
# Coordination Sequence:
#
# PCOD8160100 Si02
#       8
#     8   8   8   8   8   8   8   8
#     4  12  21  35  60  96 125 163 202 266 327 380
#     4  11  24  43  63  86 121 172 218 259 309 377
#     4  11  23  38  62  90 127 167 218 255 314 366
#     4  11  21  38  60  89 125 164 207 262 324 375
#     4  11  21  36  58  91 135 158 206 259 321 380
#     4  11  24  37  60  94 127 170 212 267 312 377
#     4  10  24  41  61  87 125 178 219 258 300 373
#     4  11  23  35  60  98 130 161 201 262 332 384
#
# _framework density 19.595583000000001
#
# number of rings (size 3 to 8) (size 9 to 14) (size 15 to 20)
#    0.000    1.000    6.250    2.250    3.500    4.000 
#    0.000    0.000    0.000    0.750    0.000    0.000 
#    0.000    0.000    0.000    0.000    0.000    0.000 
#
# Total GULP energy -396625.318835 kJ/mol
# GULP energy per Si atom -12394.541214 kJ/mol
# Density = 1.955098 g / cm^3
# Si number density = 19.595583 Si / 1000 Ang^3
#
#
#
# Elastic Constant Matrix: (Units=GPa)
#
#
# Indices 1 2 3 4 5 6 
#
# 1 42.5217 27.2273 18.7698 0.0000 0.0000 0.0000
# 2 27.2273 81.1790 54.4689 0.0000 0.0000 0.0000
# 3 18.7698 54.4689 109.3771 0.0000 0.0000 0.0000
# 4 0.0000 0.0000 0.0000 15.1746 0.0000 0.0000
# 5 0.0000 0.0000 0.0000 0.0000 36.5754 0.0000
# 6 0.0000 0.0000 0.0000 0.0000 0.0000 24.7792
#
#
#
# Elastic Compliance Matrix: (Units=1/GPa)
#
#
# Indices 1 2 3 4 5 6 
#
# 1 0.029952 -0.009908 -0.000206 0.000000 0.000000 0.000000
# 2 -0.009908 0.021777 -0.009145 0.000000 0.000000 0.000000
# 3 -0.000206 -0.009145 0.013732 0.000000 0.000000 0.000000
# 4 0.000000 0.000000 0.000000 0.065900 0.000000 0.000000
# 5 0.000000 0.000000 0.000000 0.000000 0.027341 0.000000
# 6 0.000000 0.000000 0.000000 0.000000 0.000000 0.040356
#
#
# Mechanical properties :
#
#
# Convention : Reuss Voigt Hill
#
# Bulk Modulus (GPa) = 37.11291 48.22330 42.66811
# Shear Modulus (GPa) = 20.27929 24.14665 22.21297
#
# Velocity S-wave (km/s) = 3.22046 3.51415 3.37051
# Velocity P-wave (km/s) = 5.72792 6.41314 6.08019
#
# Compressibility (1/GPa) = 0.02694480
#
# Stress axis : x y z
#
# Youngs Moduli (GPa) = 33.38632 45.91930 72.82244
#
# Poissons Ratio (x) = 0.45496 0.01501
# Poissons Ratio (y) = 0.33078 0.66594
# Poissons Ratio (z) = 0.00688 0.41992
#
# Static dielectric constant tensor:
#      x y z
#    x 5.954660 0.000000 0.000000 
#    y 0.000000 3.248020 0.000000 
#    z 0.000000 0.000000 3.851700 
# 
# 
# High freq. dielectric constant tensor:
#      x y z
#    x 1.753150 0.000000 0.000000 
#    y 0.000000 1.726180 0.000000 
#    z 0.000000 0.000000 1.786550 
# 
# From -- ./inp_files/9633.got.cif
#   From: 2010.03.12/outbox.cif.g09.slc.cpg/sg20_5_cif.got.tgz:9633.got - 2010.04.14 01:38:04.
