data_PCOD8160623
_publ_section_title
;
Structure prediction by ZEFSAII (Michael W. Deem and Ramdas Pophale) SiO2 
 PCOD8160623
Probable space group: C 2 2 21
;
_chemical_formula_sum "Si O2"
_cell_formula_units_Z 48
_cell_length_a 8.567843
_cell_length_b 19.885263
_cell_length_c 13.700405
_cell_angle_alpha 90.000000
_cell_angle_beta 90.000000
_cell_angle_gamma 90.000000
_cell_volume 2334.190218
_symmetry_space_group_name_H-M "C 2 2 21"
_symmetry_group_IT_number 20
_symmetry_cell_setting 'orthorhombic'
loop_
_space_group_symop_operation_xyz
x,y,z
-x,-y,1/2+z
x,-y,-z
-x,y,1/2-z
1/2+x,1/2+y,z
1/2-x,1/2-y,1/2+z
1/2+x,1/2-y,-z
1/2-x,1/2+y,1/2-z
loop_
_atom_site_type_symbol
_atom_site_label
_atom_site_fract_x
_atom_site_fract_y
_atom_site_fract_z
Si Si1 0.811201 0.150481 0.991949
Si Si2 0.833725 0.068567 0.793393
Si Si3 0.158928 0.317309 0.294756
Si Si4 0.340400 0.803317 0.796136
Si Si5 0.666006 0.419032 0.696708
Si Si6 0.464829 0.215462 0.001410
O O1 0.845772 0.104771 0.085104
O O2 0.642188 0.188374 0.997234
O O3 0.820093 0.103587 0.897956
O O4 0.953627 0.203871 0.983043
O O5 0.763835 0.116625 0.710638
O O6 0.000000 0.053129 0.750000
O O7 0.760556 0.993993 0.801841
O O8 0.215129 0.254707 0.227869
O O9 0.138780 0.297979 0.406381
O O10 0.000000 0.342716 0.250000
O O11 0.500000 0.776077 0.750000
O O12 0.291757 0.873747 0.751268
O O13 0.367707 0.817420 0.910133
O O14 0.500000 0.411117 0.750000
#
# Coordination Sequence:
#
# PCOD8160623 Si02
#       6
#     8   8   8   8   8   8
#     4  12  25  44  69 101 136 176 227 284 347 408
#     4  11  26  46  68  96 138 186 229 280 344 411
#     4  12  23  42  68 101 136 176 226 287 338 401
#     4  12  23  42  68 101 136 176 226 287 338 401
#     4  11  26  46  68  96 138 186 229 280 344 411
#     4  12  24  40  69 107 133 174 227 282 346 400
#
# _framework density 20.563877000000002
#
# number of rings (size 3 to 8) (size 9 to 14) (size 15 to 20)
#    0.000    0.333    6.667    1.500    4.667    0.667 
#    0.000    2.500    0.000    0.000    0.000    0.000 
#    0.000    0.000    0.000    0.000    0.000    0.000 
#
# Total GULP energy -297513.145831 kJ/mol
# GULP energy per Si atom -12396.381076 kJ/mol
# Density = 2.051707 g / cm^3
# Si number density = 20.563877 Si / 1000 Ang^3
#
#
#
# Elastic Constant Matrix: (Units=GPa)
#
#
# Indices 1 2 3 4 5 6 
#
# 1 55.1783 29.9106 26.0290 0.0000 0.0000 0.0000
# 2 29.9106 148.5257 23.8036 0.0000 0.0000 0.0000
# 3 26.0290 23.8036 111.4853 0.0000 0.0000 0.0000
# 4 0.0000 0.0000 0.0000 295.4158 0.0000 0.0000
# 5 0.0000 0.0000 0.0000 0.0000 33.2027 0.0000
# 6 0.0000 0.0000 0.0000 0.0000 0.0000 30.5444
#
#
#
# Elastic Compliance Matrix: (Units=1/GPa)
#
#
# Indices 1 2 3 4 5 6 
#
# 1 0.022239 -0.003776 -0.004386 0.000000 0.000000 0.000000
# 2 -0.003776 0.007612 -0.000744 0.000000 0.000000 0.000000
# 3 -0.004386 -0.000744 0.010153 0.000000 0.000000 0.000000
# 4 0.000000 0.000000 0.000000 0.003385 0.000000 0.000000
# 5 0.000000 0.000000 0.000000 0.000000 0.030118 0.000000
# 6 0.000000 0.000000 0.000000 0.000000 0.000000 0.032739
#
#
# Mechanical properties :
#
#
# Convention : Reuss Voigt Hill
#
# Bulk Modulus (GPa) = 45.05965 52.74176 48.90071
# Shear Modulus (GPa) = 38.03598 87.52899 62.78248
#
# Velocity S-wave (km/s) = 4.30542 6.53122 5.53143
# Velocity P-wave (km/s) = 6.83192 9.08731 8.03910
#
# Compressibility (1/GPa) = 0.02219280
#
# Stress axis : x y z
#
# Youngs Moduli (GPa) = 44.96668 131.36473 98.49648
#
# Poissons Ratio (x) = 0.49598 0.43201
# Poissons Ratio (y) = 0.16977 0.07327
# Poissons Ratio (z) = 0.19723 0.09772
#
# Static dielectric constant tensor:
#      x y z
#    x 4.039410 0.000000 0.000000 
#    y 0.000000 3.877510 0.000000 
#    z 0.000000 0.000000 3.948560 
# 
# 
# High freq. dielectric constant tensor:
#      x y z
#    x 1.804060 0.000000 0.000000 
#    y 0.000000 1.805920 0.000000 
#    z 0.000000 0.000000 1.826170 
# 
# From -- ./inp_files/18852.got.cif
#   From: 2010.03.12/outbox.cif.g09.slc.cpg/sg20_10_cif.got.tgz:18852.got - 2010.04.14 01:38:04.
