data_PCOD8160465
_publ_section_title
;
Structure prediction by ZEFSAII (Michael W. Deem and Ramdas Pophale) SiO2 
 PCOD8160465
Probable space group: C 2 2 21
;
_chemical_formula_sum "Si O2"
_cell_formula_units_Z 32
_cell_length_a 4.955717
_cell_length_b 17.185813
_cell_length_c 17.012885
_cell_angle_alpha 90.000000
_cell_angle_beta 90.000000
_cell_angle_gamma 90.000000
_cell_volume 1448.953826
_symmetry_space_group_name_H-M "C 2 2 21"
_symmetry_group_IT_number 20
_symmetry_cell_setting 'orthorhombic'
loop_
_space_group_symop_operation_xyz
x,y,z
-x,-y,1/2+z
x,-y,-z
-x,y,1/2-z
1/2+x,1/2+y,z
1/2-x,1/2-y,1/2+z
1/2+x,1/2-y,-z
1/2-x,1/2+y,1/2-z
loop_
_atom_site_type_symbol
_atom_site_label
_atom_site_fract_x
_atom_site_fract_y
_atom_site_fract_z
Si Si1 0.898053 0.492305 0.335286
Si Si2 0.760401 0.681158 0.697295
Si Si3 0.593909 0.452301 0.924649
Si Si4 0.217716 0.775908 0.954575
O O1 0.855831 0.400016 0.339681
O O2 0.619831 0.536367 0.354302
O O3 0.000000 0.519790 0.250000
O O4 0.116800 0.515070 0.400018
O O5 0.500000 0.665892 0.750000
O O6 0.689636 0.741787 0.629111
O O7 0.000000 0.716962 0.750000
O O8 0.608803 0.362461 0.946347
O O9 0.489568 0.500000 0.000000
O O10 0.476655 0.776526 0.011055
#
# Coordination Sequence:
#
# PCOD8160465 Si02
#       4
#     8   8   8   8
#     4  11  23  42  65  93 126 165 209 260 317 376
#     4  11  23  42  65  92 127 169 209 258 319 382
#     4  12  24  41  66  95 127 167 213 264 314 375
#     4  12  25  43  65  94 130 169 212 262 315 377
#
# _framework density 22.084900000000001
#
# number of rings (size 3 to 8) (size 9 to 14) (size 15 to 20)
#    0.000    0.500    0.000   10.500    0.000    3.000 
#    0.000    0.000    0.000    0.000    0.000    0.000 
#    0.000    0.000    0.000    0.000    0.000    0.000 
#
# Total GULP energy -198563.140972 kJ/mol
# GULP energy per Si atom -12410.196311 kJ/mol
# Density = 2.203463 g / cm^3
# Si number density = 22.084900 Si / 1000 Ang^3
#
#
#
# Elastic Constant Matrix: (Units=GPa)
#
#
# Indices 1 2 3 4 5 6 
#
# 1 99.1196 15.3043 12.8118 0.0000 0.0000 0.0000
# 2 15.3043 96.5535 48.3485 0.0000 0.0000 0.0000
# 3 12.8118 48.3485 86.6080 0.0000 0.0000 0.0000
# 4 0.0000 0.0000 0.0000 17.3971 0.0000 0.0000
# 5 0.0000 0.0000 0.0000 0.0000 58.2655 0.0000
# 6 0.0000 0.0000 0.0000 0.0000 0.0000 15.9853
#
#
#
# Elastic Compliance Matrix: (Units=1/GPa)
#
#
# Indices 1 2 3 4 5 6 
#
# 1 0.010388 -0.001217 -0.000857 0.000000 0.000000 0.000000
# 2 -0.001217 0.014518 -0.007925 0.000000 0.000000 0.000000
# 3 -0.000857 -0.007925 0.016097 0.000000 0.000000 0.000000
# 4 0.000000 0.000000 0.000000 0.057481 0.000000 0.000000
# 5 0.000000 0.000000 0.000000 0.000000 0.017163 0.000000
# 6 0.000000 0.000000 0.000000 0.000000 0.000000 0.062558
#
#
# Mechanical properties :
#
#
# Convention : Reuss Voigt Hill
#
# Bulk Modulus (GPa) = 47.60849 48.35670 47.98259
# Shear Modulus (GPa) = 24.36607 32.05066 28.20837
#
# Velocity S-wave (km/s) = 3.32519 3.81366 3.57777
# Velocity P-wave (km/s) = 6.02879 6.42926 6.23224
#
# Compressibility (1/GPa) = 0.02100466
#
# Stress axis : x y z
#
# Youngs Moduli (GPa) = 96.26896 68.87961 62.12373
#
# Poissons Ratio (x) = 0.08385 0.05324
# Poissons Ratio (y) = 0.11719 0.49230
# Poissons Ratio (z) = 0.08251 0.54584
#
# Static dielectric constant tensor:
#      x y z
#    x 4.134090 0.000000 0.000000 
#    y 0.000000 3.783360 0.000000 
#    z 0.000000 0.000000 4.152200 
# 
# 
# High freq. dielectric constant tensor:
#      x y z
#    x 1.888020 0.000000 0.000000 
#    y 0.000000 1.863430 0.000000 
#    z 0.000000 0.000000 1.880870 
# 
# From -- ./inp_files/17437.got.cif
#   From: 2010.03.12/outbox.cif.g09.slc.cpg/sg20_9_cif.got.tgz:17437.got - 2010.04.14 01:38:04.
