data_PCOD8160450
_publ_section_title
;
Structure prediction by ZEFSAII (Michael W. Deem and Ramdas Pophale) SiO2 
 PCOD8160450
Probable space group: C 2 2 21
;
_chemical_formula_sum "Si O2"
_cell_formula_units_Z 36
_cell_length_a 13.015352
_cell_length_b 23.705154
_cell_length_c 5.321122
_cell_angle_alpha 90.000000
_cell_angle_beta 90.000000
_cell_angle_gamma 90.000000
_cell_volume 1641.730685
_symmetry_space_group_name_H-M "C 2 2 21"
_symmetry_group_IT_number 20
_symmetry_cell_setting 'orthorhombic'
loop_
_space_group_symop_operation_xyz
x,y,z
-x,-y,1/2+z
x,-y,-z
-x,y,1/2-z
1/2+x,1/2+y,z
1/2-x,1/2-y,1/2+z
1/2+x,1/2-y,-z
1/2-x,1/2+y,1/2-z
loop_
_atom_site_type_symbol
_atom_site_label
_atom_site_fract_x
_atom_site_fract_y
_atom_site_fract_z
Si Si1 0.894711 0.782560 0.379408
Si Si2 0.899104 0.056018 0.884225
Si Si3 0.885465 0.349508 0.689064
Si Si4 0.266271 0.867362 0.203289
Si Si5 0.500000 0.644869 0.250000
O O1 0.884390 0.716008 0.384485
O O2 0.793150 0.808048 0.247401
O O3 0.909790 0.813451 0.647142
O O4 0.000000 0.802070 0.250000
O O5 0.817034 0.082203 0.688727
O O6 0.000000 0.032270 0.750000
O O7 0.933332 0.105715 0.068528
O O8 0.846912 0.000000 0.000000
O O9 0.842170 0.379872 0.438661
O O10 0.000000 0.370385 0.750000
O O11 0.822110 0.364734 0.936507
#
# Coordination Sequence:
#
# PCOD8160450 Si02
#       5
#     8   8   8   8   4
#     4  11  23  36  64  98 141 182 221 279 357 443
#     4  12  25  41  70 104 145 190 231 299 373 450
#     4  11  27  42  65  94 137 187 241 293 345 413
#     4  12  23  44  65  98 135 184 241 288 351 425
#     4  12  20  40  64 100 154 182 226 278 360 446
#
# _framework density 21.928080999999999
#
# number of rings (size 3 to 8) (size 9 to 14) (size 15 to 20)
#    0.000    0.444    5.556    3.333    6.222    0.000 
#    0.000    0.000    0.000    2.667    0.000    0.000 
#    0.000    0.000    0.000    0.000    0.000    0.000 
#
# Total GULP energy -223092.555520 kJ/mol
# GULP energy per Si atom -12394.030862 kJ/mol
# Density = 2.187817 g / cm^3
# Si number density = 21.928081 Si / 1000 Ang^3
#
#
#
# Elastic Constant Matrix: (Units=GPa)
#
#
# Indices 1 2 3 4 5 6 
#
# 1 117.2494 29.6159 42.5057 0.0000 0.0000 0.0000
# 2 29.6159 90.6259 35.8133 0.0000 0.0000 0.0000
# 3 42.5057 35.8133 124.9951 0.0000 0.0000 0.0000
# 4 0.0000 0.0000 0.0000 29.2053 0.0000 0.0000
# 5 0.0000 0.0000 0.0000 0.0000 49.1524 0.0000
# 6 0.0000 0.0000 0.0000 0.0000 0.0000 4.2072
#
#
#
# Elastic Compliance Matrix: (Units=1/GPa)
#
#
# Indices 1 2 3 4 5 6 
#
# 1 0.010100 -0.002191 -0.002807 0.000000 0.000000 0.000000
# 2 -0.002191 0.012919 -0.002956 0.000000 0.000000 0.000000
# 3 -0.002807 -0.002956 0.009802 0.000000 0.000000 0.000000
# 4 0.000000 0.000000 0.000000 0.034240 0.000000 0.000000
# 5 0.000000 0.000000 0.000000 0.000000 0.020345 0.000000
# 6 0.000000 0.000000 0.000000 0.000000 0.000000 0.237688
#
#
# Mechanical properties :
#
#
# Convention : Reuss Voigt Hill
#
# Bulk Modulus (GPa) = 59.13063 60.97113 60.05088
# Shear Modulus (GPa) = 14.42421 31.50867 22.96644
#
# Velocity S-wave (km/s) = 2.56754 3.79477 3.23979
# Velocity P-wave (km/s) = 5.98447 6.86045 6.43738
#
# Compressibility (1/GPa) = 0.01691171
#
# Stress axis : x y z
#
# Youngs Moduli (GPa) = 99.01156 77.40681 102.02256
#
# Poissons Ratio (x) = 0.16963 0.28634
# Poissons Ratio (y) = 0.21698 0.30160
# Poissons Ratio (z) = 0.27789 0.22883
#
# Static dielectric constant tensor:
#      x y z
#    x 4.312310 0.000000 0.000000 
#    y 0.000000 3.645210 0.000000 
#    z 0.000000 0.000000 4.179630 
# 
# 
# High freq. dielectric constant tensor:
#      x y z
#    x 1.866840 0.000000 0.000000 
#    y 0.000000 1.839200 0.000000 
#    z 0.000000 0.000000 1.868040 
# 
# From -- ./inp_files/1197.got.cif
#   From: 2010.03.12/outbox.cif.g09.slc.cpg/sg20_1_cif.got.tgz:1197.got - 2010.04.14 01:38:04.
