data_PCOD8160049
_publ_section_title
;
Structure prediction by ZEFSAII (Michael W. Deem and Ramdas Pophale) SiO2 
 PCOD8160049
Probable space group: C 2 2 21
;
_chemical_formula_sum "Si O2"
_cell_formula_units_Z 36
_cell_length_a 7.921727
_cell_length_b 22.710602
_cell_length_c 8.794797
_cell_angle_alpha 90.000000
_cell_angle_beta 90.000000
_cell_angle_gamma 90.000000
_cell_volume 1582.247207
_symmetry_space_group_name_H-M "C 2 2 21"
_symmetry_group_IT_number 20
_symmetry_cell_setting 'orthorhombic'
loop_
_space_group_symop_operation_xyz
x,y,z
-x,-y,1/2+z
x,-y,-z
-x,y,1/2-z
1/2+x,1/2+y,z
1/2-x,1/2-y,1/2+z
1/2+x,1/2-y,-z
1/2-x,1/2+y,1/2-z
loop_
_atom_site_type_symbol
_atom_site_label
_atom_site_fract_x
_atom_site_fract_y
_atom_site_fract_z
Si Si1 0.329568 0.925567 0.168800
Si Si2 0.821044 0.555969 0.183950
Si Si3 0.564236 0.273338 0.498650
Si Si4 0.000000 0.867215 0.750000
Si Si5 0.733882 0.699527 0.793365
O O1 0.500000 0.904496 0.250000
O O2 0.201811 0.871091 0.197184
O O3 0.273491 0.988924 0.236411
O O4 0.351733 0.936431 0.992602
O O5 0.668521 0.594759 0.242539
O O6 0.000000 0.576630 0.250000
O O7 0.523760 0.330702 0.597049
O O8 0.409216 0.263958 0.384288
O O9 0.727502 0.281260 0.384422
O O10 0.594926 0.219249 0.617275
#
# Coordination Sequence:
#
# PCOD8160049 Si02
#       5
#     8   8   8   4   8
#     4  10  23  45  71  99 142 183 237 291 353 429
#     4  10  24  46  71 107 139 189 235 291 360 424
#     4  11  26  44  68 101 140 182 241 285 364 414
#     4  12  24  46  72 108 146 180 238 304 348 440
#     4  11  25  45  67 101 139 189 232 296 347 431
#
# _framework density 22.752448999999999
#
# number of rings (size 3 to 8) (size 9 to 14) (size 15 to 20)
#    0.000    1.333    2.222    1.333    7.778    1.778 
#    0.000    0.000    0.000    0.000    0.000    0.000 
#    0.000    0.000    0.000    0.000    0.000    0.000 
#
# Total GULP energy -223026.780675 kJ/mol
# GULP energy per Si atom -12390.376704 kJ/mol
# Density = 2.270066 g / cm^3
# Si number density = 22.752449 Si / 1000 Ang^3
#
#
#
# Elastic Constant Matrix: (Units=GPa)
#
#
# Indices 1 2 3 4 5 6 
#
# 1 72.8213 31.4773 14.5899 0.0000 0.0000 0.0000
# 2 31.4773 122.1073 36.4535 0.0000 0.0000 0.0000
# 3 14.5899 36.4535 103.4263 0.0000 0.0000 0.0000
# 4 0.0000 0.0000 0.0000 42.0880 0.0000 0.0000
# 5 0.0000 0.0000 0.0000 0.0000 41.2256 0.0000
# 6 0.0000 0.0000 0.0000 0.0000 0.0000 42.8072
#
#
#
# Elastic Compliance Matrix: (Units=1/GPa)
#
#
# Indices 1 2 3 4 5 6 
#
# 1 0.015524 -0.003742 -0.000871 0.000000 0.000000 0.000000
# 2 -0.003742 0.010054 -0.003016 0.000000 0.000000 0.000000
# 3 -0.000871 -0.003016 0.010855 0.000000 0.000000 0.000000
# 4 0.000000 0.000000 0.000000 0.023760 0.000000 0.000000
# 5 0.000000 0.000000 0.000000 0.000000 0.024257 0.000000
# 6 0.000000 0.000000 0.000000 0.000000 0.000000 0.023361
#
#
# Mechanical properties :
#
#
# Convention : Reuss Voigt Hill
#
# Bulk Modulus (GPa) = 47.22432 51.48848 49.35640
# Shear Modulus (GPa) = 38.42412 39.61310 39.01861
#
# Velocity S-wave (km/s) = 4.11395 4.17711 4.14565
# Velocity P-wave (km/s) = 6.58535 6.77815 6.68245
#
# Compressibility (1/GPa) = 0.02117553
#
# Stress axis : x y z
#
# Youngs Moduli (GPa) = 64.41558 99.45824 92.12692
#
# Poissons Ratio (x) = 0.37216 0.08025
# Poissons Ratio (y) = 0.24103 0.27785
# Poissons Ratio (z) = 0.05611 0.29996
#
# Static dielectric constant tensor:
#      x y z
#    x 4.041500 0.000000 0.000000 
#    y 0.000000 4.388440 0.000000 
#    z 0.000000 0.000000 4.317350 
# 
# 
# High freq. dielectric constant tensor:
#      x y z
#    x 1.890930 0.000000 0.000000 
#    y 0.000000 1.898070 0.000000 
#    z 0.000000 0.000000 1.918240 
# 
# From -- ./inp_files/5884.got.cif
#   From: 2010.03.12/outbox.cif.g09.slc.cpg/sg20_3_cif.got.tgz:5884.got - 2010.04.14 01:38:04.
