data_PCOD8160967
_publ_section_title
;
Structure prediction by ZEFSAII (Michael W. Deem and Ramdas Pophale) SiO2 
 PCOD8160967
Probable space group: C 2 2 2
;
_chemical_formula_sum "Si O2"
_cell_formula_units_Z 64
_cell_length_a 16.973516
_cell_length_b 8.824025
_cell_length_c 21.777501
_cell_angle_alpha 90.000000
_cell_angle_beta 90.000000
_cell_angle_gamma 90.000000
_cell_volume 3261.719322
_symmetry_space_group_name_H-M "C 2 2 2"
_symmetry_group_IT_number 21
_symmetry_cell_setting 'orthorhombic'
loop_
_space_group_symop_operation_xyz
x,y,z
-x,-y,z
x,-y,-z
-x,y,-z
1/2+x,1/2+y,z
1/2-x,1/2-y,z
1/2+x,1/2-y,-z
1/2-x,1/2+y,-z
loop_
_atom_site_type_symbol
_atom_site_label
_atom_site_fract_x
_atom_site_fract_y
_atom_site_fract_z
Si Si1 0.672200 0.174632 0.004543
Si Si2 0.604481 0.646985 0.246716
Si Si3 0.337415 0.795906 0.633815
Si Si4 0.488753 0.671491 0.572078
Si Si5 0.079913 0.806321 0.243458
Si Si6 0.393566 0.348857 0.108490
Si Si7 0.577893 0.907453 0.652209
Si Si8 0.077972 0.185771 0.894056
O O1 0.750000 0.250000 0.032052
O O2 0.603216 0.197499 0.053718
O O3 0.654401 0.244525 0.937863
O O4 0.688444 0.000000 0.000000
O O5 0.653879 0.742826 0.295598
O O6 0.620289 0.468230 0.256329
O O7 0.512869 0.681410 0.256420
O O8 0.631150 0.694245 0.178020
O O9 0.250000 0.750000 0.610922
O O10 0.399813 0.714290 0.589686
O O11 0.354034 0.977241 0.628945
O O12 0.500000 0.500000 0.596067
O O13 0.500000 0.683597 0.500000
O O14 0.553875 0.783661 0.601073
O O15 0.114105 0.679365 0.288989
O O16 0.098065 0.753429 0.174019
O O17 0.485473 0.326689 0.099090
O O18 0.377614 0.525967 0.094993
O O19 0.500000 0.000000 0.671875
#
# Coordination Sequence:
#
# PCOD8160967 Si02
#       8
#     8   8   8   8   8   8   8   8
#     4  12  25  39  53  73 104 148 190 240 302 361
#     4   9  17  33  59  85 117 150 190 238 290 359
#     4  11  23  37  56  92 134 159 193 256 307 341
#     4  10  21  41  67  90 115 163 216 246 290 362
#     4   9  16  33  59  86 108 152 202 237 278 350
#     4   9  19  36  60  83 108 147 186 236 293 350
#     4  10  19  33  59  89 120 161 199 236 291 346
#     4   9  19  36  58  83 109 140 192 243 287 341
#
# _framework density 19.621554
#
# number of rings (size 3 to 8) (size 9 to 14) (size 15 to 20)
#    0.000    2.125    2.500    3.750    0.000    5.750 
#    0.000    7.500    0.000    0.000    0.000    0.000 
#    0.000    0.000    0.000    0.000    0.000    0.000 
#
# Total GULP energy -396748.129314 kJ/mol
# GULP energy per Si atom -12398.379041 kJ/mol
# Density = 1.957689 g / cm^3
# Si number density = 19.621554 Si / 1000 Ang^3
#
#
#
# Elastic Constant Matrix: (Units=GPa)
#
#
# Indices 1 2 3 4 5 6 
#
# 1 71.9299 43.6074 37.0449 0.0000 0.0000 0.0000
# 2 43.6074 135.3112 51.8337 0.0000 0.0000 0.0000
# 3 37.0449 51.8337 100.6706 0.0000 0.0000 0.0000
# 4 0.0000 0.0000 0.0000 17.2345 0.0000 0.0000
# 5 0.0000 0.0000 0.0000 0.0000 14.8793 0.0000
# 6 0.0000 0.0000 0.0000 0.0000 0.0000 26.2798
#
#
#
# Elastic Compliance Matrix: (Units=1/GPa)
#
#
# Indices 1 2 3 4 5 6 
#
# 1 0.018955 -0.004281 -0.004771 0.000000 0.000000 0.000000
# 2 -0.004281 0.010173 -0.003663 0.000000 0.000000 0.000000
# 3 -0.004771 -0.003663 0.013575 0.000000 0.000000 0.000000
# 4 0.000000 0.000000 0.000000 0.058023 0.000000 0.000000
# 5 0.000000 0.000000 0.000000 0.000000 0.067208 0.000000
# 6 0.000000 0.000000 0.000000 0.000000 0.000000 0.038052
#
#
# Mechanical properties :
#
#
# Convention : Reuss Voigt Hill
#
# Bulk Modulus (GPa) = 57.89131 63.65376 60.77253
# Shear Modulus (GPa) = 21.08170 23.37374 22.22772
#
# Velocity S-wave (km/s) = 3.28138 3.45516 3.36939
# Velocity P-wave (km/s) = 6.62757 6.95907 6.79534
#
# Compressibility (1/GPa) = 0.01727375
#
# Stress axis : x y z
#
# Youngs Moduli (GPa) = 52.75691 98.29830 73.66625
#
# Poissons Ratio (x) = 0.42083 0.35144
# Poissons Ratio (y) = 0.22586 0.26981
# Poissons Ratio (z) = 0.25169 0.36003
#
# Static dielectric constant tensor:
#      x y z
#    x 3.250870 0.000000 0.000000 
#    y 0.000000 3.884300 0.000000 
#    z 0.000000 0.000000 3.636060 
# 
# 
# High freq. dielectric constant tensor:
#      x y z
#    x 1.729620 0.000000 0.000000 
#    y 0.000000 1.768860 0.000000 
#    z 0.000000 0.000000 1.768510 
# 
# From -- ./inp_files/37707.got.cif
#   From: 2010.03.12/outbox.cif.g09.slc.cpg/sg21_19_cif.got.tgz:37707.got - 2010.04.14 01:59:26.
