data_PCOD8160558
_publ_section_title
;
Structure prediction by ZEFSAII (Michael W. Deem and Ramdas Pophale) SiO2 
 PCOD8160558
Probable space group: C 2 2 21
;
_chemical_formula_sum "Si O2"
_cell_formula_units_Z 36
_cell_length_a 22.157715
_cell_length_b 6.638611
_cell_length_c 10.515618
_cell_angle_alpha 90.000000
_cell_angle_beta 90.000000
_cell_angle_gamma 90.000000
_cell_volume 1546.810083
_symmetry_space_group_name_H-M "C 2 2 21"
_symmetry_group_IT_number 20
_symmetry_cell_setting 'orthorhombic'
loop_
_space_group_symop_operation_xyz
x,y,z
-x,-y,1/2+z
x,-y,-z
-x,y,1/2-z
1/2+x,1/2+y,z
1/2-x,1/2-y,1/2+z
1/2+x,1/2-y,-z
1/2-x,1/2+y,1/2-z
loop_
_atom_site_type_symbol
_atom_site_label
_atom_site_fract_x
_atom_site_fract_y
_atom_site_fract_z
Si Si1 0.663028 0.761231 0.682503
Si Si2 0.215316 0.938739 0.864614
Si Si3 0.134397 0.414696 0.127194
Si Si4 0.998043 0.341085 0.395345
Si Si5 0.421078 0.500000 0.000000
O O1 0.713636 0.895755 0.613144
O O2 0.704281 0.613965 0.765155
O O3 0.620265 0.643870 0.585523
O O4 0.622079 0.907753 0.770223
O O5 0.178851 0.746844 0.810472
O O6 0.187270 0.000000 0.000000
O O7 0.072841 0.306706 0.079499
O O8 0.166700 0.500000 0.000000
O O9 0.023565 0.500000 0.500000
O O10 0.000000 0.420820 0.250000
O O11 0.036368 0.135582 0.409183
#
# Coordination Sequence:
#
# PCOD8160558 Si02
#       5
#     8   8   8   8   4
#     4  12  27  46  73 114 156 194 257 313 395 459
#     4  12  26  43  73 105 150 196 250 316 387 464
#     4  11  24  44  72 106 145 199 252 314 375 448
#     4  11  26  48  75 106 152 200 264 314 384 453
#     4  12  30  46  78 114 156 206 254 320 386 462
#
# _framework density 23.273705
#
# number of rings (size 3 to 8) (size 9 to 14) (size 15 to 20)
#    0.000    0.444    4.444    2.667    6.222    7.111 
#    0.000    0.000    0.000    0.000    0.000    0.000 
#    0.000    0.000    0.000    0.000    0.000    0.000 
#
# Total GULP energy -223169.025157 kJ/mol
# GULP energy per Si atom -12398.279175 kJ/mol
# Density = 2.322073 g / cm^3
# Si number density = 23.273705 Si / 1000 Ang^3
#
#
#
# Elastic Constant Matrix: (Units=GPa)
#
#
# Indices 1 2 3 4 5 6 
#
# 1 126.2127 57.6839 26.6822 0.0000 0.0000 0.0000
# 2 57.6839 106.7023 51.1890 0.0000 0.0000 0.0000
# 3 26.6822 51.1890 137.2743 0.0000 0.0000 0.0000
# 4 0.0000 0.0000 0.0000 43.7491 0.0000 0.0000
# 5 0.0000 0.0000 0.0000 0.0000 25.5910 0.0000
# 6 0.0000 0.0000 0.0000 0.0000 0.0000 51.6772
#
#
#
# Elastic Compliance Matrix: (Units=1/GPa)
#
#
# Indices 1 2 3 4 5 6 
#
# 1 0.010524 -0.005734 0.000093 0.000000 0.000000 0.000000
# 2 -0.005734 0.014538 -0.004307 0.000000 0.000000 0.000000
# 3 0.000093 -0.004307 0.008873 0.000000 0.000000 0.000000
# 4 0.000000 0.000000 0.000000 0.022858 0.000000 0.000000
# 5 0.000000 0.000000 0.000000 0.000000 0.039076 0.000000
# 6 0.000000 0.000000 0.000000 0.000000 0.000000 0.019351
#
#
# Mechanical properties :
#
#
# Convention : Reuss Voigt Hill
#
# Bulk Modulus (GPa) = 71.23158 71.25548 71.24353
# Shear Modulus (GPa) = 35.76689 39.84576 37.80632
#
# Velocity S-wave (km/s) = 3.92445 4.14218 4.03478
# Velocity P-wave (km/s) = 7.15594 7.31845 7.23765
#
# Compressibility (1/GPa) = 0.01403872
#
# Stress axis : x y z
#
# Youngs Moduli (GPa) = 95.01973 68.78724 112.70681
#
# Poissons Ratio (x) = 0.39441 -0.01043
# Poissons Ratio (y) = 0.54482 0.48537
# Poissons Ratio (z) = -0.00879 0.29623
#
# Static dielectric constant tensor:
#      x y z
#    x 4.077580 0.000000 0.000000 
#    y 0.000000 4.198870 0.000000 
#    z 0.000000 0.000000 4.074490 
# 
# 
# High freq. dielectric constant tensor:
#      x y z
#    x 1.925640 0.000000 0.000000 
#    y 0.000000 1.921240 0.000000 
#    z 0.000000 0.000000 1.924200 
# 
# From -- ./inp_files/12077.got.cif
#   From: 2010.03.12/outbox.cif.g09.slc.cpg/sg20_7_cif.got.tgz:12077.got - 2010.04.14 01:38:04.
