data_PCOD8160674
_publ_section_title
;
Structure prediction by ZEFSAII (Michael W. Deem and Ramdas Pophale) SiO2 
 PCOD8160674
Probable space group: C 2 2 21
;
_chemical_formula_sum "Si O2"
_cell_formula_units_Z 24
_cell_length_a 18.606168
_cell_length_b 4.860579
_cell_length_c 10.520779
_cell_angle_alpha 90.000000
_cell_angle_beta 90.000000
_cell_angle_gamma 90.000000
_cell_volume 951.465054
_symmetry_space_group_name_H-M "C 2 2 21"
_symmetry_group_IT_number 20
_symmetry_cell_setting 'orthorhombic'
loop_
_space_group_symop_operation_xyz
x,y,z
-x,-y,1/2+z
x,-y,-z
-x,y,1/2-z
1/2+x,1/2+y,z
1/2-x,1/2-y,1/2+z
1/2+x,1/2-y,-z
1/2-x,1/2+y,1/2-z
loop_
_atom_site_type_symbol
_atom_site_label
_atom_site_fract_x
_atom_site_fract_y
_atom_site_fract_z
Si Si1 0.288271 0.250977 0.080821
Si Si2 0.143599 0.471302 0.195601
Si Si3 0.446929 0.448719 0.361106
O O1 0.223599 0.390118 0.157412
O O2 0.350887 0.121231 0.167337
O O3 0.323698 0.500000 0.000000
O O4 0.255307 0.000000 0.000000
O O5 0.110344 0.706874 0.104752
O O6 0.091493 0.211831 0.201006
O O7 0.483438 0.500000 0.500000
O O8 0.500000 0.341687 0.250000
#
# Coordination Sequence:
#
# PCOD8160674 Si02
#       3
#     8   8   8
#     4  12  24  41  70 107 143 180 226 289 360 430
#     4  12  25  44  69 101 140 181 230 287 356 423
#     4  12  27  47  71  98 138 191 242 292 347 413
#
# _framework density 25.224257999999999
#
# number of rings (size 3 to 8) (size 9 to 14) (size 15 to 20)
#    0.000    0.000    0.000   13.000    0.000    4.000 
#    0.000    0.000    0.000    0.000    0.000    0.000 
#    0.000    0.000    0.000    0.000    0.000    0.000 
#
# Total GULP energy -148789.106855 kJ/mol
# GULP energy per Si atom -12399.092238 kJ/mol
# Density = 2.516685 g / cm^3
# Si number density = 25.224258 Si / 1000 Ang^3
#
#
#
# Elastic Constant Matrix: (Units=GPa)
#
#
# Indices 1 2 3 4 5 6 
#
# 1 59.2825 26.3352 34.6793 0.0000 0.0000 0.0000
# 2 26.3352 185.1634 37.9316 0.0000 0.0000 0.0000
# 3 34.6793 37.9316 112.6633 0.0000 0.0000 0.0000
# 4 0.0000 0.0000 0.0000 54.0238 0.0000 0.0000
# 5 0.0000 0.0000 0.0000 0.0000 19.1388 0.0000
# 6 0.0000 0.0000 0.0000 0.0000 0.0000 36.4124
#
#
#
# Elastic Compliance Matrix: (Units=1/GPa)
#
#
# Indices 1 2 3 4 5 6 
#
# 1 0.021114 -0.001795 -0.005895 0.000000 0.000000 0.000000
# 2 -0.001795 0.005953 -0.001452 0.000000 0.000000 0.000000
# 3 -0.005895 -0.001452 0.011179 0.000000 0.000000 0.000000
# 4 0.000000 0.000000 0.000000 0.018510 0.000000 0.000000
# 5 0.000000 0.000000 0.000000 0.000000 0.052250 0.000000
# 6 0.000000 0.000000 0.000000 0.000000 0.000000 0.027463
#
#
# Mechanical properties :
#
#
# Convention : Reuss Voigt Hill
#
# Bulk Modulus (GPa) = 50.09252 61.66685 55.87969
# Shear Modulus (GPa) = 30.97725 39.12587 35.05156
#
# Velocity S-wave (km/s) = 3.50819 3.94270 3.73177
# Velocity P-wave (km/s) = 6.02593 6.72510 6.38509
#
# Compressibility (1/GPa) = 0.01996306
#
# Stress axis : x y z
#
# Youngs Moduli (GPa) = 47.36117 167.97153 89.45130
#
# Poissons Ratio (x) = 0.30159 0.52730
# Poissons Ratio (y) = 0.08503 0.12986
# Poissons Ratio (z) = 0.27918 0.24385
#
# Static dielectric constant tensor:
#      x y z
#    x 4.039860 0.000000 0.000000 
#    y 0.000000 5.213030 0.000000 
#    z 0.000000 0.000000 4.914150 
# 
# 
# High freq. dielectric constant tensor:
#      x y z
#    x 1.969880 0.000000 0.000000 
#    y 0.000000 2.039910 0.000000 
#    z 0.000000 0.000000 2.016230 
# 
# From -- ./inp_files/10425.got.cif
#   From: 2010.03.12/outbox.cif.g09.slc.cpg/sg20_6_cif.got.tgz:10425.got - 2010.04.14 01:38:04.
