data_PCOD8160930
_publ_section_title
;
Structure prediction by ZEFSAII (Michael W. Deem and Ramdas Pophale) SiO2 
 PCOD8160930
Probable space group: C 2 2 2
;
_chemical_formula_sum "Si O2"
_cell_formula_units_Z 34
_cell_length_a 18.980479
_cell_length_b 5.203372
_cell_length_c 15.595774
_cell_angle_alpha 90.000000
_cell_angle_beta 90.000000
_cell_angle_gamma 90.000000
_cell_volume 1540.277520
_symmetry_space_group_name_H-M "C 2 2 2"
_symmetry_group_IT_number 21
_symmetry_cell_setting 'orthorhombic'
loop_
_space_group_symop_operation_xyz
x,y,z
-x,-y,z
x,-y,-z
-x,y,-z
1/2+x,1/2+y,z
1/2-x,1/2-y,z
1/2+x,1/2-y,-z
1/2-x,1/2+y,-z
loop_
_atom_site_type_symbol
_atom_site_label
_atom_site_fract_x
_atom_site_fract_y
_atom_site_fract_z
Si Si1 0.578691 0.985403 0.315266
Si Si2 0.084139 0.991610 0.402436
Si Si3 0.000000 0.500000 0.000000
Si Si4 0.291324 0.500403 0.898332
Si Si5 0.563183 0.311881 0.851144
O O1 0.617687 0.743668 0.358656
O O2 0.575387 0.928625 0.213092
O O3 0.500000 0.000000 0.352930
O O4 0.614948 0.250770 0.346725
O O5 0.110694 0.000000 0.500000
O O6 0.000000 0.000000 0.396829
O O7 0.950818 0.683902 0.056725
O O8 0.250000 0.750000 0.865424
O O9 0.369084 0.504897 0.857834
O O10 0.250000 0.250000 0.864648
O O11 0.297271 0.500000 0.000000
O O12 0.500000 0.500000 0.819186
#
# Coordination Sequence:
#
# PCOD8160930 Si02
#       5
#     8   8   2   8   8
#     4  10  19  32  51  80 117 156 198 253 304 365
#     4   9  17  30  49  75 112 159 199 234 301 383
#     4  12  26  36  64  90 126 176 228 276 330 392
#     4  10  24  42  62  83 115 164 223 272 322 374
#     4  12  25  40  60  91 128 167 225 269 326 386
#
# _framework density 22.073944999999998
#
# number of rings (size 3 to 8) (size 9 to 14) (size 15 to 20)
#    0.000    1.647    1.176    4.588    8.235    2.824 
#    0.000    0.000    0.000    0.000    0.000    0.000 
#    0.000    5.647    0.000   32.471    0.000    1.412 
#
# Total GULP energy -210728.253743 kJ/mol
# GULP energy per Si atom -12395.779632 kJ/mol
# Density = 2.202370 g / cm^3
# Si number density = 22.073945 Si / 1000 Ang^3
#
#
#
# Elastic Constant Matrix: (Units=GPa)
#
#
# Indices 1 2 3 4 5 6 
#
# 1 95.1044 47.7073 17.4302 0.0000 0.0000 0.0000
# 2 47.7073 201.1495 70.1531 0.0000 0.0000 0.0000
# 3 17.4302 70.1531 134.7404 0.0000 0.0000 0.0000
# 4 0.0000 0.0000 0.0000 43.6232 0.0000 0.0000
# 5 0.0000 0.0000 0.0000 0.0000 2.0998 0.0000
# 6 0.0000 0.0000 0.0000 0.0000 0.0000 24.0032
#
#
#
# Elastic Compliance Matrix: (Units=1/GPa)
#
#
# Indices 1 2 3 4 5 6 
#
# 1 0.011935 -0.002801 -0.000086 0.000000 0.000000 0.000000
# 2 -0.002801 0.006732 -0.003143 0.000000 0.000000 0.000000
# 3 -0.000086 -0.003143 0.009069 0.000000 0.000000 0.000000
# 4 0.000000 0.000000 0.000000 0.022924 0.000000 0.000000
# 5 0.000000 0.000000 0.000000 0.000000 0.476236 0.000000
# 6 0.000000 0.000000 0.000000 0.000000 0.000000 0.041661
#
#
# Mechanical properties :
#
#
# Convention : Reuss Voigt Hill
#
# Bulk Modulus (GPa) = 63.78426 77.95284 70.86855
# Shear Modulus (GPa) = 8.53474 33.65882 21.09678
#
# Velocity S-wave (km/s) = 1.96846 3.90913 3.09485
# Velocity P-wave (km/s) = 5.84165 7.46767 6.70414
#
# Compressibility (1/GPa) = 0.01567785
#
# Stress axis : x y z
#
# Youngs Moduli (GPa) = 83.78378 148.55020 110.26629
#
# Poissons Ratio (x) = 0.41607 0.00945
# Poissons Ratio (y) = 0.23467 0.34652
# Poissons Ratio (z) = 0.00718 0.46683
#
# Static dielectric constant tensor:
#      x y z
#    x 3.377680 0.000000 0.000000 
#    y 0.000000 4.501010 0.000000 
#    z 0.000000 0.000000 3.864770 
# 
# 
# High freq. dielectric constant tensor:
#      x y z
#    x 1.791980 0.000000 0.000000 
#    y 0.000000 1.896770 0.000000 
#    z 0.000000 0.000000 1.861380 
# 
# From -- ./inp_files/33084.got.cif
#   From: 2010.03.12/outbox.cif.g09.slc.cpg/sg21_17_cif.got.tgz:33084.got - 2010.04.14 01:59:26.
