data_PCOD8160511
_publ_section_title
;
Structure prediction by ZEFSAII (Michael W. Deem and Ramdas Pophale) SiO2 
 PCOD8160511
Probable space group: C 2 2 21
;
_chemical_formula_sum "Si O2"
_cell_formula_units_Z 52
_cell_length_a 22.661217
_cell_length_b 9.543924
_cell_length_c 11.398357
_cell_angle_alpha 90.000000
_cell_angle_beta 90.000000
_cell_angle_gamma 90.000000
_cell_volume 2465.201691
_symmetry_space_group_name_H-M "C 2 2 21"
_symmetry_group_IT_number 20
_symmetry_cell_setting 'orthorhombic'
loop_
_space_group_symop_operation_xyz
x,y,z
-x,-y,1/2+z
x,-y,-z
-x,y,1/2-z
1/2+x,1/2+y,z
1/2-x,1/2-y,1/2+z
1/2+x,1/2-y,-z
1/2-x,1/2+y,1/2-z
loop_
_atom_site_type_symbol
_atom_site_label
_atom_site_fract_x
_atom_site_fract_y
_atom_site_fract_z
Si Si1 0.536042 0.122592 0.070119
Si Si2 0.382339 0.260705 0.240474
Si Si3 0.447176 0.657656 0.992451
Si Si4 0.883241 0.744532 0.784715
Si Si5 0.811462 0.491770 0.865919
Si Si6 0.673291 0.484105 0.865189
Si Si7 0.000000 0.420372 0.250000
O O1 0.577521 0.211156 0.152771
O O2 0.500107 0.230650 0.986471
O O3 0.488588 0.026985 0.141379
O O4 0.572246 0.000000 0.000000
O O5 0.422063 0.323112 0.137475
O O6 0.339806 0.378922 0.290094
O O7 0.343066 0.135025 0.196889
O O8 0.472535 0.500000 0.000000
O O9 0.397461 0.679484 0.091634
O O10 0.830096 0.635392 0.802739
O O11 0.941642 0.671954 0.732775
O O12 0.862094 0.853670 0.687600
O O13 0.742711 0.460415 0.855551
O O14 0.832427 0.500000 0.000000
O O15 0.653342 0.500000 0.000000
#
# Coordination Sequence:
#
# PCOD8160511 Si02
#       7
#     8   8   8   8   8   8   4
#     4  12  25  42  66 102 140 181 228 282 351 422
#     4  12  24  44  69  99 140 177 230 291 341 418
#     4  12  24  42  68 103 137 179 226 284 348 419
#     4  12  24  44  72 102 138 180 234 285 348 426
#     4  11  23  45  75 100 133 183 238 292 344 415
#     4  11  28  46  66 101 141 185 231 291 357 408
#     4  12  24  40  70 102 134 178 228 284 348 418
#
# _framework density 21.093608
#
# number of rings (size 3 to 8) (size 9 to 14) (size 15 to 20)
#    0.000    0.308    7.692    0.923    2.154    1.846 
#    0.000    0.000    0.000    0.000    0.000    0.000 
#    0.000    0.000    0.000    0.000    0.000    0.000 
#
# Total GULP energy -322434.137925 kJ/mol
# GULP energy per Si atom -12401.312997 kJ/mol
# Density = 2.104560 g / cm^3
# Si number density = 21.093608 Si / 1000 Ang^3
#
#
#
# Elastic Constant Matrix: (Units=GPa)
#
#
# Indices 1 2 3 4 5 6 
#
# 1 79.1934 40.0958 29.8996 0.0000 0.0000 0.0000
# 2 40.0958 152.7850 45.4255 0.0000 0.0000 0.0000
# 3 29.8996 45.4255 92.8220 0.0000 0.0000 0.0000
# 4 0.0000 0.0000 0.0000 45.9915 0.0000 0.0000
# 5 0.0000 0.0000 0.0000 0.0000 54.3811 0.0000
# 6 0.0000 0.0000 0.0000 0.0000 0.0000 46.7898
#
#
#
# Elastic Compliance Matrix: (Units=1/GPa)
#
#
# Indices 1 2 3 4 5 6 
#
# 1 0.015481 -0.003019 -0.003509 0.000000 0.000000 0.000000
# 2 -0.003019 0.008249 -0.003064 0.000000 0.000000 0.000000
# 3 -0.003509 -0.003064 0.013403 0.000000 0.000000 0.000000
# 4 0.000000 0.000000 0.000000 0.021743 0.000000 0.000000
# 5 0.000000 0.000000 0.000000 0.000000 0.018389 0.000000
# 6 0.000000 0.000000 0.000000 0.000000 0.000000 0.021372
#
#
# Mechanical properties :
#
#
# Convention : Reuss Voigt Hill
#
# Bulk Modulus (GPa) = 55.71797 61.73802 58.72799
# Shear Modulus (GPa) = 40.38636 43.39111 41.88874
#
# Velocity S-wave (km/s) = 4.38039 4.54042 4.46112
# Velocity P-wave (km/s) = 7.21497 7.53786 7.37818
#
# Compressibility (1/GPa) = 0.01794753
#
# Stress axis : x y z
#
# Youngs Moduli (GPa) = 64.59579 121.23357 74.60942
#
# Poissons Ratio (x) = 0.36605 0.26181
# Poissons Ratio (y) = 0.19504 0.22861
# Poissons Ratio (z) = 0.22667 0.37147
#
# Static dielectric constant tensor:
#      x y z
#    x 3.607240 0.000000 0.000000 
#    y 0.000000 3.969250 0.000000 
#    z 0.000000 0.000000 3.926510 
# 
# 
# High freq. dielectric constant tensor:
#      x y z
#    x 1.809010 0.000000 0.000000 
#    y 0.000000 1.849090 0.000000 
#    z 0.000000 0.000000 1.845430 
# 
# From -- ./inp_files/17032.got.cif
#   From: 2010.03.12/outbox.cif.g09.slc.cpg/sg20_9_cif.got.tgz:17032.got - 2010.04.14 01:38:04.
