data_PCOD8160112
_publ_section_title
;
Structure prediction by ZEFSAII (Michael W. Deem and Ramdas Pophale) SiO2 
 PCOD8160112
Probable space group: C 2 2 21
;
_chemical_formula_sum "Si O2"
_cell_formula_units_Z 60
_cell_length_a 8.939533
_cell_length_b 16.340059
_cell_length_c 19.522068
_cell_angle_alpha 90.000000
_cell_angle_beta 90.000000
_cell_angle_gamma 90.000000
_cell_volume 2851.637213
_symmetry_space_group_name_H-M "C 2 2 21"
_symmetry_group_IT_number 20
_symmetry_cell_setting 'orthorhombic'
loop_
_space_group_symop_operation_xyz
x,y,z
-x,-y,1/2+z
x,-y,-z
-x,y,1/2-z
1/2+x,1/2+y,z
1/2-x,1/2-y,1/2+z
1/2+x,1/2-y,-z
1/2-x,1/2+y,1/2-z
loop_
_atom_site_type_symbol
_atom_site_label
_atom_site_fract_x
_atom_site_fract_y
_atom_site_fract_z
Si Si1 0.206704 0.934377 0.147144
Si Si2 0.369283 0.662768 0.521094
Si Si3 0.000000 0.143878 0.750000
Si Si4 0.287548 0.109126 0.107129
Si Si5 0.268021 0.711802 0.850360
Si Si6 0.201447 0.823416 0.507692
Si Si7 0.534980 0.915953 0.175139
Si Si8 0.406981 0.044168 0.431737
O O1 0.106510 0.893730 0.087543
O O2 0.130668 0.912702 0.219116
O O3 0.374795 0.898481 0.139519
O O4 0.212354 0.032506 0.144788
O O5 0.269121 0.610479 0.470196
O O6 0.286108 0.746752 0.541661
O O7 0.523930 0.683617 0.482189
O O8 0.922292 0.198255 0.808920
O O9 0.242592 0.190849 0.148009
O O10 0.466813 0.102679 0.100800
O O11 0.126583 0.668262 0.814225
O O12 0.271943 0.674285 0.926385
O O13 0.260423 0.904704 0.546096
O O14 0.500000 0.954697 0.250000
O O15 0.632063 0.978232 0.127860
O O16 0.470028 0.000000 0.500000
#
# Coordination Sequence:
#
# PCOD8160112 Si02
#       8
#     8   8   4   8   8   8   8   8
#     4  11  24  44  66  95 134 181 216 280 341 404
#     4  11  23  39  67  98 134 172 219 280 352 394
#     4  12  24  44  66  92 136 180 226 272 342 406
#     4  10  24  42  65  99 133 166 226 282 335 404
#     4  11  23  44  65  95 132 174 225 279 332 415
#     4  11  23  39  67 103 132 171 230 286 337 406
#     4  11  23  43  69  93 131 185 229 269 343 415
#     4  11  22  41  69  98 134 178 225 286 342 403
#
# _framework density 21.040545999999999
#
# number of rings (size 3 to 8) (size 9 to 14) (size 15 to 20)
#    0.000    1.067    4.000    3.600    3.733    2.133 
#    6.000    0.000    0.000    0.000    0.000    0.000 
#    0.000    0.000    0.000    0.000    0.000    0.000 
#
# Total GULP energy -371997.780559 kJ/mol
# GULP energy per Si atom -12399.926019 kJ/mol
# Density = 2.099266 g / cm^3
# Si number density = 21.040546 Si / 1000 Ang^3
#
#
#
# Elastic Constant Matrix: (Units=GPa)
#
#
# Indices 1 2 3 4 5 6 
#
# 1 90.1506 65.4935 7.9599 0.0000 0.0000 0.0000
# 2 65.4935 139.6072 54.2192 0.0000 0.0000 0.0000
# 3 7.9599 54.2192 92.0123 0.0000 0.0000 0.0000
# 4 0.0000 0.0000 0.0000 24.2145 0.0000 0.0000
# 5 0.0000 0.0000 0.0000 0.0000 33.2158 0.0000
# 6 0.0000 0.0000 0.0000 0.0000 0.0000 34.0352
#
#
#
# Elastic Compliance Matrix: (Units=1/GPa)
#
#
# Indices 1 2 3 4 5 6 
#
# 1 0.018142 -0.010246 0.004468 0.000000 0.000000 0.000000
# 2 -0.010246 0.015075 -0.007997 0.000000 0.000000 0.000000
# 3 0.004468 -0.007997 0.015194 0.000000 0.000000 0.000000
# 4 0.000000 0.000000 0.000000 0.041298 0.000000 0.000000
# 5 0.000000 0.000000 0.000000 0.000000 0.030106 0.000000
# 6 0.000000 0.000000 0.000000 0.000000 0.000000 0.029381
#
#
# Mechanical properties :
#
#
# Convention : Reuss Voigt Hill
#
# Bulk Modulus (GPa) = 47.93569 64.12392 56.02981
# Shear Modulus (GPa) = 27.21834 31.23292 29.22563
#
# Velocity S-wave (km/s) = 3.60059 3.85699 3.73099
# Velocity P-wave (km/s) = 6.33385 7.09772 6.72664
#
# Compressibility (1/GPa) = 0.02086128
#
# Stress axis : x y z
#
# Youngs Moduli (GPa) = 55.12163 66.33300 65.81592
#
# Poissons Ratio (x) = 0.67965 -0.29408
# Poissons Ratio (y) = 0.56478 0.52633
# Poissons Ratio (z) = -0.24629 0.53046
#
# Static dielectric constant tensor:
#      x y z
#    x 3.800390 0.000000 0.000000 
#    y 0.000000 3.704940 0.000000 
#    z 0.000000 0.000000 3.704680 
# 
# 
# High freq. dielectric constant tensor:
#      x y z
#    x 1.825620 0.000000 0.000000 
#    y 0.000000 1.818430 0.000000 
#    z 0.000000 0.000000 1.817570 
# 
# From -- ./inp_files/23771.got.cif
#   From: 2010.03.12/outbox.cif.g09.slc.cpg/sg20_12_cif.got.tgz:23771.got - 2010.04.14 01:38:04.
