data_PCOD8160931
_publ_section_title
;
Structure prediction by ZEFSAII (Michael W. Deem and Ramdas Pophale) SiO2 
 PCOD8160931
Probable space group: C 2 2 2
;
_chemical_formula_sum "Si O2"
_cell_formula_units_Z 64
_cell_length_a 5.060648
_cell_length_b 33.213873
_cell_length_c 20.998093
_cell_angle_alpha 90.000000
_cell_angle_beta 90.000000
_cell_angle_gamma 90.000000
_cell_volume 3529.437584
_symmetry_space_group_name_H-M "C 2 2 2"
_symmetry_group_IT_number 21
_symmetry_cell_setting 'orthorhombic'
loop_
_space_group_symop_operation_xyz
x,y,z
-x,-y,z
x,-y,-z
-x,y,-z
1/2+x,1/2+y,z
1/2-x,1/2-y,z
1/2+x,1/2-y,-z
1/2-x,1/2+y,-z
loop_
_atom_site_type_symbol
_atom_site_label
_atom_site_fract_x
_atom_site_fract_y
_atom_site_fract_z
Si Si1 0.311201 0.614478 0.292555
Si Si2 0.173227 0.159111 0.834932
Si Si3 0.253726 0.391663 0.957021
Si Si4 0.740023 0.026200 0.115178
Si Si5 0.242316 0.473491 0.740375
Si Si6 0.187487 0.295992 0.200892
Si Si7 0.494929 0.776629 0.574154
Si Si8 0.192990 0.660573 0.671530
O O1 0.370406 0.625345 0.219208
O O2 0.306373 0.566240 0.301154
O O3 0.529120 0.636337 0.338833
O O4 0.014880 0.627502 0.306931
O O5 0.270648 0.139675 0.899810
O O6 0.385652 0.192990 0.814777
O O7 0.887696 0.179506 0.844476
O O8 0.285535 0.436110 0.929766
O O9 0.500000 0.380151 0.000000
O O10 0.000000 0.387472 0.000000
O O11 0.671140 0.039759 0.187331
O O12 0.500000 0.000000 0.087142
O O13 0.000000 0.000000 0.113547
O O14 0.500000 0.500000 0.738588
O O15 0.000000 0.500000 0.711974
O O16 0.250000 0.250000 0.188365
O O17 0.244249 0.305703 0.274930
O O18 0.500000 0.787618 0.500000
O O19 0.750000 0.750000 0.594861
O O20 0.443343 0.818592 0.610230
O O21 0.250000 0.750000 0.593021
#
# Coordination Sequence:
#
# PCOD8160931 Si02
#       8
#     8   8   8   8   8   8   8   8
#     4  10  19  34  52  76 106 137 174 221 264 302
#     4  10  21  37  52  74 101 125 165 208 266 318
#     4  12  24  37  55  72  97 132 167 209 253 317
#     4  10  21  35  52  74 100 131 165 204 248 309
#     4  10  19  32  52  74 104 140 169 206 264 328
#     4  10  20  34  57  78  98 127 162 216 262 304
#     4  10  20  34  52  77 117 160 187 211 251 309
#     4  10  20  31  53  81 109 139 178 220 250 303
#
# _framework density 18.133202000000001
#
# number of rings (size 3 to 8) (size 9 to 14) (size 15 to 20)
#    0.000    1.750    1.250    3.750    0.000    3.500 
#    0.000    0.000    0.000    7.500    0.000    0.000 
#    0.000    7.500    0.000    0.000    0.000    0.000 
#
# Total GULP energy -396749.441666 kJ/mol
# GULP energy per Si atom -12398.420052 kJ/mol
# Density = 1.809193 g / cm^3
# Si number density = 18.133202 Si / 1000 Ang^3
#
#
#
# Elastic Constant Matrix: (Units=GPa)
#
#
# Indices 1 2 3 4 5 6 
#
# 1 111.4062 28.2995 14.5081 0.0000 0.0000 0.0000
# 2 28.2995 101.8536 32.1164 0.0000 0.0000 0.0000
# 3 14.5081 32.1164 53.2377 0.0000 0.0000 0.0000
# 4 0.0000 0.0000 0.0000 32.1819 0.0000 0.0000
# 5 0.0000 0.0000 0.0000 0.0000 33.6625 0.0000
# 6 0.0000 0.0000 0.0000 0.0000 0.0000 25.9367
#
#
#
# Elastic Compliance Matrix: (Units=1/GPa)
#
#
# Indices 1 2 3 4 5 6 
#
# 1 0.009726 -0.002305 -0.001260 0.000000 0.000000 0.000000
# 2 -0.002305 0.012671 -0.007016 0.000000 0.000000 0.000000
# 3 -0.001260 -0.007016 0.023359 0.000000 0.000000 0.000000
# 4 0.000000 0.000000 0.000000 0.031073 0.000000 0.000000
# 5 0.000000 0.000000 0.000000 0.000000 0.029707 0.000000
# 6 0.000000 0.000000 0.000000 0.000000 0.000000 0.038555
#
#
# Mechanical properties :
#
#
# Convention : Reuss Voigt Hill
#
# Bulk Modulus (GPa) = 40.65918 46.26061 43.45989
# Shear Modulus (GPa) = 28.66149 31.12779 29.89464
#
# Velocity S-wave (km/s) = 3.98000 4.14770 4.06472
# Velocity P-wave (km/s) = 6.60240 6.96454 6.78589
#
# Compressibility (1/GPa) = 0.02459469
#
# Stress axis : x y z
#
# Youngs Moduli (GPa) = 102.81989 78.92293 42.80955
#
# Poissons Ratio (x) = 0.18192 0.05394
# Poissons Ratio (y) = 0.23700 0.30033
# Poissons Ratio (z) = 0.12954 0.55369
#
# Static dielectric constant tensor:
#      x y z
#    x 3.477970 0.000000 0.000000 
#    y 0.000000 3.205340 0.000000 
#    z 0.000000 0.000000 3.110980 
# 
# 
# High freq. dielectric constant tensor:
#      x y z
#    x 1.727110 0.000000 0.000000 
#    y 0.000000 1.699610 0.000000 
#    z 0.000000 0.000000 1.660730 
# 
# From -- ./inp_files/35263.got.cif
#   From: 2010.03.12/outbox.cif.g09.slc.cpg/sg21_18_cif.got.tgz:35263.got - 2010.04.14 01:59:26.
