data_PCOD8160365
_publ_section_title
;
Structure prediction by ZEFSAII (Michael W. Deem and Ramdas Pophale) SiO2 
 PCOD8160365
Probable space group: C 2 2 21
;
_chemical_formula_sum "Si O2"
_cell_formula_units_Z 52
_cell_length_a 15.390662
_cell_length_b 18.730885
_cell_length_c 8.703492
_cell_angle_alpha 90.000000
_cell_angle_beta 90.000000
_cell_angle_gamma 90.000000
_cell_volume 2509.048940
_symmetry_space_group_name_H-M "C 2 2 21"
_symmetry_group_IT_number 20
_symmetry_cell_setting 'orthorhombic'
loop_
_space_group_symop_operation_xyz
x,y,z
-x,-y,1/2+z
x,-y,-z
-x,y,1/2-z
1/2+x,1/2+y,z
1/2-x,1/2-y,1/2+z
1/2+x,1/2-y,-z
1/2-x,1/2+y,1/2-z
loop_
_atom_site_type_symbol
_atom_site_label
_atom_site_fract_x
_atom_site_fract_y
_atom_site_fract_z
Si Si1 0.698055 0.119990 0.500861
Si Si2 0.300400 0.833336 0.488205
Si Si3 0.230018 0.532881 0.789315
Si Si4 0.166141 0.242186 0.306203
Si Si5 0.500000 0.343954 0.750000
Si Si6 0.860601 0.058131 0.375646
Si Si7 0.096880 0.582068 0.206684
O O1 0.697255 0.054392 0.620002
O O2 0.670021 0.191220 0.583237
O O3 0.794897 0.120874 0.429823
O O4 0.629663 0.110204 0.368327
O O5 0.253470 0.898599 0.396958
O O6 0.238934 0.812493 0.632022
O O7 0.317561 0.767865 0.370438
O O8 0.390744 0.858503 0.570439
O O9 0.317630 0.484090 0.771193
O O10 0.151712 0.485338 0.856129
O O11 0.071733 0.206415 0.330358
O O12 0.550666 0.398883 0.858061
O O13 0.884154 0.000000 0.500000
O O14 0.000000 0.560052 0.250000
#
# Coordination Sequence:
#
# PCOD8160365 Si02
#       7
#     8   8   8   8   4   8   8
#     4   9  20  42  63  81 122 172 201 247 309 375
#     4  11  23  41  63  87 120 171 212 250 310 385
#     4   9  20  39  65  90 115 160 209 256 314 372
#     4  11  24  41  62  86 123 166 214 249 306 379
#     4  12  24  34  58  94 120 150 196 264 300 360
#     4   9  19  39  62  85 119 156 202 253 319 366
#     4  11  22  35  59  93 126 155 201 264 314 369
#
# _framework density 20.724983999999999
#
# number of rings (size 3 to 8) (size 9 to 14) (size 15 to 20)
#    0.000    1.846    0.000    5.538    2.154    3.692 
#    2.769    0.000    0.000    0.000    0.000    0.000 
#    0.000    0.000    0.000    0.000    0.000    0.000 
#
# Total GULP energy -322100.453652 kJ/mol
# GULP energy per Si atom -12388.478987 kJ/mol
# Density = 2.067781 g / cm^3
# Si number density = 20.724984 Si / 1000 Ang^3
#
#
#
# Elastic Constant Matrix: (Units=GPa)
#
#
# Indices 1 2 3 4 5 6 
#
# 1 131.2647 53.0997 33.2687 0.0000 0.0000 0.0000
# 2 53.0997 112.0092 41.1900 0.0000 0.0000 0.0000
# 3 33.2687 41.1900 95.4165 0.0000 0.0000 0.0000
# 4 0.0000 0.0000 0.0000 26.6266 0.0000 0.0000
# 5 0.0000 0.0000 0.0000 0.0000 17.5356 0.0000
# 6 0.0000 0.0000 0.0000 0.0000 0.0000 18.9068
#
#
#
# Elastic Compliance Matrix: (Units=1/GPa)
#
#
# Indices 1 2 3 4 5 6 
#
# 1 0.009640 -0.003963 -0.001650 0.000000 0.000000 0.000000
# 2 -0.003963 0.012242 -0.003903 0.000000 0.000000 0.000000
# 3 -0.001650 -0.003903 0.012741 0.000000 0.000000 0.000000
# 4 0.000000 0.000000 0.000000 0.037556 0.000000 0.000000
# 5 0.000000 0.000000 0.000000 0.000000 0.057027 0.000000
# 6 0.000000 0.000000 0.000000 0.000000 0.000000 0.052891
#
#
# Mechanical properties :
#
#
# Convention : Reuss Voigt Hill
#
# Bulk Modulus (GPa) = 64.14453 65.97860 65.06157
# Shear Modulus (GPa) = 24.23362 26.68925 25.46144
#
# Velocity S-wave (km/s) = 3.42321 3.59246 3.50885
# Velocity P-wave (km/s) = 6.82949 7.00800 6.91932
#
# Compressibility (1/GPa) = 0.01558979
#
# Stress axis : x y z
#
# Youngs Moduli (GPa) = 103.73929 81.68769 78.48934
#
# Poissons Ratio (x) = 0.32372 0.12953
# Poissons Ratio (y) = 0.41111 0.30633
# Poissons Ratio (z) = 0.17120 0.31882
#
# Static dielectric constant tensor:
#      x y z
#    x 3.626940 0.000000 0.000000 
#    y 0.000000 4.104580 0.000000 
#    z 0.000000 0.000000 3.955900 
# 
# 
# High freq. dielectric constant tensor:
#      x y z
#    x 1.782960 0.000000 0.000000 
#    y 0.000000 1.833250 0.000000 
#    z 0.000000 0.000000 1.819860 
# 
# From -- ./inp_files/8674.got.cif
#   From: 2010.03.12/outbox.cif.g09.slc.cpg/sg20_5_cif.got.tgz:8674.got - 2010.04.14 01:38:04.
