data_PCOD8160771
_publ_section_title
;
Structure prediction by ZEFSAII (Michael W. Deem and Ramdas Pophale) SiO2 
 PCOD8160771
Probable space group: C 2 2 2
;
_chemical_formula_sum "Si O2"
_cell_formula_units_Z 64
_cell_length_a 23.467387
_cell_length_b 19.412998
_cell_length_c 9.196370
_cell_angle_alpha 90.000000
_cell_angle_beta 90.000000
_cell_angle_gamma 90.000000
_cell_volume 4189.611772
_symmetry_space_group_name_H-M "C 2 2 2"
_symmetry_group_IT_number 21
_symmetry_cell_setting 'orthorhombic'
loop_
_space_group_symop_operation_xyz
x,y,z
-x,-y,z
x,-y,-z
-x,y,-z
1/2+x,1/2+y,z
1/2-x,1/2-y,z
1/2+x,1/2-y,-z
1/2-x,1/2+y,-z
loop_
_atom_site_type_symbol
_atom_site_label
_atom_site_fract_x
_atom_site_fract_y
_atom_site_fract_z
Si Si1 0.127421 0.600449 0.266293
Si Si2 0.780429 0.854340 0.351708
Si Si3 0.762750 0.563423 0.596843
Si Si4 0.662023 0.785743 0.308002
Si Si5 0.438147 0.845206 0.512907
Si Si6 0.358737 0.111889 0.069105
Si Si7 0.245240 0.031149 0.144482
Si Si8 0.060243 0.464931 0.262237
O O1 0.184229 0.612126 0.362054
O O2 0.079898 0.646571 0.344702
O O3 0.109616 0.521060 0.277661
O O4 0.136711 0.625253 0.101920
O O5 0.786468 0.894722 0.506708
O O6 0.716092 0.827004 0.367771
O O7 0.826356 0.795540 0.320460
O O8 0.788855 0.905236 0.214611
O O9 0.785350 0.500000 0.500000
O O10 0.740309 0.533484 0.747847
O O11 0.605613 0.797263 0.401908
O O12 0.652822 0.813423 0.143444
O O13 0.500000 0.809512 0.500000
O O14 0.443577 0.920084 0.590502
O O15 0.309427 0.056500 0.107449
O O16 0.419276 0.083143 0.128077
O O17 0.216016 0.000000 0.000000
O O18 0.000000 0.500000 0.224106
#
# Coordination Sequence:
#
# PCOD8160771 Si02
#       8
#     8   8   8   8   8   8   8   8
#     4  12  19  28  42  63  94 119 160 198 233 263
#     4   9  18  31  50  63  85 126 155 188 226 284
#     4  10  17  27  46  67  86 115 150 187 235 273
#     4   9  19  35  46  59  88 125 167 184 226 280
#     4  11  21  32  45  64  88 126 164 206 226 257
#     4  10  20  30  43  61  92 132 155 193 231 269
#     4  10  16  28  46  70  93 111 145 188 243 282
#     4  11  20  30  41  61  93 125 165 199 231 252
#
# _framework density 15.275879
#
# number of rings (size 3 to 8) (size 9 to 14) (size 15 to 20)
#    0.000    1.750    5.000    1.500    0.000    1.000 
#    0.000    1.250    2.750    0.000    0.000    0.000 
#    0.000    4.500    0.000    1.500    0.000    0.000 
#
# Total GULP energy -396514.024041 kJ/mol
# GULP energy per Si atom -12391.063251 kJ/mol
# Density = 1.524111 g / cm^3
# Si number density = 15.275879 Si / 1000 Ang^3
#
#
#
# Elastic Constant Matrix: (Units=GPa)
#
#
# Indices 1 2 3 4 5 6 
#
# 1 57.1645 41.2810 34.8475 0.0000 0.0000 0.0000
# 2 41.2810 79.1130 50.9709 0.0000 0.0000 0.0000
# 3 34.8475 50.9709 127.1816 0.0000 0.0000 0.0000
# 4 0.0000 0.0000 0.0000 12.3922 0.0000 0.0000
# 5 0.0000 0.0000 0.0000 0.0000 11.2053 0.0000
# 6 0.0000 0.0000 0.0000 0.0000 0.0000 23.9441
#
#
#
# Elastic Compliance Matrix: (Units=1/GPa)
#
#
# Indices 1 2 3 4 5 6 
#
# 1 0.028651 -0.013336 -0.002506 0.000000 0.000000 0.000000
# 2 -0.013336 0.023247 -0.005663 0.000000 0.000000 0.000000
# 3 -0.002506 -0.005663 0.010819 0.000000 0.000000 0.000000
# 4 0.000000 0.000000 0.000000 0.080696 0.000000 0.000000
# 5 0.000000 0.000000 0.000000 0.000000 0.089243 0.000000
# 6 0.000000 0.000000 0.000000 0.000000 0.000000 0.041764
#
#
# Mechanical properties :
#
#
# Convention : Reuss Voigt Hill
#
# Bulk Modulus (GPa) = 50.73950 57.51755 54.12853
# Shear Modulus (GPa) = 15.43216 18.59896 17.01556
#
# Velocity S-wave (km/s) = 3.18186 3.49311 3.34111
# Velocity P-wave (km/s) = 6.84007 7.34870 7.09894
#
# Compressibility (1/GPa) = 0.01970851
#
# Stress axis : x y z
#
# Youngs Moduli (GPa) = 34.90250 43.01596 92.43106
#
# Poissons Ratio (x) = 0.57365 0.23161
# Poissons Ratio (y) = 0.46545 0.52342
# Poissons Ratio (z) = 0.08746 0.24359
#
# Static dielectric constant tensor:
#      x y z
#    x 2.670490 0.000000 0.000000 
#    y 0.000000 2.745600 0.000000 
#    z 0.000000 0.000000 3.117720 
# 
# 
# High freq. dielectric constant tensor:
#      x y z
#    x 1.543230 0.000000 0.000000 
#    y 0.000000 1.550300 0.000000 
#    z 0.000000 0.000000 1.600500 
# 
# From -- ./inp_files/16908.got.cif
#   From: 2010.03.12/outbox.cif.g09.slc.cpg/sg21_9_cif.got.tgz:16908.got - 2010.04.14 01:59:26.
