data_PCOD8160254
_publ_section_title
;
Structure prediction by ZEFSAII (Michael W. Deem and Ramdas Pophale) SiO2 
 PCOD8160254
Probable space group: C 2 2 21
;
_chemical_formula_sum "Si O2"
_cell_formula_units_Z 28
_cell_length_a 9.580396
_cell_length_b 11.263913
_cell_length_c 11.900488
_cell_angle_alpha 90.000000
_cell_angle_beta 90.000000
_cell_angle_gamma 90.000000
_cell_volume 1284.214351
_symmetry_space_group_name_H-M "C 2 2 21"
_symmetry_group_IT_number 20
_symmetry_cell_setting 'orthorhombic'
loop_
_space_group_symop_operation_xyz
x,y,z
-x,-y,1/2+z
x,-y,-z
-x,y,1/2-z
1/2+x,1/2+y,z
1/2-x,1/2-y,1/2+z
1/2+x,1/2-y,-z
1/2-x,1/2+y,1/2-z
loop_
_atom_site_type_symbol
_atom_site_label
_atom_site_fract_x
_atom_site_fract_y
_atom_site_fract_z
Si Si1 0.754886 0.377865 0.434916
Si Si2 0.636140 0.390674 0.200098
Si Si3 0.189799 0.500000 0.500000
Si Si4 0.494700 0.781736 0.951732
O O1 0.781090 0.500000 0.500000
O O2 0.748047 0.384390 0.300048
O O3 0.614444 0.320996 0.486848
O O4 0.889574 0.294785 0.451829
O O5 0.500000 0.461430 0.250000
O O6 0.576388 0.260363 0.161459
O O7 0.707573 0.450880 0.094504
O O8 0.092169 0.596616 0.438291
#
# Coordination Sequence:
#
# PCOD8160254 Si02
#       4
#     8   8   4   8
#     4  11  25  46  71 107 144 185 241 292 356 424
#     4  10  26  45  73 108 141 186 238 293 357 430
#     4  12  24  50  74 102 148 186 238 300 360 422
#     4  11  24  47  70 106 143 187 239 290 354 424
#
# _framework density 21.803214000000001
#
# number of rings (size 3 to 8) (size 9 to 14) (size 15 to 20)
#    0.000    1.143    4.286    0.000    8.000    8.000 
#    0.000    0.000    0.000    0.000    0.000    0.000 
#    0.000    0.000    0.000    0.000    0.000    0.000 
#
# Total GULP energy -173437.885395 kJ/mol
# GULP energy per Si atom -12388.420385 kJ/mol
# Density = 2.175359 g / cm^3
# Si number density = 21.803214 Si / 1000 Ang^3
#
#
#
# Elastic Constant Matrix: (Units=GPa)
#
#
# Indices 1 2 3 4 5 6 
#
# 1 135.4481 47.8389 93.9420 0.0000 0.0000 0.0000
# 2 47.8389 86.7460 68.7048 0.0000 0.0000 0.0000
# 3 93.9420 68.7048 169.4455 0.0000 0.0000 0.0000
# 4 0.0000 0.0000 0.0000 24.5674 0.0000 0.0000
# 5 0.0000 0.0000 0.0000 0.0000 36.9424 0.0000
# 6 0.0000 0.0000 0.0000 0.0000 0.0000 43.8867
#
#
#
# Elastic Compliance Matrix: (Units=1/GPa)
#
#
# Indices 1 2 3 4 5 6 
#
# 1 0.012232 -0.002025 -0.005961 0.000000 0.000000 0.000000
# 2 -0.002025 0.017316 -0.005899 0.000000 0.000000 0.000000
# 3 -0.005961 -0.005899 0.011598 0.000000 0.000000 0.000000
# 4 0.000000 0.000000 0.000000 0.040704 0.000000 0.000000
# 5 0.000000 0.000000 0.000000 0.000000 0.027069 0.000000
# 6 0.000000 0.000000 0.000000 0.000000 0.000000 0.022786
#
#
# Mechanical properties :
#
#
# Convention : Reuss Voigt Hill
#
# Bulk Modulus (GPa) = 74.74810 90.29007 82.51908
# Shear Modulus (GPa) = 30.50016 33.15623 31.82820
#
# Velocity S-wave (km/s) = 3.74422 3.90385 3.82487
# Velocity P-wave (km/s) = 7.28353 7.86265 7.57862
#
# Compressibility (1/GPa) = 0.01337827
#
# Stress axis : x y z
#
# Youngs Moduli (GPa) = 81.75211 57.74845 86.22253
#
# Poissons Ratio (x) = 0.11693 0.51393
# Poissons Ratio (y) = 0.16554 0.50860
# Poissons Ratio (z) = 0.48729 0.34064
#
# Static dielectric constant tensor:
#      x y z
#    x 4.418050 0.000000 0.000000 
#    y 0.000000 3.911760 0.000000 
#    z 0.000000 0.000000 3.946490 
# 
# 
# High freq. dielectric constant tensor:
#      x y z
#    x 1.886390 0.000000 0.000000 
#    y 0.000000 1.839360 0.000000 
#    z 0.000000 0.000000 1.848090 
# 
# From -- ./inp_files/18136.got.cif
#   From: 2010.03.12/outbox.cif.g09.slc.cpg/sg20_10_cif.got.tgz:18136.got - 2010.04.14 01:38:04.
