data_PCOD8160629
_publ_section_title
;
Structure prediction by ZEFSAII (Michael W. Deem and Ramdas Pophale) SiO2 
 PCOD8160629
Probable space group: C 2 2 21
;
_chemical_formula_sum "Si O2"
_cell_formula_units_Z 36
_cell_length_a 9.204677
_cell_length_b 19.915411
_cell_length_c 8.898207
_cell_angle_alpha 90.000000
_cell_angle_beta 90.000000
_cell_angle_gamma 90.000000
_cell_volume 1631.174154
_symmetry_space_group_name_H-M "C 2 2 21"
_symmetry_group_IT_number 20
_symmetry_cell_setting 'orthorhombic'
loop_
_space_group_symop_operation_xyz
x,y,z
-x,-y,1/2+z
x,-y,-z
-x,y,1/2-z
1/2+x,1/2+y,z
1/2-x,1/2-y,1/2+z
1/2+x,1/2-y,-z
1/2-x,1/2+y,1/2-z
loop_
_atom_site_type_symbol
_atom_site_label
_atom_site_fract_x
_atom_site_fract_y
_atom_site_fract_z
Si Si1 0.964403 0.065968 0.914608
Si Si2 0.237915 0.316688 0.041626
Si Si3 0.712882 0.922509 0.481554
Si Si4 0.000000 0.365621 0.250000
Si Si5 0.342888 0.188587 0.207094
O O1 0.847470 0.125254 0.905647
O O2 0.000000 0.038852 0.750000
O O3 0.115320 0.094151 0.982368
O O4 0.903533 0.000000 0.000000
O O5 0.076670 0.325473 0.113050
O O6 0.280175 0.242735 0.092952
O O7 0.246182 0.318030 0.861400
O O8 0.632107 0.905995 0.325467
O O9 0.648237 0.882909 0.623832
O O10 0.682179 0.000000 0.500000
O O11 0.500000 0.214985 0.250000
#
# Coordination Sequence:
#
# PCOD8160629 Si02
#       5
#     8   8   8   4   8
#     4  11  26  48  75 106 145 192 240 291 356 430
#     4  12  28  46  77 102 149 187 246 291 361 427
#     4  11  27  46  73 107 146 187 246 294 357 431
#     4  12  24  46  72 106 142 194 232 304 364 412
#     4  12  28  48  72 108 144 194 238 299 360 421
#
# _framework density 22.069991000000002
#
# number of rings (size 3 to 8) (size 9 to 14) (size 15 to 20)
#    0.000    0.444    4.444    2.000   10.889    0.889 
#    0.000    0.000    0.000    0.000    0.000    0.000 
#    0.000    0.000    0.000    0.000    0.000    0.000 
#
# Total GULP energy -223184.071074 kJ/mol
# GULP energy per Si atom -12399.115060 kJ/mol
# Density = 2.201976 g / cm^3
# Si number density = 22.069991 Si / 1000 Ang^3
#
#
#
# Elastic Constant Matrix: (Units=GPa)
#
#
# Indices 1 2 3 4 5 6 
#
# 1 82.9322 38.6530 11.0069 0.0000 0.0000 0.0000
# 2 38.6530 140.7408 59.0850 0.0000 0.0000 0.0000
# 3 11.0069 59.0850 148.1930 0.0000 0.0000 0.0000
# 4 0.0000 0.0000 0.0000 35.2010 0.0000 0.0000
# 5 0.0000 0.0000 0.0000 0.0000 41.0101 0.0000
# 6 0.0000 0.0000 0.0000 0.0000 0.0000 21.5144
#
#
#
# Elastic Compliance Matrix: (Units=1/GPa)
#
#
# Indices 1 2 3 4 5 6 
#
# 1 0.013870 -0.004056 0.000587 0.000000 0.000000 0.000000
# 2 -0.004056 0.009720 -0.003574 0.000000 0.000000 0.000000
# 3 0.000587 -0.003574 0.008129 0.000000 0.000000 0.000000
# 4 0.000000 0.000000 0.000000 0.028408 0.000000 0.000000
# 5 0.000000 0.000000 0.000000 0.000000 0.024384 0.000000
# 6 0.000000 0.000000 0.000000 0.000000 0.000000 0.046481
#
#
# Mechanical properties :
#
#
# Convention : Reuss Voigt Hill
#
# Bulk Modulus (GPa) = 56.71008 65.48396 61.09702
# Shear Modulus (GPa) = 33.12223 37.08651 35.10437
#
# Velocity S-wave (km/s) = 3.87819 4.10372 3.99255
# Velocity P-wave (km/s) = 6.76795 7.22423 6.99981
#
# Compressibility (1/GPa) = 0.01763355
#
# Stress axis : x y z
#
# Youngs Moduli (GPa) = 72.09567 102.88572 123.01149
#
# Poissons Ratio (x) = 0.41728 -0.07219
# Poissons Ratio (y) = 0.29240 0.43964
# Poissons Ratio (z) = -0.04231 0.36771
#
# Static dielectric constant tensor:
#      x y z
#    x 4.256960 0.000000 0.000000 
#    y 0.000000 3.751580 0.000000 
#    z 0.000000 0.000000 4.350400 
# 
# 
# High freq. dielectric constant tensor:
#      x y z
#    x 1.877570 0.000000 0.000000 
#    y 0.000000 1.862950 0.000000 
#    z 0.000000 0.000000 1.889020 
# 
# From -- ./inp_files/5883.got.cif
#   From: 2010.03.12/outbox.cif.g09.slc.cpg/sg20_3_cif.got.tgz:5883.got - 2010.04.14 01:38:04.
