data_PCOD8160913
_publ_section_title
;
Structure prediction by ZEFSAII (Michael W. Deem and Ramdas Pophale) SiO2 
 PCOD8160913
Probable space group: C 2 2 2
;
_chemical_formula_sum "Si O2"
_cell_formula_units_Z 48
_cell_length_a 23.886720
_cell_length_b 24.939537
_cell_length_c 5.063271
_cell_angle_alpha 90.000000
_cell_angle_beta 90.000000
_cell_angle_gamma 90.000000
_cell_volume 3016.310723
_symmetry_space_group_name_H-M "C 2 2 2"
_symmetry_group_IT_number 21
_symmetry_cell_setting 'orthorhombic'
loop_
_space_group_symop_operation_xyz
x,y,z
-x,-y,z
x,-y,-z
-x,y,-z
1/2+x,1/2+y,z
1/2-x,1/2-y,z
1/2+x,1/2-y,-z
1/2-x,1/2+y,-z
loop_
_atom_site_type_symbol
_atom_site_label
_atom_site_fract_x
_atom_site_fract_y
_atom_site_fract_z
Si Si1 0.227051 0.165122 0.876903
Si Si2 0.263524 0.110025 0.378247
Si Si3 0.623978 0.822164 0.383885
Si Si4 0.660238 0.233115 0.113723
Si Si5 0.035682 0.591587 0.750718
Si Si6 0.386989 0.000000 0.000000
Si Si7 0.185829 0.500000 0.500000
O O1 0.224922 0.129263 0.617046
O O2 0.281599 0.201859 0.881688
O O3 0.172473 0.203269 0.879193
O O4 0.227785 0.124021 0.119847
O O5 0.323174 0.138805 0.376836
O O6 0.274459 0.046887 0.393649
O O7 0.621748 0.786266 0.645539
O O8 0.568997 0.858229 0.366161
O O9 0.625822 0.779711 0.148053
O O10 0.000000 0.568648 0.500000
O O11 0.075694 0.546312 0.872222
O O12 0.000000 0.611971 0.000000
O O13 0.350297 0.978163 0.248048
#
# Coordination Sequence:
#
# PCOD8160913 Si02
#       7
#     8   8   8   8   8   4   4
#     4   9  17  29  45  70  87 110 133 181 226 280
#     4  10  19  30  47  63  92 113 149 183 227 272
#     4  10  19  33  48  64  84 112 142 193 239 289
#     4   9  17  29  49  67  87 105 137 174 239 288
#     4  12  25  39  50  65  86 115 159 211 253 290
#     4  12  25  38  52  60  84 120 166 206 252 282
#     4  12  22  34  51  68  88 128 158 196 233 290
#
# _framework density 15.91348
#
# number of rings (size 3 to 8) (size 9 to 14) (size 15 to 20)
#    0.000    1.667    1.667    4.250    4.667    4.667 
#    0.000    0.000    0.000    0.000    0.000    0.000 
#    0.000    0.000    0.000    0.000    0.000    0.000 
#
# Total GULP energy -297552.345790 kJ/mol
# GULP energy per Si atom -12398.014408 kJ/mol
# Density = 1.587726 g / cm^3
# Si number density = 15.913480 Si / 1000 Ang^3
#
#
#
# Elastic Constant Matrix: (Units=GPa)
#
#
# Indices 1 2 3 4 5 6 
#
# 1 30.8202 45.2292 28.3410 0.0000 0.0000 0.0000
# 2 45.2292 101.6105 56.4203 0.0000 0.0000 0.0000
# 3 28.3410 56.4203 138.1291 0.0000 0.0000 0.0000
# 4 0.0000 0.0000 0.0000 27.0824 0.0000 0.0000
# 5 0.0000 0.0000 0.0000 0.0000 18.2818 0.0000
# 6 0.0000 0.0000 0.0000 0.0000 0.0000 8.3919
#
#
#
# Elastic Compliance Matrix: (Units=1/GPa)
#
#
# Indices 1 2 3 4 5 6 
#
# 1 0.094428 -0.040448 -0.002853 0.000000 0.000000 0.000000
# 2 -0.040448 0.030054 -0.003977 0.000000 0.000000 0.000000
# 3 -0.002853 -0.003977 0.009449 0.000000 0.000000 0.000000
# 4 0.000000 0.000000 0.000000 0.036924 0.000000 0.000000
# 5 0.000000 0.000000 0.000000 0.000000 0.054699 0.000000
# 6 0.000000 0.000000 0.000000 0.000000 0.000000 0.119162
#
#
# Mechanical properties :
#
#
# Convention : Reuss Voigt Hill
#
# Bulk Modulus (GPa) = 25.39646 58.94899 42.17272
# Shear Modulus (GPa) = 11.05223 20.12250 15.58737
#
# Velocity S-wave (km/s) = 2.63823 3.55983 3.13310
# Velocity P-wave (km/s) = 5.02734 7.34986 6.29660
#
# Compressibility (1/GPa) = 0.03937557
#
# Stress axis : x y z
#
# Youngs Moduli (GPa) = 10.59010 33.27354 105.82674
#
# Poissons Ratio (x) = 1.34584 0.30194
# Poissons Ratio (y) = 0.42835 0.42086
# Poissons Ratio (z) = 0.03022 0.13232
#
# Static dielectric constant tensor:
#      x y z
#    x 2.731480 0.000000 0.000000 
#    y 0.000000 3.324590 0.000000 
#    z 0.000000 0.000000 3.457880 
# 
# 
# High freq. dielectric constant tensor:
#      x y z
#    x 1.550430 0.000000 0.000000 
#    y 0.000000 1.593340 0.000000 
#    z 0.000000 0.000000 1.643050 
# 
# From -- ./inp_files/6062.got.cif
#   From: 2010.03.12/outbox.cif.g09.slc.cpg/sg21_4_cif.got.tgz:6062.got - 2010.04.14 01:59:26.
