data_PCOD8160922
_publ_section_title
;
Structure prediction by ZEFSAII (Michael W. Deem and Ramdas Pophale) SiO2 
 PCOD8160922
Probable space group: C 2 2 2
;
_chemical_formula_sum "Si O2"
_cell_formula_units_Z 40
_cell_length_a 16.352906
_cell_length_b 8.668300
_cell_length_c 14.741381
_cell_angle_alpha 90.000000
_cell_angle_beta 90.000000
_cell_angle_gamma 90.000000
_cell_volume 2089.618693
_symmetry_space_group_name_H-M "C 2 2 2"
_symmetry_group_IT_number 21
_symmetry_cell_setting 'orthorhombic'
loop_
_space_group_symop_operation_xyz
x,y,z
-x,-y,z
x,-y,-z
-x,y,-z
1/2+x,1/2+y,z
1/2-x,1/2-y,z
1/2+x,1/2-y,-z
1/2-x,1/2+y,-z
loop_
_atom_site_type_symbol
_atom_site_label
_atom_site_fract_x
_atom_site_fract_y
_atom_site_fract_z
Si Si1 0.407464 0.444504 0.287078
Si Si2 0.264555 0.430967 0.599371
Si Si3 0.589041 0.430925 0.912775
Si Si4 0.672794 0.858238 0.268057
Si Si5 0.411706 0.928091 0.908254
O O1 0.500000 0.500000 0.300303
O O2 0.352874 0.540376 0.356504
O O3 0.372260 0.475116 0.184773
O O4 0.399266 0.258299 0.303071
O O5 0.264543 0.500000 0.500000
O O6 0.250000 0.250000 0.595938
O O7 0.193049 0.516667 0.655152
O O8 0.500000 0.500000 0.912972
O O9 0.579549 0.250996 0.926137
O O10 0.638741 0.500000 0.000000
O O11 0.750000 0.750000 0.245210
O O12 0.646626 0.954261 0.178612
O O13 0.500000 0.000000 0.887487
O O14 0.372977 0.000000 0.000000
#
# Coordination Sequence:
#
# PCOD8160922 Si02
#       5
#     8   8   8   8   8
#     4   9  19  36  59  84 110 145 186 230 276 327
#     4  11  23  40  61  81 108 145 183 229 287 343
#     4   9  16  28  48  75 111 145 175 213 264 322
#     4   9  20  39  56  78 114 150 183 225 277 338
#     4  10  19  31  53  82 112 145 184 230 269 309
#
# _framework density 19.142249
#
# number of rings (size 3 to 8) (size 9 to 14) (size 15 to 20)
#    0.000    2.400    0.000    4.200    0.000    6.800 
#    0.000   10.000    0.000    4.200    0.000    0.000 
#    0.000    0.000    0.000    0.000    0.000    0.000 
#
# Total GULP energy -247827.007190 kJ/mol
# GULP energy per Si atom -12391.350359 kJ/mol
# Density = 1.909868 g / cm^3
# Si number density = 19.142249 Si / 1000 Ang^3
#
#
#
# Elastic Constant Matrix: (Units=GPa)
#
#
# Indices 1 2 3 4 5 6 
#
# 1 75.0415 54.7252 62.0455 0.0000 0.0000 0.0000
# 2 54.7252 138.4118 95.1393 0.0000 0.0000 0.0000
# 3 62.0455 95.1393 189.1139 0.0000 0.0000 0.0000
# 4 0.0000 0.0000 0.0000 39.4587 0.0000 0.0000
# 5 0.0000 0.0000 0.0000 0.0000 25.2017 0.0000
# 6 0.0000 0.0000 0.0000 0.0000 0.0000 33.3465
#
#
#
# Elastic Compliance Matrix: (Units=1/GPa)
#
#
# Indices 1 2 3 4 5 6 
#
# 1 0.020584 -0.005345 -0.004065 0.000000 0.000000 0.000000
# 2 -0.005345 0.012432 -0.004500 0.000000 0.000000 0.000000
# 3 -0.004065 -0.004500 0.008885 0.000000 0.000000 0.000000
# 4 0.000000 0.000000 0.000000 0.025343 0.000000 0.000000
# 5 0.000000 0.000000 0.000000 0.000000 0.039680 0.000000
# 6 0.000000 0.000000 0.000000 0.000000 0.000000 0.029988
#
#
# Mechanical properties :
#
#
# Convention : Reuss Voigt Hill
#
# Bulk Modulus (GPa) = 71.01452 91.82078 81.41765
# Shear Modulus (GPa) = 29.51140 32.31185 30.91162
#
# Velocity S-wave (km/s) = 3.93069 4.11297 4.02286
# Velocity P-wave (km/s) = 7.60127 8.40399 8.01269
#
# Compressibility (1/GPa) = 0.01408163
#
# Stress axis : x y z
#
# Youngs Moduli (GPa) = 48.58045 80.44067 112.54367
#
# Poissons Ratio (x) = 0.42994 0.45744
# Poissons Ratio (y) = 0.25965 0.50650
# Poissons Ratio (z) = 0.19746 0.36202
#
# Static dielectric constant tensor:
#      x y z
#    x 3.370760 0.000000 0.000000 
#    y 0.000000 3.672020 0.000000 
#    z 0.000000 0.000000 4.754150 
# 
# 
# High freq. dielectric constant tensor:
#      x y z
#    x 1.718530 0.000000 0.000000 
#    y 0.000000 1.750850 0.000000 
#    z 0.000000 0.000000 1.756870 
# 
# From -- ./inp_files/32691.got.cif
#   From: 2010.03.12/outbox.cif.g09.slc.cpg/sg21_17_cif.got.tgz:32691.got - 2010.04.14 01:59:26.
