data_PCOD8160308
_publ_section_title
;
Structure prediction by ZEFSAII (Michael W. Deem and Ramdas Pophale) SiO2 
 PCOD8160308
Probable space group: C 2 2 21
;
_chemical_formula_sum "Si O2"
_cell_formula_units_Z 48
_cell_length_a 14.567464
_cell_length_b 16.040728
_cell_length_c 9.463100
_cell_angle_alpha 90.000000
_cell_angle_beta 90.000000
_cell_angle_gamma 90.000000
_cell_volume 2211.268389
_symmetry_space_group_name_H-M "C 2 2 21"
_symmetry_group_IT_number 20
_symmetry_cell_setting 'orthorhombic'
loop_
_space_group_symop_operation_xyz
x,y,z
-x,-y,1/2+z
x,-y,-z
-x,y,1/2-z
1/2+x,1/2+y,z
1/2-x,1/2-y,1/2+z
1/2+x,1/2-y,-z
1/2-x,1/2+y,1/2-z
loop_
_atom_site_type_symbol
_atom_site_label
_atom_site_fract_x
_atom_site_fract_y
_atom_site_fract_z
Si Si1 0.144018 0.244367 0.007919
Si Si2 0.602067 0.114286 0.777154
Si Si3 0.219089 0.029281 0.659188
Si Si4 0.150137 0.254572 0.445214
Si Si5 0.596162 0.314425 0.285502
Si Si6 0.395877 0.613170 0.276545
O O1 0.096844 0.320221 0.092845
O O2 0.110197 0.155186 0.069208
O O3 0.252895 0.251284 0.024624
O O4 0.123022 0.247592 0.841578
O O5 0.500000 0.078099 0.750000
O O6 0.671713 0.038441 0.811685
O O7 0.635963 0.158139 0.632992
O O8 0.175118 0.119222 0.684201
O O9 0.200326 0.000000 0.500000
O O10 0.172957 0.964984 0.768144
O O11 0.078809 0.242305 0.574592
O O12 0.137385 0.180620 0.335372
O O13 0.500000 0.359894 0.250000
O O14 0.500000 0.583271 0.250000
#
# Coordination Sequence:
#
# PCOD8160308 Si02
#       6
#     8   8   8   8   8   8
#     4  11  21  39  67  97 127 164 213 270 327 391
#     4  11  23  44  68  92 126 174 221 267 326 386
#     4  12  24  42  64  93 136 176 211 266 329 393
#     4  11  20  42  66  96 129 164 213 269 324 386
#     4  12  22  37  64 100 129 160 212 269 327 389
#     4  11  23  41  64  93 132 174 211 260 331 391
#
# _framework density 21.706999
#
# number of rings (size 3 to 8) (size 9 to 14) (size 15 to 20)
#    0.000    0.667    5.000    5.500    0.000    0.667 
#    0.000    1.667    0.000    2.000    0.000    0.000 
#    0.000    0.000    0.000    0.000    0.000    0.000 
#
# Total GULP energy -297636.604151 kJ/mol
# GULP energy per Si atom -12401.525173 kJ/mol
# Density = 2.165759 g / cm^3
# Si number density = 21.706999 Si / 1000 Ang^3
#
#
#
# Elastic Constant Matrix: (Units=GPa)
#
#
# Indices 1 2 3 4 5 6 
#
# 1 124.9534 24.6344 5.3437 0.0000 0.0000 0.0000
# 2 24.6344 61.4882 19.9240 0.0000 0.0000 0.0000
# 3 5.3437 19.9240 107.1683 0.0000 0.0000 0.0000
# 4 0.0000 0.0000 0.0000 17.1198 0.0000 0.0000
# 5 0.0000 0.0000 0.0000 0.0000 33.8087 0.0000
# 6 0.0000 0.0000 0.0000 0.0000 0.0000 27.4288
#
#
#
# Elastic Compliance Matrix: (Units=1/GPa)
#
#
# Indices 1 2 3 4 5 6 
#
# 1 0.008695 -0.003557 0.000228 0.000000 0.000000 0.000000
# 2 -0.003557 0.018761 -0.003311 0.000000 0.000000 0.000000
# 3 0.000228 -0.003311 0.009935 0.000000 0.000000 0.000000
# 4 0.000000 0.000000 0.000000 0.058412 0.000000 0.000000
# 5 0.000000 0.000000 0.000000 0.000000 0.029578 0.000000
# 6 0.000000 0.000000 0.000000 0.000000 0.000000 0.036458
#
#
# Mechanical properties :
#
#
# Convention : Reuss Voigt Hill
#
# Bulk Modulus (GPa) = 41.47480 43.71268 42.59374
# Shear Modulus (GPa) = 27.29913 31.91862 29.60888
#
# Velocity S-wave (km/s) = 3.55014 3.83878 3.69728
# Velocity P-wave (km/s) = 5.99606 6.31107 6.15558
#
# Compressibility (1/GPa) = 0.02411103
#
# Stress axis : x y z
#
# Youngs Moduli (GPa) = 115.01478 53.30170 100.65189
#
# Poissons Ratio (x) = 0.18960 -0.02293
# Poissons Ratio (y) = 0.40913 0.33321
# Poissons Ratio (z) = -0.02620 0.17646
#
# Static dielectric constant tensor:
#      x y z
#    x 4.139120 0.000000 0.000000 
#    y 0.000000 3.614030 0.000000 
#    z 0.000000 0.000000 4.160560 
# 
# 
# High freq. dielectric constant tensor:
#      x y z
#    x 1.869880 0.000000 0.000000 
#    y 0.000000 1.813040 0.000000 
#    z 0.000000 0.000000 1.864960 
# 
# From -- ./inp_files/8416.got.cif
#   From: 2010.03.12/outbox.cif.g09.slc.cpg/sg20_5_cif.got.tgz:8416.got - 2010.04.14 01:38:04.
