data_PCOD8160909
_publ_section_title
;
Structure prediction by ZEFSAII (Michael W. Deem and Ramdas Pophale) SiO2 
 PCOD8160909
Probable space group: C 2 2 2
;
_chemical_formula_sum "Si O2"
_cell_formula_units_Z 52
_cell_length_a 16.381925
_cell_length_b 14.226275
_cell_length_c 12.267433
_cell_angle_alpha 90.000000
_cell_angle_beta 90.000000
_cell_angle_gamma 90.000000
_cell_volume 2858.971510
_symmetry_space_group_name_H-M "C 2 2 2"
_symmetry_group_IT_number 21
_symmetry_cell_setting 'orthorhombic'
loop_
_space_group_symop_operation_xyz
x,y,z
-x,-y,z
x,-y,-z
-x,y,-z
1/2+x,1/2+y,z
1/2-x,1/2-y,z
1/2+x,1/2-y,-z
1/2-x,1/2+y,-z
loop_
_atom_site_type_symbol
_atom_site_label
_atom_site_fract_x
_atom_site_fract_y
_atom_site_fract_z
Si Si1 0.709860 0.149915 0.795128
Si Si2 0.947244 0.736353 0.103250
Si Si3 0.268462 0.099199 0.442185
Si Si4 0.135548 0.067298 0.099759
Si Si5 0.510290 0.297248 0.327782
Si Si6 0.500000 0.500000 0.255409
Si Si7 0.370998 0.270810 0.491614
O O1 0.750000 0.250000 0.764117
O O2 0.625077 0.163865 0.862057
O O3 0.698158 0.094211 0.681842
O O4 0.772400 0.088228 0.864159
O O5 0.908963 0.835754 0.067748
O O6 0.006957 0.752952 0.206700
O O7 0.000000 0.697329 0.000000
O O8 0.317915 0.178211 0.505744
O O9 0.174931 0.134396 0.451362
O O10 0.280910 0.000000 0.500000
O O11 0.082861 0.008466 0.185787
O O12 0.144551 0.000000 0.000000
O O13 0.503177 0.409276 0.330555
O O14 0.438665 0.251916 0.399538
O O15 0.595845 0.278920 0.385746
#
# Coordination Sequence:
#
# PCOD8160909 Si02
#       7
#     8   8   8   8   8   4   8
#     4  10  19  37  59  83 118 162 196 240 304 370
#     4  10  19  36  61  81 112 163 203 245 301 353
#     4  11  21  37  60  83 115 161 197 239 307 365
#     4  10  19  32  54  87 121 147 198 243 301 368
#     4  10  20  34  55  84 121 147 198 250 300 357
#     4  10  19  29  54  88 118 158 180 244 316 364
#     4  10  21  36  56  86 120 149 195 252 293 363
#
# _framework density 18.188358000000001
#
# number of rings (size 3 to 8) (size 9 to 14) (size 15 to 20)
#    0.000    1.846    3.077    3.923    4.308    0.615 
#    0.000    3.077    6.769    2.308    0.000    0.000 
#    0.000    0.000    0.000    0.000    0.000    0.000 
#
# Total GULP energy -322267.443514 kJ/mol
# GULP energy per Si atom -12394.901674 kJ/mol
# Density = 1.814696 g / cm^3
# Si number density = 18.188358 Si / 1000 Ang^3
#
#
#
# Elastic Constant Matrix: (Units=GPa)
#
#
# Indices 1 2 3 4 5 6 
#
# 1 95.1751 30.1325 59.4722 0.0000 0.0000 0.0000
# 2 30.1325 66.2934 34.1938 0.0000 0.0000 0.0000
# 3 59.4722 34.1938 124.9451 0.0000 0.0000 0.0000
# 4 0.0000 0.0000 0.0000 54.9841 0.0000 0.0000
# 5 0.0000 0.0000 0.0000 0.0000 43.5149 0.0000
# 6 0.0000 0.0000 0.0000 0.0000 0.0000 -45.5809
#
#
#
# Elastic Compliance Matrix: (Units=1/GPa)
#
#
# Indices 1 2 3 4 5 6 
#
# 1 0.015749 -0.003833 -0.006448 0.000000 0.000000 0.000000
# 2 -0.003833 0.018497 -0.003238 0.000000 0.000000 0.000000
# 3 -0.006448 -0.003238 0.011958 0.000000 0.000000 0.000000
# 4 0.000000 0.000000 0.000000 0.018187 0.000000 0.000000
# 5 0.000000 0.000000 0.000000 0.000000 0.022981 0.000000
# 6 0.000000 0.000000 0.000000 0.000000 0.000000 -0.021939
#
#
# Mechanical properties :
#
#
# Convention : Reuss Voigt Hill
#
# Bulk Modulus (GPa) = 52.16932 59.33450 55.75191
# Shear Modulus (GPa) = 50.57734 21.42463 36.00098
#
# Velocity S-wave (km/s) = 5.27901 3.43582 4.45381
# Velocity P-wave (km/s) = 8.11802 6.95938 7.56093
#
# Compressibility (1/GPa) = 0.01916835
#
# Stress axis : x y z
#
# Youngs Moduli (GPa) = 63.49474 54.06407 83.62284
#
# Poissons Ratio (x) = 0.20723 0.53916
# Poissons Ratio (y) = 0.24337 0.27073
# Poissons Ratio (z) = 0.40938 0.17503
#
# Static dielectric constant tensor:
#      x y z
#    x -7.413580 0.000000 0.000000 
#    y 0.000000 3.118890 0.000000 
#    z 0.000000 0.000000 5.136900 
# 
# 
# High freq. dielectric constant tensor:
#      x y z
#    x 1.704710 0.000000 0.000000 
#    y 0.000000 1.679830 0.000000 
#    z 0.000000 0.000000 1.706610 
# 
# From -- ./inp_files/26151.got.cif
#   From: 2010.03.12/outbox.cif.g09.slc.cpg/sg21_14_cif.got.tgz:26151.got - 2010.04.14 01:59:26.
