data_PCOD8160707
_publ_section_title
;
Structure prediction by ZEFSAII (Michael W. Deem and Ramdas Pophale) SiO2 
 PCOD8160707
Probable space group: C 2 2 21
;
_chemical_formula_sum "Si O2"
_cell_formula_units_Z 64
_cell_length_a 11.363651
_cell_length_b 8.848402
_cell_length_c 27.823747
_cell_angle_alpha 90.000000
_cell_angle_beta 90.000000
_cell_angle_gamma 90.000000
_cell_volume 2797.681997
_symmetry_space_group_name_H-M "C 2 2 21"
_symmetry_group_IT_number 20
_symmetry_cell_setting 'orthorhombic'
loop_
_space_group_symop_operation_xyz
x,y,z
-x,-y,1/2+z
x,-y,-z
-x,y,1/2-z
1/2+x,1/2+y,z
1/2-x,1/2-y,1/2+z
1/2+x,1/2-y,-z
1/2-x,1/2+y,1/2-z
loop_
_atom_site_type_symbol
_atom_site_label
_atom_site_fract_x
_atom_site_fract_y
_atom_site_fract_z
Si Si1 0.751760 0.360183 0.471276
Si Si2 0.038868 0.837511 0.410951
Si Si3 0.311905 0.388851 0.460774
Si Si4 0.859666 0.475943 0.882385
Si Si5 0.753836 0.572598 0.304400
Si Si6 0.782411 0.914520 0.290721
Si Si7 0.010282 0.922437 0.831114
Si Si8 0.895277 0.629334 0.622471
O O1 0.807413 0.500000 0.500000
O O2 0.622789 0.402374 0.452212
O O3 0.732154 0.225716 0.509072
O O4 0.835745 0.316578 0.426800
O O5 0.913268 0.791479 0.433957
O O6 0.106603 0.701712 0.383487
O O7 0.008988 0.975704 0.377180
O O8 0.370776 0.500000 0.500000
O O9 0.231139 0.483223 0.424281
O O10 0.803556 0.520927 0.831680
O O11 0.978650 0.565057 0.891171
O O12 0.810352 0.736304 0.294902
O O13 0.776092 0.458401 0.260148
O O14 0.616792 0.613857 0.309896
O O15 0.812686 0.495106 0.351019
O O16 0.910695 0.990321 0.292436
O O17 0.084868 0.773600 0.843888
#
# Coordination Sequence:
#
# PCOD8160707 Si02
#       8
#     8   8   8   8   8   8   8   8
#     4  12  27  42  72 107 146 197 253 304 373 448
#     4  12  25  46  75 104 150 198 251 308 376 445
#     4  12  26  48  73 108 149 197 255 310 373 446
#     4  12  27  47  75 108 152 197 249 312 377 450
#     4  12  28  51  77 113 152 195 251 313 380 457
#     4  12  27  51  79 111 153 195 249 312 381 455
#     4  12  25  49  80 109 148 199 250 309 378 449
#     4  12  27  49  77 108 154 199 250 313 380 445
#
# _framework density 22.876082
#
# number of rings (size 3 to 8) (size 9 to 14) (size 15 to 20)
#    0.000    0.000    5.000    4.500    7.000    1.000 
#    2.250    0.000    0.000    0.000    0.000    0.000 
#    0.000    0.000    0.000    0.000    0.000    0.000 
#
# Total GULP energy -396845.160368 kJ/mol
# GULP energy per Si atom -12401.411261 kJ/mol
# Density = 2.282402 g / cm^3
# Si number density = 22.876082 Si / 1000 Ang^3
#
#
#
# Elastic Constant Matrix: (Units=GPa)
#
#
# Indices 1 2 3 4 5 6 
#
# 1 109.2919 16.5066 21.4501 0.0000 0.0000 0.0000
# 2 16.5066 123.3358 33.7873 0.0000 0.0000 0.0000
# 3 21.4501 33.7873 84.1736 0.0000 0.0000 0.0000
# 4 0.0000 0.0000 0.0000 41.8237 0.0000 0.0000
# 5 0.0000 0.0000 0.0000 0.0000 2.5810 0.0000
# 6 0.0000 0.0000 0.0000 0.0000 0.0000 39.8995
#
#
#
# Elastic Compliance Matrix: (Units=1/GPa)
#
#
# Indices 1 2 3 4 5 6 
#
# 1 0.009685 -0.000697 -0.002188 0.000000 0.000000 0.000000
# 2 -0.000697 0.009160 -0.003499 0.000000 0.000000 0.000000
# 3 -0.002188 -0.003499 0.013842 0.000000 0.000000 0.000000
# 4 0.000000 0.000000 0.000000 0.023910 0.000000 0.000000
# 5 0.000000 0.000000 0.000000 0.000000 0.387441 0.000000
# 6 0.000000 0.000000 0.000000 0.000000 0.000000 0.025063
#
#
# Mechanical properties :
#
#
# Convention : Reuss Voigt Hill
#
# Bulk Modulus (GPa) = 50.20474 51.14325 50.67399
# Shear Modulus (GPa) = 10.23524 33.19798 21.71661
#
# Velocity S-wave (km/s) = 2.11753 3.81361 3.08444
# Velocity P-wave (km/s) = 5.28891 6.46503 5.90632
#
# Compressibility (1/GPa) = 0.01991844
#
# Stress axis : x y z
#
# Youngs Moduli (GPa) = 103.25769 109.17297 72.24159
#
# Poissons Ratio (x) = 0.07606 0.15808
# Poissons Ratio (y) = 0.07193 0.25279
# Poissons Ratio (z) = 0.22596 0.38202
#
# Static dielectric constant tensor:
#      x y z
#    x 4.391830 0.000000 0.000000 
#    y 0.000000 4.254630 0.000000 
#    z 0.000000 0.000000 4.176470 
# 
# 
# High freq. dielectric constant tensor:
#      x y z
#    x 1.911650 0.000000 0.000000 
#    y 0.000000 1.913000 0.000000 
#    z 0.000000 0.000000 1.910150 
# 
# From -- ./inp_files/31191.got.cif
#   From: 2010.03.12/outbox.cif.g09.slc.cpg/sg20_16_cif.got.tgz:31191.got - 2010.04.14 01:38:04.
