data_PCOD8160407
_publ_section_title
;
Structure prediction by ZEFSAII (Michael W. Deem and Ramdas Pophale) SiO2 
 PCOD8160407
Probable space group: C 2 2 21
;
_chemical_formula_sum "Si O2"
_cell_formula_units_Z 40
_cell_length_a 13.767825
_cell_length_b 9.286004
_cell_length_c 14.321911
_cell_angle_alpha 90.000000
_cell_angle_beta 90.000000
_cell_angle_gamma 90.000000
_cell_volume 1831.028795
_symmetry_space_group_name_H-M "C 2 2 21"
_symmetry_group_IT_number 20
_symmetry_cell_setting 'orthorhombic'
loop_
_space_group_symop_operation_xyz
x,y,z
-x,-y,1/2+z
x,-y,-z
-x,y,1/2-z
1/2+x,1/2+y,z
1/2-x,1/2-y,1/2+z
1/2+x,1/2-y,-z
1/2-x,1/2+y,1/2-z
loop_
_atom_site_type_symbol
_atom_site_label
_atom_site_fract_x
_atom_site_fract_y
_atom_site_fract_z
Si Si1 0.703166 0.500000 0.500000
Si Si2 0.955012 0.862020 0.109646
Si Si3 0.696153 0.999834 0.818495
Si Si4 0.875600 0.000000 0.500000
Si Si5 0.500000 0.882417 0.750000
Si Si6 0.688286 0.327221 0.833853
Si Si7 0.000000 0.090760 0.250000
O O1 0.632936 0.630981 0.535150
O O2 0.771866 0.566911 0.418547
O O3 0.954145 0.712605 0.166251
O O4 0.935116 0.991566 0.181936
O O5 0.059140 0.889813 0.061090
O O6 0.581940 0.981254 0.797969
O O7 0.753277 0.928520 0.734851
O O8 0.729423 0.166360 0.829068
O O9 0.806281 0.900815 0.564208
O O10 0.574645 0.311768 0.807078
#
# Coordination Sequence:
#
# PCOD8160407 Si02
#       7
#     4   8   8   4   4   8   4
#     4  11  22  42  65 104 126 184 231 288 341 432
#     4   9  19  41  71  95 130 179 228 282 354 417
#     4  12  27  42  69  99 147 181 238 285 354 417
#     4   9  22  40  75 100 134 174 237 288 351 422
#     4  11  25  46  66  98 146 190 228 298 356 410
#     4  11  24  43  69 103 136 187 228 295 346 427
#     4   9  17  40  68  94 132 168 224 274 350 404
#
# _framework density 21.845642000000002
#
# number of rings (size 3 to 8) (size 9 to 14) (size 15 to 20)
#    0.000    1.600    2.000    1.800    8.400    0.000 
#    0.000    1.000    0.000    0.000    0.000    0.000 
#    0.000    0.000    0.000    0.000    0.000    0.000 
#
# Total GULP energy -247954.399187 kJ/mol
# GULP energy per Si atom -12397.719959 kJ/mol
# Density = 2.179592 g / cm^3
# Si number density = 21.845642 Si / 1000 Ang^3
#
#
#
# Elastic Constant Matrix: (Units=GPa)
#
#
# Indices 1 2 3 4 5 6 
#
# 1 92.7254 38.4617 51.8620 0.0000 0.0000 0.0000
# 2 38.4617 112.3857 57.2222 0.0000 0.0000 0.0000
# 3 51.8620 57.2222 151.7373 0.0000 0.0000 0.0000
# 4 0.0000 0.0000 0.0000 27.2452 0.0000 0.0000
# 5 0.0000 0.0000 0.0000 0.0000 36.3453 0.0000
# 6 0.0000 0.0000 0.0000 0.0000 0.0000 27.2544
#
#
#
# Elastic Compliance Matrix: (Units=1/GPa)
#
#
# Indices 1 2 3 4 5 6 
#
# 1 0.014072 -0.002929 -0.003705 0.000000 0.000000 0.000000
# 2 -0.002929 0.011622 -0.003382 0.000000 0.000000 0.000000
# 3 -0.003705 -0.003382 0.009132 0.000000 0.000000 0.000000
# 4 0.000000 0.000000 0.000000 0.036704 0.000000 0.000000
# 5 0.000000 0.000000 0.000000 0.000000 0.027514 0.000000
# 6 0.000000 0.000000 0.000000 0.000000 0.000000 0.036691
#
#
# Mechanical properties :
#
#
# Convention : Reuss Voigt Hill
#
# Bulk Modulus (GPa) = 67.59473 72.43780 70.01627
# Shear Modulus (GPa) = 31.11424 32.12247 31.61836
#
# Velocity S-wave (km/s) = 3.77805 3.83878 3.80854
# Velocity P-wave (km/s) = 7.07395 7.27181 7.17356
#
# Compressibility (1/GPa) = 0.01479405
#
# Stress axis : x y z
#
# Youngs Moduli (GPa) = 71.06420 86.04173 109.50640
#
# Poissons Ratio (x) = 0.25205 0.40570
# Poissons Ratio (y) = 0.20818 0.37031
# Poissons Ratio (z) = 0.26328 0.29096
#
# Static dielectric constant tensor:
#      x y z
#    x 4.014000 0.000000 0.000000 
#    y 0.000000 3.603430 0.000000 
#    z 0.000000 0.000000 4.270410 
# 
# 
# High freq. dielectric constant tensor:
#      x y z
#    x 1.865970 0.000000 0.000000 
#    y 0.000000 1.824920 0.000000 
#    z 0.000000 0.000000 1.871460 
# 
# From -- ./inp_files/18604.got.cif
#   From: 2010.03.12/outbox.cif.g09.slc.cpg/sg20_10_cif.got.tgz:18604.got - 2010.04.14 01:38:04.
