data_PCOD8160330
_publ_section_title
;
Structure prediction by ZEFSAII (Michael W. Deem and Ramdas Pophale) SiO2 
 PCOD8160330
Probable space group: C 2 2 21
;
_chemical_formula_sum "Si O2"
_cell_formula_units_Z 40
_cell_length_a 4.982223
_cell_length_b 26.704842
_cell_length_c 13.813422
_cell_angle_alpha 90.000000
_cell_angle_beta 90.000000
_cell_angle_gamma 90.000000
_cell_volume 1837.868587
_symmetry_space_group_name_H-M "C 2 2 21"
_symmetry_group_IT_number 20
_symmetry_cell_setting 'orthorhombic'
loop_
_space_group_symop_operation_xyz
x,y,z
-x,-y,1/2+z
x,-y,-z
-x,y,1/2-z
1/2+x,1/2+y,z
1/2-x,1/2-y,1/2+z
1/2+x,1/2-y,-z
1/2-x,1/2+y,1/2-z
loop_
_atom_site_type_symbol
_atom_site_label
_atom_site_fract_x
_atom_site_fract_y
_atom_site_fract_z
Si Si1 0.500000 0.937394 0.250000
Si Si2 0.980604 0.279130 0.520034
Si Si3 0.244181 0.178286 0.191939
Si Si4 0.942209 0.607017 0.542926
Si Si5 0.000000 0.991447 0.750000
Si Si6 0.067812 0.083881 0.076517
O O1 0.524321 0.901990 0.156643
O O2 0.251829 0.973525 0.242561
O O3 0.178960 0.241337 0.462141
O O4 0.125218 0.279788 0.624233
O O5 0.980038 0.333746 0.472613
O O6 0.500000 0.155021 0.250000
O O7 0.089314 0.134701 0.136118
O O8 0.000000 0.204453 0.250000
O O9 0.654537 0.588783 0.506591
O O10 0.155347 0.574556 0.480775
O O11 0.008880 0.959354 0.651611
#
# Coordination Sequence:
#
# PCOD8160330 Si02
#       6
#     4   8   8   8   4   8
#     4  12  28  46  64  95 140 185 222 258 334 410
#     4  11  23  42  66  96 128 169 221 269 325 399
#     4  11  21  38  66  98 132 162 208 277 347 381
#     4  11  25  46  68  93 140 182 214 279 339 389
#     4  12  26  40  72 103 132 171 230 278 316 420
#     4  11  23  41  71 100 131 171 218 286 336 373
#
# _framework density 21.764340000000001
#
# number of rings (size 3 to 8) (size 9 to 14) (size 15 to 20)
#    0.000    0.800    1.000    8.400    1.400    4.800 
#    5.400    0.000    0.000    0.000    0.000    0.000 
#    0.000    0.000    0.000    0.000    0.000    0.000 
#
# Total GULP energy -247971.463121 kJ/mol
# GULP energy per Si atom -12398.573156 kJ/mol
# Density = 2.171480 g / cm^3
# Si number density = 21.764340 Si / 1000 Ang^3
#
#
#
# Elastic Constant Matrix: (Units=GPa)
#
#
# Indices 1 2 3 4 5 6 
#
# 1 126.6881 25.1856 17.3159 0.0000 0.0000 0.0000
# 2 25.1856 84.4212 36.6090 0.0000 0.0000 0.0000
# 3 17.3159 36.6090 113.3385 0.0000 0.0000 0.0000
# 4 0.0000 0.0000 0.0000 23.8326 0.0000 0.0000
# 5 0.0000 0.0000 0.0000 0.0000 20.0289 0.0000
# 6 0.0000 0.0000 0.0000 0.0000 0.0000 29.2804
#
#
#
# Elastic Compliance Matrix: (Units=1/GPa)
#
#
# Indices 1 2 3 4 5 6 
#
# 1 0.008421 -0.002273 -0.000552 0.000000 0.000000 0.000000
# 2 -0.002273 0.014388 -0.004300 0.000000 0.000000 0.000000
# 3 -0.000552 -0.004300 0.010297 0.000000 0.000000 0.000000
# 4 0.000000 0.000000 0.000000 0.041959 0.000000 0.000000
# 5 0.000000 0.000000 0.000000 0.000000 0.049928 0.000000
# 6 0.000000 0.000000 0.000000 0.000000 0.000000 0.034152
#
#
# Mechanical properties :
#
#
# Convention : Reuss Voigt Hill
#
# Bulk Modulus (GPa) = 53.03694 53.62986 53.33340
# Shear Modulus (GPa) = 27.82715 30.98420 29.40568
#
# Velocity S-wave (km/s) = 3.57958 3.77719 3.67971
# Velocity P-wave (km/s) = 6.44253 6.61192 6.52777
#
# Compressibility (1/GPa) = 0.01885478
#
# Stress axis : x y z
#
# Youngs Moduli (GPa) = 118.75492 69.50165 97.11999
#
# Poissons Ratio (x) = 0.15795 0.05365
# Poissons Ratio (y) = 0.26988 0.41764
# Poissons Ratio (z) = 0.06561 0.29887
#
# Static dielectric constant tensor:
#      x y z
#    x 4.453960 0.000000 0.000000 
#    y 0.000000 3.855530 0.000000 
#    z 0.000000 0.000000 4.299650 
# 
# 
# High freq. dielectric constant tensor:
#      x y z
#    x 1.886050 0.000000 0.000000 
#    y 0.000000 1.836220 0.000000 
#    z 0.000000 0.000000 1.863560 
# 
# From -- ./inp_files/17649.got.cif
#   From: 2010.03.12/outbox.cif.g09.slc.cpg/sg20_9_cif.got.tgz:17649.got - 2010.04.14 01:38:04.
