data_PCOD8160202
_publ_section_title
;
Structure prediction by ZEFSAII (Michael W. Deem and Ramdas Pophale) SiO2 
 PCOD8160202
Probable space group: C 2 2 21
;
_chemical_formula_sum "Si O2"
_cell_formula_units_Z 56
_cell_length_a 29.047832
_cell_length_b 5.136825
_cell_length_c 15.810034
_cell_angle_alpha 90.000000
_cell_angle_beta 90.000000
_cell_angle_gamma 90.000000
_cell_volume 2359.072557
_symmetry_space_group_name_H-M "C 2 2 21"
_symmetry_group_IT_number 20
_symmetry_cell_setting 'orthorhombic'
loop_
_space_group_symop_operation_xyz
x,y,z
-x,-y,1/2+z
x,-y,-z
-x,y,1/2-z
1/2+x,1/2+y,z
1/2-x,1/2-y,1/2+z
1/2+x,1/2-y,-z
1/2-x,1/2+y,1/2-z
loop_
_atom_site_type_symbol
_atom_site_label
_atom_site_fract_x
_atom_site_fract_y
_atom_site_fract_z
Si Si1 0.882707 0.500000 0.500000
Si Si2 0.607442 0.567699 0.405521
Si Si3 0.518085 0.238213 0.554081
Si Si4 0.436225 0.811635 0.336899
Si Si5 0.671842 0.500000 0.000000
Si Si6 0.739919 0.605152 0.142579
Si Si7 0.204939 0.106532 0.329481
Si Si8 0.444969 0.681331 0.761549
O O1 0.911213 0.368152 0.424885
O O2 0.855481 0.750401 0.462404
O O3 0.625040 0.500000 0.500000
O O4 0.571458 0.804950 0.419285
O O5 0.651128 0.642718 0.349233
O O6 0.574510 0.350914 0.358001
O O7 0.510338 0.500000 0.500000
O O8 0.490136 0.234308 0.641880
O O9 0.499262 0.000000 0.500000
O O10 0.419564 0.544851 0.293218
O O11 0.427249 0.042552 0.271390
O O12 0.701811 0.364024 0.928008
O O13 0.777181 0.834274 0.133868
O O14 0.712078 0.620385 0.229600
O O15 0.766773 0.337422 0.127247
O O16 0.500000 0.665351 0.750000
#
# Coordination Sequence:
#
# PCOD8160202 Si02
#       8
#     4   8   8   8   4   8   8   8
#     4  12  28  42  74 111 140 195 246 308 366 440
#     4  11  28  46  75 110 146 190 256 307 365 445
#     4  11  24  44  71 103 148 197 243 306 361 432
#     4  12  26  45  73 102 150 196 251 295 371 431
#     4  12  26  46  76 109 142 185 248 310 376 458
#     4  10  24  47  75 101 145 182 233 299 382 448
#     4  10  24  47  73 105 138 191 229 300 375 447
#     4  12  27  47  71 104 144 203 246 306 366 432
#
# _framework density 23.738140999999999
#
# number of rings (size 3 to 8) (size 9 to 14) (size 15 to 20)
#    0.000    0.857    2.143    3.000    9.000    3.429 
#    0.000    0.000    0.000    0.000    0.000    0.000 
#    0.000    0.000    0.000    0.000    0.000    0.000 
#
# Total GULP energy -347095.070054 kJ/mol
# GULP energy per Si atom -12396.252502 kJ/mol
# Density = 2.368411 g / cm^3
# Si number density = 23.738141 Si / 1000 Ang^3
#
#
#
# Elastic Constant Matrix: (Units=GPa)
#
#
# Indices 1 2 3 4 5 6 
#
# 1 95.0186 14.4152 34.1549 0.0000 0.0000 0.0000
# 2 14.4152 133.5011 40.9581 0.0000 0.0000 0.0000
# 3 34.1549 40.9581 83.7950 0.0000 0.0000 0.0000
# 4 0.0000 0.0000 0.0000 26.3896 0.0000 0.0000
# 5 0.0000 0.0000 0.0000 0.0000 17.6435 0.0000
# 6 0.0000 0.0000 0.0000 0.0000 0.0000 20.3831
#
#
#
# Elastic Compliance Matrix: (Units=1/GPa)
#
#
# Indices 1 2 3 4 5 6 
#
# 1 0.012338 0.000248 -0.005150 0.000000 0.000000 0.000000
# 2 0.000248 0.008817 -0.004411 0.000000 0.000000 0.000000
# 3 -0.005150 -0.004411 0.016189 0.000000 0.000000 0.000000
# 4 0.000000 0.000000 0.000000 0.037894 0.000000 0.000000
# 5 0.000000 0.000000 0.000000 0.000000 0.056678 0.000000
# 6 0.000000 0.000000 0.000000 0.000000 0.000000 0.049060
#
#
# Mechanical properties :
#
#
# Convention : Reuss Voigt Hill
#
# Bulk Modulus (GPa) = 53.42452 54.59680 54.01066
# Shear Modulus (GPa) = 24.29057 27.73565 26.01311
#
# Velocity S-wave (km/s) = 3.20233 3.42190 3.31393
# Velocity P-wave (km/s) = 6.01896 6.21788 6.11923
#
# Compressibility (1/GPa) = 0.01871800
#
# Stress axis : x y z
#
# Youngs Moduli (GPa) = 81.05123 113.41712 61.77060
#
# Poissons Ratio (x) = -0.02811 0.31812
# Poissons Ratio (y) = -0.02009 0.27245
# Poissons Ratio (z) = 0.41742 0.50025
#
# Static dielectric constant tensor:
#      x y z
#    x 4.222650 0.000000 0.000000 
#    y 0.000000 4.370390 0.000000 
#    z 0.000000 0.000000 4.385600 
# 
# 
# High freq. dielectric constant tensor:
#      x y z
#    x 1.933120 0.000000 0.000000 
#    y 0.000000 1.945480 0.000000 
#    z 0.000000 0.000000 1.952280 
# 
# From -- ./inp_files/22328.got.cif
#   From: 2010.03.12/outbox.cif.g09.slc.cpg/sg20_12_cif.got.tgz:22328.got - 2010.04.14 01:38:04.
