data_PCOD8160305
_publ_section_title
;
Structure prediction by ZEFSAII (Michael W. Deem and Ramdas Pophale) SiO2 
 PCOD8160305
Probable space group: C 2 2 21
;
_chemical_formula_sum "Si O2"
_cell_formula_units_Z 40
_cell_length_a 18.376859
_cell_length_b 7.527087
_cell_length_c 12.839450
_cell_angle_alpha 90.000000
_cell_angle_beta 90.000000
_cell_angle_gamma 90.000000
_cell_volume 1776.006861
_symmetry_space_group_name_H-M "C 2 2 21"
_symmetry_group_IT_number 20
_symmetry_cell_setting 'orthorhombic'
loop_
_space_group_symop_operation_xyz
x,y,z
-x,-y,1/2+z
x,-y,-z
-x,y,1/2-z
1/2+x,1/2+y,z
1/2-x,1/2-y,1/2+z
1/2+x,1/2-y,-z
1/2-x,1/2+y,1/2-z
loop_
_atom_site_type_symbol
_atom_site_label
_atom_site_fract_x
_atom_site_fract_y
_atom_site_fract_z
Si Si1 0.408876 0.500000 0.500000
Si Si2 0.645863 0.206518 0.129973
Si Si3 0.991457 0.421458 0.871625
Si Si4 0.125102 0.853405 0.360531
Si Si5 0.026905 0.810372 0.635874
Si Si6 0.259262 0.500000 0.000000
O O1 0.352272 0.611637 0.567299
O O2 0.459364 0.391648 0.577150
O O3 0.573760 0.104164 0.089503
O O4 0.648642 0.258831 0.252552
O O5 0.713868 0.088282 0.094176
O O6 0.940258 0.260123 0.912633
O O7 0.000000 0.395934 0.750000
O O8 0.957927 0.610620 0.910575
O O9 0.192195 0.852158 0.440604
O O10 0.096595 0.058765 0.356060
O O11 0.000000 0.766141 0.750000
#
# Coordination Sequence:
#
# PCOD8160305 Si02
#       6
#     4   8   8   8   8   4
#     4  12  21  38  74 103 138 182 244 304 365 432
#     4  11  24  47  72 105 150 195 248 311 375 450
#     4   9  20  41  76 104 131 181 244 301 357 427
#     4  11  23  49  72 102 150 186 246 311 362 446
#     4  11  20  40  73 106 133 178 240 310 364 424
#     4  12  29  48  70 107 156 204 242 304 391 458
#
# _framework density 22.522437
#
# number of rings (size 3 to 8) (size 9 to 14) (size 15 to 20)
#    0.000    1.200    4.000    2.400    0.000    1.600 
#   14.400    0.000    0.000    0.000    0.000    0.000 
#    0.000    0.000    0.000    0.000    0.000    0.000 
#
# Total GULP energy -247841.897983 kJ/mol
# GULP energy per Si atom -12392.094899 kJ/mol
# Density = 2.247117 g / cm^3
# Si number density = 22.522437 Si / 1000 Ang^3
#
#
#
# Elastic Constant Matrix: (Units=GPa)
#
#
# Indices 1 2 3 4 5 6 
#
# 1 129.7049 57.8177 44.6990 0.0000 0.0000 0.0000
# 2 57.8177 148.2209 30.9988 0.0000 0.0000 0.0000
# 3 44.6990 30.9988 70.3222 0.0000 0.0000 0.0000
# 4 0.0000 0.0000 0.0000 18.9415 0.0000 0.0000
# 5 0.0000 0.0000 0.0000 0.0000 39.3482 0.0000
# 6 0.0000 0.0000 0.0000 0.0000 0.0000 25.9992
#
#
#
# Elastic Compliance Matrix: (Units=1/GPa)
#
#
# Indices 1 2 3 4 5 6 
#
# 1 0.011050 -0.003130 -0.005644 0.000000 0.000000 0.000000
# 2 -0.003130 0.008318 -0.001677 0.000000 0.000000 0.000000
# 3 -0.005644 -0.001677 0.018547 0.000000 0.000000 0.000000
# 4 0.000000 0.000000 0.000000 0.052794 0.000000 0.000000
# 5 0.000000 0.000000 0.000000 0.000000 0.025414 0.000000
# 6 0.000000 0.000000 0.000000 0.000000 0.000000 0.038463
#
#
# Mechanical properties :
#
#
# Convention : Reuss Voigt Hill
#
# Bulk Modulus (GPa) = 58.77876 68.36433 63.57155
# Shear Modulus (GPa) = 27.59982 31.17327 29.38655
#
# Velocity S-wave (km/s) = 3.50442 3.72438 3.61608
# Velocity P-wave (km/s) = 6.52144 6.99389 6.76179
#
# Compressibility (1/GPa) = 0.01701295
#
# Stress axis : x y z
#
# Youngs Moduli (GPa) = 90.49684 120.21505 53.91650
#
# Poissons Ratio (x) = 0.37627 0.30431
# Poissons Ratio (y) = 0.28326 0.09044
# Poissons Ratio (z) = 0.51077 0.20164
#
# Static dielectric constant tensor:
#      x y z
#    x 3.917230 0.000000 0.000000 
#    y 0.000000 4.365380 0.000000 
#    z 0.000000 0.000000 4.295680 
# 
# 
# High freq. dielectric constant tensor:
#      x y z
#    x 1.857100 0.000000 0.000000 
#    y 0.000000 1.895770 0.000000 
#    z 0.000000 0.000000 1.920380 
# 
# From -- ./inp_files/20517.got.cif
#   From: 2010.03.12/outbox.cif.g09.slc.cpg/sg20_11_cif.got.tgz:20517.got - 2010.04.14 01:38:04.
