data_PCOD8160376
_publ_section_title
;
Structure prediction by ZEFSAII (Michael W. Deem and Ramdas Pophale) SiO2 
 PCOD8160376
Probable space group: C 2 2 21
;
_chemical_formula_sum "Si O2"
_cell_formula_units_Z 64
_cell_length_a 24.940607
_cell_length_b 24.434709
_cell_length_c 5.163286
_cell_angle_alpha 90.000000
_cell_angle_beta 90.000000
_cell_angle_gamma 90.000000
_cell_volume 3146.591550
_symmetry_space_group_name_H-M "C 2 2 21"
_symmetry_group_IT_number 20
_symmetry_cell_setting 'orthorhombic'
loop_
_space_group_symop_operation_xyz
x,y,z
-x,-y,1/2+z
x,-y,-z
-x,y,1/2-z
1/2+x,1/2+y,z
1/2-x,1/2-y,1/2+z
1/2+x,1/2-y,-z
1/2-x,1/2+y,1/2-z
loop_
_atom_site_type_symbol
_atom_site_label
_atom_site_fract_x
_atom_site_fract_y
_atom_site_fract_z
Si Si1 0.229571 0.627593 0.932116
Si Si2 0.418033 0.641548 0.678005
Si Si3 0.241246 0.558545 0.414525
Si Si4 0.668521 0.296690 0.462089
Si Si5 0.965478 0.249210 0.501786
Si Si6 0.153326 0.726518 0.970758
Si Si7 0.863759 0.054458 0.363074
Si Si8 0.961713 0.060619 0.034393
O O1 0.237073 0.598172 0.658545
O O2 0.284075 0.659692 0.995075
O O3 0.179881 0.668588 0.913014
O O4 0.213577 0.585239 0.162279
O O5 0.388396 0.673397 0.912140
O O6 0.450981 0.684718 0.506012
O O7 0.371934 0.610963 0.517501
O O8 0.461346 0.596499 0.772888
O O9 0.215901 0.500000 0.500000
O O10 0.301326 0.547615 0.309847
O O11 0.664190 0.266160 0.731817
O O12 0.679582 0.254366 0.226278
O O13 0.910245 0.283684 0.503926
O O14 0.000000 0.266730 0.750000
O O15 0.000000 0.263035 0.250000
O O16 0.898474 0.059161 0.103227
O O17 0.886800 0.000000 0.500000
O O18 0.000000 0.089359 0.250000
O O19 0.985551 0.000000 0.000000
#
# Coordination Sequence:
#
# PCOD8160376 Si02
#       8
#     8   8   8   8   8   8   8   8
#     4  12  22  41  65  92 126 162 196 248 308 365
#     4  11  25  38  57  78 107 156 203 258 313 361
#     4  11  25  40  65  94 127 160 200 245 303 375
#     4  11  22  39  60  91 121 155 206 254 304 366
#     4  11  26  43  61  86 119 157 199 254 304 359
#     4  11  24  41  63  91 123 158 206 252 302 366
#     4  11  23  40  56  77 110 156 210 257 309 362
#     4  12  27  40  52  73 105 149 217 280 325 358
#
# _framework density 20.339469000000001
#
# number of rings (size 3 to 8) (size 9 to 14) (size 15 to 20)
#    0.000    0.750    2.500    5.250    8.750    0.000 
#    0.000    0.000    0.000    0.000    0.000    0.000 
#    0.000   10.000    0.000    0.000    0.000    0.000 
#
# Total GULP energy -396807.279325 kJ/mol
# GULP energy per Si atom -12400.227479 kJ/mol
# Density = 2.029318 g / cm^3
# Si number density = 20.339469 Si / 1000 Ang^3
#
#
#
# Elastic Constant Matrix: (Units=GPa)
#
#
# Indices 1 2 3 4 5 6 
#
# 1 74.9361 39.7723 17.4783 0.0000 0.0000 0.0000
# 2 39.7723 71.2844 10.6184 0.0000 0.0000 0.0000
# 3 17.4783 10.6184 91.0508 0.0000 0.0000 0.0000
# 4 0.0000 0.0000 0.0000 32.3321 0.0000 0.0000
# 5 0.0000 0.0000 0.0000 0.0000 20.0771 0.0000
# 6 0.0000 0.0000 0.0000 0.0000 0.0000 -357.5477
#
#
#
# Elastic Compliance Matrix: (Units=1/GPa)
#
#
# Indices 1 2 3 4 5 6 
#
# 1 0.019511 -0.010511 -0.002520 0.000000 0.000000 0.000000
# 2 -0.010511 0.019938 -0.000308 0.000000 0.000000 0.000000
# 3 -0.002520 -0.000308 0.011502 0.000000 0.000000 0.000000
# 4 0.000000 0.000000 0.000000 0.030929 0.000000 0.000000
# 5 0.000000 0.000000 0.000000 0.000000 0.049808 0.000000
# 6 0.000000 0.000000 0.000000 0.000000 0.000000 -0.002797
#
#
# Mechanical properties :
#
#
# Convention : Reuss Voigt Hill
#
# Bulk Modulus (GPa) = 41.19265 41.44547 41.31906
# Shear Modulus (GPa) = 30.55128 -49.73420 -9.59146
#
# Velocity S-wave (km/s) = 3.87986 -4.95027 -2.17392
# Velocity P-wave (km/s) = 6.35355 3.50035 3.74934
#
# Compressibility (1/GPa) = 0.02427617
#
# Stress axis : x y z
#
# Youngs Moduli (GPa) = 51.25357 50.15456 86.93819
#
# Poissons Ratio (x) = 0.52715 0.21905
# Poissons Ratio (y) = 0.53870 0.02674
# Poissons Ratio (z) = 0.12914 0.01543
#
# Static dielectric constant tensor:
#      x y z
#    x 3.654180 0.000000 0.000000 
#    y 0.000000 3.806380 0.000000 
#    z 0.000000 0.000000 3.858030 
# 
# 
# High freq. dielectric constant tensor:
#      x y z
#    x 1.773600 0.000000 0.000000 
#    y 0.000000 1.771800 0.000000 
#    z 0.000000 0.000000 1.815650 
# 
# From -- ./inp_files/4391.got.cif
#   From: 2010.03.12/outbox.cif.g09.slc.cpg/sg20_3_cif.got.tgz:4391.got - 2010.04.14 01:38:04.
