data_PCOD8160830
_publ_section_title
;
Structure prediction by ZEFSAII (Michael W. Deem and Ramdas Pophale) SiO2 
 PCOD8160830
Probable space group: C 2 2 2
;
_chemical_formula_sum "Si O2"
_cell_formula_units_Z 48
_cell_length_a 32.166631
_cell_length_b 18.656668
_cell_length_c 5.125079
_cell_angle_alpha 90.000000
_cell_angle_beta 90.000000
_cell_angle_gamma 90.000000
_cell_volume 3075.673455
_symmetry_space_group_name_H-M "C 2 2 2"
_symmetry_group_IT_number 21
_symmetry_cell_setting 'orthorhombic'
loop_
_space_group_symop_operation_xyz
x,y,z
-x,-y,z
x,-y,-z
-x,y,-z
1/2+x,1/2+y,z
1/2-x,1/2-y,z
1/2+x,1/2-y,-z
1/2-x,1/2+y,-z
loop_
_atom_site_type_symbol
_atom_site_label
_atom_site_fract_x
_atom_site_fract_y
_atom_site_fract_z
Si Si1 0.097753 0.585085 0.506662
Si Si2 0.241671 0.572332 0.428971
Si Si3 0.953822 0.584541 0.992721
Si Si4 0.707289 0.425981 0.928757
Si Si5 0.323682 0.186776 0.477886
Si Si6 0.799857 0.766359 0.973635
O O1 0.107824 0.500000 0.500000
O O2 0.073594 0.609845 0.764225
O O3 0.139566 0.630326 0.487009
O O4 0.068737 0.609047 0.269211
O O5 0.215426 0.500000 0.500000
O O6 0.281459 0.570770 0.623272
O O7 0.219041 0.644799 0.494270
O O8 0.252739 0.570989 0.123394
O O9 0.958496 0.500000 0.000000
O O10 0.000000 0.619156 0.000000
O O11 0.681392 0.500000 0.000000
O O12 0.686701 0.349366 0.987680
O O13 0.322036 0.246449 0.702526
O O14 0.323974 0.222524 0.195682
O O15 0.750000 0.750000 0.978787
#
# Coordination Sequence:
#
# PCOD8160830 Si02
#       6
#     8   8   8   8   8   8
#     4  10  20  32  46  70  97 121 155 193 233 273
#     4  10  18  29  43  60  81 108 141 184 233 269
#     4   9  17  31  50  68  91 124 159 189 215 261
#     4  10  20  32  45  60  77 105 150 194 227 265
#     4  12  21  31  46  64  90 117 147 191 242 273
#     4  12  21  33  47  62  84 116 155 193 236 285
#
# _framework density 15.606337999999999
#
# number of rings (size 3 to 8) (size 9 to 14) (size 15 to 20)
#    0.000    1.500    3.333    3.500    0.000    2.000 
#    0.000    6.667    0.000    0.000    0.000    0.000 
#    0.000    0.000    0.000    0.000    0.000   58.333 
#
# Total GULP energy -297331.357760 kJ/mol
# GULP energy per Si atom -12388.806573 kJ/mol
# Density = 1.557082 g / cm^3
# Si number density = 15.606338 Si / 1000 Ang^3
#
#
#
# Elastic Constant Matrix: (Units=GPa)
#
#
# Indices 1 2 3 4 5 6 
#
# 1 47.4648 17.0512 19.7989 0.0000 0.0000 0.0000
# 2 17.0512 78.4295 7.9141 0.0000 0.0000 0.0000
# 3 19.7989 7.9141 86.3590 0.0000 0.0000 0.0000
# 4 0.0000 0.0000 0.0000 19.4536 0.0000 0.0000
# 5 0.0000 0.0000 0.0000 0.0000 19.2091 0.0000
# 6 0.0000 0.0000 0.0000 0.0000 0.0000 14.2945
#
#
#
# Elastic Compliance Matrix: (Units=1/GPa)
#
#
# Indices 1 2 3 4 5 6 
#
# 1 0.025039 -0.004910 -0.005291 0.000000 0.000000 0.000000
# 2 -0.004910 0.013832 -0.000142 0.000000 0.000000 0.000000
# 3 -0.005291 -0.000142 0.012806 0.000000 0.000000 0.000000
# 4 0.000000 0.000000 0.000000 0.051404 0.000000 0.000000
# 5 0.000000 0.000000 0.000000 0.000000 0.052059 0.000000
# 6 0.000000 0.000000 0.000000 0.000000 0.000000 0.069957
#
#
# Mechanical properties :
#
#
# Convention : Reuss Voigt Hill
#
# Bulk Modulus (GPa) = 32.26658 33.53131 32.89895
# Shear Modulus (GPa) = 19.52272 21.75736 20.64004
#
# Velocity S-wave (km/s) = 3.54071 3.73786 3.64062
# Velocity P-wave (km/s) = 6.11847 6.33729 6.22884
#
# Compressibility (1/GPa) = 0.03099182
#
# Stress axis : x y z
#
# Youngs Moduli (GPa) = 39.93793 72.29585 78.09137
#
# Poissons Ratio (x) = 0.35496 0.41315
# Poissons Ratio (y) = 0.19609 0.01109
# Poissons Ratio (z) = 0.21129 0.01026
#
# Static dielectric constant tensor:
#      x y z
#    x 2.627260 0.000000 0.000000 
#    y 0.000000 3.225460 0.000000 
#    z 0.000000 0.000000 2.750300 
# 
# 
# High freq. dielectric constant tensor:
#      x y z
#    x 1.533420 0.000000 0.000000 
#    y 0.000000 1.593570 0.000000 
#    z 0.000000 0.000000 1.629610 
# 
# From -- ./inp_files/6717.got.cif
#   From: 2010.03.12/outbox.cif.g09.slc.cpg/sg21_4_cif.got.tgz:6717.got - 2010.04.14 01:59:26.
