data_PCOD8160968
_publ_section_title
;
Structure prediction by ZEFSAII (Michael W. Deem and Ramdas Pophale) SiO2 
 PCOD8160968
Probable space group: C 2 2 2
;
_chemical_formula_sum "Si O2"
_cell_formula_units_Z 32
_cell_length_a 17.670959
_cell_length_b 12.556393
_cell_length_c 7.301130
_cell_angle_alpha 90.000000
_cell_angle_beta 90.000000
_cell_angle_gamma 90.000000
_cell_volume 1620.000321
_symmetry_space_group_name_H-M "C 2 2 2"
_symmetry_group_IT_number 21
_symmetry_cell_setting 'orthorhombic'
loop_
_space_group_symop_operation_xyz
x,y,z
-x,-y,z
x,-y,-z
-x,y,-z
1/2+x,1/2+y,z
1/2-x,1/2-y,z
1/2+x,1/2-y,-z
1/2-x,1/2+y,-z
loop_
_atom_site_type_symbol
_atom_site_label
_atom_site_fract_x
_atom_site_fract_y
_atom_site_fract_z
Si Si1 0.422367 0.810608 0.061132
Si Si2 0.830042 0.795128 0.632741
Si Si3 0.736542 0.500000 0.500000
Si Si4 0.500000 0.000000 0.734566
Si Si5 0.364320 0.865063 0.675849
O O1 0.386400 0.729026 0.202745
O O2 0.444484 0.925551 0.145011
O O3 0.500000 0.753207 0.000000
O O4 0.367105 0.831794 0.888807
O O5 0.750000 0.750000 0.694329
O O6 0.820213 0.921129 0.605645
O O7 0.859657 0.740545 0.446765
O O8 0.790142 0.437542 0.643570
O O9 0.558115 0.072930 0.616578
#
# Coordination Sequence:
#
# PCOD8160968 Si02
#       5
#     8   8   4   4   8
#     4  10  21  36  59  91 115 141 188 245 295 338
#     4  10  22  37  56  84 117 151 191 233 281 346
#     4  10  22  39  56  81 120 162 190 224 286 348
#     4  10  19  33  60  89 111 140 185 245 302 337
#     4  10  20  36  58  86 114 145 187 239 293 338
#
# _framework density 19.753081999999999
#
# number of rings (size 3 to 8) (size 9 to 14) (size 15 to 20)
#    0.000    2.000    0.000    6.375    0.000   12.500 
#    0.000    6.250    0.000   16.500    0.000    0.000 
#    0.000    0.000    0.000    0.000    0.000    0.000 
#
# Total GULP energy -198315.805055 kJ/mol
# GULP energy per Si atom -12394.737816 kJ/mol
# Density = 1.970812 g / cm^3
# Si number density = 19.753082 Si / 1000 Ang^3
#
#
#
# Elastic Constant Matrix: (Units=GPa)
#
#
# Indices 1 2 3 4 5 6 
#
# 1 103.9065 63.9385 63.2649 0.0000 0.0000 0.0000
# 2 63.9385 127.8707 65.9821 0.0000 0.0000 0.0000
# 3 63.2649 65.9821 135.2173 0.0000 0.0000 0.0000
# 4 0.0000 0.0000 0.0000 19.3366 0.0000 0.0000
# 5 0.0000 0.0000 0.0000 0.0000 40.7204 0.0000
# 6 0.0000 0.0000 0.0000 0.0000 0.0000 34.6871
#
#
#
# Elastic Compliance Matrix: (Units=1/GPa)
#
#
# Indices 1 2 3 4 5 6 
#
# 1 0.015904 -0.005497 -0.004759 0.000000 0.000000 0.000000
# 2 -0.005497 0.012352 -0.003456 0.000000 0.000000 0.000000
# 3 -0.004759 -0.003456 0.011308 0.000000 0.000000 0.000000
# 4 0.000000 0.000000 0.000000 0.051715 0.000000 0.000000
# 5 0.000000 0.000000 0.000000 0.000000 0.024558 0.000000
# 6 0.000000 0.000000 0.000000 0.000000 0.000000 0.028829
#
#
# Mechanical properties :
#
#
# Convention : Reuss Voigt Hill
#
# Bulk Modulus (GPa) = 82.35986 83.70729 83.03358
# Shear Modulus (GPa) = 28.38712 30.53608 29.46160
#
# Velocity S-wave (km/s) = 3.79502 3.93605 3.86618
# Velocity P-wave (km/s) = 7.80949 7.94515 7.87761
#
# Compressibility (1/GPa) = 0.01214184
#
# Stress axis : x y z
#
# Youngs Moduli (GPa) = 62.87756 80.95818 88.43081
#
# Poissons Ratio (x) = 0.44501 0.42082
# Poissons Ratio (y) = 0.34562 0.30558
# Poissons Ratio (z) = 0.29922 0.27976
#
# Static dielectric constant tensor:
#      x y z
#    x 3.874070 0.000000 0.000000 
#    y 0.000000 3.723870 0.000000 
#    z 0.000000 0.000000 3.600650 
# 
# 
# High freq. dielectric constant tensor:
#      x y z
#    x 1.768010 0.000000 0.000000 
#    y 0.000000 1.747970 0.000000 
#    z 0.000000 0.000000 1.775490 
# 
# From -- ./inp_files/16036.got.cif
#   From: 2010.03.12/outbox.cif.g09.slc.cpg/sg21_9_cif.got.tgz:16036.got - 2010.04.14 01:59:26.
