data_PCOD8160074
_publ_section_title
;
Structure prediction by ZEFSAII (Michael W. Deem and Ramdas Pophale) SiO2 
 PCOD8160074
Probable space group: C 2 2 21
;
_chemical_formula_sum "Si O2"
_cell_formula_units_Z 60
_cell_length_a 8.127194
_cell_length_b 11.180648
_cell_length_c 28.922910
_cell_angle_alpha 90.000000
_cell_angle_beta 90.000000
_cell_angle_gamma 90.000000
_cell_volume 2628.146605
_symmetry_space_group_name_H-M "C 2 2 21"
_symmetry_group_IT_number 20
_symmetry_cell_setting 'orthorhombic'
loop_
_space_group_symop_operation_xyz
x,y,z
-x,-y,1/2+z
x,-y,-z
-x,y,1/2-z
1/2+x,1/2+y,z
1/2-x,1/2-y,1/2+z
1/2+x,1/2-y,-z
1/2-x,1/2+y,1/2-z
loop_
_atom_site_type_symbol
_atom_site_label
_atom_site_fract_x
_atom_site_fract_y
_atom_site_fract_z
Si Si1 0.540720 0.374142 0.978267
Si Si2 0.316732 0.640409 0.667823
Si Si3 0.351135 0.720885 0.284723
Si Si4 0.815645 0.387822 0.625328
Si Si5 0.013195 0.466338 0.200970
Si Si6 0.450018 0.422500 0.624515
Si Si7 0.846836 0.377006 0.522304
Si Si8 0.500000 0.739051 0.750000
O O1 0.596415 0.363310 0.924651
O O2 0.346912 0.379295 0.982865
O O3 0.611909 0.500000 0.000000
O O4 0.594582 0.249872 0.001888
O O5 0.264402 0.757153 0.640766
O O6 0.366503 0.551040 0.627342
O O7 0.461986 0.658361 0.705109
O O8 0.159014 0.598064 0.695234
O O9 0.500000 0.683739 0.250000
O O10 0.350160 0.862833 0.295010
O O11 0.379526 0.654707 0.333265
O O12 0.171339 0.687854 0.262910
O O13 0.947992 0.441185 0.660743
O O14 0.643219 0.456480 0.625837
O O15 0.902353 0.384991 0.575633
O O16 0.000000 0.537519 0.250000
O O17 0.920932 0.500000 0.500000
#
# Coordination Sequence:
#
# PCOD8160074 Si02
#       8
#     8   8   8   8   8   8   8   4
#     4  10  23  47  71 103 145 181 235 305 367 438
#     4  12  26  42  64 103 132 185 241 281 353 424
#     4  11  23  46  68 100 145 191 240 295 350 429
#     4  11  25  45  69  97 144 184 235 301 357 431
#     4  11  24  46  65  98 144 184 238 292 341 431
#     4  11  25  43  71 100 140 188 238 296 361 431
#     4  10  24  43  72 105 137 184 238 298 371 435
#     4  12  24  44  68 100 146 190 236 294 356 412
#
# _framework density 22.829777
#
# number of rings (size 3 to 8) (size 9 to 14) (size 15 to 20)
#    0.000    1.067    4.000    1.600    5.600    1.600 
#    2.400    0.000    0.000    0.000    0.000    0.000 
#    0.000    0.000    0.000    0.000    0.000    0.000 
#
# Total GULP energy -371814.956122 kJ/mol
# GULP energy per Si atom -12393.831871 kJ/mol
# Density = 2.277782 g / cm^3
# Si number density = 22.829777 Si / 1000 Ang^3
#
#
#
# Elastic Constant Matrix: (Units=GPa)
#
#
# Indices 1 2 3 4 5 6 
#
# 1 96.7283 36.2086 52.2966 0.0000 0.0000 0.0000
# 2 36.2086 129.8688 67.1899 0.0000 0.0000 0.0000
# 3 52.2966 67.1899 186.9227 0.0000 0.0000 0.0000
# 4 0.0000 0.0000 0.0000 44.4068 0.0000 0.0000
# 5 0.0000 0.0000 0.0000 0.0000 31.7598 0.0000
# 6 0.0000 0.0000 0.0000 0.0000 0.0000 -28.9819
#
#
#
# Elastic Compliance Matrix: (Units=1/GPa)
#
#
# Indices 1 2 3 4 5 6 
#
# 1 0.012622 -0.002079 -0.002784 0.000000 0.000000 0.000000
# 2 -0.002079 0.009802 -0.002942 0.000000 0.000000 0.000000
# 3 -0.002784 -0.002942 0.007186 0.000000 0.000000 0.000000
# 4 0.000000 0.000000 0.000000 0.022519 0.000000 0.000000
# 5 0.000000 0.000000 0.000000 0.000000 0.031486 0.000000
# 6 0.000000 0.000000 0.000000 0.000000 0.000000 -0.034504
#
#
# Mechanical properties :
#
#
# Convention : Reuss Voigt Hill
#
# Bulk Modulus (GPa) = 71.42576 80.54556 75.98566
# Shear Modulus (GPa) = 72.06097 26.62527 49.34312
#
# Velocity S-wave (km/s) = 5.62432 3.41875 4.65407
# Velocity P-wave (km/s) = 8.57505 7.13732 7.88900
#
# Compressibility (1/GPa) = 0.01400055
#
# Stress axis : x y z
#
# Youngs Moduli (GPa) = 79.22963 102.02494 139.15758
#
# Poissons Ratio (x) = 0.21207 0.38742
# Poissons Ratio (y) = 0.16469 0.40935
# Poissons Ratio (z) = 0.22058 0.30012
#
# Static dielectric constant tensor:
#      x y z
#    x 4.034900 0.000000 0.000000 
#    y 0.000000 4.373090 0.000000 
#    z 0.000000 0.000000 4.455890 
# 
# 
# High freq. dielectric constant tensor:
#      x y z
#    x 1.898180 0.000000 0.000000 
#    y 0.000000 1.911970 0.000000 
#    z 0.000000 0.000000 1.910800 
# 
# From -- ./inp_files/30153.got.cif
#   From: 2010.03.12/outbox.cif.g09.slc.cpg/sg20_16_cif.got.tgz:30153.got - 2010.04.14 01:38:04.
