data_PCOD8160815
_publ_section_title
;
Structure prediction by ZEFSAII (Michael W. Deem and Ramdas Pophale) SiO2 
 PCOD8160815
Probable space group: C 2 2 2
;
_chemical_formula_sum "Si O2"
_cell_formula_units_Z 48
_cell_length_a 18.218401
_cell_length_b 16.821128
_cell_length_c 9.433431
_cell_angle_alpha 90.000000
_cell_angle_beta 90.000000
_cell_angle_gamma 90.000000
_cell_volume 2890.913184
_symmetry_space_group_name_H-M "C 2 2 2"
_symmetry_group_IT_number 21
_symmetry_cell_setting 'orthorhombic'
loop_
_space_group_symop_operation_xyz
x,y,z
-x,-y,z
x,-y,-z
-x,y,-z
1/2+x,1/2+y,z
1/2-x,1/2-y,z
1/2+x,1/2-y,-z
1/2-x,1/2+y,-z
loop_
_atom_site_type_symbol
_atom_site_label
_atom_site_fract_x
_atom_site_fract_y
_atom_site_fract_z
Si Si1 0.183874 0.305194 0.575586
Si Si2 0.669149 0.983575 0.155894
Si Si3 0.076471 0.635912 0.183831
Si Si4 0.831104 0.783161 0.309256
Si Si5 0.582926 0.171582 0.864210
Si Si6 0.731948 0.436086 0.601887
O O1 0.250000 0.250000 0.635580
O O2 0.128350 0.321577 0.703017
O O3 0.140982 0.253380 0.458113
O O4 0.212161 0.384888 0.496454
O O5 0.643036 0.893747 0.174145
O O6 0.728723 0.991696 0.279588
O O7 0.600466 0.043929 0.172906
O O8 0.704230 0.000000 0.000000
O O9 0.990522 0.643981 0.220079
O O10 0.079491 0.679918 0.032773
O O11 0.750000 0.750000 0.273557
O O12 0.889167 0.757456 0.190019
O O13 0.827413 0.879014 0.321723
O O14 0.691855 0.500000 0.500000
#
# Coordination Sequence:
#
# PCOD8160815 Si02
#       6
#     8   8   8   8   8   8
#     4   9  18  32  47  71  96 128 164 211 252 287
#     4  10  18  30  46  71 104 137 165 195 246 308
#     4  10  20  30  49  71 102 134 167 203 244 305
#     4   9  18  32  49  66  99 135 167 208 248 293
#     4  10  19  33  45  71 104 139 165 198 249 298
#     4  10  17  32  51  71 100 130 171 213 252 292
#
# _framework density 16.603750000000002
#
# number of rings (size 3 to 8) (size 9 to 14) (size 15 to 20)
#    0.000    2.667    5.000    0.500    0.000    3.333 
#    0.000    0.000    0.000    0.000    0.000    9.333 
#    0.000   10.667    0.000    0.000    0.000    0.000 
#
# Total GULP energy -297320.354456 kJ/mol
# GULP energy per Si atom -12388.348102 kJ/mol
# Density = 1.656596 g / cm^3
# Si number density = 16.603750 Si / 1000 Ang^3
#
#
#
# Elastic Constant Matrix: (Units=GPa)
#
#
# Indices 1 2 3 4 5 6 
#
# 1 32.5185 29.3946 37.3820 0.0000 0.0000 0.0000
# 2 29.3946 88.4157 40.5135 0.0000 0.0000 0.0000
# 3 37.3820 40.5135 76.1721 0.0000 0.0000 0.0000
# 4 0.0000 0.0000 0.0000 31.5010 0.0000 0.0000
# 5 0.0000 0.0000 0.0000 0.0000 22.9857 0.0000
# 6 0.0000 0.0000 0.0000 0.0000 0.0000 21.5543
#
#
#
# Elastic Compliance Matrix: (Units=1/GPa)
#
#
# Indices 1 2 3 4 5 6 
#
# 1 0.078004 -0.011096 -0.032379 0.000000 0.000000 0.000000
# 2 -0.011096 0.016533 -0.003348 0.000000 0.000000 0.000000
# 3 -0.032379 -0.003348 0.030799 0.000000 0.000000 0.000000
# 4 0.000000 0.000000 0.000000 0.031745 0.000000 0.000000
# 5 0.000000 0.000000 0.000000 0.000000 0.043505 0.000000
# 6 0.000000 0.000000 0.000000 0.000000 0.000000 0.046395
#
#
# Mechanical properties :
#
#
# Convention : Reuss Voigt Hill
#
# Bulk Modulus (GPa) = 31.55621 45.74295 38.64958
# Shear Modulus (GPa) = 14.23722 21.19594 17.71658
#
# Velocity S-wave (km/s) = 2.93144 3.57680 3.27007
# Velocity P-wave (km/s) = 5.52309 6.68338 6.13074
#
# Compressibility (1/GPa) = 0.03168949
#
# Stress axis : x y z
#
# Youngs Moduli (GPa) = 12.81981 60.48360 32.46842
#
# Poissons Ratio (x) = 0.67116 1.05130
# Poissons Ratio (y) = 0.14225 0.10870
# Poissons Ratio (z) = 0.41510 0.20249
#
# Static dielectric constant tensor:
#      x y z
#    x 2.837260 0.000000 0.000000 
#    y 0.000000 3.131100 0.000000 
#    z 0.000000 0.000000 3.184860 
# 
# 
# High freq. dielectric constant tensor:
#      x y z
#    x 1.594180 0.000000 0.000000 
#    y 0.000000 1.631500 0.000000 
#    z 0.000000 0.000000 1.646710 
# 
# From -- ./inp_files/16578.got.cif
#   From: 2010.03.12/outbox.cif.g09.slc.cpg/sg21_9_cif.got.tgz:16578.got - 2010.04.14 01:59:26.
