data_PCOD8160284
_publ_section_title
;
Structure prediction by ZEFSAII (Michael W. Deem and Ramdas Pophale) SiO2 
 PCOD8160284
Probable space group: C 2 2 21
;
_chemical_formula_sum "Si O2"
_cell_formula_units_Z 48
_cell_length_a 9.148839
_cell_length_b 16.560363
_cell_length_c 16.719755
_cell_angle_alpha 90.000000
_cell_angle_beta 90.000000
_cell_angle_gamma 90.000000
_cell_volume 2533.178227
_symmetry_space_group_name_H-M "C 2 2 21"
_symmetry_group_IT_number 20
_symmetry_cell_setting 'orthorhombic'
loop_
_space_group_symop_operation_xyz
x,y,z
-x,-y,1/2+z
x,-y,-z
-x,y,1/2-z
1/2+x,1/2+y,z
1/2-x,1/2-y,1/2+z
1/2+x,1/2-y,-z
1/2-x,1/2+y,1/2-z
loop_
_atom_site_type_symbol
_atom_site_label
_atom_site_fract_x
_atom_site_fract_y
_atom_site_fract_z
Si Si1 0.933074 0.739457 0.334989
Si Si2 0.056671 0.196558 0.143928
Si Si3 0.637013 0.010926 0.306107
Si Si4 0.301926 0.376453 0.790584
Si Si5 0.662498 0.849412 0.567917
Si Si6 0.341433 0.159335 0.884553
O O1 0.851206 0.653437 0.326240
O O2 0.818960 0.803900 0.370178
O O3 0.000000 0.768405 0.250000
O O4 0.061955 0.723830 0.398911
O O5 0.150919 0.192746 0.225746
O O6 0.168481 0.180144 0.071976
O O7 0.933539 0.123857 0.144627
O O8 0.974722 0.281686 0.137345
O O9 0.500000 0.025672 0.250000
O O10 0.648268 0.918625 0.329332
O O11 0.778868 0.037233 0.252478
O O12 0.632083 0.068532 0.383535
O O13 0.632598 0.866718 0.475697
#
# Coordination Sequence:
#
# PCOD8160284 Si02
#       6
#     8   8   8   8   8   8
#     4  11  19  38  62  85 114 155 204 234 288 357
#     4   9  19  34  62  83 112 148 198 235 285 348
#     4  11  21  37  61  86 116 157 200 243 294 354
#     4   9  17  36  59  83 104 155 196 232 274 359
#     4  11  20  41  60  85 121 162 188 237 311 369
#     4  11  25  34  59  95 121 145 197 260 295 336
#
# _framework density 18.948530000000002
#
# number of rings (size 3 to 8) (size 9 to 14) (size 15 to 20)
#    0.000    1.667    5.000    1.500    4.667    0.000 
#    6.000    0.000    0.000    0.000   13.000    0.000 
#    0.000    0.000    0.000    0.000    0.000    0.000 
#
# Total GULP energy -297392.953297 kJ/mol
# GULP energy per Si atom -12391.373054 kJ/mol
# Density = 1.890540 g / cm^3
# Si number density = 18.948530 Si / 1000 Ang^3
#
#
#
# Elastic Constant Matrix: (Units=GPa)
#
#
# Indices 1 2 3 4 5 6 
#
# 1 109.6062 46.5426 40.8604 0.0000 0.0000 0.0000
# 2 46.5426 105.7225 31.1029 0.0000 0.0000 0.0000
# 3 40.8604 31.1029 71.9498 0.0000 0.0000 0.0000
# 4 0.0000 0.0000 0.0000 21.8806 0.0000 0.0000
# 5 0.0000 0.0000 0.0000 0.0000 27.3131 0.0000
# 6 0.0000 0.0000 0.0000 0.0000 0.0000 23.5207
#
#
#
# Elastic Compliance Matrix: (Units=1/GPa)
#
#
# Indices 1 2 3 4 5 6 
#
# 1 0.012926 -0.004045 -0.005592 0.000000 0.000000 0.000000
# 2 -0.004045 0.012103 -0.002935 0.000000 0.000000 0.000000
# 3 -0.005592 -0.002935 0.018343 0.000000 0.000000 0.000000
# 4 0.000000 0.000000 0.000000 0.045703 0.000000 0.000000
# 5 0.000000 0.000000 0.000000 0.000000 0.036612 0.000000
# 6 0.000000 0.000000 0.000000 0.000000 0.000000 0.042516
#
#
# Mechanical properties :
#
#
# Convention : Reuss Voigt Hill
#
# Bulk Modulus (GPa) = 54.86054 58.25450 56.55752
# Shear Modulus (GPa) = 25.07240 25.79438 25.43339
#
# Velocity S-wave (km/s) = 3.64151 3.69356 3.66763
# Velocity P-wave (km/s) = 6.83345 7.00001 6.91723
#
# Compressibility (1/GPa) = 0.01822804
#
# Stress axis : x y z
#
# Youngs Moduli (GPa) = 77.36342 82.62447 54.51715
#
# Poissons Ratio (x) = 0.33424 0.30486
# Poissons Ratio (y) = 0.31296 0.15998
# Poissons Ratio (z) = 0.43261 0.24247
#
# Static dielectric constant tensor:
#      x y z
#    x 3.849910 0.000000 0.000000 
#    y 0.000000 3.187240 0.000000 
#    z 0.000000 0.000000 3.463750 
# 
# 
# High freq. dielectric constant tensor:
#      x y z
#    x 1.756010 0.000000 0.000000 
#    y 0.000000 1.704590 0.000000 
#    z 0.000000 0.000000 1.727870 
# 
# From -- ./inp_files/23441.got.cif
#   From: 2010.03.12/outbox.cif.g09.slc.cpg/sg20_12_cif.got.tgz:23441.got - 2010.04.14 01:38:04.
