data_PCOD8160817
_publ_section_title
;
Structure prediction by ZEFSAII (Michael W. Deem and Ramdas Pophale) SiO2 
 PCOD8160817
Probable space group: C 2 2 2
;
_chemical_formula_sum "Si O2"
_cell_formula_units_Z 64
_cell_length_a 12.150860
_cell_length_b 31.067890
_cell_length_c 8.462319
_cell_angle_alpha 90.000000
_cell_angle_beta 90.000000
_cell_angle_gamma 90.000000
_cell_volume 3194.538809
_symmetry_space_group_name_H-M "C 2 2 2"
_symmetry_group_IT_number 21
_symmetry_cell_setting 'orthorhombic'
loop_
_space_group_symop_operation_xyz
x,y,z
-x,-y,z
x,-y,-z
-x,y,-z
1/2+x,1/2+y,z
1/2-x,1/2-y,z
1/2+x,1/2-y,-z
1/2-x,1/2+y,-z
loop_
_atom_site_type_symbol
_atom_site_label
_atom_site_fract_x
_atom_site_fract_y
_atom_site_fract_z
Si Si1 0.623318 0.873367 0.187649
Si Si2 0.285405 0.701672 0.183652
Si Si3 0.214596 0.798328 0.816345
Si Si4 0.876682 0.373367 0.187648
Si Si5 0.233980 0.047663 0.812122
Si Si6 0.733980 0.547663 0.187878
Si Si7 0.500000 0.425365 0.183090
Si Si8 1.000000 0.833880 0.319739
O O1 0.689908 0.830973 0.240620
O O2 0.500000 0.871051 0.258608
O O3 0.683334 0.916181 0.255946
O O4 0.617315 0.875809 0.000000
O O5 0.250000 0.750000 0.217211
O O6 0.189909 0.669027 0.240617
O O7 0.393510 0.694692 0.286476
O O8 0.312715 0.693943 0.999999
O O9 0.250000 0.750000 0.782786
O O10 0.106491 0.805308 0.713522
O O11 0.816667 0.416181 0.255946
O O12 0.111169 0.054870 0.740938
O O13 0.275519 0.000000 0.762743
O O14 0.228937 0.052434 0.000000
O O15 0.611169 0.554870 0.259062
O O16 0.499999 0.374354 0.203870
O O17 0.500000 0.436918 0.000000
O O18 0.000000 0.849624 0.500000
#
# Coordination Sequence:
#
# PCOD8160817 Si02
#       8
#     8   8   8   8   8   8   8   8
#     4   9  17  29  47  77 111 138 174 226 276 327
#     4  10  21  37  60  84 108 142 185 230 275 325
#     4  10  21  37  60  84 108 142 185 230 275 325
#     4   9  17  29  47  77 111 138 174 226 276 327
#     4   9  16  26  46  77 110 141 175 225 284 333
#     4   9  16  26  46  77 110 141 175 225 284 333
#     4  10  17  32  54  78 108 142 188 229 271 325
#     4  12  24  37  57  83 116 148 181 225 280 330
#
# _framework density 20.034191
#
# number of rings (size 3 to 8) (size 9 to 14) (size 15 to 20)
#    0.000    2.250    2.500    1.500    1.750    2.500 
#    0.000    2.500    0.000    1.500    0.000    0.000 
#    0.000    2.000    0.000    0.000    0.000    0.000 
#
# Total GULP energy -396740.066747 kJ/mol
# GULP energy per Si atom -12398.127086 kJ/mol
# Density = 1.998859 g / cm^3
# Si number density = 20.034191 Si / 1000 Ang^3
#
#
#
# Elastic Constant Matrix: (Units=GPa)
#
#
# Indices 1 2 3 4 5 6 
#
# 1 185.1949 86.5526 17.4274 0.0000 0.0000 0.0000
# 2 86.5526 176.0059 9.0604 0.0000 0.0000 0.0000
# 3 17.4274 9.0604 13.1510 0.0000 0.0000 0.0000
# 4 0.0000 0.0000 0.0000 3.0578 0.0000 0.0000
# 5 0.0000 0.0000 0.0000 0.0000 5.3861 0.0000
# 6 0.0000 0.0000 0.0000 0.0000 0.0000 12.2698
#
#
#
# Elastic Compliance Matrix: (Units=1/GPa)
#
#
# Indices 1 2 3 4 5 6 
#
# 1 0.007730 -0.003394 -0.007905 0.000000 0.000000 0.000000
# 2 -0.003394 0.007381 -0.000587 0.000000 0.000000 0.000000
# 3 -0.007905 -0.000587 0.086920 0.000000 0.000000 0.000000
# 4 0.000000 0.000000 0.000000 0.327034 0.000000 0.000000
# 5 0.000000 0.000000 0.000000 0.000000 0.185662 0.000000
# 6 0.000000 0.000000 0.000000 0.000000 0.000000 0.081501
#
#
# Mechanical properties :
#
#
# Convention : Reuss Voigt Hill
#
# Bulk Modulus (GPa) = 12.77830 66.71476 39.74653
# Shear Modulus (GPa) = 6.70164 21.56349 14.13257
#
# Velocity S-wave (km/s) = 1.83095 3.28431 2.65886
# Velocity P-wave (km/s) = 3.29574 6.91050 5.41373
#
# Compressibility (1/GPa) = 0.07825769
#
# Stress axis : x y z
#
# Youngs Moduli (GPa) = 129.36609 135.48183 11.50489
#
# Poissons Ratio (x) = 0.45988 0.09095
# Poissons Ratio (y) = 0.43912 0.00675
# Poissons Ratio (z) = 1.02265 0.07954
#
# Static dielectric constant tensor:
#      x y z
#    x 3.952570 0.000000 0.000000 
#    y 0.000000 3.724690 0.000000 
#    z 0.000000 0.000000 2.924870 
# 
# 
# High freq. dielectric constant tensor:
#      x y z
#    x 1.791570 0.000000 0.000000 
#    y 0.000000 1.794460 0.000000 
#    z 0.000000 0.000000 1.710100 
# 
# From -- ./inp_files/13676.got.cif
#   From: 2010.03.12/outbox.cif.g09.slc.cpg/sg21_7_cif.got.tgz:13676.got - 2010.04.14 01:59:26.
