data_PCOD8160133
_publ_section_title
;
Structure prediction by ZEFSAII (Michael W. Deem and Ramdas Pophale) SiO2 
 PCOD8160133
Probable space group: C 2 2 21
;
_chemical_formula_sum "Si O2"
_cell_formula_units_Z 40
_cell_length_a 11.969275
_cell_length_b 12.848854
_cell_length_c 12.930946
_cell_angle_alpha 90.000000
_cell_angle_beta 90.000000
_cell_angle_gamma 90.000000
_cell_volume 1988.669155
_symmetry_space_group_name_H-M "C 2 2 21"
_symmetry_group_IT_number 20
_symmetry_cell_setting 'orthorhombic'
loop_
_space_group_symop_operation_xyz
x,y,z
-x,-y,1/2+z
x,-y,-z
-x,y,1/2-z
1/2+x,1/2+y,z
1/2-x,1/2-y,1/2+z
1/2+x,1/2-y,-z
1/2-x,1/2+y,1/2-z
loop_
_atom_site_type_symbol
_atom_site_label
_atom_site_fract_x
_atom_site_fract_y
_atom_site_fract_z
Si Si1 0.730622 0.812588 0.946315
Si Si2 0.874074 0.100382 0.233621
Si Si3 0.507510 0.201587 0.371275
Si Si4 0.232871 0.606590 0.440943
Si Si5 0.396414 0.420911 0.083444
O O1 0.812029 0.824364 0.847429
O O2 0.604964 0.845821 0.919733
O O3 0.726859 0.693099 0.978851
O O4 0.775442 0.884329 0.040117
O O5 0.811718 0.103560 0.341685
O O6 0.000000 0.141890 0.250000
O O7 0.876776 0.981196 0.191170
O O8 0.500000 0.195860 0.250000
O O9 0.606207 0.127847 0.408395
O O10 0.524121 0.321780 0.404197
O O11 0.240651 0.500000 0.500000
O O12 0.452923 0.500000 0.000000
#
# Coordination Sequence:
#
# PCOD8160133 Si02
#       5
#     8   8   8   8   8
#     4  10  24  43  66  91 133 168 206 261 331 376
#     4  11  24  42  67  99 125 162 222 268 312 379
#     4  11  22  44  64  92 131 169 207 262 324 378
#     4  11  27  40  64  95 127 168 215 260 315 384
#     4   9  22  40  67  98 123 166 211 263 322 370
#
# _framework density 20.113952999999999
#
# number of rings (size 3 to 8) (size 9 to 14) (size 15 to 20)
#    0.000    1.600    2.000    0.600   14.000    2.400 
#    0.000    1.000    0.000    0.000    0.000    0.000 
#    0.000    0.000    0.000    0.000    0.000    0.000 
#
# Total GULP energy -248023.408190 kJ/mol
# GULP energy per Si atom -12401.170410 kJ/mol
# Density = 2.006817 g / cm^3
# Si number density = 20.113953 Si / 1000 Ang^3
#
#
#
# Elastic Constant Matrix: (Units=GPa)
#
#
# Indices 1 2 3 4 5 6 
#
# 1 161.8242 16.1316 65.4611 0.0000 0.0000 0.0000
# 2 16.1316 70.8703 45.3640 0.0000 0.0000 0.0000
# 3 65.4611 45.3640 116.3612 0.0000 0.0000 0.0000
# 4 0.0000 0.0000 0.0000 46.8344 0.0000 0.0000
# 5 0.0000 0.0000 0.0000 0.000029726.9268 0.0000
# 6 0.0000 0.0000 0.0000 0.0000 0.0000 15.6271
#
#
#
# Elastic Compliance Matrix: (Units=1/GPa)
#
#
# Indices 1 2 3 4 5 6 
#
# 1 0.008108 0.001431 -0.005119 0.000000 0.000000 0.000000
# 2 0.001431 0.019055 -0.008234 0.000000 0.000000 0.000000
# 3 -0.005119 -0.008234 0.014684 0.000000 0.000000 0.000000
# 4 0.000000 0.000000 0.000000 0.021352 0.000000 0.000000
# 5 0.000000 0.000000 0.000000 0.000000 0.000034 0.000000
# 6 0.000000 0.000000 0.000000 0.000000 0.000000 0.063991
#
#
# Mechanical properties :
#
#
# Convention : Reuss Voigt Hill
#
# Bulk Modulus (GPa) = 55.54625 66.99656 61.27141
# Shear Modulus (GPa) = 31.83345 5972.68428 3002.25887
#
# Velocity S-wave (km/s) = 3.98258 54.55153 38.67642
# Velocity P-wave (km/s) = 6.98739 63.25510 45.00017
#
# Compressibility (1/GPa) = 0.01800301
#
# Stress axis : x y z
#
# Youngs Moduli (GPa) = 123.34047 52.47970 68.10238
#
# Poissons Ratio (x) = -0.07511 0.34862
# Poissons Ratio (y) = -0.17653 0.56075
# Poissons Ratio (z) = 0.63139 0.43211
#
# Static dielectric constant tensor:
#      x y z
#    x 0.000000 0.000000 0.000000 
#    y 0.000000 0.000000 0.000000 
#    z 0.000000 0.000000 0.000000 
# 
# 
# High freq. dielectric constant tensor:
#      x y z
#    x 1.792920 0.000000 0.000000 
#    y 0.000000 1.779140 0.000000 
#    z 0.000000 0.000000 1.798570 
# 
# From -- ./inp_files/13875.got.cif
#   From: 2010.03.12/outbox.cif.g09.slc.cpg/sg20_7_cif.got.tgz:13875.got - 2010.04.14 01:38:04.
