data_PCOD8160028
_publ_section_title
;
Structure prediction by ZEFSAII (Michael W. Deem and Ramdas Pophale) SiO2 
 PCOD8160028
Probable space group: C 2 2 21
;
_chemical_formula_sum "Si O2"
_cell_formula_units_Z 56
_cell_length_a 15.763651
_cell_length_b 7.935851
_cell_length_c 19.413953
_cell_angle_alpha 90.000000
_cell_angle_beta 90.000000
_cell_angle_gamma 90.000000
_cell_volume 2428.646412
_symmetry_space_group_name_H-M "C 2 2 21"
_symmetry_group_IT_number 20
_symmetry_cell_setting 'orthorhombic'
loop_
_space_group_symop_operation_xyz
x,y,z
-x,-y,1/2+z
x,-y,-z
-x,y,1/2-z
1/2+x,1/2+y,z
1/2-x,1/2-y,1/2+z
1/2+x,1/2-y,-z
1/2-x,1/2+y,1/2-z
loop_
_atom_site_type_symbol
_atom_site_label
_atom_site_fract_x
_atom_site_fract_y
_atom_site_fract_z
Si Si1 0.051071 0.469511 0.679545
Si Si2 0.485633 0.500000 0.500000
Si Si3 0.714503 0.000000 0.500000
Si Si4 0.743162 0.473918 0.350447
Si Si5 0.891022 0.777227 0.076739
Si Si6 0.646074 0.603718 0.904386
Si Si7 0.230596 0.648630 0.704831
Si Si8 0.911051 0.523467 0.419954
O O1 0.067993 0.283325 0.648816
O O2 0.138215 0.571143 0.690484
O O3 0.000000 0.449425 0.750000
O O4 0.989647 0.557976 0.622775
O O5 0.542805 0.662170 0.518147
O O6 0.422231 0.534167 0.434062
O O7 0.657725 0.115655 0.451607
O O8 0.773253 0.124321 0.544726
O O9 0.666553 0.435041 0.402171
O O10 0.748057 0.348314 0.285468
O O11 0.734450 0.662793 0.323733
O O12 0.825366 0.433852 0.396258
O O13 0.690208 0.549598 0.832061
O O14 0.596200 0.779201 0.900927
O O15 0.929246 0.500000 0.500000
#
# Coordination Sequence:
#
# PCOD8160028 Si02
#       8
#     8   4   4   8   8   8   8   8
#     4  12  25  48  73 104 145 186 242 302 362 435
#     4  11  26  44  62 109 142 180 243 296 360 424
#     4  11  24  44  72  99 142 190 233 292 364 428
#     4  11  26  46  74 105 143 189 244 292 363 445
#     4  12  27  43  72 104 144 190 235 303 361 426
#     4  10  23  44  69  98 144 186 234 290 357 435
#     4  11  24  47  74 102 139 193 241 292 364 437
#     4  11  24  43  73 106 144 187 241 304 367 429
#
# _framework density 23.058112000000001
#
# number of rings (size 3 to 8) (size 9 to 14) (size 15 to 20)
#    0.000    0.857    4.286    1.714    8.000    1.143 
#    0.000    3.571    0.000    0.000    0.000    0.000 
#    0.000    0.000    0.000    0.000    0.000    0.000 
#
# Total GULP energy -346968.843230 kJ/mol
# GULP energy per Si atom -12391.744401 kJ/mol
# Density = 2.300563 g / cm^3
# Si number density = 23.058112 Si / 1000 Ang^3
#
#
#
# Elastic Constant Matrix: (Units=GPa)
#
#
# Indices 1 2 3 4 5 6 
#
# 1 151.3941 36.4402 61.7829 0.0000 0.0000 0.0000
# 2 36.4402 55.1863 23.3912 0.0000 0.0000 0.0000
# 3 61.7829 23.3912 142.0899 0.0000 0.0000 0.0000
# 4 0.0000 0.0000 0.0000 40.2087 0.0000 0.0000
# 5 0.0000 0.0000 0.0000 0.0000 52.7040 0.0000
# 6 0.0000 0.0000 0.0000 0.0000 0.0000 23.1996
#
#
#
# Elastic Compliance Matrix: (Units=1/GPa)
#
#
# Indices 1 2 3 4 5 6 
#
# 1 0.009002 -0.004606 -0.003156 0.000000 0.000000 0.000000
# 2 -0.004606 0.021837 -0.001592 0.000000 0.000000 0.000000
# 3 -0.003156 -0.001592 0.008672 0.000000 0.000000 0.000000
# 4 0.000000 0.000000 0.000000 0.024870 0.000000 0.000000
# 5 0.000000 0.000000 0.000000 0.000000 0.018974 0.000000
# 6 0.000000 0.000000 0.000000 0.000000 0.000000 0.043104
#
#
# Mechanical properties :
#
#
# Convention : Reuss Voigt Hill
#
# Bulk Modulus (GPa) = 48.07116 65.76654 56.91885
# Shear Modulus (GPa) = 32.87276 38.35954 35.61615
#
# Velocity S-wave (km/s) = 3.77987 4.08315 3.93444
# Velocity P-wave (km/s) = 6.32005 7.12836 6.73634
#
# Compressibility (1/GPa) = 0.02080249
#
# Stress axis : x y z
#
# Youngs Moduli (GPa) = 111.08738 45.79412 115.31276
#
# Poissons Ratio (x) = 0.21095 0.36391
# Poissons Ratio (y) = 0.51172 0.18356
# Poissons Ratio (z) = 0.35058 0.07290
#
# Static dielectric constant tensor:
#      x y z
#    x 4.663340 0.000000 0.000000 
#    y 0.000000 3.755360 0.000000 
#    z 0.000000 0.000000 4.504530 
# 
# 
# High freq. dielectric constant tensor:
#      x y z
#    x 1.939970 0.000000 0.000000 
#    y 0.000000 1.878130 0.000000 
#    z 0.000000 0.000000 1.921710 
# 
# From -- ./inp_files/27619.got.cif
#   From: 2010.03.12/outbox.cif.g09.slc.cpg/sg20_14_cif.got.tgz:27619.got - 2010.04.14 01:38:04.
