data_PCOD8160871
_publ_section_title
;
Structure prediction by ZEFSAII (Michael W. Deem and Ramdas Pophale) SiO2 
 PCOD8160871
Probable space group: C 2 2 2
;
_chemical_formula_sum "Si O2"
_cell_formula_units_Z 48
_cell_length_a 16.790461
_cell_length_b 15.573797
_cell_length_c 8.985939
_cell_angle_alpha 90.000000
_cell_angle_beta 90.000000
_cell_angle_gamma 90.000000
_cell_volume 2349.744252
_symmetry_space_group_name_H-M "C 2 2 2"
_symmetry_group_IT_number 21
_symmetry_cell_setting 'orthorhombic'
loop_
_space_group_symop_operation_xyz
x,y,z
-x,-y,z
x,-y,-z
-x,y,-z
1/2+x,1/2+y,z
1/2-x,1/2-y,z
1/2+x,1/2-y,-z
1/2-x,1/2+y,-z
loop_
_atom_site_type_symbol
_atom_site_label
_atom_site_fract_x
_atom_site_fract_y
_atom_site_fract_z
Si Si1 0.583500 0.754314 0.055624
Si Si2 0.857961 0.086590 0.430303
Si Si3 0.845158 0.750080 0.373512
Si Si4 0.169177 0.410805 0.561679
Si Si5 0.793647 0.336853 0.145905
Si Si6 0.866943 0.914960 0.909584
O O1 0.597960 0.748542 0.230876
O O2 0.500000 0.794773 0.000000
O O3 0.653447 0.813713 0.994370
O O4 0.585433 0.659401 0.989946
O O5 0.877657 0.171526 0.525282
O O6 0.763509 0.080946 0.431450
O O7 0.893005 0.088039 0.263447
O O8 0.894871 0.000000 0.500000
O O9 0.750000 0.750000 0.336494
O O10 0.864876 0.661657 0.454669
O O11 0.131817 0.500000 0.500000
O O12 0.149195 0.382430 0.731284
O O13 0.750000 0.250000 0.212787
O O14 0.728144 0.401981 0.081690
O O15 0.889952 0.000000 0.000000
#
# Coordination Sequence:
#
# PCOD8160871 Si02
#       6
#     8   8   8   8   8   8
#     4  11  23  36  52  77 112 152 186 223 277 337
#     4   9  17  30  53  85 111 134 175 229 280 330
#     4  10  18  33  56  81 107 140 186 234 277 328
#     4   9  17  30  54  82 105 131 175 236 286 325
#     4   9  18  35  55  78 106 141 183 227 277 331
#     4  10  19  34  58  84 112 143 179 229 281 334
#
# _framework density 20.427755000000001
#
# number of rings (size 3 to 8) (size 9 to 14) (size 15 to 20)
#    0.000    2.333    0.000    6.000    0.000    5.667 
#    0.000    3.333    0.000    6.500    0.000    0.000 
#    0.000    0.000    0.000    0.000    0.000    0.000 
#
# Total GULP energy -297405.324894 kJ/mol
# GULP energy per Si atom -12391.888537 kJ/mol
# Density = 2.038126 g / cm^3
# Si number density = 20.427755 Si / 1000 Ang^3
#
#
#
# Elastic Constant Matrix: (Units=GPa)
#
#
# Indices 1 2 3 4 5 6 
#
# 1 33.3218 -1.5703 19.6562 0.0000 0.0000 0.0000
# 2 -1.5703 108.9327 50.0881 0.0000 0.0000 0.0000
# 3 19.6562 50.0881 148.0351 0.0000 0.0000 0.0000
# 4 0.0000 0.0000 0.0000 39.0531 0.0000 0.0000
# 5 0.0000 0.0000 0.0000 0.0000 5.4874 0.0000
# 6 0.0000 0.0000 0.0000 0.0000 0.0000 7.6513
#
#
#
# Elastic Compliance Matrix: (Units=1/GPa)
#
#
# Indices 1 2 3 4 5 6 
#
# 1 0.033359 0.002981 -0.005438 0.000000 0.000000 0.000000
# 2 0.002981 0.011138 -0.004164 0.000000 0.000000 0.000000
# 3 -0.005438 -0.004164 0.008886 0.000000 0.000000 0.000000
# 4 0.000000 0.000000 0.000000 0.025606 0.000000 0.000000
# 5 0.000000 0.000000 0.000000 0.000000 0.182237 0.000000
# 6 0.000000 0.000000 0.000000 0.000000 0.000000 0.130697
#
#
# Mechanical properties :
#
#
# Convention : Reuss Voigt Hill
#
# Bulk Modulus (GPa) = 24.91247 47.40419 36.15833
# Shear Modulus (GPa) = 11.94614 25.24606 18.59610
#
# Velocity S-wave (km/s) = 2.42089 3.51931 3.02045
# Velocity P-wave (km/s) = 4.47617 6.30636 5.46838
#
# Compressibility (1/GPa) = 0.04014053
#
# Stress axis : x y z
#
# Youngs Moduli (GPa) = 29.97708 89.78465 112.53325
#
# Poissons Ratio (x) = -0.26768 0.61197
# Poissons Ratio (y) = -0.08937 0.46863
# Poissons Ratio (z) = 0.16302 0.37390
#
# Static dielectric constant tensor:
#      x y z
#    x 3.189200 0.000000 0.000000 
#    y 0.000000 4.065900 0.000000 
#    z 0.000000 0.000000 3.926200 
# 
# 
# High freq. dielectric constant tensor:
#      x y z
#    x 1.746890 0.000000 0.000000 
#    y 0.000000 1.800170 0.000000 
#    z 0.000000 0.000000 1.810130 
# 
# From -- ./inp_files/16445.got.cif
#   From: 2010.03.12/outbox.cif.g09.slc.cpg/sg21_9_cif.got.tgz:16445.got - 2010.04.14 01:59:26.
