data_PCOD8160054
_publ_section_title
;
Structure prediction by ZEFSAII (Michael W. Deem and Ramdas Pophale) SiO2 
 PCOD8160054
Probable space group: C 2 2 21
;
_chemical_formula_sum "Si O2"
_cell_formula_units_Z 40
_cell_length_a 8.855810
_cell_length_b 22.956121
_cell_length_c 8.135718
_cell_angle_alpha 90.000000
_cell_angle_beta 90.000000
_cell_angle_gamma 90.000000
_cell_volume 1653.951164
_symmetry_space_group_name_H-M "C 2 2 21"
_symmetry_group_IT_number 20
_symmetry_cell_setting 'orthorhombic'
loop_
_space_group_symop_operation_xyz
x,y,z
-x,-y,1/2+z
x,-y,-z
-x,y,1/2-z
1/2+x,1/2+y,z
1/2-x,1/2-y,1/2+z
1/2+x,1/2-y,-z
1/2-x,1/2+y,1/2-z
loop_
_atom_site_type_symbol
_atom_site_label
_atom_site_fract_x
_atom_site_fract_y
_atom_site_fract_z
Si Si1 0.687635 0.925699 0.096529
Si Si2 0.907627 0.390490 0.917533
Si Si3 0.821154 0.037101 0.232641
Si Si4 0.125170 0.728366 0.610185
Si Si5 0.852200 0.814478 0.171183
O O1 0.720599 0.862668 0.171370
O O2 0.729240 0.975943 0.226763
O O3 0.510551 0.927970 0.046147
O O4 0.797191 0.930497 0.939514
O O5 0.750406 0.424923 0.881948
O O6 0.000000 0.382785 0.750000
O O7 0.875540 0.327255 0.990752
O O8 0.000000 0.027289 0.250000
O O9 0.109846 0.787151 0.504954
O O10 0.286612 0.733830 0.702820
O O11 0.000000 0.727361 0.750000
O O12 0.000000 0.843138 0.250000
#
# Coordination Sequence:
#
# PCOD8160054 Si02
#       5
#     8   8   8   8   8
#     4  10  23  48  67 107 145 193 249 303 378 463
#     4  10  23  48  75 103 150 201 249 308 377 461
#     4  10  23  45  74 106 148 189 251 315 375 446
#     4  12  26  48  72 109 147 195 254 308 380 464
#     4  12  27  44  74 105 149 193 246 315 382 446
#
# _framework density 24.184512000000002
#
# number of rings (size 3 to 8) (size 9 to 14) (size 15 to 20)
#    0.000    1.200    2.000    2.400    8.400    0.800 
#   21.600    0.000    0.000    0.000    0.000    0.000 
#    0.000    0.000    0.000    0.000    0.000    0.000 
#
# Total GULP energy -247982.248881 kJ/mol
# GULP energy per Si atom -12399.112444 kJ/mol
# Density = 2.412947 g / cm^3
# Si number density = 24.184512 Si / 1000 Ang^3
#
#
#
# Elastic Constant Matrix: (Units=GPa)
#
#
# Indices 1 2 3 4 5 6 
#
# 1 124.1670 17.7839 18.4149 0.0000 0.0000 0.0000
# 2 17.7839 96.6390 25.4252 0.0000 0.0000 0.0000
# 3 18.4149 25.4252 60.6138 0.0000 0.0000 0.0000
# 4 0.0000 0.0000 0.0000 42.3757 0.0000 0.0000
# 5 0.0000 0.0000 0.0000 0.0000 37.3000 0.0000
# 6 0.0000 0.0000 0.0000 0.0000 0.0000 27.7693
#
#
#
# Elastic Compliance Matrix: (Units=1/GPa)
#
#
# Indices 1 2 3 4 5 6 
#
# 1 0.008518 -0.000997 -0.002170 0.000000 0.000000 0.000000
# 2 -0.000997 0.011748 -0.004625 0.000000 0.000000 0.000000
# 3 -0.002170 -0.004625 0.019097 0.000000 0.000000 0.000000
# 4 0.000000 0.000000 0.000000 0.023598 0.000000 0.000000
# 5 0.000000 0.000000 0.000000 0.000000 0.026810 0.000000
# 6 0.000000 0.000000 0.000000 0.000000 0.000000 0.036011
#
#
# Mechanical properties :
#
#
# Convention : Reuss Voigt Hill
#
# Bulk Modulus (GPa) = 42.05167 44.96307 43.50737
# Shear Modulus (GPa) = 33.49135 36.14207 34.81671
#
# Velocity S-wave (km/s) = 3.72536 3.86998 3.79836
# Velocity P-wave (km/s) = 5.99417 6.21297 6.10455
#
# Compressibility (1/GPa) = 0.02378027
#
# Stress axis : x y z
#
# Youngs Moduli (GPa) = 117.39545 85.12066 52.36387
#
# Poissons Ratio (x) = 0.08484 0.11362
# Poissons Ratio (y) = 0.11701 0.24219
# Poissons Ratio (z) = 0.25473 0.39369
#
# Static dielectric constant tensor:
#      x y z
#    x 4.396570 0.000000 0.000000 
#    y 0.000000 4.271980 0.000000 
#    z 0.000000 0.000000 4.572220 
# 
# 
# High freq. dielectric constant tensor:
#      x y z
#    x 1.964960 0.000000 0.000000 
#    y 0.000000 1.952710 0.000000 
#    z 0.000000 0.000000 1.972580 
# 
# From -- ./inp_files/6057.got.cif
#   From: 2010.03.12/outbox.cif.g09.slc.cpg/sg20_4_cif.got.tgz:6057.got - 2010.04.14 01:38:04.
