data_PCOD8160367
_publ_section_title
;
Structure prediction by ZEFSAII (Michael W. Deem and Ramdas Pophale) SiO2 
 PCOD8160367
Probable space group: C 2 2 21
;
_chemical_formula_sum "Si O2"
_cell_formula_units_Z 32
_cell_length_a 5.080136
_cell_length_b 36.162540
_cell_length_c 7.993871
_cell_angle_alpha 90.000000
_cell_angle_beta 90.000000
_cell_angle_gamma 90.000000
_cell_volume 1468.559008
_symmetry_space_group_name_H-M "C 2 2 21"
_symmetry_group_IT_number 20
_symmetry_cell_setting 'orthorhombic'
loop_
_space_group_symop_operation_xyz
x,y,z
-x,-y,1/2+z
x,-y,-z
-x,y,1/2-z
1/2+x,1/2+y,z
1/2-x,1/2-y,1/2+z
1/2+x,1/2-y,-z
1/2-x,1/2+y,1/2-z
loop_
_atom_site_type_symbol
_atom_site_label
_atom_site_fract_x
_atom_site_fract_y
_atom_site_fract_z
Si Si1 0.539837 0.146497 0.551673
Si Si2 0.911393 0.269795 0.060473
Si Si3 0.542722 0.391830 0.440704
Si Si4 0.740612 0.529156 0.639888
O O1 0.500000 0.142512 0.750000
O O2 0.605025 0.188107 0.496363
O O3 0.265238 0.133198 0.470277
O O4 0.762281 0.118545 0.476704
O O5 0.000000 0.268146 0.250000
O O6 0.621542 0.252378 0.050593
O O7 0.500000 0.379480 0.250000
O O8 0.626424 0.434591 0.452138
O O9 0.826878 0.500000 0.500000
O O10 0.500000 0.512668 0.750000
O O11 0.000000 0.538814 0.750000
#
# Coordination Sequence:
#
# PCOD8160367 Si02
#       4
#     8   8   8   8
#     4   9  17  30  52  79 104 137 187 236 268 312
#     4  11  22  37  58  85 115 149 187 234 288 342
#     4   9  16  30  52  79 105 137 187 235 267 310
#     4  11  22  37  59  87 117 151 187 233 285 338
#
# _framework density 21.790064999999998
#
# number of rings (size 3 to 8) (size 9 to 14) (size 15 to 20)
#    0.000    2.000    0.000    6.750    0.000    4.000 
#    0.000    0.000    0.000   15.000    0.000    0.000 
#    0.000    0.000    0.000    0.000    0.000    0.000 
#
# Total GULP energy -198304.563070 kJ/mol
# GULP energy per Si atom -12394.035192 kJ/mol
# Density = 2.174047 g / cm^3
# Si number density = 21.790065 Si / 1000 Ang^3
#
#
#
# Elastic Constant Matrix: (Units=GPa)
#
#
# Indices 1 2 3 4 5 6 
#
# 1 150.1893 70.9435 2.1143 0.0000 0.0000 0.0000
# 2 70.9435 159.6251 23.4303 0.0000 0.0000 0.0000
# 3 2.1143 23.4303 22.0807 0.0000 0.0000 0.0000
# 4 0.0000 0.0000 0.0000 20.7913 0.0000 0.0000
# 5 0.0000 0.0000 0.0000 0.0000 21.4465 0.0000
# 6 0.0000 0.0000 0.0000 0.0000 0.0000 47.4125
#
#
#
# Elastic Compliance Matrix: (Units=1/GPa)
#
#
# Indices 1 2 3 4 5 6 
#
# 1 0.008698 -0.004434 0.003872 0.000000 0.000000 0.000000
# 2 -0.004434 0.009681 -0.009848 0.000000 0.000000 0.000000
# 3 0.003872 -0.009848 0.055368 0.000000 0.000000 0.000000
# 4 0.000000 0.000000 0.000000 0.048097 0.000000 0.000000
# 5 0.000000 0.000000 0.000000 0.000000 0.046628 0.000000
# 6 0.000000 0.000000 0.000000 0.000000 0.000000 0.021091
#
#
# Mechanical properties :
#
#
# Convention : Reuss Voigt Hill
#
# Bulk Modulus (GPa) = 18.89395 58.31902 38.60648
# Shear Modulus (GPa) = 21.92739 33.62387 27.77563
#
# Velocity S-wave (km/s) = 3.17567 3.93247 3.57416
# Velocity P-wave (km/s) = 4.70491 6.88776 5.89820
#
# Compressibility (1/GPa) = 0.05292701
#
# Stress axis : x y z
#
# Youngs Moduli (GPa) = 114.96465 103.29544 18.06111
#
# Poissons Ratio (x) = 0.45804 -0.06994
# Poissons Ratio (y) = 0.50978 0.17787
# Poissons Ratio (z) = -0.44519 1.01726
#
# Static dielectric constant tensor:
#      x y z
#    x 4.703500 0.000000 0.000000 
#    y 0.000000 3.857120 0.000000 
#    z 0.000000 0.000000 3.268900 
# 
# 
# High freq. dielectric constant tensor:
#      x y z
#    x 1.886910 0.000000 0.000000 
#    y 0.000000 1.858970 0.000000 
#    z 0.000000 0.000000 1.792050 
# 
# From -- ./inp_files/5230.got.cif
#   From: 2010.03.12/outbox.cif.g09.slc.cpg/sg20_3_cif.got.tgz:5230.got - 2010.04.14 01:38:04.
