data_PCOD8160747
_publ_section_title
;
Structure prediction by ZEFSAII (Michael W. Deem and Ramdas Pophale) SiO2 
 PCOD8160747
Probable space group: C 2 2 21
;
_chemical_formula_sum "Si O2"
_cell_formula_units_Z 24
_cell_length_a 23.603923
_cell_length_b 5.484581
_cell_length_c 7.503188
_cell_angle_alpha 90.000000
_cell_angle_beta 90.000000
_cell_angle_gamma 90.000000
_cell_volume 971.344918
_symmetry_space_group_name_H-M "C 2 2 21"
_symmetry_group_IT_number 20
_symmetry_cell_setting 'orthorhombic'
loop_
_space_group_symop_operation_xyz
x,y,z
-x,-y,1/2+z
x,-y,-z
-x,y,1/2-z
1/2+x,1/2+y,z
1/2-x,1/2-y,1/2+z
1/2+x,1/2-y,-z
1/2-x,1/2+y,1/2-z
loop_
_atom_site_type_symbol
_atom_site_label
_atom_site_fract_x
_atom_site_fract_y
_atom_site_fract_z
Si Si1 0.937804 0.649415 0.817703
Si Si2 0.284516 0.269293 0.262113
Si Si3 0.138843 0.500000 0.000000
Si Si4 0.136772 0.000000 0.500000
O O1 0.901644 0.515493 0.668982
O O2 0.904007 0.898296 0.846780
O O3 0.000000 0.714527 0.750000
O O4 0.941669 0.500000 0.000000
O O5 0.250783 0.522766 0.277673
O O6 0.319541 0.226266 0.447421
O O7 0.324902 0.290129 0.088835
#
# Coordination Sequence:
#
# PCOD8160747 Si02
#       4
#     8   8   4   4
#     4  12  27  52  82 120 157 213 275 342 416 494
#     4  12  29  51  82 126 168 224 277 334 411 491
#     4  12  27  50  88 114 168 220 273 338 412 486
#     4  12  29  48  78 120 168 202 283 338 404 494
#
# _framework density 24.708010999999999
#
# number of rings (size 3 to 8) (size 9 to 14) (size 15 to 20)
#    0.000    0.000    5.000    3.000    0.000   17.333 
#    0.000    0.000    0.000    0.000    0.000    0.000 
#    0.000    0.000    0.000    0.000    0.000    0.000 
#
# Total GULP energy -148706.674697 kJ/mol
# GULP energy per Si atom -12392.222891 kJ/mol
# Density = 2.465177 g / cm^3
# Si number density = 24.708011 Si / 1000 Ang^3
#
#
#
# Elastic Constant Matrix: (Units=GPa)
#
#
# Indices 1 2 3 4 5 6 
#
# 1 198.2101 94.1212 80.1028 0.0000 0.0000 0.0000
# 2 94.1212 150.7690 52.9264 0.0000 0.0000 0.0000
# 3 80.1028 52.9264 152.8642 0.0000 0.0000 0.0000
# 4 0.0000 0.0000 0.0000 43.3939 0.0000 0.0000
# 5 0.0000 0.0000 0.0000 0.0000 57.4110 0.0000
# 6 0.0000 0.0000 0.0000 0.0000 0.0000 33.0641
#
#
#
# Elastic Compliance Matrix: (Units=1/GPa)
#
#
# Indices 1 2 3 4 5 6 
#
# 1 0.008133 -0.004077 -0.002850 0.000000 0.000000 0.000000
# 2 -0.004077 0.009594 -0.001185 0.000000 0.000000 0.000000
# 3 -0.002850 -0.001185 0.008446 0.000000 0.000000 0.000000
# 4 0.000000 0.000000 0.000000 0.023045 0.000000 0.000000
# 5 0.000000 0.000000 0.000000 0.000000 0.017418 0.000000
# 6 0.000000 0.000000 0.000000 0.000000 0.000000 0.030244
#
#
# Mechanical properties :
#
#
# Convention : Reuss Voigt Hill
#
# Bulk Modulus (GPa) = 100.52566 106.23824 103.38195
# Shear Modulus (GPa) = 42.94796 45.08667 44.01732
#
# Velocity S-wave (km/s) = 4.17372 4.27638 4.22536
# Velocity P-wave (km/s) = 8.00002 8.21426 8.10785
#
# Compressibility (1/GPa) = 0.00994771
#
# Stress axis : x y z
#
# Youngs Moduli (GPa) = 122.95895 104.23526 118.40231
#
# Poissons Ratio (x) = 0.42492 0.33748
# Poissons Ratio (y) = 0.50125 0.14036
# Poissons Ratio (z) = 0.35047 0.12357
#
# Static dielectric constant tensor:
#      x y z
#    x 4.938870 0.000000 0.000000 
#    y 0.000000 4.214150 0.000000 
#    z 0.000000 0.000000 4.498550 
# 
# 
# High freq. dielectric constant tensor:
#      x y z
#    x 2.007270 0.000000 0.000000 
#    y 0.000000 1.972360 0.000000 
#    z 0.000000 0.000000 2.004030 
# 
# From -- ./inp_files/10432.got.cif
#   From: 2010.03.12/outbox.cif.g09.slc.cpg/sg20_6_cif.got.tgz:10432.got - 2010.04.14 01:38:04.
