data_PCOD8160214
_publ_section_title
;
Structure prediction by ZEFSAII (Michael W. Deem and Ramdas Pophale) SiO2 
 PCOD8160214
Probable space group: C 2 2 21
;
_chemical_formula_sum "Si O2"
_cell_formula_units_Z 64
_cell_length_a 11.013066
_cell_length_b 9.143689
_cell_length_c 30.300088
_cell_angle_alpha 90.000000
_cell_angle_beta 90.000000
_cell_angle_gamma 90.000000
_cell_volume 3051.220390
_symmetry_space_group_name_H-M "C 2 2 21"
_symmetry_group_IT_number 20
_symmetry_cell_setting 'orthorhombic'
loop_
_space_group_symop_operation_xyz
x,y,z
-x,-y,1/2+z
x,-y,-z
-x,y,1/2-z
1/2+x,1/2+y,z
1/2-x,1/2-y,1/2+z
1/2+x,1/2-y,-z
1/2-x,1/2+y,1/2-z
loop_
_atom_site_type_symbol
_atom_site_label
_atom_site_fract_x
_atom_site_fract_y
_atom_site_fract_z
Si Si1 0.717212 0.830776 0.143479
Si Si2 0.646827 0.289130 0.533754
Si Si3 0.986099 0.565806 0.907521
Si Si4 0.627127 0.438792 0.696954
Si Si5 0.614085 0.611646 0.564191
Si Si6 0.851228 0.057418 0.297491
Si Si7 0.615126 0.764915 0.920320
Si Si8 0.213127 0.332469 0.348016
O O1 0.586467 0.877912 0.126303
O O2 0.801112 0.809997 0.100259
O O3 0.698502 0.683626 0.170785
O O4 0.779150 0.947645 0.175887
O O5 0.544576 0.176371 0.551841
O O6 0.639078 0.439977 0.561226
O O7 0.630648 0.306415 0.482071
O O8 0.786184 0.240453 0.540965
O O9 0.860543 0.555627 0.879793
O O10 0.033216 0.411354 0.926552
O O11 0.668448 0.401662 0.746651
O O12 0.489305 0.494353 0.694077
O O13 0.621821 0.287160 0.670772
O O14 0.474291 0.626803 0.578001
O O15 0.770892 0.916095 0.307189
O O16 0.682963 0.758498 0.873665
#
# Coordination Sequence:
#
# PCOD8160214 Si02
#       8
#     8   8   8   8   8   8   8   8
#     4  12  22  42  69  95 128 176 215 263 328 391
#     4  10  25  43  61  97 128 168 211 270 318 378
#     4  11  22  41  68  92 128 169 213 262 321 387
#     4  11  23  44  62  96 129 171 214 270 325 385
#     4  11  24  42  67  93 129 169 216 262 326 381
#     4  11  25  40  68  92 132 167 216 270 324 383
#     4  11  23  42  64  92 129 169 210 267 317 380
#     4  11  22  41  64  93 126 166 217 261 318 388
#
# _framework density 20.975213
#
# number of rings (size 3 to 8) (size 9 to 14) (size 15 to 20)
#    0.000    1.000    3.750    3.000    3.500    0.500 
#    0.000    0.000    0.000    0.000    0.000    0.000 
#    0.000    0.000    0.000    0.000    0.000    0.000 
#
# Total GULP energy -396729.459537 kJ/mol
# GULP energy per Si atom -12397.795611 kJ/mol
# Density = 2.092747 g / cm^3
# Si number density = 20.975213 Si / 1000 Ang^3
#
#
#
# Elastic Constant Matrix: (Units=GPa)
#
#
# Indices 1 2 3 4 5 6 
#
# 1 114.6059 34.2586 41.4423 0.0000 0.0000 0.0000
# 2 34.2586 50.4108 23.1445 0.0000 0.0000 0.0000
# 3 41.4423 23.1445 118.8060 0.0000 0.0000 0.0000
# 4 0.0000 0.0000 0.0000 33.3104 0.0000 0.0000
# 5 0.0000 0.0000 0.0000 0.0000 29.7802 0.0000
# 6 0.0000 0.0000 0.0000 0.0000 0.0000 41.8437
#
#
#
# Elastic Compliance Matrix: (Units=1/GPa)
#
#
# Indices 1 2 3 4 5 6 
#
# 1 0.011735 -0.006695 -0.002789 0.000000 0.000000 0.000000
# 2 -0.006695 0.025605 -0.002653 0.000000 0.000000 0.000000
# 3 -0.002789 -0.002653 0.009907 0.000000 0.000000 0.000000
# 4 0.000000 0.000000 0.000000 0.030021 0.000000 0.000000
# 5 0.000000 0.000000 0.000000 0.000000 0.033579 0.000000
# 6 0.000000 0.000000 0.000000 0.000000 0.000000 0.023898
#
#
# Mechanical properties :
#
#
# Convention : Reuss Voigt Hill
#
# Bulk Modulus (GPa) = 43.52886 53.50152 48.51519
# Shear Modulus (GPa) = 29.99821 33.31867 31.65844
#
# Velocity S-wave (km/s) = 3.78587 3.98990 3.88922
# Velocity P-wave (km/s) = 6.31727 6.84018 6.58392
#
# Compressibility (1/GPa) = 0.02297327
#
# Stress axis : x y z
#
# Youngs Moduli (GPa) = 85.21223 39.05559 100.93988
#
# Poissons Ratio (x) = 0.26146 0.28156
# Poissons Ratio (y) = 0.57046 0.26777
# Poissons Ratio (z) = 0.23769 0.10361
#
# Static dielectric constant tensor:
#      x y z
#    x 3.932610 0.000000 0.000000 
#    y 0.000000 3.707970 0.000000 
#    z 0.000000 0.000000 3.825540 
# 
# 
# High freq. dielectric constant tensor:
#      x y z
#    x 1.835820 0.000000 0.000000 
#    y 0.000000 1.814430 0.000000 
#    z 0.000000 0.000000 1.829450 
# 
# From -- ./inp_files/31204.got.cif
#   From: 2010.03.12/outbox.cif.g09.slc.cpg/sg20_16_cif.got.tgz:31204.got - 2010.04.14 01:38:04.
