data_PCOD8160688
_publ_section_title
;
Structure prediction by ZEFSAII (Michael W. Deem and Ramdas Pophale) SiO2 
 PCOD8160688
Probable space group: C 2 2 21
;
_chemical_formula_sum "Si O2"
_cell_formula_units_Z 40
_cell_length_a 8.245154
_cell_length_b 13.444704
_cell_length_c 15.512856
_cell_angle_alpha 90.000000
_cell_angle_beta 90.000000
_cell_angle_gamma 90.000000
_cell_volume 1719.656787
_symmetry_space_group_name_H-M "C 2 2 21"
_symmetry_group_IT_number 20
_symmetry_cell_setting 'orthorhombic'
loop_
_space_group_symop_operation_xyz
x,y,z
-x,-y,1/2+z
x,-y,-z
-x,y,1/2-z
1/2+x,1/2+y,z
1/2-x,1/2-y,1/2+z
1/2+x,1/2-y,-z
1/2-x,1/2+y,1/2-z
loop_
_atom_site_type_symbol
_atom_site_label
_atom_site_fract_x
_atom_site_fract_y
_atom_site_fract_z
Si Si1 0.892751 0.390245 0.541025
Si Si2 0.385363 0.352511 0.171470
Si Si3 0.865880 0.178702 0.323189
Si Si4 0.947992 0.201171 0.006286
Si Si5 0.166776 0.469728 0.780705
O O1 0.898587 0.500000 0.500000
O O2 0.739071 0.325260 0.514860
O O3 0.892079 0.394605 0.644504
O O4 0.039979 0.321925 0.504760
O O5 0.500000 0.325331 0.250000
O O6 0.236231 0.277785 0.166683
O O7 0.497480 0.349486 0.085431
O O8 0.304509 0.460000 0.180852
O O9 0.747111 0.088108 0.299299
O O10 0.000000 0.194825 0.250000
O O11 0.951429 0.155254 0.414554
O O12 0.000000 0.524342 0.750000
#
# Coordination Sequence:
#
# PCOD8160688 Si02
#       5
#     8   8   8   8   8
#     4  12  25  49  78 108 156 197 254 315 380 459
#     4  12  27  48  75 111 150 200 259 317 382 456
#     4  12  24  44  75 105 149 195 250 314 381 454
#     4  12  25  47  75 110 150 202 247 315 385 450
#     4  12  26  48  74 107 151 201 256 319 381 455
#
# _framework density 23.260456000000001
#
# number of rings (size 3 to 8) (size 9 to 14) (size 15 to 20)
#    0.000    0.000    6.000    4.200    0.000    0.000 
#    0.000    1.000    0.000    0.000    0.000    0.000 
#    0.000    0.000    0.000    0.000    0.000    0.000 
#
# Total GULP energy -247962.428553 kJ/mol
# GULP energy per Si atom -12398.121428 kJ/mol
# Density = 2.320751 g / cm^3
# Si number density = 23.260456 Si / 1000 Ang^3
#
#
#
# Elastic Constant Matrix: (Units=GPa)
#
#
# Indices 1 2 3 4 5 6 
#
# 1 79.9893 42.8898 55.1113 0.0000 0.0000 0.0000
# 2 42.8898 115.3174 34.7814 0.0000 0.0000 0.0000
# 3 55.1113 34.7814 194.4893 0.0000 0.0000 0.0000
# 4 0.0000 0.0000 0.0000 31.1049 0.0000 0.0000
# 5 0.0000 0.0000 0.0000 0.0000 37.9612 0.0000
# 6 0.0000 0.0000 0.0000 0.0000 0.0000 37.7186
#
#
#
# Elastic Compliance Matrix: (Units=1/GPa)
#
#
# Indices 1 2 3 4 5 6 
#
# 1 0.018392 -0.005569 -0.004216 0.000000 0.000000 0.000000
# 2 -0.005569 0.010852 -0.000363 0.000000 0.000000 0.000000
# 3 -0.004216 -0.000363 0.006401 0.000000 0.000000 0.000000
# 4 0.000000 0.000000 0.000000 0.032149 0.000000 0.000000
# 5 0.000000 0.000000 0.000000 0.000000 0.026343 0.000000
# 6 0.000000 0.000000 0.000000 0.000000 0.000000 0.026512
#
#
# Mechanical properties :
#
#
# Convention : Reuss Voigt Hill
#
# Bulk Modulus (GPa) = 65.14339 72.81788 68.98064
# Shear Modulus (GPa) = 34.23201 38.49119 36.36160
#
# Velocity S-wave (km/s) = 3.84041 4.07233 3.95807
# Velocity P-wave (km/s) = 6.90883 7.31336 7.11397
#
# Compressibility (1/GPa) = 0.01535075
#
# Stress axis : x y z
#
# Youngs Moduli (GPa) = 54.37030 92.14538 156.22217
#
# Poissons Ratio (x) = 0.51317 0.65860
# Poissons Ratio (y) = 0.30279 0.05666
# Poissons Ratio (z) = 0.22921 0.03342
#
# Static dielectric constant tensor:
#      x y z
#    x 4.286530 0.000000 0.000000 
#    y 0.000000 4.123100 0.000000 
#    z 0.000000 0.000000 4.841280 
# 
# 
# High freq. dielectric constant tensor:
#      x y z
#    x 1.924270 0.000000 0.000000 
#    y 0.000000 1.907940 0.000000 
#    z 0.000000 0.000000 1.945500 
# 
# From -- ./inp_files/18542.got.cif
#   From: 2010.03.12/outbox.cif.g09.slc.cpg/sg20_10_cif.got.tgz:18542.got - 2010.04.14 01:38:04.
