data_PCOD8160290
_publ_section_title
;
Structure prediction by ZEFSAII (Michael W. Deem and Ramdas Pophale) SiO2 
 PCOD8160290
Probable space group: C 2 2 21
;
_chemical_formula_sum "Si O2"
_cell_formula_units_Z 64
_cell_length_a 19.590944
_cell_length_b 9.474518
_cell_length_c 17.450797
_cell_angle_alpha 90.000000
_cell_angle_beta 90.000000
_cell_angle_gamma 90.000000
_cell_volume 3239.125350
_symmetry_space_group_name_H-M "C 2 2 21"
_symmetry_group_IT_number 20
_symmetry_cell_setting 'orthorhombic'
loop_
_space_group_symop_operation_xyz
x,y,z
-x,-y,1/2+z
x,-y,-z
-x,y,1/2-z
1/2+x,1/2+y,z
1/2-x,1/2-y,1/2+z
1/2+x,1/2-y,-z
1/2-x,1/2+y,1/2-z
loop_
_atom_site_type_symbol
_atom_site_label
_atom_site_fract_x
_atom_site_fract_y
_atom_site_fract_z
Si Si1 0.464358 0.967298 0.330728
Si Si2 0.324513 0.231826 0.518428
Si Si3 0.535642 0.532702 0.669272
Si Si4 0.538248 0.193886 0.425861
Si Si5 0.461752 0.306115 0.574139
Si Si6 0.824947 0.954057 0.879788
Si Si7 0.324513 0.268174 0.018428
Si Si8 0.675053 0.045943 0.120212
O O1 0.500000 0.983888 0.250000
O O2 0.504874 0.049732 0.397304
O O3 0.387669 0.031484 0.320335
O O4 0.463761 0.804977 0.356064
O O5 0.383296 0.336664 0.548619
O O6 0.250000 0.303829 0.529413
O O7 0.335318 0.188818 0.429400
O O8 0.328483 0.087545 0.565156
O O9 0.500000 0.516113 0.750000
O O10 0.536239 0.695024 0.643937
O O11 0.495125 0.450269 0.602697
O O12 0.612331 0.468515 0.679665
O O13 0.500000 0.250001 0.500000
O O14 0.616704 0.163336 0.451381
O O15 0.750000 0.948658 0.838702
O O16 0.828484 0.087545 0.934844
O O17 0.835318 0.811182 0.929400
#
# Coordination Sequence:
#
# PCOD8160290 Si02
#       8
#     8   8   8   8   8   8   8   8
#     4  11  22  35  53  81 113 141 173 223 275 322
#     4   8  14  27  51  79 100 129 181 227 251 297
#     4  11  22  35  53  81 113 141 173 223 275 322
#     4  11  20  35  57  80 106 140 183 222 267 319
#     4  11  20  35  57  80 106 140 183 222 267 319
#     4   8  14  28  51  76 100 134 182 220 248 304
#     4   8  14  27  51  79 100 129 181 227 251 297
#     4   8  14  28  51  76 100 134 182 220 248 304
#
# _framework density 19.758420999999998
#
# number of rings (size 3 to 8) (size 9 to 14) (size 15 to 20)
#    0.000    2.500    2.500    3.000    0.000    0.000 
#    0.000    1.250    0.000   10.500    0.000    0.000 
#    0.000    0.000    0.000    0.000    0.000    0.000 
#
# Total GULP energy -396560.348540 kJ/mol
# GULP energy per Si atom -12392.510892 kJ/mol
# Density = 1.971345 g / cm^3
# Si number density = 19.758421 Si / 1000 Ang^3
#
#
#
# Elastic Constant Matrix: (Units=GPa)
#
#
# Indices 1 2 3 4 5 6 
#
# 1 176.5366 9.3006 38.0554 0.0000 0.0000 0.0000
# 2 9.3006 26.3071 -6.8818 0.0000 0.0000 0.0000
# 3 38.0554 -6.8818 70.4904 0.0000 0.0000 0.0000
# 4 0.0000 0.0000 0.0000 21.5187 0.0000 0.0000
# 5 0.0000 0.0000 0.0000 0.0000 34.5342 0.0000
# 6 0.0000 0.0000 0.0000 0.0000 0.0000 21.6226
#
#
#
# Elastic Compliance Matrix: (Units=1/GPa)
#
#
# Indices 1 2 3 4 5 6 
#
# 1 0.006694 -0.003399 -0.003946 0.000000 0.000000 0.000000
# 2 -0.003399 0.040735 0.005812 0.000000 0.000000 0.000000
# 3 -0.003946 0.005812 0.016884 0.000000 0.000000 0.000000
# 4 0.000000 0.000000 0.000000 0.046471 0.000000 0.000000
# 5 0.000000 0.000000 0.000000 0.000000 0.028957 0.000000
# 6 0.000000 0.000000 0.000000 0.000000 0.000000 0.046248
#
#
# Mechanical properties :
#
#
# Convention : Reuss Voigt Hill
#
# Bulk Modulus (GPa) = 16.32737 39.36471 27.84604
# Shear Modulus (GPa) = 23.86977 31.05910 27.46443
#
# Velocity S-wave (km/s) = 3.47952 3.96907 3.73233
# Velocity P-wave (km/s) = 4.94208 6.40086 5.71818
#
# Compressibility (1/GPa) = 0.06124684
#
# Stress axis : x y z
#
# Youngs Moduli (GPa) = 149.38315 24.54917 59.22797
#
# Poissons Ratio (x) = 0.08344 0.23370
# Poissons Ratio (y) = 0.50773 -0.34422
# Poissons Ratio (z) = 0.58943 -0.14267
#
# Static dielectric constant tensor:
#      x y z
#    x 4.485600 0.000000 0.000000 
#    y 0.000000 3.293680 0.000000 
#    z 0.000000 0.000000 3.355920 
# 
# 
# High freq. dielectric constant tensor:
#      x y z
#    x 1.797540 0.000000 0.000000 
#    y 0.000000 1.731890 0.000000 
#    z 0.000000 0.000000 1.731310 
# 
# From -- ./inp_files/25521.got.cif
#   From: 2010.03.12/outbox.cif.g09.slc.cpg/sg20_13_cif.got.tgz:25521.got - 2010.04.14 01:38:04.
