data_PCOD8160384
_publ_section_title
;
Structure prediction by ZEFSAII (Michael W. Deem and Ramdas Pophale) SiO2 
 PCOD8160384
Probable space group: C 2 2 21
;
_chemical_formula_sum "Si O2"
_cell_formula_units_Z 40
_cell_length_a 21.069668
_cell_length_b 17.545511
_cell_length_c 4.911861
_cell_angle_alpha 90.000000
_cell_angle_beta 90.000000
_cell_angle_gamma 90.000000
_cell_volume 1815.807401
_symmetry_space_group_name_H-M "C 2 2 21"
_symmetry_group_IT_number 20
_symmetry_cell_setting 'orthorhombic'
loop_
_space_group_symop_operation_xyz
x,y,z
-x,-y,1/2+z
x,-y,-z
-x,y,1/2-z
1/2+x,1/2+y,z
1/2-x,1/2-y,1/2+z
1/2+x,1/2-y,-z
1/2-x,1/2+y,1/2-z
loop_
_atom_site_type_symbol
_atom_site_label
_atom_site_fract_x
_atom_site_fract_y
_atom_site_fract_z
Si Si1 0.268946 0.414902 0.945417
Si Si2 0.930660 0.417265 0.370357
Si Si3 0.364459 0.287213 0.915163
Si Si4 0.935191 0.741601 0.406318
Si Si5 0.310728 0.126728 0.940639
O O1 0.328311 0.364887 0.841479
O O2 0.209901 0.405873 0.735906
O O3 0.292987 0.500000 0.000000
O O4 0.246237 0.390642 0.240036
O O5 0.928384 0.500000 0.500000
O O6 0.919539 0.349524 0.592161
O O7 0.877398 0.413786 0.135866
O O8 0.000000 0.400640 0.250000
O O9 0.425617 0.273788 0.713981
O O10 0.315823 0.217233 0.905485
O O11 0.385405 0.288683 0.228114
O O12 0.000000 0.757614 0.250000
#
# Coordination Sequence:
#
# PCOD8160384 Si02
#       5
#     8   8   8   8   8
#     4  12  25  41  64  91 123 162 208 262 314 364
#     4  11  24  39  61  92 133 171 210 253 300 359
#     4  11  23  41  64  91 125 162 206 255 306 371
#     4  11  22  40  65  92 122 163 207 251 307 370
#     4  11  23  41  61  88 125 168 209 249 304 366
#
# _framework density 22.028766999999998
#
# number of rings (size 3 to 8) (size 9 to 14) (size 15 to 20)
#    0.000    0.800    0.000    9.600    0.000    4.800 
#    0.000    0.000    0.000    2.400    0.000    1.400 
#    0.000    0.000    0.000    0.000    0.000    0.000 
#
# Total GULP energy -247906.533800 kJ/mol
# GULP energy per Si atom -12395.326690 kJ/mol
# Density = 2.197863 g / cm^3
# Si number density = 22.028767 Si / 1000 Ang^3
#
#
#
# Elastic Constant Matrix: (Units=GPa)
#
#
# Indices 1 2 3 4 5 6 
#
# 1 86.3768 66.3805 13.3781 0.0000 0.0000 0.0000
# 2 66.3805 120.7662 44.9194 0.0000 0.0000 0.0000
# 3 13.3781 44.9194 80.2994 0.0000 0.0000 0.0000
# 4 0.0000 0.0000 0.0000 19.1640 0.0000 0.0000
# 5 0.0000 0.0000 0.0000 0.0000 16.5053 0.0000
# 6 0.0000 0.0000 0.0000 0.0000 0.0000 7.0462
#
#
#
# Elastic Compliance Matrix: (Units=1/GPa)
#
#
# Indices 1 2 3 4 5 6 
#
# 1 0.020887 -0.012863 0.003716 0.000000 0.000000 0.000000
# 2 -0.012863 0.018377 -0.008137 0.000000 0.000000 0.000000
# 3 0.003716 -0.008137 0.016386 0.000000 0.000000 0.000000
# 4 0.000000 0.000000 0.000000 0.052181 0.000000 0.000000
# 5 0.000000 0.000000 0.000000 0.000000 0.060587 0.000000
# 6 0.000000 0.000000 0.000000 0.000000 0.000000 0.141920
#
#
# Mechanical properties :
#
#
# Convention : Reuss Voigt Hill
#
# Bulk Modulus (GPa) = 47.43472 59.64426 53.53949
# Shear Modulus (GPa) = 14.20721 19.39406 16.80063
#
# Velocity S-wave (km/s) = 2.54232 2.97037 2.76464
# Velocity P-wave (km/s) = 5.49524 6.23687 5.87776
#
# Compressibility (1/GPa) = 0.02108160
#
# Stress axis : x y z
#
# Youngs Moduli (GPa) = 47.87762 54.41526 61.02642
#
# Poissons Ratio (x) = 0.69992 -0.22675
# Poissons Ratio (y) = 0.61583 0.49659
# Poissons Ratio (z) = -0.17789 0.44279
#
# Static dielectric constant tensor:
#      x y z
#    x 3.849570 0.000000 0.000000 
#    y 0.000000 4.426260 0.000000 
#    z 0.000000 0.000000 4.285990 
# 
# 
# High freq. dielectric constant tensor:
#      x y z
#    x 1.858730 0.000000 0.000000 
#    y 0.000000 1.845710 0.000000 
#    z 0.000000 0.000000 1.885520 
# 
# From -- ./inp_files/2493.got.cif
#   From: 2010.03.12/outbox.cif.g09.slc.cpg/sg20_2_cif.got.tgz:2493.got - 2010.04.14 01:38:04.
