data_PCOD8160526
_publ_section_title
;
Structure prediction by ZEFSAII (Michael W. Deem and Ramdas Pophale) SiO2 
 PCOD8160526
Probable space group: C 2 2 21
;
_chemical_formula_sum "Si O2"
_cell_formula_units_Z 48
_cell_length_a 17.259599
_cell_length_b 7.541314
_cell_length_c 16.775662
_cell_angle_alpha 90.000000
_cell_angle_beta 90.000000
_cell_angle_gamma 90.000000
_cell_volume 2183.521098
_symmetry_space_group_name_H-M "C 2 2 21"
_symmetry_group_IT_number 20
_symmetry_cell_setting 'orthorhombic'
loop_
_space_group_symop_operation_xyz
x,y,z
-x,-y,1/2+z
x,-y,-z
-x,y,1/2-z
1/2+x,1/2+y,z
1/2-x,1/2-y,1/2+z
1/2+x,1/2-y,-z
1/2-x,1/2+y,1/2-z
loop_
_atom_site_type_symbol
_atom_site_label
_atom_site_fract_x
_atom_site_fract_y
_atom_site_fract_z
Si Si1 0.750861 0.393812 0.646173
Si Si2 0.609223 0.607927 0.124730
Si Si3 0.773142 0.298231 0.817856
Si Si4 0.612346 0.233496 0.046631
Si Si5 0.121627 0.605565 0.634028
Si Si6 0.017168 0.500000 0.500000
Si Si7 0.500000 0.227847 0.750000
O O1 0.794891 0.323352 0.725130
O O2 0.721317 0.595751 0.653924
O O3 0.811467 0.374424 0.573704
O O4 0.676407 0.274947 0.629803
O O5 0.686076 0.628650 0.176730
O O6 0.600319 0.407157 0.098114
O O7 0.534662 0.653586 0.178335
O O8 0.618494 0.732875 0.047882
O O9 0.830662 0.421031 0.869443
O O10 0.535843 0.115940 0.059679
O O11 0.069823 0.623051 0.555438
O O12 0.069009 0.608129 0.713854
#
# Coordination Sequence:
#
# PCOD8160526 Si02
#       7
#     8   8   8   8   8   4   4
#     4  12  24  45  77 106 146 194 252 306 371 447
#     4  11  23  47  78 107 145 193 253 302 374 451
#     4  12  24  46  73 110 142 195 248 302 370 448
#     4  11  25  46  75 105 146 203 243 301 381 452
#     4  12  28  47  72 110 151 191 249 309 370 447
#     4  12  28  50  66 108 156 196 242 310 386 436
#     4  12  24  50  76 108 154 192 244 326 370 444
#
# _framework density 21.982842999999999
#
# number of rings (size 3 to 8) (size 9 to 14) (size 15 to 20)
#    0.000    0.333    6.667    1.000    4.667    1.333 
#    0.000    0.833    0.000    0.000    0.000    0.000 
#    0.000    0.000    0.000    0.000    0.000    0.000 
#
# Total GULP energy -297702.763249 kJ/mol
# GULP energy per Si atom -12404.281802 kJ/mol
# Density = 2.193281 g / cm^3
# Si number density = 21.982843 Si / 1000 Ang^3
#
#
#
# Elastic Constant Matrix: (Units=GPa)
#
#
# Indices 1 2 3 4 5 6 
#
# 1 139.6396 73.0965 50.9507 0.0000 0.0000 0.0000
# 2 73.0965 176.3825 48.0450 0.0000 0.0000 0.0000
# 3 50.9507 48.0450 103.5475 0.0000 0.0000 0.0000
# 4 0.0000 0.0000 0.0000 29.5722 0.0000 0.0000
# 5 0.0000 0.0000 0.0000 0.0000 54.0749 0.0000
# 6 0.0000 0.0000 0.0000 0.0000 0.0000 16.9139
#
#
#
# Elastic Compliance Matrix: (Units=1/GPa)
#
#
# Indices 1 2 3 4 5 6 
#
# 1 0.010132 -0.003252 -0.003477 0.000000 0.000000 0.000000
# 2 -0.003252 0.007533 -0.001895 0.000000 0.000000 0.000000
# 3 -0.003477 -0.001895 0.012247 0.000000 0.000000 0.000000
# 4 0.000000 0.000000 0.000000 0.033816 0.000000 0.000000
# 5 0.000000 0.000000 0.000000 0.000000 0.018493 0.000000
# 6 0.000000 0.000000 0.000000 0.000000 0.000000 0.059123
#
#
# Mechanical properties :
#
#
# Convention : Reuss Voigt Hill
#
# Bulk Modulus (GPa) = 78.95635 84.86156 81.90895
# Shear Modulus (GPa) = 30.70991 36.61070 33.66031
#
# Velocity S-wave (km/s) = 3.74169 4.08539 3.91731
# Velocity P-wave (km/s) = 7.39339 7.80648 7.60274
#
# Compressibility (1/GPa) = 0.01266523
#
# Stress axis : x y z
#
# Youngs Moduli (GPa) = 98.69617 132.74163 81.64933
#
# Poissons Ratio (x) = 0.43167 0.28387
# Poissons Ratio (y) = 0.32095 0.15475
# Poissons Ratio (z) = 0.34313 0.25159
#
# Static dielectric constant tensor:
#      x y z
#    x 4.022570 0.000000 0.000000 
#    y 0.000000 4.035580 0.000000 
#    z 0.000000 0.000000 4.046970 
# 
# 
# High freq. dielectric constant tensor:
#      x y z
#    x 1.869430 0.000000 0.000000 
#    y 0.000000 1.869810 0.000000 
#    z 0.000000 0.000000 1.871390 
# 
# From -- ./inp_files/24852.got.cif
#   From: 2010.03.12/outbox.cif.g09.slc.cpg/sg20_13_cif.got.tgz:24852.got - 2010.04.14 01:38:04.
