data_PCOD8160051
_publ_section_title
;
Structure prediction by ZEFSAII (Michael W. Deem and Ramdas Pophale) SiO2 
 PCOD8160051
Probable space group: C 2 2 21
;
_chemical_formula_sum "Si O2"
_cell_formula_units_Z 32
_cell_length_a 13.721778
_cell_length_b 5.054798
_cell_length_c 18.049342
_cell_angle_alpha 90.000000
_cell_angle_beta 90.000000
_cell_angle_gamma 90.000000
_cell_volume 1251.917089
_symmetry_space_group_name_H-M "C 2 2 21"
_symmetry_group_IT_number 20
_symmetry_cell_setting 'orthorhombic'
loop_
_space_group_symop_operation_xyz
x,y,z
-x,-y,1/2+z
x,-y,-z
-x,y,1/2-z
1/2+x,1/2+y,z
1/2-x,1/2-y,1/2+z
1/2+x,1/2-y,-z
1/2-x,1/2+y,1/2-z
loop_
_atom_site_type_symbol
_atom_site_label
_atom_site_fract_x
_atom_site_fract_y
_atom_site_fract_z
Si Si1 0.721141 0.659134 0.424704
Si Si2 0.422398 0.631253 0.638690
Si Si3 0.805501 0.019651 0.771476
Si Si4 0.980897 0.393385 0.076968
O O1 0.737700 0.500000 0.500000
O O2 0.819661 0.808548 0.401701
O O3 0.684030 0.455389 0.360285
O O4 0.635189 0.872730 0.432766
O O5 0.404808 0.572941 0.726069
O O6 0.471307 0.386400 0.596902
O O7 0.492539 0.886555 0.638014
O O8 0.721233 0.215914 0.745377
O O9 0.026414 0.500000 0.000000
#
# Coordination Sequence:
#
# PCOD8160051 Si02
#       4
#     8   8   8   8
#     4  11  26  48  74 104 143 186 230 293 354 408
#     4  11  25  48  73 101 144 188 227 292 352 406
#     4  10  23  45  73 105 138 183 239 282 343 428
#     4  12  27  45  70 107 141 181 242 284 341 427
#
# _framework density 25.560797999999998
#
# number of rings (size 3 to 8) (size 9 to 14) (size 15 to 20)
#    0.000    1.000    0.000    6.000    0.000   17.000 
#    0.000   10.000    0.000    0.000    0.000    0.000 
#    0.000    0.000    0.000    0.000    0.000    0.000 
#
# Total GULP energy -198378.792262 kJ/mol
# GULP energy per Si atom -12398.674516 kJ/mol
# Density = 2.550262 g / cm^3
# Si number density = 25.560798 Si / 1000 Ang^3
#
#
#
# Elastic Constant Matrix: (Units=GPa)
#
#
# Indices 1 2 3 4 5 6 
#
# 1 82.6898 46.2975 -3.1298 0.0000 0.0000 0.0000
# 2 46.2975 137.1645 23.1636 0.0000 0.0000 0.0000
# 3 -3.1298 23.1636 133.7908 0.0000 0.0000 0.0000
# 4 0.0000 0.0000 0.0000 46.9288 0.0000 0.0000
# 5 0.0000 0.0000 0.0000 0.0000 -228.9325 0.0000
# 6 0.0000 0.0000 0.0000 0.0000 0.0000 36.4398
#
#
#
# Elastic Compliance Matrix: (Units=1/GPa)
#
#
# Indices 1 2 3 4 5 6 
#
# 1 0.015119 -0.005319 0.001275 0.000000 0.000000 0.000000
# 2 -0.005319 0.009381 -0.001749 0.000000 0.000000 0.000000
# 3 0.001275 -0.001749 0.007807 0.000000 0.000000 0.000000
# 4 0.000000 0.000000 0.000000 0.021309 0.000000 0.000000
# 5 0.000000 0.000000 0.000000 0.000000 -0.004368 0.000000
# 6 0.000000 0.000000 0.000000 0.000000 0.000000 0.027443
#
#
# Mechanical properties :
#
#
# Convention : Reuss Voigt Hill
#
# Bulk Modulus (GPa) = 48.25762 54.03420 51.14591
# Shear Modulus (GPa) = 52.53027 -9.95852 21.28588
#
# Velocity S-wave (km/s) = 4.53825 -1.97597 2.88888
# Velocity P-wave (km/s) = 6.81040 3.99743 5.58395
#
# Compressibility (1/GPa) = 0.02072211
#
# Stress axis : x y z
#
# Youngs Moduli (GPa) = 66.14004 106.59863 128.09174
#
# Poissons Ratio (x) = 0.56695 -0.16325
# Poissons Ratio (y) = 0.35177 0.22398
# Poissons Ratio (z) = -0.08430 0.18640
#
# Static dielectric constant tensor:
#      x y z
#    x 4.612080 0.000000 0.000000 
#    y 0.000000 4.577180 0.000000 
#    z 0.000000 0.000000 5.113590 
# 
# 
# High freq. dielectric constant tensor:
#      x y z
#    x 2.023880 0.000000 0.000000 
#    y 0.000000 2.024030 0.000000 
#    z 0.000000 0.000000 2.036310 
# 
# From -- ./inp_files/24604.got.cif
#   From: 2010.03.12/outbox.cif.g09.slc.cpg/sg20_13_cif.got.tgz:24604.got - 2010.04.14 01:38:04.
