data_PCOD8160924
_publ_section_title
;
Structure prediction by ZEFSAII (Michael W. Deem and Ramdas Pophale) SiO2 
 PCOD8160924
Probable space group: C 2 2 2
;
_chemical_formula_sum "Si O2"
_cell_formula_units_Z 48
_cell_length_a 16.317101
_cell_length_b 32.442938
_cell_length_c 5.207480
_cell_angle_alpha 90.000000
_cell_angle_beta 90.000000
_cell_angle_gamma 90.000000
_cell_volume 2756.708142
_symmetry_space_group_name_H-M "C 2 2 2"
_symmetry_group_IT_number 21
_symmetry_cell_setting 'orthorhombic'
loop_
_space_group_symop_operation_xyz
x,y,z
-x,-y,z
x,-y,-z
-x,y,-z
1/2+x,1/2+y,z
1/2-x,1/2-y,z
1/2+x,1/2-y,-z
1/2-x,1/2+y,-z
loop_
_atom_site_type_symbol
_atom_site_label
_atom_site_fract_x
_atom_site_fract_y
_atom_site_fract_z
Si Si1 0.403001 0.905062 0.499455
Si Si2 0.697574 0.824087 0.638231
Si Si3 0.719909 0.295760 0.877878
Si Si4 0.039426 0.282586 0.749697
Si Si5 0.031697 0.192397 0.246039
Si Si6 0.403349 0.954273 0.006827
O O1 0.500000 0.894754 0.500000
O O2 0.351236 0.865769 0.411395
O O3 0.377824 0.937464 0.282706
O O4 0.374429 0.924361 0.772837
O O5 0.730680 0.812210 0.363013
O O6 0.636363 0.788837 0.744134
O O7 0.765802 0.824803 0.868204
O O8 0.750000 0.250000 0.943182
O O9 0.626591 0.297097 0.780312
O O10 0.000000 0.304160 0.500000
O O11 0.022816 0.234077 0.752112
O O12 0.000000 0.304413 0.000000
O O13 0.000000 0.168122 0.500000
O O14 0.000000 0.166346 0.000000
O O15 0.500000 0.958210 0.000000
O O16 0.363711 0.000000 0.000000
#
# Coordination Sequence:
#
# PCOD8160924 Si02
#       6
#     8   8   8   8   8   8
#     4  10  20  32  49  72  99 133 167 203 251 295
#     4  12  23  35  49  71  99 125 163 214 265 301
#     4  12  23  35  50  69  92 124 165 214 265 305
#     4  10  19  32  47  62  84 118 156 202 250 290
#     4  10  19  34  50  65  83 113 160 207 248 295
#     4   9  17  31  50  72  97 127 167 206 234 279
#
# _framework density 17.412071999999998
#
# number of rings (size 3 to 8) (size 9 to 14) (size 15 to 20)
#    0.000    1.500    0.000    8.500    0.000    4.000 
#    0.000    0.000    0.000    0.000    0.000    0.000 
#    0.000    0.000    0.000    0.000    0.000  175.000 
#
# Total GULP energy -297329.421872 kJ/mol
# GULP energy per Si atom -12388.725911 kJ/mol
# Density = 1.737244 g / cm^3
# Si number density = 17.412072 Si / 1000 Ang^3
#
#
#
# Elastic Constant Matrix: (Units=GPa)
#
#
# Indices 1 2 3 4 5 6 
#
# 1 47.8933 21.5485 19.4828 0.0000 0.0000 0.0000
# 2 21.5485 61.9162 29.3627 0.0000 0.0000 0.0000
# 3 19.4828 29.3627 154.9399 0.0000 0.0000 0.0000
# 4 0.0000 0.0000 0.0000 16.4973 0.0000 0.0000
# 5 0.0000 0.0000 0.0000 0.0000 29.8027 0.0000
# 6 0.0000 0.0000 0.0000 0.0000 0.0000 18.5753
#
#
#
# Elastic Compliance Matrix: (Units=1/GPa)
#
#
# Indices 1 2 3 4 5 6 
#
# 1 0.025135 -0.007965 -0.001651 0.000000 0.000000 0.000000
# 2 -0.007965 0.020269 -0.002840 0.000000 0.000000 0.000000
# 3 -0.001651 -0.002840 0.007200 0.000000 0.000000 0.000000
# 4 0.000000 0.000000 0.000000 0.060616 0.000000 0.000000
# 5 0.000000 0.000000 0.000000 0.000000 0.033554 0.000000
# 6 0.000000 0.000000 0.000000 0.000000 0.000000 0.053835
#
#
# Mechanical properties :
#
#
# Convention : Reuss Voigt Hill
#
# Bulk Modulus (GPa) = 36.10995 45.05971 40.58483
# Shear Modulus (GPa) = 21.29913 25.93210 23.61562
#
# Velocity S-wave (km/s) = 3.50128 3.86335 3.68676
# Velocity P-wave (km/s) = 6.09334 6.77018 6.44065
#
# Compressibility (1/GPa) = 0.02769319
#
# Stress axis : x y z
#
# Youngs Moduli (GPa) = 39.78523 49.33531 138.89068
#
# Poissons Ratio (x) = 0.39294 0.22934
# Poissons Ratio (y) = 0.31687 0.39442
# Poissons Ratio (z) = 0.06569 0.14010
#
# Static dielectric constant tensor:
#      x y z
#    x 3.183940 0.000000 0.000000 
#    y 0.000000 2.982460 0.000000 
#    z 0.000000 0.000000 8.355420 
# 
# 
# High freq. dielectric constant tensor:
#      x y z
#    x 1.644420 0.000000 0.000000 
#    y 0.000000 1.617640 0.000000 
#    z 0.000000 0.000000 1.716430 
# 
# From -- ./inp_files/4265.got.cif
#   From: 2010.03.12/outbox.cif.g09.slc.cpg/sg21_3_cif.got.tgz:4265.got - 2010.04.14 01:59:26.
