data_PCOD8160767
_publ_section_title
;
Structure prediction by ZEFSAII (Michael W. Deem and Ramdas Pophale) SiO2 
 PCOD8160767
Probable space group: C 2 2 2
;
_chemical_formula_sum "Si O2"
_cell_formula_units_Z 48
_cell_length_a 14.714032
_cell_length_b 5.340965
_cell_length_c 25.911799
_cell_angle_alpha 90.000000
_cell_angle_beta 90.000000
_cell_angle_gamma 90.000000
_cell_volume 2036.333914
_symmetry_space_group_name_H-M "C 2 2 2"
_symmetry_group_IT_number 21
_symmetry_cell_setting 'orthorhombic'
loop_
_space_group_symop_operation_xyz
x,y,z
-x,-y,z
x,-y,-z
-x,y,-z
1/2+x,1/2+y,z
1/2-x,1/2-y,z
1/2+x,1/2-y,-z
1/2-x,1/2+y,-z
loop_
_atom_site_type_symbol
_atom_site_label
_atom_site_fract_x
_atom_site_fract_y
_atom_site_fract_z
Si Si1 0.354136 0.500000 0.275247
Si Si2 0.607828 0.500000 0.057877
Si Si3 0.847599 0.500000 0.560772
Si Si4 0.349134 0.000000 0.232453
Si Si5 0.608179 1.000000 0.883430
Si Si6 0.354314 0.500000 0.396565
O O1 0.401339 0.251106 0.251406
O O2 0.248888 0.500000 0.259378
O O3 0.368708 0.500000 0.335929
O O4 0.401339 0.748894 0.251406
O O5 0.500000 0.500000 0.055764
O O6 0.641342 0.247955 0.086375
O O7 0.641342 0.752045 0.086375
O O8 0.647867 0.500000 0.000000
O O9 0.832387 0.500000 0.500000
O O10 0.751648 0.500000 0.589773
O O11 0.900681 0.751113 0.578729
O O12 0.900681 0.248887 0.578729
O O13 0.340711 0.000000 0.171000
O O14 0.500000 0.000000 0.874924
#
# Coordination Sequence:
#
# PCOD8160767 Si02
#       6
#     8   8   8   8   8   8
#     4  10  19  30  45  62  80 117 160 183 204 234
#     4   9  17  30  47  68  92 114 138 168 208 262
#     4  10  16  22  33  51  75 105 136 166 212 258
#     4  10  18  30  44  64  87 110 148 185 208 244
#     4  10  19  30  47  71  94 114 136 171 220 260
#     4  10  16  25  36  51  75 102 145 178 196 242
#
# _framework density 23.571774000000001
#
# number of rings (size 3 to 8) (size 9 to 14) (size 15 to 20)
#    0.000    2.167    0.000    9.000    0.000    2.000 
#    0.000    0.000    0.000    0.000    0.000   46.667 
#    0.000    0.000    0.000    0.000    0.000  469.167 
#
# Total GULP energy -297437.166040 kJ/mol
# GULP energy per Si atom -12393.215252 kJ/mol
# Density = 2.351812 g / cm^3
# Si number density = 23.571774 Si / 1000 Ang^3
#
#
#
# Elastic Constant Matrix: (Units=GPa)
#
#
# Indices 1 2 3 4 5 6 
#
# 1 18.6452 -9.4478 -12.8165 0.0000 0.0000 0.0000
# 2 -9.4478 313.2867 104.6999 0.0000 0.0000 0.0000
# 3 -12.8165 104.6999 192.1483 0.0000 0.0000 0.0000
# 4 0.0000 0.0000 0.0000 55.6999 0.0000 0.0000
# 5 0.0000 0.0000 0.0000 0.0000 -11.6806 0.0000
# 6 0.0000 0.0000 0.0000 0.0000 0.0000 -9.2892
#
#
#
# Elastic Compliance Matrix: (Units=1/GPa)
#
#
# Indices 1 2 3 4 5 6 
#
# 1 0.056285 0.000541 0.003459 0.000000 0.000000 0.000000
# 2 0.000541 0.003908 -0.002093 0.000000 0.000000 0.000000
# 3 0.003459 -0.002093 0.006576 0.000000 0.000000 0.000000
# 4 0.000000 0.000000 0.000000 0.017953 0.000000 0.000000
# 5 0.000000 0.000000 0.000000 0.000000 -0.085612 0.000000
# 6 0.000000 0.000000 0.000000 0.000000 0.000000 -0.107652
#
#
# Mechanical properties :
#
#
# Convention : Reuss Voigt Hill
#
# Bulk Modulus (GPa) = 14.16760 76.55015 45.35887
# Shear Modulus (GPa) = -56.28810 36.38898 -9.94956
#
# Velocity S-wave (km/s) = -4.89196 3.93332 -2.05673
# Velocity P-wave (km/s) = 5.08772 7.29204 3.69384
#
# Compressibility (1/GPa) = 0.07058360
#
# Stress axis : x y z
#
# Youngs Moduli (GPa) = 17.76662 255.89530 152.07636
#
# Poissons Ratio (x) = -0.13852 -0.52608
# Poissons Ratio (y) = -0.00962 0.31833
# Poissons Ratio (z) = -0.06146 0.53565
#
# Static dielectric constant tensor:
#      x y z
#    x 3.313380 0.000000 0.000000 
#    y 0.000000 10.645290 0.000000 
#    z 0.000000 0.000000 4.145810 
# 
# 
# High freq. dielectric constant tensor:
#      x y z
#    x 1.862100 0.000000 0.000000 
#    y 0.000000 1.978370 0.000000 
#    z 0.000000 0.000000 1.942260 
# 
# From -- ./inp_files/37769.got.cif
#   From: 2010.03.12/outbox.cif.g09.slc.cpg/sg21_19_cif.got.tgz:37769.got - 2010.04.14 01:59:26.
