data_PCOD8160877
_publ_section_title
;
Structure prediction by ZEFSAII (Michael W. Deem and Ramdas Pophale) SiO2 
 PCOD8160877
Probable space group: C 2 2 2
;
_chemical_formula_sum "Si O2"
_cell_formula_units_Z 52
_cell_length_a 22.655448
_cell_length_b 11.905250
_cell_length_c 10.144132
_cell_angle_alpha 90.000000
_cell_angle_beta 90.000000
_cell_angle_gamma 90.000000
_cell_volume 2736.062829
_symmetry_space_group_name_H-M "C 2 2 2"
_symmetry_group_IT_number 21
_symmetry_cell_setting 'orthorhombic'
loop_
_space_group_symop_operation_xyz
x,y,z
-x,-y,z
x,-y,-z
-x,y,-z
1/2+x,1/2+y,z
1/2-x,1/2-y,z
1/2+x,1/2-y,-z
1/2-x,1/2+y,-z
loop_
_atom_site_type_symbol
_atom_site_label
_atom_site_fract_x
_atom_site_fract_y
_atom_site_fract_z
Si Si1 0.631423 0.143634 0.849641
Si Si2 0.807341 0.318582 0.379088
Si Si3 0.763165 0.000000 0.500000
Si Si4 0.979296 0.873670 0.361429
Si Si5 0.877041 0.611573 0.855050
Si Si6 0.499946 0.205026 0.146989
Si Si7 0.345967 0.311023 0.373943
O O1 0.562197 0.150308 0.813970
O O2 0.667499 0.233924 0.757942
O O3 0.648202 0.013213 0.828514
O O4 0.642620 0.165996 0.004942
O O5 0.750000 0.250000 0.343577
O O6 0.781882 0.442363 0.399841
O O7 0.850948 0.308476 0.256392
O O8 0.843920 0.275240 0.505088
O O9 0.800238 0.911616 0.409212
O O10 0.908658 0.869284 0.353217
O O11 0.000000 0.821334 0.500000
O O12 0.012167 0.806974 0.246068
O O13 0.000000 0.000000 0.347851
O O14 0.948350 0.611836 0.844141
O O15 0.500000 0.256310 0.000000
#
# Coordination Sequence:
#
# PCOD8160877 Si02
#       7
#     8   8   4   8   8   8   8
#     4   9  19  33  54  81 104 135 172 212 271 331
#     4  10  21  35  53  75  99 136 181 222 268 315
#     4  10  20  36  57  76 101 142 186 230 276 322
#     4  10  19  31  50  78 106 138 173 213 268 324
#     4  10  18  34  54  76 108 138 170 219 268 320
#     4   9  18  32  52  77 106 138 171 209 261 327
#     4  10  20  36  55  77 106 138 181 227 268 326
#
# _framework density 19.005412
#
# number of rings (size 3 to 8) (size 9 to 14) (size 15 to 20)
#    0.000    2.308    0.000    3.231    0.000    3.385 
#    0.000    5.385    0.000    9.231    0.000    0.000 
#    0.000    0.000    0.000    0.000    0.000    0.000 
#
# Total GULP energy -322123.307796 kJ/mol
# GULP energy per Si atom -12389.357992 kJ/mol
# Density = 1.896215 g / cm^3
# Si number density = 19.005412 Si / 1000 Ang^3
#
#
#
# Elastic Constant Matrix: (Units=GPa)
#
#
# Indices 1 2 3 4 5 6 
#
# 1 51.4923 23.9047 32.9903 0.0000 0.0000 0.0000
# 2 23.9047 94.0000 63.5270 0.0000 0.0000 0.0000
# 3 32.9903 63.5270 136.3463 0.0000 0.0000 0.0000
# 4 0.0000 0.0000 0.0000 31.2168 0.0000 0.0000
# 5 0.0000 0.0000 0.0000 0.0000 26.9631 0.0000
# 6 0.0000 0.0000 0.0000 0.0000 0.0000 16.2629
#
#
#
# Elastic Compliance Matrix: (Units=1/GPa)
#
#
# Indices 1 2 3 4 5 6 
#
# 1 0.023596 -0.003127 -0.004253 0.000000 0.000000 0.000000
# 2 -0.003127 0.015942 -0.006671 0.000000 0.000000 0.000000
# 3 -0.004253 -0.006671 0.011471 0.000000 0.000000 0.000000
# 4 0.000000 0.000000 0.000000 0.032034 0.000000 0.000000
# 5 0.000000 0.000000 0.000000 0.000000 0.037088 0.000000
# 6 0.000000 0.000000 0.000000 0.000000 0.000000 0.061490
#
#
# Mechanical properties :
#
#
# Convention : Reuss Voigt Hill
#
# Bulk Modulus (GPa) = 43.65115 58.07586 50.86351
# Shear Modulus (GPa) = 23.00346 25.64966 24.32656
#
# Velocity S-wave (km/s) = 3.48280 3.67767 3.58156
# Velocity P-wave (km/s) = 6.26026 6.97550 6.62753
#
# Compressibility (1/GPa) = 0.02290890
#
# Stress axis : x y z
#
# Youngs Moduli (GPa) = 42.37921 62.72753 87.17258
#
# Poissons Ratio (x) = 0.19613 0.37071
# Poissons Ratio (y) = 0.13251 0.58155
# Poissons Ratio (z) = 0.18022 0.41847
#
# Static dielectric constant tensor:
#      x y z
#    x 3.415480 0.000000 0.000000 
#    y 0.000000 3.412080 0.000000 
#    z 0.000000 0.000000 3.691810 
# 
# 
# High freq. dielectric constant tensor:
#      x y z
#    x 1.730690 0.000000 0.000000 
#    y 0.000000 1.732880 0.000000 
#    z 0.000000 0.000000 1.743030 
# 
# From -- ./inp_files/19141.got.cif
#   From: 2010.03.12/outbox.cif.g09.slc.cpg/sg21_10_cif.got.tgz:19141.got - 2010.04.14 01:59:26.
