data_PCOD8160355
_publ_section_title
;
Structure prediction by ZEFSAII (Michael W. Deem and Ramdas Pophale) SiO2 
 PCOD8160355
Probable space group: C 2 2 21
;
_chemical_formula_sum "Si O2"
_cell_formula_units_Z 56
_cell_length_a 14.448667
_cell_length_b 11.386075
_cell_length_c 13.812143
_cell_angle_alpha 90.000000
_cell_angle_beta 90.000000
_cell_angle_gamma 90.000000
_cell_volume 2272.285453
_symmetry_space_group_name_H-M "C 2 2 21"
_symmetry_group_IT_number 20
_symmetry_cell_setting 'orthorhombic'
loop_
_space_group_symop_operation_xyz
x,y,z
-x,-y,1/2+z
x,-y,-z
-x,y,1/2-z
1/2+x,1/2+y,z
1/2-x,1/2-y,1/2+z
1/2+x,1/2-y,-z
1/2-x,1/2+y,1/2-z
loop_
_atom_site_type_symbol
_atom_site_label
_atom_site_fract_x
_atom_site_fract_y
_atom_site_fract_z
Si Si1 0.999414 0.639046 0.000530
Si Si2 0.481428 0.509148 0.890613
Si Si3 0.568619 0.259462 0.678862
Si Si4 0.806735 0.947217 0.395599
Si Si5 0.291694 0.195731 0.462998
Si Si6 0.134583 0.778679 0.374442
Si Si7 0.248683 0.631452 0.236144
O O1 0.929215 0.680691 0.916322
O O2 0.000358 0.500000 0.000000
O O3 0.950231 0.695519 0.092615
O O4 0.105371 0.686264 0.991512
O O5 0.478956 0.383750 0.842776
O O6 0.584078 0.556725 0.883347
O O7 0.409433 0.597935 0.839024
O O8 0.446737 0.500000 0.000000
O O9 0.500000 0.189607 0.750000
O O10 0.662965 0.283694 0.734037
O O11 0.773827 0.813222 0.399750
O O12 0.777717 0.000000 0.500000
O O13 0.759976 0.017480 0.305778
O O14 0.215716 0.193288 0.547574
O O15 0.275512 0.096726 0.377285
O O16 0.169952 0.713939 0.279668
#
# Coordination Sequence:
#
# PCOD8160355 Si02
#       7
#     8   8   8   8   8   8   8
#     4  12  28  54  79 107 161 214 254 331 411 482
#     4  11  21  43  79 104 148 193 262 316 387 449
#     4  12  24  48  76 117 148 204 268 331 392 474
#     4  11  22  46  78 109 153 210 258 328 392 473
#     4  12  26  51  75 114 161 203 273 325 404 476
#     4  12  26  48  78 114 153 209 257 328 396 485
#     4  12  27  42  75 116 154 198 265 323 402 469
#
# _framework density 24.644791999999999
#
# number of rings (size 3 to 8) (size 9 to 14) (size 15 to 20)
#    0.000    0.286    7.143    1.714    4.000    2.286 
#    5.143    0.000    0.000    0.000    0.000    0.000 
#    0.000    0.000    0.000    0.000    0.000    0.000 
#
# Total GULP energy -347006.328067 kJ/mol
# GULP energy per Si atom -12393.083145 kJ/mol
# Density = 2.458870 g / cm^3
# Si number density = 24.644792 Si / 1000 Ang^3
#
#
#
# Elastic Constant Matrix: (Units=GPa)
#
#
# Indices 1 2 3 4 5 6 
#
# 1 61.7990 -10.0383 -5.3740 0.0000 0.0000 0.0000
# 2 -10.0383 88.1004 3.0212 0.0000 0.0000 0.0000
# 3 -5.3740 3.0212 67.7040 0.0000 0.0000 0.0000
# 4 0.0000 0.0000 0.0000 18.0650 0.0000 0.0000
# 5 0.0000 0.0000 0.0000 0.0000 43.6984 0.0000
# 6 0.0000 0.0000 0.0000 0.0000 0.0000 33.1172
#
#
#
# Elastic Compliance Matrix: (Units=1/GPa)
#
#
# Indices 1 2 3 4 5 6 
#
# 1 0.016589 0.001848 0.001234 0.000000 0.000000 0.000000
# 2 0.001848 0.011574 -0.000370 0.000000 0.000000 0.000000
# 3 0.001234 -0.000370 0.014885 0.000000 0.000000 0.000000
# 4 0.000000 0.000000 0.000000 0.055356 0.000000 0.000000
# 5 0.000000 0.000000 0.000000 0.000000 0.022884 0.000000
# 6 0.000000 0.000000 0.000000 0.000000 0.000000 0.030196
#
#
# Mechanical properties :
#
#
# Convention : Reuss Voigt Hill
#
# Bulk Modulus (GPa) = 20.63039 21.42460 21.02750
# Shear Modulus (GPa) = 30.82314 34.30908 32.56611
#
# Velocity S-wave (km/s) = 3.54035 3.73519 3.63908
# Velocity P-wave (km/s) = 5.01013 5.22632 5.11937
#
# Compressibility (1/GPa) = 0.04847218
#
# Stress axis : x y z
#
# Youngs Moduli (GPa) = 60.28099 86.40118 67.18334
#
# Poissons Ratio (x) = -0.15966 -0.08292
# Poissons Ratio (y) = -0.11139 0.02484
# Poissons Ratio (z) = -0.07440 0.03195
#
# Static dielectric constant tensor:
#      x y z
#    x 4.541240 0.000000 0.000000 
#    y 0.000000 4.417860 0.000000 
#    z 0.000000 0.000000 4.709180 
# 
# 
# High freq. dielectric constant tensor:
#      x y z
#    x 1.994760 0.000000 0.000000 
#    y 0.000000 1.968060 0.000000 
#    z 0.000000 0.000000 1.991270 
# 
# From -- ./inp_files/20733.got.cif
#   From: 2010.03.12/outbox.cif.g09.slc.cpg/sg20_11_cif.got.tgz:20733.got - 2010.04.14 01:38:04.
