data_PCOD8160336
_publ_section_title
;
Structure prediction by ZEFSAII (Michael W. Deem and Ramdas Pophale) SiO2 
 PCOD8160336
Probable space group: C 2 2 21
;
_chemical_formula_sum "Si O2"
_cell_formula_units_Z 48
_cell_length_a 16.445356
_cell_length_b 13.320390
_cell_length_c 10.982428
_cell_angle_alpha 90.000000
_cell_angle_beta 90.000000
_cell_angle_gamma 90.000000
_cell_volume 2405.794815
_symmetry_space_group_name_H-M "C 2 2 21"
_symmetry_group_IT_number 20
_symmetry_cell_setting 'orthorhombic'
loop_
_space_group_symop_operation_xyz
x,y,z
-x,-y,1/2+z
x,-y,-z
-x,y,1/2-z
1/2+x,1/2+y,z
1/2-x,1/2-y,1/2+z
1/2+x,1/2-y,-z
1/2-x,1/2+y,1/2-z
loop_
_atom_site_type_symbol
_atom_site_label
_atom_site_fract_x
_atom_site_fract_y
_atom_site_fract_z
Si Si1 0.255905 0.674080 0.319601
Si Si2 0.865246 0.106338 0.533843
Si Si3 0.716731 0.122878 0.704284
Si Si4 0.611551 0.881224 0.512330
Si Si5 0.308770 0.949099 0.625471
Si Si6 0.042333 0.702553 0.119795
O O1 0.329671 0.653321 0.410087
O O2 0.252902 0.792253 0.295885
O O3 0.168042 0.642473 0.371725
O O4 0.263574 0.616613 0.188693
O O5 0.793303 0.078873 0.628673
O O6 0.927950 0.184336 0.592805
O O7 0.908251 0.000000 0.500000
O O8 0.651969 0.166060 0.608184
O O9 0.670766 0.037971 0.780860
O O10 0.524686 0.828170 0.521064
O O11 0.601312 0.000000 0.500000
O O12 0.385691 0.877401 0.605364
O O13 0.278673 0.000000 0.500000
O O14 0.000000 0.698112 0.250000
#
# Coordination Sequence:
#
# PCOD8160336 Si02
#       6
#     8   8   8   8   8   8
#     4  11  21  40  63  96 126 164 220 271 322 390
#     4  11  22  41  67  88 126 172 216 266 327 391
#     4  11  21  39  65  94 124 168 213 269 326 387
#     4  11  21  41  66  89 129 170 205 265 344 383
#     4  12  23  37  62 100 127 165 218 270 328 386
#     4  12  23  42  65  97 132 170 215 275 334 401
#
# _framework density 19.951824999999999
#
# number of rings (size 3 to 8) (size 9 to 14) (size 15 to 20)
#    0.000    0.667    6.667    2.500    2.333    0.000 
#    0.000    4.167    0.000    0.000    0.000    0.000 
#    0.000    0.000    0.000    0.000    0.000    0.000 
#
# Total GULP energy -297555.829419 kJ/mol
# GULP energy per Si atom -12398.159559 kJ/mol
# Density = 1.990641 g / cm^3
# Si number density = 19.951825 Si / 1000 Ang^3
#
#
#
# Elastic Constant Matrix: (Units=GPa)
#
#
# Indices 1 2 3 4 5 6 
#
# 1 51.2899 25.3451 19.4659 0.0000 0.0000 0.0000
# 2 25.3451 127.7741 34.0281 0.0000 0.0000 0.0000
# 3 19.4659 34.0281 69.3172 0.0000 0.0000 0.0000
# 4 0.0000 0.0000 0.0000 41.0902 0.0000 0.0000
# 5 0.0000 0.0000 0.0000 0.0000 23.7025 0.0000
# 6 0.0000 0.0000 0.0000 0.0000 0.0000 24.6671
#
#
#
# Elastic Compliance Matrix: (Units=1/GPa)
#
#
# Indices 1 2 3 4 5 6 
#
# 1 0.022947 -0.003262 -0.004843 0.000000 0.000000 0.000000
# 2 -0.003262 0.009467 -0.003731 0.000000 0.000000 0.000000
# 3 -0.004843 -0.003731 0.017618 0.000000 0.000000 0.000000
# 4 0.000000 0.000000 0.000000 0.024337 0.000000 0.000000
# 5 0.000000 0.000000 0.000000 0.000000 0.042190 0.000000
# 6 0.000000 0.000000 0.000000 0.000000 0.000000 0.040540
#
#
# Mechanical properties :
#
#
# Convention : Reuss Voigt Hill
#
# Bulk Modulus (GPa) = 37.93639 45.11771 41.52705
# Shear Modulus (GPa) = 26.37726 29.19476 27.78601
#
# Velocity S-wave (km/s) = 3.63994 3.82941 3.73588
# Velocity P-wave (km/s) = 6.05977 6.49730 6.28235
#
# Compressibility (1/GPa) = 0.02635991
#
# Stress axis : x y z
#
# Youngs Moduli (GPa) = 43.57884 105.62923 56.75975
#
# Poissons Ratio (x) = 0.34457 0.27487
# Poissons Ratio (y) = 0.14216 0.21179
# Poissons Ratio (z) = 0.21104 0.39414
#
# Static dielectric constant tensor:
#      x y z
#    x 3.403980 0.000000 0.000000 
#    y 0.000000 3.761590 0.000000 
#    z 0.000000 0.000000 3.900250 
# 
# 
# High freq. dielectric constant tensor:
#      x y z
#    x 1.740330 0.000000 0.000000 
#    y 0.000000 1.791130 0.000000 
#    z 0.000000 0.000000 1.793540 
# 
# From -- ./inp_files/15710.got.cif
#   From: 2010.03.12/outbox.cif.g09.slc.cpg/sg20_8_cif.got.tgz:15710.got - 2010.04.14 01:38:04.
