data_PCOD8160696
_publ_section_title
;
Structure prediction by ZEFSAII (Michael W. Deem and Ramdas Pophale) SiO2 
 PCOD8160696
Probable space group: C 2 2 21
;
_chemical_formula_sum "Si O2"
_cell_formula_units_Z 40
_cell_length_a 7.169177
_cell_length_b 12.137511
_cell_length_c 17.024208
_cell_angle_alpha 90.000000
_cell_angle_beta 90.000000
_cell_angle_gamma 90.000000
_cell_volume 1481.377882
_symmetry_space_group_name_H-M "C 2 2 21"
_symmetry_group_IT_number 20
_symmetry_cell_setting 'orthorhombic'
loop_
_space_group_symop_operation_xyz
x,y,z
-x,-y,1/2+z
x,-y,-z
-x,y,1/2-z
1/2+x,1/2+y,z
1/2-x,1/2-y,1/2+z
1/2+x,1/2-y,-z
1/2-x,1/2+y,1/2-z
loop_
_atom_site_type_symbol
_atom_site_label
_atom_site_fract_x
_atom_site_fract_y
_atom_site_fract_z
Si Si1 0.773632 0.557786 0.580379
Si Si2 0.837162 0.071978 0.313814
Si Si3 0.167000 0.296762 0.566529
Si Si4 0.315642 0.140761 0.331789
Si Si5 0.332606 0.861856 0.113663
O O1 0.829535 0.500000 0.500000
O O2 0.641245 0.664179 0.568379
O O3 0.683562 0.461966 0.635025
O O4 0.958407 0.596559 0.626438
O O5 0.848824 0.162268 0.384674
O O6 0.654538 0.110885 0.260594
O O7 0.000000 0.082271 0.250000
O O8 0.811865 0.952415 0.352953
O O9 0.197901 0.338160 0.478605
O O10 0.990804 0.354360 0.608479
O O11 0.201034 0.253457 0.335322
#
# Coordination Sequence:
#
# PCOD8160696 Si02
#       5
#     8   8   8   8   8
#     4  12  24  49  78 116 156 206 257 330 393 468
#     4  12  29  49  77 118 161 212 265 330 403 466
#     4  12  25  51  84 110 157 211 270 326 397 477
#     4  12  28  49  77 117 154 205 265 327 401 466
#     4  12  25  51  81 111 160 211 262 325 396 480
#
# _framework density 27.001888000000001
#
# number of rings (size 3 to 8) (size 9 to 14) (size 15 to 20)
#    0.000    0.000    6.000    2.400    5.600    0.000 
#    0.000    1.000    0.000    0.000    0.000    0.000 
#    0.000    0.000    0.000    0.000    0.000    0.000 
#
# Total GULP energy -247836.720507 kJ/mol
# GULP energy per Si atom -12391.836025 kJ/mol
# Density = 2.694043 g / cm^3
# Si number density = 27.001888 Si / 1000 Ang^3
#
#
#
# Elastic Constant Matrix: (Units=GPa)
#
#
# Indices 1 2 3 4 5 6 
#
# 1 20.0185 1.7383 3.1831 0.0000 0.0000 0.0000
# 2 1.7383 215.5030 74.5377 0.0000 0.0000 0.0000
# 3 3.1831 74.5377 143.4728 0.0000 0.0000 0.0000
# 4 0.0000 0.0000 0.0000 48.3901 0.0000 0.0000
# 5 0.0000 0.0000 0.0000 0.0000 33.5713 0.0000
# 6 0.0000 0.0000 0.0000 0.0000 0.0000 35.0336
#
#
#
# Elastic Compliance Matrix: (Units=1/GPa)
#
#
# Indices 1 2 3 4 5 6 
#
# 1 0.050131 -0.000024 -0.001100 0.000000 0.000000 0.000000
# 2 -0.000024 0.005657 -0.002938 0.000000 0.000000 0.000000
# 3 -0.001100 -0.002938 0.008521 0.000000 0.000000 0.000000
# 4 0.000000 0.000000 0.000000 0.020665 0.000000 0.000000
# 5 0.000000 0.000000 0.000000 0.000000 0.029787 0.000000
# 6 0.000000 0.000000 0.000000 0.000000 0.000000 0.028544
#
#
# Mechanical properties :
#
#
# Convention : Reuss Voigt Hill
#
# Bulk Modulus (GPa) = 17.79858 59.76805 38.78331
# Shear Modulus (GPa) = 29.38457 43.36800 36.37629
#
# Velocity S-wave (km/s) = 3.30243 4.01198 3.67437
# Velocity P-wave (km/s) = 4.59862 6.60637 5.69172
#
# Compressibility (1/GPa) = 0.05618427
#
# Stress axis : x y z
#
# Youngs Moduli (GPa) = 19.94788 176.77840 117.35858
#
# Poissons Ratio (x) = 0.00424 0.12906
# Poissons Ratio (y) = 0.00048 0.34484
# Poissons Ratio (z) = 0.02194 0.51943
#
# Static dielectric constant tensor:
#      x y z
#    x 4.894100 0.000000 0.000000 
#    y 0.000000 5.409520 0.000000 
#    z 0.000000 0.000000 5.443890 
# 
# 
# High freq. dielectric constant tensor:
#      x y z
#    x 2.084000 0.000000 0.000000 
#    y 0.000000 2.106570 0.000000 
#    z 0.000000 0.000000 2.109520 
# 
# From -- ./inp_files/23130.got.cif
#   From: 2010.03.12/outbox.cif.g09.slc.cpg/sg20_12_cif.got.tgz:23130.got - 2010.04.14 01:38:04.
