data_PCOD8160032
_publ_section_title
;
Structure prediction by ZEFSAII (Michael W. Deem and Ramdas Pophale) SiO2 
 PCOD8160032
Probable space group: C 2 2 21
;
_chemical_formula_sum "Si O2"
_cell_formula_units_Z 48
_cell_length_a 26.586677
_cell_length_b 9.472935
_cell_length_c 8.779478
_cell_angle_alpha 90.000000
_cell_angle_beta 90.000000
_cell_angle_gamma 90.000000
_cell_volume 2211.145450
_symmetry_space_group_name_H-M "C 2 2 21"
_symmetry_group_IT_number 20
_symmetry_cell_setting 'orthorhombic'
loop_
_space_group_symop_operation_xyz
x,y,z
-x,-y,1/2+z
x,-y,-z
-x,y,1/2-z
1/2+x,1/2+y,z
1/2-x,1/2-y,1/2+z
1/2+x,1/2-y,-z
1/2-x,1/2+y,1/2-z
loop_
_atom_site_type_symbol
_atom_site_label
_atom_site_fract_x
_atom_site_fract_y
_atom_site_fract_z
Si Si1 0.886524 0.666125 0.508827
Si Si2 0.499618 0.850878 0.431999
Si Si3 0.853017 0.876516 0.252805
Si Si4 0.539561 0.383580 0.384538
Si Si5 0.812570 0.823818 0.683246
Si Si6 0.730167 0.662354 0.508513
O O1 0.875891 0.500000 0.500000
O O2 0.945346 0.700103 0.508850
O O3 0.860953 0.747664 0.368010
O O4 0.862423 0.727801 0.663583
O O5 0.500000 0.850003 0.250000
O O6 0.542140 0.754977 0.509495
O O7 0.513240 0.000000 0.500000
O O8 0.905708 0.923337 0.178566
O O9 0.816613 0.822655 0.121191
O O10 0.827841 0.011838 0.335912
O O11 0.518897 0.500000 0.500000
O O12 0.500000 0.364914 0.250000
O O13 0.773557 0.772395 0.553383
O O14 0.788594 0.787898 0.844596
O O15 0.750090 0.500000 0.500000
#
# Coordination Sequence:
#
# PCOD8160032 Si02
#       6
#     8   8   8   8   8   8
#     4  11  25  44  67 100 140 184 235 293 357 425
#     4  11  26  45  72 101 146 195 244 300 361 432
#     4  11  25  46  71 102 145 183 237 298 357 437
#     4  12  25  43  70 109 147 192 243 299 365 439
#     4  11  23  43  71 102 138 182 233 295 360 429
#     4  10  23  44  71 102 137 185 234 297 355 425
#
# _framework density 21.708205
#
# number of rings (size 3 to 8) (size 9 to 14) (size 15 to 20)
#    0.000    1.000    1.667    4.500    9.333    2.667 
#    0.000    4.167    0.000    0.000    0.000    0.000 
#    0.000    0.000    0.000    0.000    0.000    0.000 
#
# Total GULP energy -297605.415059 kJ/mol
# GULP energy per Si atom -12400.225627 kJ/mol
# Density = 2.165880 g / cm^3
# Si number density = 21.708205 Si / 1000 Ang^3
#
#
#
# Elastic Constant Matrix: (Units=GPa)
#
#
# Indices 1 2 3 4 5 6 
#
# 1 72.1094 53.9645 24.7453 0.0000 0.0000 0.0000
# 2 53.9645 130.7185 70.4830 0.0000 0.0000 0.0000
# 3 24.7453 70.4830 130.3789 0.0000 0.0000 0.0000
# 4 0.0000 0.0000 0.0000 44.5926 0.0000 0.0000
# 5 0.0000 0.0000 0.0000 0.0000 44.1043 0.0000
# 6 0.0000 0.0000 0.0000 0.0000 0.0000 77.8171
#
#
#
# Elastic Compliance Matrix: (Units=1/GPa)
#
#
# Indices 1 2 3 4 5 6 
#
# 1 0.020151 -0.008831 0.000949 0.000000 0.000000 0.000000
# 2 -0.008831 0.014667 -0.006253 0.000000 0.000000 0.000000
# 3 0.000949 -0.006253 0.010870 0.000000 0.000000 0.000000
# 4 0.000000 0.000000 0.000000 0.022425 0.000000 0.000000
# 5 0.000000 0.000000 0.000000 0.000000 0.022674 0.000000
# 6 0.000000 0.000000 0.000000 0.000000 0.000000 0.012851
#
#
# Mechanical properties :
#
#
# Convention : Reuss Voigt Hill
#
# Bulk Modulus (GPa) = 57.40767 70.17694 63.79230
# Shear Modulus (GPa) = 36.30741 45.57039 40.93890
#
# Velocity S-wave (km/s) = 4.09408 4.58670 4.34737
# Velocity P-wave (km/s) = 6.98937 7.77483 7.39254
#
# Compressibility (1/GPa) = 0.01741928
#
# Stress axis : x y z
#
# Youngs Moduli (GPa) = 49.62613 68.17898 91.99451
#
# Poissons Ratio (x) = 0.60207 -0.08734
# Poissons Ratio (y) = 0.43823 0.57525
# Poissons Ratio (z) = -0.04711 0.42633
#
# Static dielectric constant tensor:
#      x y z
#    x 4.111400 0.000000 0.000000 
#    y 0.000000 3.881870 0.000000 
#    z 0.000000 0.000000 4.026800 
# 
# 
# High freq. dielectric constant tensor:
#      x y z
#    x 1.860790 0.000000 0.000000 
#    y 0.000000 1.855850 0.000000 
#    z 0.000000 0.000000 1.868160 
# 
# From -- ./inp_files/6531.got.cif
#   From: 2010.03.12/outbox.cif.g09.slc.cpg/sg20_4_cif.got.tgz:6531.got - 2010.04.14 01:38:04.
