data_PCOD8160531
_publ_section_title
;
Structure prediction by ZEFSAII (Michael W. Deem and Ramdas Pophale) SiO2 
 PCOD8160531
Probable space group: C 2 2 21
;
_chemical_formula_sum "Si O2"
_cell_formula_units_Z 60
_cell_length_a 12.167375
_cell_length_b 9.147095
_cell_length_c 23.424101
_cell_angle_alpha 90.000000
_cell_angle_beta 90.000000
_cell_angle_gamma 90.000000
_cell_volume 2607.011908
_symmetry_space_group_name_H-M "C 2 2 21"
_symmetry_group_IT_number 20
_symmetry_cell_setting 'orthorhombic'
loop_
_space_group_symop_operation_xyz
x,y,z
-x,-y,1/2+z
x,-y,-z
-x,y,1/2-z
1/2+x,1/2+y,z
1/2-x,1/2-y,1/2+z
1/2+x,1/2-y,-z
1/2-x,1/2+y,1/2-z
loop_
_atom_site_type_symbol
_atom_site_label
_atom_site_fract_x
_atom_site_fract_y
_atom_site_fract_z
Si Si1 0.077894 0.011846 0.939289
Si Si2 0.000000 0.883443 0.250000
Si Si3 0.150966 0.095194 0.177583
Si Si4 0.403205 0.739015 0.936378
Si Si5 0.604421 0.869563 0.680186
Si Si6 0.719199 0.996254 0.934924
Si Si7 0.462880 0.889485 0.351997
Si Si8 0.392876 0.270403 0.938503
O O1 0.026099 0.171579 0.928874
O O2 0.155841 0.961530 0.887795
O O3 0.975098 0.904605 0.946463
O O4 0.143811 0.000000 0.000000
O O5 0.067358 0.784417 0.293923
O O6 0.082062 0.985595 0.215678
O O7 0.273576 0.096175 0.203373
O O8 0.097653 0.257001 0.180384
O O9 0.390868 0.862653 0.888693
O O10 0.308216 0.621497 0.924501
O O11 0.387912 0.808506 0.999527
O O12 0.516361 0.998542 0.694327
O O13 0.619362 0.020638 0.892105
O O14 0.773572 0.837320 0.921960
O O15 0.675265 0.000000 0.000000
O O16 0.566771 0.834367 0.388706
#
# Coordination Sequence:
#
# PCOD8160531 Si02
#       8
#     8   4   8   8   8   8   8   8
#     4   8  15  36  69  99 136 180 218 265 335 409
#     4  12  30  52  74  92 130 186 234 288 350 396
#     4  11  25  49  74  99 133 184 228 283 347 409
#     4   9  16  38  64  93 141 179 221 267 321 408
#     4  12  27  45  70 103 131 170 235 288 336 400
#     4   9  18  36  63  96 144 193 214 256 335 407
#     4  11  24  40  67 104 139 172 226 280 336 403
#     4   8  18  33  60  99 141 186 214 257 332 405
#
# _framework density 23.014856000000002
#
# number of rings (size 3 to 8) (size 9 to 14) (size 15 to 20)
#    0.000    2.133    2.667    1.600    1.867    3.733 
#    2.400    0.000    0.000    0.000    0.000    0.000 
#    0.000    0.000    0.000    0.000    0.000    0.000 
#
# Total GULP energy -371914.030698 kJ/mol
# GULP energy per Si atom -12397.134357 kJ/mol
# Density = 2.296247 g / cm^3
# Si number density = 23.014856 Si / 1000 Ang^3
#
#
#
# Elastic Constant Matrix: (Units=GPa)
#
#
# Indices 1 2 3 4 5 6 
#
# 1 132.0755 46.0623 26.1614 0.0000 0.0000 0.0000
# 2 46.0623 81.1141 19.7471 0.0000 0.0000 0.0000
# 3 26.1614 19.7471 43.7261 0.0000 0.0000 0.0000
# 4 0.0000 0.0000 0.0000 17.0786 0.0000 0.0000
# 5 0.0000 0.0000 0.0000 0.0000 3.5473 0.0000
# 6 0.0000 0.0000 0.0000 0.0000 0.0000 26.1224
#
#
#
# Elastic Compliance Matrix: (Units=1/GPa)
#
#
# Indices 1 2 3 4 5 6 
#
# 1 0.009982 -0.004735 -0.003834 0.000000 0.000000 0.000000
# 2 -0.004735 0.016097 -0.004437 0.000000 0.000000 0.000000
# 3 -0.003834 -0.004437 0.027167 0.000000 0.000000 0.000000
# 4 0.000000 0.000000 0.000000 0.058553 0.000000 0.000000
# 5 0.000000 0.000000 0.000000 0.000000 0.281907 0.000000
# 6 0.000000 0.000000 0.000000 0.000000 0.000000 0.038281
#
#
# Mechanical properties :
#
#
# Convention : Reuss Voigt Hill
#
# Bulk Modulus (GPa) = 36.71726 48.98416 42.85071
# Shear Modulus (GPa) = 10.70486 20.34599 15.52542
#
# Velocity S-wave (km/s) = 2.15902 2.97650 2.60009
# Velocity P-wave (km/s) = 4.71206 5.75697 5.26052
#
# Compressibility (1/GPa) = 0.02723515
#
# Stress axis : x y z
#
# Youngs Moduli (GPa) = 100.17715 62.12166 36.80925
#
# Poissons Ratio (x) = 0.29416 0.14112
# Poissons Ratio (y) = 0.47437 0.16331
# Poissons Ratio (z) = 0.38407 0.27561
#
# Static dielectric constant tensor:
#      x y z
#    x 4.024140 0.000000 0.000000 
#    y 0.000000 4.166560 0.000000 
#    z 0.000000 0.000000 4.122770 
# 
# 
# High freq. dielectric constant tensor:
#      x y z
#    x 1.904020 0.000000 0.000000 
#    y 0.000000 1.903890 0.000000 
#    z 0.000000 0.000000 1.893640 
# 
# From -- ./inp_files/30318.got.cif
#   From: 2010.03.12/outbox.cif.g09.slc.cpg/sg20_16_cif.got.tgz:30318.got - 2010.04.14 01:38:04.
