data_PCOD8160958
_publ_section_title
;
Structure prediction by ZEFSAII (Michael W. Deem and Ramdas Pophale) SiO2 
 PCOD8160958
Probable space group: C 2 2 2
;
_chemical_formula_sum "Si O2"
_cell_formula_units_Z 64
_cell_length_a 9.602951
_cell_length_b 22.323323
_cell_length_c 16.379066
_cell_angle_alpha 90.000000
_cell_angle_beta 90.000000
_cell_angle_gamma 90.000000
_cell_volume 3511.176725
_symmetry_space_group_name_H-M "C 2 2 2"
_symmetry_group_IT_number 21
_symmetry_cell_setting 'orthorhombic'
loop_
_space_group_symop_operation_xyz
x,y,z
-x,-y,z
x,-y,-z
-x,y,-z
1/2+x,1/2+y,z
1/2-x,1/2-y,z
1/2+x,1/2-y,-z
1/2-x,1/2+y,-z
loop_
_atom_site_type_symbol
_atom_site_label
_atom_site_fract_x
_atom_site_fract_y
_atom_site_fract_z
Si Si1 0.732895 0.125313 0.667004
Si Si2 0.334889 0.501994 0.594529
Si Si3 0.707338 0.377639 0.333024
Si Si4 0.664743 0.311983 0.821976
Si Si5 0.843586 0.193184 0.999311
Si Si6 0.336996 0.688298 0.176696
Si Si7 0.033451 0.809200 0.592821
Si Si8 0.472507 0.825246 0.405178
O O1 0.778763 0.059739 0.640564
O O2 0.773430 0.138211 0.760884
O O3 0.568329 0.131950 0.650829
O O4 0.805340 0.175904 0.609789
O O5 0.500000 0.500000 0.597609
O O6 0.283992 0.500000 0.500000
O O7 0.271189 0.447151 0.646385
O O8 0.725925 0.362022 0.237311
O O9 0.552291 0.357701 0.356112
O O10 0.812739 0.339124 0.387557
O O11 0.750000 0.250000 0.812263
O O12 0.500918 0.299188 0.804548
O O13 0.683819 0.341181 0.913367
O O14 0.750000 0.250000 0.998838
O O15 0.816724 0.159146 0.085511
O O16 0.000000 0.217580 0.000000
O O17 0.250000 0.750000 0.186661
O O18 0.999196 0.742746 0.621558
O O19 0.000000 0.820393 0.500000
O O20 0.500000 0.836341 0.500000
#
# Coordination Sequence:
#
# PCOD8160958 Si02
#       8
#     8   8   8   8   8   8   8   8
#     4  12  23  36  56  79 107 146 188 228 273 323
#     4  11  22  39  59  76 102 145 196 237 268 320
#     4  12  23  36  56  79 107 146 188 228 273 323
#     4  10  19  33  55  83 114 143 178 224 278 336
#     4   8  16  30  50  79 113 144 170 213 275 336
#     4  10  19  33  55  83 114 143 178 224 278 336
#     4  11  20  35  55  78 106 138 176 223 280 334
#     4  11  24  37  53  80 112 140 176 233 290 336
#
# _framework density 18.227508
#
# number of rings (size 3 to 8) (size 9 to 14) (size 15 to 20)
#    0.000    1.375    2.500    4.500    1.750    2.500 
#    0.000    1.250    0.000    0.750    0.000    3.500 
#    0.000    2.000    0.000    0.000    0.000    0.000 
#
# Total GULP energy -396605.659609 kJ/mol
# GULP energy per Si atom -12393.926863 kJ/mol
# Density = 1.818602 g / cm^3
# Si number density = 18.227508 Si / 1000 Ang^3
#
#
#
# Elastic Constant Matrix: (Units=GPa)
#
#
# Indices 1 2 3 4 5 6 
#
# 1 50.2274 14.1344 24.9442 0.0000 0.0000 0.0000
# 2 14.1344 101.8946 61.6803 0.0000 0.0000 0.0000
# 3 24.9442 61.6803 149.6618 0.0000 0.0000 0.0000
# 4 0.0000 0.0000 0.0000 18.5754 0.0000 0.0000
# 5 0.0000 0.0000 0.0000 0.0000 25.6103 0.0000
# 6 0.0000 0.0000 0.0000 0.0000 0.0000 15.0750
#
#
#
# Elastic Compliance Matrix: (Units=1/GPa)
#
#
# Indices 1 2 3 4 5 6 
#
# 1 0.021798 -0.001099 -0.003180 0.000000 0.000000 0.000000
# 2 -0.001099 0.013132 -0.005229 0.000000 0.000000 0.000000
# 3 -0.003180 -0.005229 0.009367 0.000000 0.000000 0.000000
# 4 0.000000 0.000000 0.000000 0.053835 0.000000 0.000000
# 5 0.000000 0.000000 0.000000 0.000000 0.039047 0.000000
# 6 0.000000 0.000000 0.000000 0.000000 0.000000 0.066335
#
#
# Mechanical properties :
#
#
# Convention : Reuss Voigt Hill
#
# Bulk Modulus (GPa) = 39.55554 55.92239 47.73897
# Shear Modulus (GPa) = 21.64921 25.25380 23.45151
#
# Velocity S-wave (km/s) = 3.45007 3.72624 3.59081
# Velocity P-wave (km/s) = 6.13342 7.01854 6.59086
#
# Compressibility (1/GPa) = 0.02528091
#
# Stress axis : x y z
#
# Youngs Moduli (GPa) = 45.87576 76.15182 106.76032
#
# Poissons Ratio (x) = 0.08366 0.33953
# Poissons Ratio (y) = 0.05040 0.55824
# Poissons Ratio (z) = 0.14590 0.39819
#
# Static dielectric constant tensor:
#      x y z
#    x 3.469420 0.000000 0.000000 
#    y 0.000000 3.344930 0.000000 
#    z 0.000000 0.000000 4.196800 
# 
# 
# High freq. dielectric constant tensor:
#      x y z
#    x 1.716520 0.000000 0.000000 
#    y 0.000000 1.663640 0.000000 
#    z 0.000000 0.000000 1.720830 
# 
# From -- ./inp_files/35911.got.cif
#   From: 2010.03.12/outbox.cif.g09.slc.cpg/sg21_18_cif.got.tgz:35911.got - 2010.04.14 01:59:26.
