data_PCOD8160648
_publ_section_title
;
Structure prediction by ZEFSAII (Michael W. Deem and Ramdas Pophale) SiO2 
 PCOD8160648
Probable space group: C 2 2 21
;
_chemical_formula_sum "Si O2"
_cell_formula_units_Z 40
_cell_length_a 30.254767
_cell_length_b 11.877175
_cell_length_c 4.946653
_cell_angle_alpha 90.000000
_cell_angle_beta 90.000000
_cell_angle_gamma 90.000000
_cell_volume 1777.536038
_symmetry_space_group_name_H-M "C 2 2 21"
_symmetry_group_IT_number 20
_symmetry_cell_setting 'orthorhombic'
loop_
_space_group_symop_operation_xyz
x,y,z
-x,-y,1/2+z
x,-y,-z
-x,y,1/2-z
1/2+x,1/2+y,z
1/2-x,1/2-y,1/2+z
1/2+x,1/2-y,-z
1/2-x,1/2+y,1/2-z
loop_
_atom_site_type_symbol
_atom_site_label
_atom_site_fract_x
_atom_site_fract_y
_atom_site_fract_z
Si Si1 0.220876 0.000000 0.000000
Si Si2 0.629463 0.735344 0.441128
Si Si3 0.337893 0.500000 0.000000
Si Si4 0.426688 0.255792 0.441809
Si Si5 0.000000 0.420326 0.750000
Si Si6 0.729548 0.206923 0.579497
Si Si7 0.030360 0.000000 0.000000
O O1 0.253345 0.900387 0.909426
O O2 0.191074 0.959340 0.248324
O O3 0.631786 0.601360 0.396646
O O4 0.614648 0.761699 0.743437
O O5 0.676894 0.791335 0.385195
O O6 0.591706 0.778195 0.236224
O O7 0.462805 0.163765 0.362005
O O8 0.442192 0.386694 0.427303
O O9 0.015716 0.500000 0.500000
O O10 0.747720 0.302852 0.375659
O O11 0.000000 0.035107 0.250000
#
# Coordination Sequence:
#
# PCOD8160648 Si02
#       7
#     4   8   4   8   4   8   4
#     4  12  22  41  66  92 135 196 235 270 350 415
#     4  12  24  42  69 106 141 176 238 297 348 414
#     4  12  22  39  70 100 143 184 221 284 358 427
#     4  12  26  47  74 108 141 181 234 299 364 429
#     4  12  28  54  80  98 142 200 240 284 352 438
#     4  12  23  43  66  94 136 187 231 283 332 406
#     4  12  24  44  78 108 150 180 218 300 382 446
#
# _framework density 22.503060000000001
#
# number of rings (size 3 to 8) (size 9 to 14) (size 15 to 20)
#    0.000    0.000    5.000    6.000    1.400    0.000 
#    5.400    0.000    0.000    0.000    0.000    0.000 
#    0.000    0.000    0.000    0.000    0.000    0.000 
#
# Total GULP energy -247903.243183 kJ/mol
# GULP energy per Si atom -12395.162159 kJ/mol
# Density = 2.245184 g / cm^3
# Si number density = 22.503060 Si / 1000 Ang^3
#
#
#
# Elastic Constant Matrix: (Units=GPa)
#
#
# Indices 1 2 3 4 5 6 
#
# 1 120.6908 37.0940 43.3166 0.0000 0.0000 0.0000
# 2 37.0940 91.0826 24.3772 0.0000 0.0000 0.0000
# 3 43.3166 24.3772 130.1482 0.0000 0.0000 0.0000
# 4 0.0000 0.0000 0.0000 30.5900 0.0000 0.0000
# 5 0.0000 0.0000 0.0000 0.0000 54.4762 0.0000
# 6 0.0000 0.0000 0.0000 0.0000 0.0000 43.2595
#
#
#
# Elastic Compliance Matrix: (Units=1/GPa)
#
#
# Indices 1 2 3 4 5 6 
#
# 1 0.010356 -0.003469 -0.002797 0.000000 0.000000 0.000000
# 2 -0.003469 0.012720 -0.001228 0.000000 0.000000 0.000000
# 3 -0.002797 -0.001228 0.008844 0.000000 0.000000 0.000000
# 4 0.000000 0.000000 0.000000 0.032690 0.000000 0.000000
# 5 0.000000 0.000000 0.000000 0.000000 0.018357 0.000000
# 6 0.000000 0.000000 0.000000 0.000000 0.000000 0.023116
#
#
# Mechanical properties :
#
#
# Convention : Reuss Voigt Hill
#
# Bulk Modulus (GPa) = 59.05660 61.27748 60.16704
# Shear Modulus (GPa) = 39.45842 41.47406 40.46624
#
# Velocity S-wave (km/s) = 4.19199 4.29772 4.24518
# Velocity P-wave (km/s) = 7.05203 7.20535 7.12910
#
# Compressibility (1/GPa) = 0.01693291
#
# Stress axis : x y z
#
# Youngs Moduli (GPa) = 96.56628 78.61371 113.06540
#
# Poissons Ratio (x) = 0.27270 0.31623
# Poissons Ratio (y) = 0.33497 0.13885
# Poissons Ratio (z) = 0.27008 0.09654
#
# Static dielectric constant tensor:
#      x y z
#    x 3.980530 0.000000 0.000000 
#    y 0.000000 4.043370 0.000000 
#    z 0.000000 0.000000 3.850480 
# 
# 
# High freq. dielectric constant tensor:
#      x y z
#    x 1.888210 0.000000 0.000000 
#    y 0.000000 1.878700 0.000000 
#    z 0.000000 0.000000 1.908670 
# 
# From -- ./inp_files/4129.got.cif
#   From: 2010.03.12/outbox.cif.g09.slc.cpg/sg20_3_cif.got.tgz:4129.got - 2010.04.14 01:38:04.
