data_PCOD8160543
_publ_section_title
;
Structure prediction by ZEFSAII (Michael W. Deem and Ramdas Pophale) SiO2 
 PCOD8160543
Probable space group: C 2 2 21
;
_chemical_formula_sum "Si O2"
_cell_formula_units_Z 60
_cell_length_a 16.616394
_cell_length_b 8.912382
_cell_length_c 18.614403
_cell_angle_alpha 90.000000
_cell_angle_beta 90.000000
_cell_angle_gamma 90.000000
_cell_volume 2756.637669
_symmetry_space_group_name_H-M "C 2 2 21"
_symmetry_group_IT_number 20
_symmetry_cell_setting 'orthorhombic'
loop_
_space_group_symop_operation_xyz
x,y,z
-x,-y,1/2+z
x,-y,-z
-x,y,1/2-z
1/2+x,1/2+y,z
1/2-x,1/2-y,1/2+z
1/2+x,1/2-y,-z
1/2-x,1/2+y,1/2-z
loop_
_atom_site_type_symbol
_atom_site_label
_atom_site_fract_x
_atom_site_fract_y
_atom_site_fract_z
Si Si1 0.381754 0.027292 0.109679
Si Si2 0.201730 0.658195 0.983157
Si Si3 0.621020 0.355245 0.096356
Si Si4 0.502461 0.500000 0.500000
Si Si5 0.454814 0.918583 0.678202
Si Si6 0.687141 0.146980 0.816524
Si Si7 0.367977 0.250976 0.979802
Si Si8 0.232808 0.964755 0.797241
O O1 0.476709 0.037614 0.122287
O O2 0.366758 0.853806 0.090020
O O3 0.325059 0.066639 0.177505
O O4 0.360916 0.144090 0.048233
O O5 0.154067 0.794262 0.019991
O O6 0.288934 0.645977 0.020643
O O7 0.157164 0.500000 0.000000
O O8 0.209488 0.680843 0.898556
O O9 0.548305 0.463248 0.072216
O O10 0.595640 0.220380 0.148254
O O11 0.688061 0.446496 0.139386
O O12 0.553942 0.645355 0.479677
O O13 0.500000 0.867286 0.750000
O O14 0.397969 0.062952 0.691079
O O15 0.759276 0.054593 0.777810
O O16 0.684759 0.311405 0.779534
#
# Coordination Sequence:
#
# PCOD8160543 Si02
#       8
#     8   8   8   4   8   8   8   8
#     4  11  24  44  70  98 139 189 228 284 356 434
#     4  12  24  43  77 109 140 179 247 298 355 420
#     4  12  27  46  73 107 143 192 235 305 352 435
#     4  12  26  42  66 106 148 176 234 294 368 414
#     4  12  26  48  70 102 143 189 239 289 362 428
#     4  12  27  45  75 106 140 190 243 300 355 432
#     4  11  24  42  69 105 140 182 226 295 357 426
#     4  12  26  48  74 102 144 189 247 293 364 430
#
# _framework density 21.765647000000001
#
# number of rings (size 3 to 8) (size 9 to 14) (size 15 to 20)
#    0.000    0.267    7.333    1.600    3.733    0.000 
#    0.000    0.667    0.000    0.000    0.000    0.000 
#    0.000    0.000    0.000    0.000    0.000    0.000 
#
# Total GULP energy -372055.969070 kJ/mol
# GULP energy per Si atom -12401.865636 kJ/mol
# Density = 2.171611 g / cm^3
# Si number density = 21.765647 Si / 1000 Ang^3
#
#
#
# Elastic Constant Matrix: (Units=GPa)
#
#
# Indices 1 2 3 4 5 6 
#
# 1 93.2074 34.3752 8.6906 0.0000 0.0000 0.0000
# 2 34.3752 126.7492 30.0698 0.0000 0.0000 0.0000
# 3 8.6906 30.0698 75.6390 0.0000 0.0000 0.0000
# 4 0.0000 0.0000 0.0000 33.3149 0.0000 0.0000
# 5 0.0000 0.0000 0.0000 0.0000 32.2335 0.0000
# 6 0.0000 0.0000 0.0000 0.0000 0.0000 36.7793
#
#
#
# Elastic Compliance Matrix: (Units=1/GPa)
#
#
# Indices 1 2 3 4 5 6 
#
# 1 0.011922 -0.003211 -0.000093 0.000000 0.000000 0.000000
# 2 -0.003211 0.009576 -0.003438 0.000000 0.000000 0.000000
# 3 -0.000093 -0.003438 0.014598 0.000000 0.000000 0.000000
# 4 0.000000 0.000000 0.000000 0.030017 0.000000 0.000000
# 5 0.000000 0.000000 0.000000 0.000000 0.031024 0.000000
# 6 0.000000 0.000000 0.000000 0.000000 0.000000 0.027189
#
#
# Mechanical properties :
#
#
# Convention : Reuss Voigt Hill
#
# Bulk Modulus (GPa) = 44.22553 49.09631 46.66092
# Shear Modulus (GPa) = 34.40041 35.29621 34.84831
#
# Velocity S-wave (km/s) = 3.97985 4.03134 4.00568
# Velocity P-wave (km/s) = 6.44065 6.65392 6.54816
#
# Compressibility (1/GPa) = 0.02261137
#
# Stress axis : x y z
#
# Youngs Moduli (GPa) = 83.88043 104.42670 68.50183
#
# Poissons Ratio (x) = 0.33533 0.00638
# Poissons Ratio (y) = 0.26935 0.23551
# Poissons Ratio (z) = 0.00782 0.35902
#
# Static dielectric constant tensor:
#      x y z
#    x 3.968170 0.000000 0.000000 
#    y 0.000000 4.045900 0.000000 
#    z 0.000000 0.000000 3.875660 
# 
# 
# High freq. dielectric constant tensor:
#      x y z
#    x 1.857120 0.000000 0.000000 
#    y 0.000000 1.867590 0.000000 
#    z 0.000000 0.000000 1.853660 
# 
# From -- ./inp_files/25285.got.cif
#   From: 2010.03.12/outbox.cif.g09.slc.cpg/sg20_13_cif.got.tgz:25285.got - 2010.04.14 01:38:04.
