data_PCOD8160508
_publ_section_title
;
Structure prediction by ZEFSAII (Michael W. Deem and Ramdas Pophale) SiO2 
 PCOD8160508
Probable space group: C 2 2 21
;
_chemical_formula_sum "Si O2"
_cell_formula_units_Z 40
_cell_length_a 11.338847
_cell_length_b 16.832031
_cell_length_c 9.510051
_cell_angle_alpha 90.000000
_cell_angle_beta 90.000000
_cell_angle_gamma 90.000000
_cell_volume 1815.048622
_symmetry_space_group_name_H-M "C 2 2 21"
_symmetry_group_IT_number 20
_symmetry_cell_setting 'orthorhombic'
loop_
_space_group_symop_operation_xyz
x,y,z
-x,-y,1/2+z
x,-y,-z
-x,y,1/2-z
1/2+x,1/2+y,z
1/2-x,1/2-y,1/2+z
1/2+x,1/2-y,-z
1/2-x,1/2+y,1/2-z
loop_
_atom_site_type_symbol
_atom_site_label
_atom_site_fract_x
_atom_site_fract_y
_atom_site_fract_z
Si Si1 0.254449 0.847351 0.019674
Si Si2 0.234457 0.664251 0.032653
Si Si3 0.506849 0.082308 0.419755
Si Si4 0.631368 0.592410 0.230809
Si Si5 0.134169 0.909504 0.284229
O O1 0.386923 0.860532 0.965989
O O2 0.165027 0.903422 0.932708
O O3 0.220826 0.756091 0.996327
O O4 0.231433 0.871966 0.180169
O O5 0.280434 0.652791 0.191142
O O6 0.109099 0.622171 0.016618
O O7 0.333266 0.622678 0.936870
O O8 0.500000 0.071317 0.250000
O O9 0.526900 0.000000 0.500000
O O10 0.500000 0.623776 0.250000
O O11 0.646914 0.503917 0.288480
O O12 0.000000 0.883347 0.250000
#
# Coordination Sequence:
#
# PCOD8160508 Si02
#       5
#     8   8   8   8   8
#     4  12  27  44  71 103 145 183 234 297 357 420
#     4  12  27  44  71 103 145 183 234 297 357 420
#     4  12  28  50  76 106 147 193 244 296 361 443
#     4  11  23  45  71  99 133 181 237 289 347 425
#     4  11  25  45  75  99 137 185 237 291 355 425
#
# _framework density 22.037977999999999
#
# number of rings (size 3 to 8) (size 9 to 14) (size 15 to 20)
#    0.000    0.400    2.000    6.000    8.400    3.200 
#    0.000    0.000    0.000    0.000    0.000    0.000 
#    0.000    0.000    0.000    0.000    0.000    0.000 
#
# Total GULP energy -248125.377090 kJ/mol
# GULP energy per Si atom -12406.268855 kJ/mol
# Density = 2.198782 g / cm^3
# Si number density = 22.037978 Si / 1000 Ang^3
#
#
#
# Elastic Constant Matrix: (Units=GPa)
#
#
# Indices 1 2 3 4 5 6 
#
# 1 123.8914 25.1339 22.2284 0.0000 0.0000 0.0000
# 2 25.1339 64.5750 27.0465 0.0000 0.0000 0.0000
# 3 22.2284 27.0465 81.7402 0.0000 0.0000 0.0000
# 4 0.0000 0.0000 0.0000 34.1794 0.0000 0.0000
# 5 0.0000 0.0000 0.0000 0.0000 43.1205 0.0000
# 6 0.0000 0.0000 0.0000 0.0000 0.0000 27.1295
#
#
#
# Elastic Compliance Matrix: (Units=1/GPa)
#
#
# Indices 1 2 3 4 5 6 
#
# 1 0.008916 -0.002850 -0.001482 0.000000 0.000000 0.000000
# 2 -0.002850 0.018888 -0.005475 0.000000 0.000000 0.000000
# 3 -0.001482 -0.005475 0.014448 0.000000 0.000000 0.000000
# 4 0.000000 0.000000 0.000000 0.029257 0.000000 0.000000
# 5 0.000000 0.000000 0.000000 0.000000 0.023191 0.000000
# 6 0.000000 0.000000 0.000000 0.000000 0.000000 0.036860
#
#
# Mechanical properties :
#
#
# Convention : Reuss Voigt Hill
#
# Bulk Modulus (GPa) = 44.16983 46.55824 45.36403
# Shear Modulus (GPa) = 31.50222 33.93906 32.72064
#
# Velocity S-wave (km/s) = 3.78491 3.92857 3.85741
# Velocity P-wave (km/s) = 6.25994 6.46146 6.36150
#
# Compressibility (1/GPa) = 0.02263989
#
# Stress axis : x y z
#
# Youngs Moduli (GPa) = 112.16416 52.94352 69.21212
#
# Poissons Ratio (x) = 0.15086 0.10255
# Poissons Ratio (y) = 0.31962 0.37893
# Poissons Ratio (z) = 0.16618 0.28986
#
# Static dielectric constant tensor:
#      x y z
#    x 4.138610 0.000000 0.000000 
#    y 0.000000 3.847650 0.000000 
#    z 0.000000 0.000000 4.023870 
# 
# 
# High freq. dielectric constant tensor:
#      x y z
#    x 1.880560 0.000000 0.000000 
#    y 0.000000 1.868380 0.000000 
#    z 0.000000 0.000000 1.881010 
# 
# From -- ./inp_files/7026.got.cif
#   From: 2010.03.12/outbox.cif.g09.slc.cpg/sg20_4_cif.got.tgz:7026.got - 2010.04.14 01:38:04.
