data_PCOD8160576
_publ_section_title
;
Structure prediction by ZEFSAII (Michael W. Deem and Ramdas Pophale) SiO2 
 PCOD8160576
Probable space group: C 2 2 21
;
_chemical_formula_sum "Si O2"
_cell_formula_units_Z 40
_cell_length_a 29.283025
_cell_length_b 4.968838
_cell_length_c 12.672660
_cell_angle_alpha 90.000000
_cell_angle_beta 90.000000
_cell_angle_gamma 90.000000
_cell_volume 1843.905072
_symmetry_space_group_name_H-M "C 2 2 21"
_symmetry_group_IT_number 20
_symmetry_cell_setting 'orthorhombic'
loop_
_space_group_symop_operation_xyz
x,y,z
-x,-y,1/2+z
x,-y,-z
-x,y,1/2-z
1/2+x,1/2+y,z
1/2-x,1/2-y,1/2+z
1/2+x,1/2-y,-z
1/2-x,1/2+y,1/2-z
loop_
_atom_site_type_symbol
_atom_site_label
_atom_site_fract_x
_atom_site_fract_y
_atom_site_fract_z
Si Si1 0.628373 0.644880 0.220065
Si Si2 0.271830 0.640732 0.208185
Si Si3 0.994849 0.258675 0.573560
Si Si4 0.571323 0.170587 0.262180
Si Si5 0.269219 0.000000 0.500000
Si Si6 0.666018 0.500000 0.000000
O O1 0.676532 0.732037 0.270136
O O2 0.611498 0.383440 0.283748
O O3 0.591771 0.881149 0.233934
O O4 0.632979 0.564171 0.097710
O O5 0.257219 0.417779 0.295000
O O6 0.264375 0.478821 0.099545
O O7 0.978166 0.500000 0.500000
O O8 0.041621 0.347667 0.631588
O O9 0.957197 0.209413 0.663602
O O10 0.002300 0.000000 0.500000
O O11 0.301896 0.248553 0.480042
#
# Coordination Sequence:
#
# PCOD8160576 Si02
#       6
#     8   8   8   8   4   4
#     4  12  24  42  66 101 136 170 225 290 333 393
#     4  12  23  43  65  93 135 180 223 277 338 394
#     4  11  24  47  73  96 133 178 214 266 345 416
#     4  11  26  44  68 103 135 168 222 280 337 407
#     4  12  22  44  64  92 127 192 229 266 348 396
#     4  12  24  38  70  96 131 172 231 286 334 388
#
# _framework density 21.693090999999999
#
# number of rings (size 3 to 8) (size 9 to 14) (size 15 to 20)
#    0.000    0.400    4.000    4.800    4.200    3.200 
#    5.400    0.000    0.000    0.000    0.000    0.000 
#    0.000    0.000    0.000    0.000    0.000    0.000 
#
# Total GULP energy -248041.617103 kJ/mol
# GULP energy per Si atom -12402.080855 kJ/mol
# Density = 2.164372 g / cm^3
# Si number density = 21.693091 Si / 1000 Ang^3
#
#
#
# Elastic Constant Matrix: (Units=GPa)
#
#
# Indices 1 2 3 4 5 6 
#
# 1 80.3169 25.7298 26.0205 0.0000 0.0000 0.0000
# 2 25.7298 132.3723 29.1878 0.0000 0.0000 0.0000
# 3 26.0205 29.1878 81.3700 0.0000 0.0000 0.0000
# 4 0.0000 0.0000 0.0000 30.8792 0.0000 0.0000
# 5 0.0000 0.0000 0.0000 0.0000 32.8121 0.0000
# 6 0.0000 0.0000 0.0000 0.0000 0.0000 38.4222
#
#
#
# Elastic Compliance Matrix: (Units=1/GPa)
#
#
# Indices 1 2 3 4 5 6 
#
# 1 0.014329 -0.001927 -0.003891 0.000000 0.000000 0.000000
# 2 -0.001927 0.008462 -0.002419 0.000000 0.000000 0.000000
# 3 -0.003891 -0.002419 0.014402 0.000000 0.000000 0.000000
# 4 0.000000 0.000000 0.000000 0.032384 0.000000 0.000000
# 5 0.000000 0.000000 0.000000 0.000000 0.030477 0.000000
# 6 0.000000 0.000000 0.000000 0.000000 0.000000 0.026027
#
#
# Mechanical properties :
#
#
# Convention : Reuss Voigt Hill
#
# Bulk Modulus (GPa) = 48.26664 50.65949 49.46307
# Shear Modulus (GPa) = 33.45367 34.63076 34.04221
#
# Velocity S-wave (km/s) = 3.93126 3.99983 3.96569
# Velocity P-wave (km/s) = 6.55015 6.68842 6.61965
#
# Compressibility (1/GPa) = 0.02071824
#
# Stress axis : x y z
#
# Youngs Moduli (GPa) = 69.79078 118.16851 69.43719
#
# Poissons Ratio (x) = 0.22774 0.27016
# Poissons Ratio (y) = 0.13450 0.16799
# Poissons Ratio (z) = 0.27153 0.28588
#
# Static dielectric constant tensor:
#      x y z
#    x 3.890500 0.000000 0.000000 
#    y 0.000000 4.003200 0.000000 
#    z 0.000000 0.000000 3.983510 
# 
# 
# High freq. dielectric constant tensor:
#      x y z
#    x 1.853870 0.000000 0.000000 
#    y 0.000000 1.869010 0.000000 
#    z 0.000000 0.000000 1.851410 
# 
# From -- ./inp_files/16905.got.cif
#   From: 2010.03.12/outbox.cif.g09.slc.cpg/sg20_9_cif.got.tgz:16905.got - 2010.04.14 01:38:04.
