data_PCOD8160609
_publ_section_title
;
Structure prediction by ZEFSAII (Michael W. Deem and Ramdas Pophale) SiO2 
 PCOD8160609
Probable space group: C 2 2 21
;
_chemical_formula_sum "Si O2"
_cell_formula_units_Z 36
_cell_length_a 20.141747
_cell_length_b 6.848777
_cell_length_c 11.652403
_cell_angle_alpha 90.000000
_cell_angle_beta 90.000000
_cell_angle_gamma 90.000000
_cell_volume 1607.406271
_symmetry_space_group_name_H-M "C 2 2 21"
_symmetry_group_IT_number 20
_symmetry_cell_setting 'orthorhombic'
loop_
_space_group_symop_operation_xyz
x,y,z
-x,-y,1/2+z
x,-y,-z
-x,y,1/2-z
1/2+x,1/2+y,z
1/2-x,1/2-y,1/2+z
1/2+x,1/2-y,-z
1/2-x,1/2+y,1/2-z
loop_
_atom_site_type_symbol
_atom_site_label
_atom_site_fract_x
_atom_site_fract_y
_atom_site_fract_z
Si Si1 0.297136 0.873747 0.615574
Si Si2 0.926667 0.500000 0.000000
Si Si3 0.104724 0.954079 0.185128
Si Si4 0.966472 0.871494 0.095295
Si Si5 0.834014 0.681948 0.804954
O O1 0.307290 0.004067 0.728568
O O2 0.305861 0.000000 0.500000
O O3 0.346587 0.686849 0.613456
O O4 0.223674 0.786635 0.623093
O O5 0.978407 0.652804 0.052803
O O6 0.883844 0.399022 0.099686
O O7 0.085146 0.846123 0.301999
O O8 0.035597 0.982440 0.118077
O O9 0.133722 0.166499 0.214334
O O10 0.928486 0.000000 0.000000
#
# Coordination Sequence:
#
# PCOD8160609 Si02
#       5
#     8   4   8   8   8
#     4  12  29  46  75 107 148 191 248 305 368 438
#     4  12  26  46  80 102 146 196 250 294 372 448
#     4  11  26  48  69 107 146 187 250 299 362 435
#     4  11  25  46  73 102 145 193 241 301 363 433
#     4  12  27  48  76 107 146 195 245 304 369 442
#
# _framework density 22.396329999999999
#
# number of rings (size 3 to 8) (size 9 to 14) (size 15 to 20)
#    0.000    0.444    6.667    0.000   10.889    0.000 
#    0.000    0.000    0.000    0.000    0.000    0.000 
#    0.000    0.000    0.000    0.000    0.000    0.000 
#
# Total GULP energy -223132.189907 kJ/mol
# GULP energy per Si atom -12396.232773 kJ/mol
# Density = 2.234536 g / cm^3
# Si number density = 22.396330 Si / 1000 Ang^3
#
#
#
# Elastic Constant Matrix: (Units=GPa)
#
#
# Indices 1 2 3 4 5 6 
#
# 1 87.3129 19.7064 10.5068 0.0000 0.0000 0.0000
# 2 19.7064 101.8662 20.7272 0.0000 0.0000 0.0000
# 3 10.5068 20.7272 98.0463 0.0000 0.0000 0.0000
# 4 0.0000 0.0000 0.0000 52.3839 0.0000 0.0000
# 5 0.0000 0.0000 0.0000 0.0000 -91.0181 0.0000
# 6 0.0000 0.0000 0.0000 0.0000 0.0000 62.1119
#
#
#
# Elastic Compliance Matrix: (Units=1/GPa)
#
#
# Indices 1 2 3 4 5 6 
#
# 1 0.012041 -0.002160 -0.000834 0.000000 0.000000 0.000000
# 2 -0.002160 0.010645 -0.002019 0.000000 0.000000 0.000000
# 3 -0.000834 -0.002019 0.010715 0.000000 0.000000 0.000000
# 4 0.000000 0.000000 0.000000 0.019090 0.000000 0.000000
# 5 0.000000 0.000000 0.000000 0.000000 -0.010987 0.000000
# 6 0.000000 0.000000 0.000000 0.000000 0.000000 0.016100
#
#
# Mechanical properties :
#
#
# Convention : Reuss Voigt Hill
#
# Bulk Modulus (GPa) = 42.77756 43.23401 43.00579
# Shear Modulus (GPa) = 66.29375 20.44787 43.37081
#
# Velocity S-wave (km/s) = 5.44652 3.02487 4.40536
# Velocity P-wave (km/s) = 7.66123 5.61656 6.71715
#
# Compressibility (1/GPa) = 0.02337674
#
# Stress axis : x y z
#
# Youngs Moduli (GPa) = 83.05074 93.93706 93.32330
#
# Poissons Ratio (x) = 0.20288 0.07781
# Poissons Ratio (y) = 0.17936 0.18842
# Poissons Ratio (z) = 0.06924 0.18966
#
# Static dielectric constant tensor:
#      x y z
#    x 3.882570 0.000000 0.000000 
#    y 0.000000 4.226300 0.000000 
#    z 0.000000 0.000000 4.055490 
# 
# 
# High freq. dielectric constant tensor:
#      x y z
#    x 1.877080 0.000000 0.000000 
#    y 0.000000 1.898440 0.000000 
#    z 0.000000 0.000000 1.898890 
# 
# From -- ./inp_files/16529.got.cif
#   From: 2010.03.12/outbox.cif.g09.slc.cpg/sg20_9_cif.got.tgz:16529.got - 2010.04.14 01:38:04.
