data_PCOD8160334
_publ_section_title
;
Structure prediction by ZEFSAII (Michael W. Deem and Ramdas Pophale) SiO2 
 PCOD8160334
Probable space group: C 2 2 21
;
_chemical_formula_sum "Si O2"
_cell_formula_units_Z 60
_cell_length_a 22.615416
_cell_length_b 5.349809
_cell_length_c 23.232419
_cell_angle_alpha 90.000000
_cell_angle_beta 90.000000
_cell_angle_gamma 90.000000
_cell_volume 2810.847536
_symmetry_space_group_name_H-M "C 2 2 21"
_symmetry_group_IT_number 20
_symmetry_cell_setting 'orthorhombic'
loop_
_space_group_symop_operation_xyz
x,y,z
-x,-y,1/2+z
x,-y,-z
-x,y,1/2-z
1/2+x,1/2+y,z
1/2-x,1/2-y,1/2+z
1/2+x,1/2-y,-z
1/2-x,1/2+y,1/2-z
loop_
_atom_site_type_symbol
_atom_site_label
_atom_site_fract_x
_atom_site_fract_y
_atom_site_fract_z
Si Si1 0.632247 0.623059 0.356910
Si Si2 0.250410 0.434863 0.787440
Si Si3 0.075834 0.870453 0.941358
Si Si4 0.031039 0.773379 0.150761
Si Si5 0.938734 0.855034 0.746381
Si Si6 0.084453 0.635356 0.399136
Si Si7 0.489779 0.000000 0.000000
Si Si8 0.865492 0.401365 0.346218
O O1 0.694789 0.644016 0.326027
O O2 0.580852 0.580210 0.310255
O O3 0.629030 0.372008 0.395197
O O4 0.621229 0.877193 0.392623
O O5 0.235947 0.193266 0.747206
O O6 0.197995 0.479439 0.833551
O O7 0.132526 0.786303 0.901664
O O8 0.032056 0.648790 0.957467
O O9 0.032176 0.035922 0.902777
O O10 0.099998 0.000000 0.000000
O O11 0.086168 0.600375 0.136679
O O12 0.967307 0.636578 0.149592
O O13 0.041500 0.896154 0.212586
O O14 0.884534 0.726032 0.713798
O O15 0.000000 0.690539 0.750000
O O16 0.053800 0.665120 0.461068
#
# Coordination Sequence:
#
# PCOD8160334 Si02
#       8
#     8   8   8   8   8   8   4   8
#     4  12  26  44  65 103 135 188 234 278 341 430
#     4  12  26  49  73  97 142 197 242 286 345 417
#     4  11  21  39  65 104 138 176 234 289 361 425
#     4  11  22  36  63 100 140 174 219 280 365 415
#     4  11  22  36  60  98 143 174 212 288 352 426
#     4  12  25  43  68 100 139 176 231 285 354 423
#     4  12  24  42  70  98 144 184 220 300 362 444
#     4  11  24  40  65 100 135 185 234 288 349 424
#
# _framework density 21.345874999999999
#
# number of rings (size 3 to 8) (size 9 to 14) (size 15 to 20)
#    0.000    0.533    5.333    3.200    3.733    0.533 
#    0.000    0.000    1.467    1.600    0.000    0.000 
#    0.000    0.000    0.000    0.000    0.000    0.000 
#
# Total GULP energy -371797.162737 kJ/mol
# GULP energy per Si atom -12393.238758 kJ/mol
# Density = 2.129729 g / cm^3
# Si number density = 21.345875 Si / 1000 Ang^3
#
#
#
# Elastic Constant Matrix: (Units=GPa)
#
#
# Indices 1 2 3 4 5 6 
#
# 1 89.8917 18.5799 -2.3308 0.0000 0.0000 0.0000
# 2 18.5799 115.3525 19.9112 0.0000 0.0000 0.0000
# 3 -2.3308 19.9112 64.9065 0.0000 0.0000 0.0000
# 4 0.0000 0.0000 0.0000 -15.2989 0.0000 0.0000
# 5 0.0000 0.0000 0.0000 0.0000 30.8775 0.0000
# 6 0.0000 0.0000 0.0000 0.0000 0.0000 28.3051
#
#
#
# Elastic Compliance Matrix: (Units=1/GPa)
#
#
# Indices 1 2 3 4 5 6 
#
# 1 0.011574 -0.002044 0.001043 0.000000 0.000000 0.000000
# 2 -0.002044 0.009515 -0.002992 0.000000 0.000000 0.000000
# 3 0.001043 -0.002992 0.016362 0.000000 0.000000 0.000000
# 4 0.000000 0.000000 0.000000 -0.065364 0.000000 0.000000
# 5 0.000000 0.000000 0.000000 0.000000 0.032386 0.000000
# 6 0.000000 0.000000 0.000000 0.000000 0.000000 0.035329
#
#
# Mechanical properties :
#
#
# Convention : Reuss Voigt Hill
#
# Bulk Modulus (GPa) = 33.94026 38.05237 35.99632
# Shear Modulus (GPa) = 86.78895 24.37610 55.58252
#
# Velocity S-wave (km/s) = 6.38331 3.38295 5.10838
# Velocity P-wave (km/s) = 8.38234 5.75538 7.18985
#
# Compressibility (1/GPa) = 0.02946353
#
# Stress axis : x y z
#
# Youngs Moduli (GPa) = 86.40007 105.09896 61.11670
#
# Poissons Ratio (x) = 0.21485 -0.06373
# Poissons Ratio (y) = 0.17662 0.18288
# Poissons Ratio (z) = -0.09009 0.31448
#
# Static dielectric constant tensor:
#      x y z
#    x 3.640520 0.000000 0.000000 
#    y 0.000000 4.117260 0.000000 
#    z 0.000000 0.000000 3.938010 
# 
# 
# High freq. dielectric constant tensor:
#      x y z
#    x 1.814250 0.000000 0.000000 
#    y 0.000000 1.847620 0.000000 
#    z 0.000000 0.000000 1.838500 
# 
# From -- ./inp_files/29548.got.cif
#   From: 2010.03.12/outbox.cif.g09.slc.cpg/sg20_15_cif.got.tgz:29548.got - 2010.04.14 01:38:04.
