data_PCOD8160826
_publ_section_title
;
Structure prediction by ZEFSAII (Michael W. Deem and Ramdas Pophale) SiO2 
 PCOD8160826
Probable space group: C 2 2 2
;
_chemical_formula_sum "Si O2"
_cell_formula_units_Z 38
_cell_length_a 24.245790
_cell_length_b 8.515268
_cell_length_c 8.868023
_cell_angle_alpha 90.000000
_cell_angle_beta 90.000000
_cell_angle_gamma 90.000000
_cell_volume 1830.886705
_symmetry_space_group_name_H-M "C 2 2 2"
_symmetry_group_IT_number 21
_symmetry_cell_setting 'orthorhombic'
loop_
_space_group_symop_operation_xyz
x,y,z
-x,-y,z
x,-y,-z
-x,y,-z
1/2+x,1/2+y,z
1/2-x,1/2-y,z
1/2+x,1/2-y,-z
1/2-x,1/2+y,-z
loop_
_atom_site_type_symbol
_atom_site_label
_atom_site_fract_x
_atom_site_fract_y
_atom_site_fract_z
Si Si1 0.115061 0.500000 0.000000
Si Si2 0.812729 0.224131 0.904197
Si Si3 0.332888 0.408718 0.768855
Si Si4 0.087303 0.648896 0.290257
Si Si5 0.000000 0.500000 0.500000
Si Si6 0.750000 0.750000 0.552282
Si Si7 0.328570 0.000000 0.500000
O O1 0.152787 0.384312 0.100055
O O2 0.076048 0.592777 0.118483
O O3 0.750000 0.250000 0.853068
O O4 0.840559 0.096142 0.790418
O O5 0.813428 0.164566 0.074902
O O6 0.391149 0.329958 0.713092
O O7 0.284132 0.375017 0.651711
O O8 0.034319 0.620664 0.395498
O O9 0.136493 0.541344 0.353492
O O10 0.791639 0.649410 0.449534
#
# Coordination Sequence:
#
# PCOD8160826 Si02
#       7
#     4   8   8   8   2   4   4
#     4  10  20  33  54  88 120 140 206 247 296 358
#     4  10  18  27  50  84 124 170 189 228 286 357
#     4   9  18  31  48  78 122 155 202 239 290 344
#     4   9  20  37  56  82 109 148 202 265 297 365
#     4  10  20  42  68  78 104 158 212 260 332 352
#     4  10  18  32  44  70 114 166 202 242 272 364
#     4   9  20  31  48  72 114 155 196 237 292 348
#
# _framework density 20.754968999999999
#
# number of rings (size 3 to 8) (size 9 to 14) (size 15 to 20)
#    0.000    2.526    1.053    1.263    5.895    2.105 
#    0.000    0.000    0.000    2.526    0.000    5.895 
#    0.000    0.000    0.000    0.000    0.000    0.000 
#
# Total GULP energy -235475.426178 kJ/mol
# GULP energy per Si atom -12393.443483 kJ/mol
# Density = 2.070773 g / cm^3
# Si number density = 20.754969 Si / 1000 Ang^3
#
#
#
# Elastic Constant Matrix: (Units=GPa)
#
#
# Indices 1 2 3 4 5 6 
#
# 1 100.7629 50.4363 40.3250 0.0000 0.0000 0.0000
# 2 50.4363 129.7651 35.9740 0.0000 0.0000 0.0000
# 3 40.3250 35.9740 57.8092 0.0000 0.0000 0.0000
# 4 0.0000 0.0000 0.0000 35.3432 0.0000 0.0000
# 5 0.0000 0.0000 0.0000 0.0000 20.8927 0.0000
# 6 0.0000 0.0000 0.0000 0.0000 0.0000 20.9050
#
#
#
# Elastic Compliance Matrix: (Units=1/GPa)
#
#
# Indices 1 2 3 4 5 6 
#
# 1 0.015003 -0.003541 -0.008262 0.000000 0.000000 0.000000
# 2 -0.003541 0.010148 -0.003845 0.000000 0.000000 0.000000
# 3 -0.008262 -0.003845 0.025454 0.000000 0.000000 0.000000
# 4 0.000000 0.000000 0.000000 0.028294 0.000000 0.000000
# 5 0.000000 0.000000 0.000000 0.000000 0.047863 0.000000
# 6 0.000000 0.000000 0.000000 0.000000 0.000000 0.047835
#
#
# Mechanical properties :
#
#
# Convention : Reuss Voigt Hill
#
# Bulk Modulus (GPa) = 51.78792 60.20085 55.99438
# Shear Modulus (GPa) = 23.54805 26.20166 24.87485
#
# Velocity S-wave (km/s) = 3.37200 3.55692 3.46569
# Velocity P-wave (km/s) = 6.33772 6.77771 6.56141
#
# Compressibility (1/GPa) = 0.01930952
#
# Stress axis : x y z
#
# Youngs Moduli (GPa) = 66.65290 98.53675 39.28591
#
# Poissons Ratio (x) = 0.34891 0.32458
# Poissons Ratio (y) = 0.23601 0.15107
# Poissons Ratio (z) = 0.55069 0.37891
#
# Static dielectric constant tensor:
#      x y z
#    x 3.435670 0.000000 0.000000 
#    y 0.000000 4.065170 0.000000 
#    z 0.000000 0.000000 3.699610 
# 
# 
# High freq. dielectric constant tensor:
#      x y z
#    x 1.765140 0.000000 0.000000 
#    y 0.000000 1.811660 0.000000 
#    z 0.000000 0.000000 1.821740 
# 
# From -- ./inp_files/11038.got.cif
#   From: 2010.03.12/outbox.cif.g09.slc.cpg/sg21_6_cif.got.tgz:11038.got - 2010.04.14 01:59:26.
