data_PCOD8160700
_publ_section_title
;
Structure prediction by ZEFSAII (Michael W. Deem and Ramdas Pophale) SiO2 
 PCOD8160700
Probable space group: C 2 2 21
;
_chemical_formula_sum "Si O2"
_cell_formula_units_Z 40
_cell_length_a 22.842967
_cell_length_b 8.964927
_cell_length_c 7.935317
_cell_angle_alpha 90.000000
_cell_angle_beta 90.000000
_cell_angle_gamma 90.000000
_cell_volume 1625.038110
_symmetry_space_group_name_H-M "C 2 2 21"
_symmetry_group_IT_number 20
_symmetry_cell_setting 'orthorhombic'
loop_
_space_group_symop_operation_xyz
x,y,z
-x,-y,1/2+z
x,-y,-z
-x,y,1/2-z
1/2+x,1/2+y,z
1/2-x,1/2-y,1/2+z
1/2+x,1/2-y,-z
1/2-x,1/2+y,1/2-z
loop_
_atom_site_type_symbol
_atom_site_label
_atom_site_fract_x
_atom_site_fract_y
_atom_site_fract_z
Si Si1 0.920123 0.171721 0.029007
Si Si2 0.478093 0.842403 0.560051
Si Si3 0.277509 0.335258 0.482268
Si Si4 0.367247 0.841867 0.335467
Si Si5 0.832870 0.661692 0.184873
O O1 0.894875 0.230937 0.202306
O O2 0.892056 0.256040 0.868269
O O3 0.989345 0.207189 0.036113
O O4 0.907156 0.000000 0.000000
O O5 0.500000 0.824719 0.750000
O O6 0.409061 0.839794 0.505471
O O7 0.504813 0.000000 0.500000
O O8 0.306123 0.500000 0.500000
O O9 0.304709 0.224715 0.619754
O O10 0.207686 0.354095 0.516768
O O11 0.291854 0.262842 0.303075
O O12 0.354560 0.007038 0.266621
#
# Coordination Sequence:
#
# PCOD8160700 Si02
#       5
#     8   8   8   8   8
#     4  12  26  44  70 104 143 190 250 323 393 466
#     4  12  25  45  72 104 143 196 256 319 393 477
#     4  12  25  42  68 103 142 187 246 317 381 456
#     4  12  26  47  73 105 147 201 258 319 394 481
#     4  12  25  46  72 104 147 200 256 314 394 480
#
# _framework density 24.614808
#
# number of rings (size 3 to 8) (size 9 to 14) (size 15 to 20)
#    0.000    0.000    0.000   12.600    0.000    4.000 
#    0.000    0.000    0.000    0.000    0.000    0.000 
#    0.000    0.000    0.000    0.000    0.000    0.000 
#
# Total GULP energy -247824.620958 kJ/mol
# GULP energy per Si atom -12391.231048 kJ/mol
# Density = 2.455878 g / cm^3
# Si number density = 24.614808 Si / 1000 Ang^3
#
#
#
# Elastic Constant Matrix: (Units=GPa)
#
#
# Indices 1 2 3 4 5 6 
#
# 1 134.2940 38.3494 20.0143 0.0000 0.0000 0.0000
# 2 38.3494 168.4590 25.0961 0.0000 0.0000 0.0000
# 3 20.0143 25.0961 63.4208 0.0000 0.0000 0.0000
# 4 0.0000 0.0000 0.0000 43.3491 0.0000 0.0000
# 5 0.0000 0.0000 0.0000 0.0000 11.7421 0.0000
# 6 0.0000 0.0000 0.0000 0.0000 0.0000 36.0478
#
#
#
# Elastic Compliance Matrix: (Units=1/GPa)
#
#
# Indices 1 2 3 4 5 6 
#
# 1 0.008188 -0.001572 -0.001962 0.000000 0.000000 0.000000
# 2 -0.001572 0.006610 -0.002120 0.000000 0.000000 0.000000
# 3 -0.001962 -0.002120 0.017226 0.000000 0.000000 0.000000
# 4 0.000000 0.000000 0.000000 0.023069 0.000000 0.000000
# 5 0.000000 0.000000 0.000000 0.000000 0.085164 0.000000
# 6 0.000000 0.000000 0.000000 0.000000 0.000000 0.027741
#
#
# Mechanical properties :
#
#
# Convention : Reuss Voigt Hill
#
# Bulk Modulus (GPa) = 48.27035 59.23260 53.75147
# Shear Modulus (GPa) = 26.85174 37.07542 31.96358
#
# Velocity S-wave (km/s) = 3.30643 3.88522 3.60745
# Velocity P-wave (km/s) = 5.85060 6.65151 6.26387
#
# Compressibility (1/GPa) = 0.02071665
#
# Stress axis : x y z
#
# Youngs Moduli (GPa) = 122.13696 151.29304 58.05330
#
# Poissons Ratio (x) = 0.23777 0.11390
# Poissons Ratio (y) = 0.19195 0.12305
# Poissons Ratio (z) = 0.23962 0.32067
#
# Static dielectric constant tensor:
#      x y z
#    x 4.634220 0.000000 0.000000 
#    y 0.000000 4.420360 0.000000 
#    z 0.000000 0.000000 4.630940 
# 
# 
# High freq. dielectric constant tensor:
#      x y z
#    x 1.989910 0.000000 0.000000 
#    y 0.000000 1.980310 0.000000 
#    z 0.000000 0.000000 1.997110 
# 
# From -- ./inp_files/10499.got.cif
#   From: 2010.03.12/outbox.cif.g09.slc.cpg/sg20_6_cif.got.tgz:10499.got - 2010.04.14 01:38:04.
