data_PCOD8160480
_publ_section_title
;
Structure prediction by ZEFSAII (Michael W. Deem and Ramdas Pophale) SiO2 
 PCOD8160480
Probable space group: C 2 2 21
;
_chemical_formula_sum "Si O2"
_cell_formula_units_Z 60
_cell_length_a 16.921012
_cell_length_b 8.625616
_cell_length_c 20.765431
_cell_angle_alpha 90.000000
_cell_angle_beta 90.000000
_cell_angle_gamma 90.000000
_cell_volume 3030.800869
_symmetry_space_group_name_H-M "C 2 2 21"
_symmetry_group_IT_number 20
_symmetry_cell_setting 'orthorhombic'
loop_
_space_group_symop_operation_xyz
x,y,z
-x,-y,1/2+z
x,-y,-z
-x,y,1/2-z
1/2+x,1/2+y,z
1/2-x,1/2-y,1/2+z
1/2+x,1/2-y,-z
1/2-x,1/2+y,1/2-z
loop_
_atom_site_type_symbol
_atom_site_label
_atom_site_fract_x
_atom_site_fract_y
_atom_site_fract_z
Si Si1 0.399428 0.051252 0.102882
Si Si2 0.231940 0.602517 0.056360
Si Si3 0.633149 0.375479 0.106679
Si Si4 0.479333 0.500000 0.500000
Si Si5 0.453820 0.871322 0.684913
Si Si6 0.700780 0.056142 0.811804
Si Si7 0.392581 0.247538 0.976338
Si Si8 0.247505 0.908038 0.815731
O O1 0.487336 0.084179 0.127609
O O2 0.337168 0.092596 0.158584
O O3 0.397564 0.870927 0.083395
O O4 0.378951 0.157600 0.042514
O O5 0.180036 0.756311 0.061517
O O6 0.236404 0.507720 0.122211
O O7 0.320402 0.638694 0.035381
O O8 0.192078 0.500000 0.000000
O O9 0.590909 0.286332 0.165349
O O10 0.694936 0.495522 0.135242
O O11 0.571943 0.467001 0.062982
O O12 0.529031 0.650652 0.480938
O O13 0.500000 0.837194 0.750000
O O14 0.391516 0.010888 0.694803
O O15 0.709384 0.239705 0.809654
O O16 0.752717 0.983258 0.754721
#
# Coordination Sequence:
#
# PCOD8160480 Si02
#       8
#     8   8   8   4   8   8   8   8
#     4  11  24  43  72  94 134 178 223 271 338 399
#     4  11  23  43  69  99 131 174 229 270 331 394
#     4  11  27  43  67 101 135 175 219 283 327 396
#     4  12  26  42  66 100 144 164 224 274 340 386
#     4  11  23  47  67  95 133 177 220 275 340 399
#     4  11  26  42  72  97 136 175 224 282 333 402
#     4  11  24  43  67  99 131 179 219 276 328 404
#     4  12  25  46  69 100 132 177 227 275 333 396
#
# _framework density 19.796748000000001
#
# number of rings (size 3 to 8) (size 9 to 14) (size 15 to 20)
#    0.000    0.800    4.667    2.400    5.600    1.067 
#    0.000    0.667    0.000    0.000    0.000    0.000 
#    0.000    0.000    0.000    0.000    0.000    0.000 
#
# Total GULP energy -372200.365019 kJ/mol
# GULP energy per Si atom -12406.678834 kJ/mol
# Density = 1.975169 g / cm^3
# Si number density = 19.796748 Si / 1000 Ang^3
#
#
#
# Elastic Constant Matrix: (Units=GPa)
#
#
# Indices 1 2 3 4 5 6 
#
# 1 105.0221 44.4271 37.2818 0.0000 0.0000 0.0000
# 2 44.4271 126.4047 44.8441 0.0000 0.0000 0.0000
# 3 37.2818 44.8441 107.2537 0.0000 0.0000 0.0000
# 4 0.0000 0.0000 0.0000 32.8396 0.0000 0.0000
# 5 0.0000 0.0000 0.0000 0.0000 40.8265 0.0000
# 6 0.0000 0.0000 0.0000 0.0000 0.0000 33.9760
#
#
#
# Elastic Compliance Matrix: (Units=1/GPa)
#
#
# Indices 1 2 3 4 5 6 
#
# 1 0.011857 -0.003176 -0.002794 0.000000 0.000000 0.000000
# 2 -0.003176 0.010140 -0.003135 0.000000 0.000000 0.000000
# 3 -0.002794 -0.003135 0.011606 0.000000 0.000000 0.000000
# 4 0.000000 0.000000 0.000000 0.030451 0.000000 0.000000
# 5 0.000000 0.000000 0.000000 0.000000 0.024494 0.000000
# 6 0.000000 0.000000 0.000000 0.000000 0.000000 0.029433
#
#
# Mechanical properties :
#
#
# Convention : Reuss Voigt Hill
#
# Bulk Modulus (GPa) = 64.96882 65.75406 65.36144
# Shear Modulus (GPa) = 35.38029 35.67024 35.52526
#
# Velocity S-wave (km/s) = 4.23209 4.24939 4.24075
# Velocity P-wave (km/s) = 7.53458 7.57385 7.55424
#
# Compressibility (1/GPa) = 0.01539200
#
# Stress axis : x y z
#
# Youngs Moduli (GPa) = 84.33719 98.62075 86.16446
#
# Poissons Ratio (x) = 0.31326 0.24070
# Poissons Ratio (y) = 0.26789 0.27017
# Poissons Ratio (z) = 0.23560 0.30922
#
# Static dielectric constant tensor:
#      x y z
#    x 3.685250 0.000000 0.000000 
#    y 0.000000 3.724630 0.000000 
#    z 0.000000 0.000000 3.651180 
# 
# 
# High freq. dielectric constant tensor:
#      x y z
#    x 1.779890 0.000000 0.000000 
#    y 0.000000 1.780940 0.000000 
#    z 0.000000 0.000000 1.785400 
# 
# From -- ./inp_files/25286.got.cif
#   From: 2010.03.12/outbox.cif.g09.slc.cpg/sg20_13_cif.got.tgz:25286.got - 2010.04.14 01:38:04.
