data_PCOD8160933
_publ_section_title
;
Structure prediction by ZEFSAII (Michael W. Deem and Ramdas Pophale) SiO2 
 PCOD8160933
Probable space group: C 2 2 2
;
_chemical_formula_sum "Si O2"
_cell_formula_units_Z 46
_cell_length_a 9.386711
_cell_length_b 18.529482
_cell_length_c 13.976781
_cell_angle_alpha 90.000000
_cell_angle_beta 90.000000
_cell_angle_gamma 90.000000
_cell_volume 2430.993994
_symmetry_space_group_name_H-M "C 2 2 2"
_symmetry_group_IT_number 21
_symmetry_cell_setting 'orthorhombic'
loop_
_space_group_symop_operation_xyz
x,y,z
-x,-y,z
x,-y,-z
-x,y,-z
1/2+x,1/2+y,z
1/2-x,1/2-y,z
1/2+x,1/2-y,-z
1/2-x,1/2+y,-z
loop_
_atom_site_type_symbol
_atom_site_label
_atom_site_fract_x
_atom_site_fract_y
_atom_site_fract_z
Si Si1 0.386345 0.631738 0.418711
Si Si2 0.106784 0.899837 0.841080
Si Si3 0.653457 0.820532 0.460472
Si Si4 0.655635 0.181048 0.749075
Si Si5 0.000000 0.000000 0.314946
Si Si6 0.404007 0.721645 0.226807
Si Si7 0.000000 0.000000 0.000000
O O1 0.500000 0.652262 0.500000
O O2 0.229750 0.625919 0.464896
O O3 0.405597 0.551481 0.379964
O O4 0.396711 0.692572 0.335540
O O5 0.264197 0.864544 0.832040
O O6 0.975861 0.841508 0.838774
O O7 0.102647 0.951786 0.749965
O O8 0.099595 0.947888 0.936519
O O9 0.500000 0.800313 0.500000
O O10 0.750000 0.750000 0.460731
O O11 0.645078 0.857559 0.354948
O O12 0.750000 0.250000 0.727628
O O13 0.499774 0.206263 0.782471
O O14 0.250000 0.750000 0.190015
#
# Coordination Sequence:
#
# PCOD8160933 Si02
#       7
#     8   8   8   8   4   8   2
#     4  11  19  29  48  72 104 151 196 228 258 308
#     4   9  19  36  59  79  99 134 174 222 276 335
#     4  11  19  28  46  77 112 146 186 227 266 311
#     4   9  17  30  49  77 109 139 175 220 271 313
#     4   9  19  33  49  68  98 142 187 219 265 323
#     4  10  19  32  52  80 111 139 171 219 279 326
#     4  10  20  40  66  82  98 132 186 220 264 346
#
# _framework density 18.922301000000001
#
# number of rings (size 3 to 8) (size 9 to 14) (size 15 to 20)
#    0.000    2.087    0.000    7.565    0.000    0.000 
#    0.000    2.609    0.000   31.304    0.000    0.000 
#    0.000    0.000    0.000    0.000    0.000    0.000 
#
# Total GULP energy -284989.305294 kJ/mol
# GULP energy per Si atom -12390.839361 kJ/mol
# Density = 1.887923 g / cm^3
# Si number density = 18.922301 Si / 1000 Ang^3
#
#
#
# Elastic Constant Matrix: (Units=GPa)
#
#
# Indices 1 2 3 4 5 6 
#
# 1 148.5865 54.7230 44.4574 0.0000 0.0000 0.0000
# 2 54.7230 94.9132 48.0668 0.0000 0.0000 0.0000
# 3 44.4574 48.0668 92.3742 0.0000 0.0000 0.0000
# 4 0.0000 0.0000 0.0000 26.3933 0.0000 0.0000
# 5 0.0000 0.0000 0.0000 0.0000 8.8796 0.0000
# 6 0.0000 0.0000 0.0000 0.0000 0.0000 24.7673
#
#
#
# Elastic Compliance Matrix: (Units=1/GPa)
#
#
# Indices 1 2 3 4 5 6 
#
# 1 0.008856 -0.004002 -0.002180 0.000000 0.000000 0.000000
# 2 -0.004002 0.016114 -0.006459 0.000000 0.000000 0.000000
# 3 -0.002180 -0.006459 0.015235 0.000000 0.000000 0.000000
# 4 0.000000 0.000000 0.000000 0.037888 0.000000 0.000000
# 5 0.000000 0.000000 0.000000 0.000000 0.112618 0.000000
# 6 0.000000 0.000000 0.000000 0.000000 0.000000 0.040376
#
#
# Mechanical properties :
#
#
# Convention : Reuss Voigt Hill
#
# Bulk Modulus (GPa) = 67.00469 70.04093 68.52281
# Shear Modulus (GPa) = 19.13178 24.58315 21.85746
#
# Velocity S-wave (km/s) = 3.18318 3.60830 3.40239
# Velocity P-wave (km/s) = 6.99982 7.37937 7.19210
#
# Compressibility (1/GPa) = 0.01492433
#
# Stress axis : x y z
#
# Youngs Moduli (GPa) = 112.91451 62.05591 65.63623
#
# Poissons Ratio (x) = 0.24836 0.14307
# Poissons Ratio (y) = 0.45192 0.42394
# Poissons Ratio (z) = 0.24612 0.40082
#
# Static dielectric constant tensor:
#      x y z
#    x 4.001610 0.000000 0.000000 
#    y 0.000000 3.534690 0.000000 
#    z 0.000000 0.000000 3.354920 
# 
# 
# High freq. dielectric constant tensor:
#      x y z
#    x 1.725030 0.000000 0.000000 
#    y 0.000000 1.720670 0.000000 
#    z 0.000000 0.000000 1.714170 
# 
# From -- ./inp_files/30668.got.cif
#   From: 2010.03.12/outbox.cif.g09.slc.cpg/sg21_16_cif.got.tgz:30668.got - 2010.04.14 01:59:26.
