data_PCOD8160934
_publ_section_title
;
Structure prediction by ZEFSAII (Michael W. Deem and Ramdas Pophale) SiO2 
 PCOD8160934
Probable space group: C 2 2 2
;
_chemical_formula_sum "Si O2"
_cell_formula_units_Z 64
_cell_length_a 9.470785
_cell_length_b 29.909240
_cell_length_c 12.527154
_cell_angle_alpha 90.000000
_cell_angle_beta 90.000000
_cell_angle_gamma 90.000000
_cell_volume 3548.491520
_symmetry_space_group_name_H-M "C 2 2 2"
_symmetry_group_IT_number 21
_symmetry_cell_setting 'orthorhombic'
loop_
_space_group_symop_operation_xyz
x,y,z
-x,-y,z
x,-y,-z
-x,y,-z
1/2+x,1/2+y,z
1/2-x,1/2-y,z
1/2+x,1/2-y,-z
1/2-x,1/2+y,-z
loop_
_atom_site_type_symbol
_atom_site_label
_atom_site_fract_x
_atom_site_fract_y
_atom_site_fract_z
Si Si1 0.661590 0.875100 0.665407
Si Si2 0.343491 0.710686 0.377221
Si Si3 0.334911 0.949656 0.500000
Si Si4 0.340461 0.082023 0.880236
Si Si5 0.656509 0.289314 0.622779
Si Si6 0.159539 0.582023 0.880236
Si Si7 0.844131 1.000000 0.873754
Si Si8 0.338410 0.124900 0.334594
O O1 0.765589 0.836374 0.630536
O O2 0.708122 0.920990 0.605393
O O3 0.674378 0.878676 0.793957
O O4 0.500000 0.863131 0.633220
O O5 0.250000 0.750000 0.321970
O O6 0.363915 0.723126 0.500000
O O7 0.500000 0.708302 0.323570
O O8 0.500000 0.957380 0.500000
O O9 0.291878 0.920990 0.605393
O O10 0.264479 0.000000 0.500000
O O11 0.500000 0.063189 0.881050
O O12 0.238981 0.043535 0.836569
O O13 0.299310 0.098834 0.000000
O O14 0.750000 0.250000 0.678030
O O15 0.734411 0.336374 0.630536
O O16 0.261018 0.543535 0.836568
O O17 0.174378 0.621324 0.793956
O O18 0.000000 0.000000 0.822213
O O19 0.853161 0.000000 0.000000
#
# Coordination Sequence:
#
# PCOD8160934 Si02
#       8
#     8   8   8   8   8   8   8   8
#     4  10  19  32  53  75 102 136 171 209 251 301
#     4  10  20  34  54  78 105 131 163 207 256 305
#     4   9  18  30  46  71 102 137 174 205 240 295
#     4   9  18  31  48  71  98 131 172 214 252 294
#     4  10  20  34  54  78 105 131 163 207 256 305
#     4   9  18  31  48  71  98 131 172 214 252 294
#     4   9  17  29  45  66  93 128 172 218 257 291
#     4  10  19  32  53  75 102 136 171 209 251 301
#
# _framework density 18.035831999999999
#
# number of rings (size 3 to 8) (size 9 to 14) (size 15 to 20)
#    0.000    2.500    1.250    1.125    1.750    3.500 
#    0.000    0.000    0.000    1.500    0.000    0.000 
#    0.000    0.000    0.000    0.000    0.000    0.000 
#
# Total GULP energy -396534.841083 kJ/mol
# GULP energy per Si atom -12391.713784 kJ/mol
# Density = 1.799478 g / cm^3
# Si number density = 18.035832 Si / 1000 Ang^3
#
#
#
# Elastic Constant Matrix: (Units=GPa)
#
#
# Indices 1 2 3 4 5 6 
#
# 1 109.7024 55.6227 17.9653 0.0000 0.0000 0.0000
# 2 55.6227 114.5523 22.2261 0.0000 0.0000 0.0000
# 3 17.9653 22.2261 73.6569 0.0000 0.0000 0.0000
# 4 0.0000 0.0000 0.0000 11.8798 0.0000 0.0000
# 5 0.0000 0.0000 0.0000 0.0000 13.0732 0.0000
# 6 0.0000 0.0000 0.0000 0.0000 0.0000 288.6231
#
#
#
# Elastic Compliance Matrix: (Units=1/GPa)
#
#
# Indices 1 2 3 4 5 6 
#
# 1 0.012202 -0.005680 -0.001262 0.000000 0.000000 0.000000
# 2 -0.005680 0.011917 -0.002210 0.000000 0.000000 0.000000
# 3 -0.001262 -0.002210 0.014551 0.000000 0.000000 0.000000
# 4 0.000000 0.000000 0.000000 0.084176 0.000000 0.000000
# 5 0.000000 0.000000 0.000000 0.000000 0.076492 0.000000
# 6 0.000000 0.000000 0.000000 0.000000 0.000000 0.003465
#
#
# Mechanical properties :
#
#
# Convention : Reuss Voigt Hill
#
# Bulk Modulus (GPa) = 49.10468 54.39331 51.74900
# Shear Modulus (GPa) = 21.93971 76.18839 49.06405
#
# Velocity S-wave (km/s) = 3.49155 6.50650 5.22137
# Velocity P-wave (km/s) = 6.59847 9.30967 8.06876
#
# Compressibility (1/GPa) = 0.02036466
#
# Stress axis : x y z
#
# Youngs Moduli (GPa) = 81.95193 83.91663 68.72222
#
# Poissons Ratio (x) = 0.47666 0.08674
# Poissons Ratio (y) = 0.46550 0.15191
# Poissons Ratio (z) = 0.10344 0.18549
#
# Static dielectric constant tensor:
#      x y z
#    x 3.576740 0.000000 0.000000 
#    y 0.000000 3.158970 0.000000 
#    z 0.000000 0.000000 3.259760 
# 
# 
# High freq. dielectric constant tensor:
#      x y z
#    x 1.693740 0.000000 0.000000 
#    y 0.000000 1.679160 0.000000 
#    z 0.000000 0.000000 1.675280 
# 
# From -- ./inp_files/23125.got.cif
#   From: 2010.03.12/outbox.cif.g09.slc.cpg/sg21_12_cif.got.tgz:23125.got - 2010.04.14 01:59:26.
