data_PCOD8160982
_publ_section_title
;
Structure prediction by ZEFSAII (Michael W. Deem and Ramdas Pophale) SiO2 
 PCOD8160982
Probable space group: C 2 2 2
;
_chemical_formula_sum "Si O2"
_cell_formula_units_Z 28
_cell_length_a 25.203400
_cell_length_b 5.063025
_cell_length_c 11.076139
_cell_angle_alpha 90.000000
_cell_angle_beta 90.000000
_cell_angle_gamma 90.000000
_cell_volume 1413.375638
_symmetry_space_group_name_H-M "C 2 2 2"
_symmetry_group_IT_number 21
_symmetry_cell_setting 'orthorhombic'
loop_
_space_group_symop_operation_xyz
x,y,z
-x,-y,z
x,-y,-z
-x,y,-z
1/2+x,1/2+y,z
1/2-x,1/2-y,z
1/2+x,1/2-y,-z
1/2-x,1/2+y,-z
loop_
_atom_site_type_symbol
_atom_site_label
_atom_site_fract_x
_atom_site_fract_y
_atom_site_fract_z
Si Si1 0.646403 0.130707 0.127026
Si Si2 0.285550 0.500000 0.500000
Si Si3 0.524321 0.751541 0.866335
Si Si4 0.809346 0.857917 0.243994
O O1 0.587365 0.245843 0.126768
O O2 0.817357 0.114290 0.158154
O O3 0.651381 0.887980 0.220258
O O4 0.663272 0.000000 0.000000
O O5 0.250000 0.250000 0.534859
O O6 0.321097 0.440421 0.382408
O O7 0.500000 0.500000 0.796528
O O8 0.500000 0.000000 0.794810
O O9 0.500000 0.751415 0.000000
O O10 0.750000 0.750000 0.225724
#
# Coordination Sequence:
#
# PCOD8160982 Si02
#       4
#     8   4   8   8
#     4  12  23  37  60  92 128 156 196 241 306 372
#     4  10  20  42  66  80 109 162 225 254 268 336
#     4  10  19  34  57  81 114 152 203 239 274 344
#     4  11  24  40  60  88 122 165 201 244 296 346
#
# _framework density 19.810725999999999
#
# number of rings (size 3 to 8) (size 9 to 14) (size 15 to 20)
#    0.000    1.143    2.857    6.857    4.000    2.286 
#    0.000    1.429    0.000    0.000    0.000   15.000 
#    0.000    0.000    0.000    0.000    0.000    0.000 
#
# Total GULP energy -173482.492852 kJ/mol
# GULP energy per Si atom -12391.606632 kJ/mol
# Density = 1.976564 g / cm^3
# Si number density = 19.810726 Si / 1000 Ang^3
#
#
#
# Elastic Constant Matrix: (Units=GPa)
#
#
# Indices 1 2 3 4 5 6 
#
# 1 91.7850 56.4730 59.2903 0.0000 0.0000 0.0000
# 2 56.4730 203.3371 55.8463 0.0000 0.0000 0.0000
# 3 59.2903 55.8463 91.8129 0.0000 0.0000 0.0000
# 4 0.0000 0.0000 0.0000 26.2946 0.0000 0.0000
# 5 0.0000 0.0000 0.0000 0.0000 3.2008 0.0000
# 6 0.0000 0.0000 0.0000 0.0000 0.0000 51.0267
#
#
#
# Elastic Compliance Matrix: (Units=1/GPa)
#
#
# Indices 1 2 3 4 5 6 
#
# 1 0.019593 -0.002361 -0.011217 0.000000 0.000000 0.000000
# 2 -0.002361 0.006189 -0.002240 0.000000 0.000000 0.000000
# 3 -0.011217 -0.002240 0.019498 0.000000 0.000000 0.000000
# 4 0.000000 0.000000 0.000000 0.038031 0.000000 0.000000
# 5 0.000000 0.000000 0.000000 0.000000 0.312417 0.000000
# 6 0.000000 0.000000 0.000000 0.000000 0.000000 0.019598
#
#
# Mechanical properties :
#
#
# Convention : Reuss Voigt Hill
#
# Bulk Modulus (GPa) = 73.28850 81.12825 77.20838
# Shear Modulus (GPa) = 11.07399 30.45944 20.76672
#
# Velocity S-wave (km/s) = 2.36686 3.92538 3.24119
# Velocity P-wave (km/s) = 6.67413 7.84764 7.28455
#
# Compressibility (1/GPa) = 0.01364471
#
# Stress axis : x y z
#
# Youngs Moduli (GPa) = 51.03766 161.58189 51.28854
#
# Poissons Ratio (x) = 0.38150 0.57529
# Poissons Ratio (y) = 0.12050 0.11487
# Poissons Ratio (z) = 0.57248 0.36190
#
# Static dielectric constant tensor:
#      x y z
#    x 3.462150 0.000000 0.000000 
#    y 0.000000 3.187140 0.000000 
#    z 0.000000 0.000000 3.431650 
# 
# 
# High freq. dielectric constant tensor:
#      x y z
#    x 1.754010 0.000000 0.000000 
#    y 0.000000 1.822120 0.000000 
#    z 0.000000 0.000000 1.727140 
# 
# From -- ./inp_files/26406.got.cif
#   From: 2010.03.12/outbox.cif.g09.slc.cpg/sg21_14_cif.got.tgz:26406.got - 2010.04.14 01:59:26.
