data_PCOD8160056
_publ_section_title
;
Structure prediction by ZEFSAII (Michael W. Deem and Ramdas Pophale) SiO2 
 PCOD8160056
Probable space group: C 2 2 21
;
_chemical_formula_sum "Si O2"
_cell_formula_units_Z 36
_cell_length_a 9.050753
_cell_length_b 19.345740
_cell_length_c 9.554111
_cell_angle_alpha 90.000000
_cell_angle_beta 90.000000
_cell_angle_gamma 90.000000
_cell_volume 1672.862871
_symmetry_space_group_name_H-M "C 2 2 21"
_symmetry_group_IT_number 20
_symmetry_cell_setting 'orthorhombic'
loop_
_space_group_symop_operation_xyz
x,y,z
-x,-y,1/2+z
x,-y,-z
-x,y,1/2-z
1/2+x,1/2+y,z
1/2-x,1/2-y,1/2+z
1/2+x,1/2-y,-z
1/2-x,1/2+y,1/2-z
loop_
_atom_site_type_symbol
_atom_site_label
_atom_site_fract_x
_atom_site_fract_y
_atom_site_fract_z
Si Si1 0.018783 0.682457 0.906304
Si Si2 0.850756 0.198193 0.992843
Si Si3 0.000000 0.885757 0.250000
Si Si4 0.000000 0.881149 0.750000
Si Si5 0.286369 0.501574 0.344832
Si Si6 0.500000 0.051142 0.750000
O O1 0.991161 0.599888 0.890039
O O2 0.000000 0.715351 0.750000
O O3 0.897441 0.720692 0.003358
O O4 0.174803 0.696020 0.981857
O O5 0.919062 0.162899 0.130681
O O6 0.912649 0.162482 0.855371
O O7 0.113749 0.933787 0.168580
O O8 0.125830 0.928645 0.817322
O O9 0.222711 0.500000 0.500000
O O10 0.145679 0.496371 0.240909
#
# Coordination Sequence:
#
# PCOD8160056 Si02
#       6
#     8   8   4   4   8   4
#     4  10  25  44  69 102 142 184 236 295 365 424
#     4  12  24  44  71 100 145 177 242 295 352 436
#     4  11  22  42  67  95 132 188 225 290 356 415
#     4  11  25  42  70 106 135 180 239 280 356 429
#     4  11  23  41  67  96 136 187 230 284 348 415
#     4  10  23  46  59 101 143 176 242 284 348 430
#
# _framework density 21.519995000000002
#
# number of rings (size 3 to 8) (size 9 to 14) (size 15 to 20)
#    0.667    0.444    5.556    0.000    6.222    1.778 
#    0.000    0.000    0.000    0.000    0.000    0.000 
#    0.000    0.000    0.000    0.000    0.000    0.000 
#
# Total GULP energy -223080.524847 kJ/mol
# GULP energy per Si atom -12393.362492 kJ/mol
# Density = 2.147101 g / cm^3
# Si number density = 21.519995 Si / 1000 Ang^3
#
#
#
# Elastic Constant Matrix: (Units=GPa)
#
#
# Indices 1 2 3 4 5 6 
#
# 1 126.6921 35.8941 10.7737 0.0000 0.0000 0.0000
# 2 35.8941 55.0436 35.4053 0.0000 0.0000 0.0000
# 3 10.7737 35.4053 64.3240 0.0000 0.0000 0.0000
# 4 0.0000 0.0000 0.0000 27.0354 0.0000 0.0000
# 5 0.0000 0.0000 0.0000 0.0000 42.6731 0.0000
# 6 0.0000 0.0000 0.0000 0.0000 0.0000 19.3498
#
#
#
# Elastic Compliance Matrix: (Units=1/GPa)
#
#
# Indices 1 2 3 4 5 6 
#
# 1 0.010037 -0.008458 0.002974 0.000000 0.000000 0.000000
# 2 -0.008458 0.035253 -0.017987 0.000000 0.000000 0.000000
# 3 0.002974 -0.017987 0.024949 0.000000 0.000000 0.000000
# 4 0.000000 0.000000 0.000000 0.036989 0.000000 0.000000
# 5 0.000000 0.000000 0.000000 0.000000 0.023434 0.000000
# 6 0.000000 0.000000 0.000000 0.000000 0.000000 0.051680
#
#
# Mechanical properties :
#
#
# Convention : Reuss Voigt Hill
#
# Bulk Modulus (GPa) = 42.92531 45.57843 44.25187
# Shear Modulus (GPa) = 21.09281 28.74409 24.91845
#
# Velocity S-wave (km/s) = 3.13413 3.65868 3.40652
# Velocity P-wave (km/s) = 5.75213 6.25088 6.00668
#
# Compressibility (1/GPa) = 0.02329628
#
# Stress axis : x y z
#
# Youngs Moduli (GPa) = 99.63586 28.36659 40.08244
#
# Poissons Ratio (x) = 0.23993 -0.11922
# Poissons Ratio (y) = 0.84273 0.72097
# Poissons Ratio (z) = -0.29637 0.51023
#
# Static dielectric constant tensor:
#      x y z
#    x 3.927360 0.000000 0.000000 
#    y 0.000000 3.950450 0.000000 
#    z 0.000000 0.000000 3.705750 
# 
# 
# High freq. dielectric constant tensor:
#      x y z
#    x 1.852910 0.000000 0.000000 
#    y 0.000000 1.848600 0.000000 
#    z 0.000000 0.000000 1.832120 
# 
# From -- ./inp_files/12867.got.cif
#   From: 2010.03.12/outbox.cif.g09.slc.cpg/sg20_7_cif.got.tgz:12867.got - 2010.04.14 01:38:04.
