data_PCOD8160769
_publ_section_title
;
Structure prediction by ZEFSAII (Michael W. Deem and Ramdas Pophale) SiO2 
 PCOD8160769
Probable space group: C 2 2 2
;
_chemical_formula_sum "Si O2"
_cell_formula_units_Z 56
_cell_length_a 19.062590
_cell_length_b 5.574877
_cell_length_c 25.946217
_cell_angle_alpha 90.000000
_cell_angle_beta 90.000000
_cell_angle_gamma 90.000000
_cell_volume 2757.345853
_symmetry_space_group_name_H-M "C 2 2 2"
_symmetry_group_IT_number 21
_symmetry_cell_setting 'orthorhombic'
loop_
_space_group_symop_operation_xyz
x,y,z
-x,-y,z
x,-y,-z
-x,y,-z
1/2+x,1/2+y,z
1/2-x,1/2-y,z
1/2+x,1/2-y,-z
1/2-x,1/2+y,-z
loop_
_atom_site_type_symbol
_atom_site_label
_atom_site_fract_x
_atom_site_fract_y
_atom_site_fract_z
Si Si1 0.677369 0.862577 0.145556
Si Si2 0.822540 0.343567 0.045357
Si Si3 0.078967 0.250974 0.479912
Si Si4 0.923231 0.965972 0.895542
Si Si5 0.578737 0.243305 0.642055
Si Si6 0.928115 0.642261 0.795808
Si Si7 0.420622 0.260139 0.682072
O O1 0.750000 0.750000 0.165691
O O2 0.616525 0.701491 0.121718
O O3 0.699279 0.035884 0.099267
O O4 0.641748 0.983143 0.195379
O O5 0.750000 0.250000 0.020908
O O6 0.879144 0.142476 0.057687
O O7 0.857498 0.500000 0.000000
O O8 0.115678 0.500000 0.500000
O O9 0.080920 0.260032 0.418935
O O10 0.000000 0.250138 0.500000
O O11 0.114994 0.000000 0.500000
O O12 0.934753 0.807177 0.845206
O O13 0.000000 0.000000 0.919486
O O14 0.499859 0.251816 0.662361
O O15 0.615929 0.494448 0.660372
O O16 0.614561 0.995207 0.663764
O O17 0.916126 0.789889 0.743663
O O18 0.000000 0.500000 0.789065
#
# Coordination Sequence:
#
# PCOD8160769 Si02
#       7
#     8   8   8   8   8   8   8
#     4  11  23  42  63  90 118 150 198 241 296 365
#     4  11  24  42  69  92 114 156 199 234 296 370
#     4  10  16  24  37  55  88 138 192 248 295 351
#     4  11  24  40  66  89 124 152 190 248 298 350
#     4  10  18  27  42  66 101 138 198 261 291 355
#     4  11  22  35  59  86 112 156 195 249 301 354
#     4  10  19  29  45  71 103 139 194 250 298 345
#
# _framework density 20.309384000000001
#
# number of rings (size 3 to 8) (size 9 to 14) (size 15 to 20)
#    0.000    1.429    4.286    4.714    4.000    0.000 
#    0.000    2.143    0.000    0.000    0.000    0.000 
#    0.000    0.000    0.000    0.000    0.000    8.571 
#
# Total GULP energy -346904.587251 kJ/mol
# GULP energy per Si atom -12389.449545 kJ/mol
# Density = 2.026316 g / cm^3
# Si number density = 20.309384 Si / 1000 Ang^3
#
#
#
# Elastic Constant Matrix: (Units=GPa)
#
#
# Indices 1 2 3 4 5 6 
#
# 1 83.8536 16.4570 14.0039 0.0000 0.0000 0.0000
# 2 16.4570 143.0939 27.1894 0.0000 0.0000 0.0000
# 3 14.0039 27.1894 116.6258 0.0000 0.0000 0.0000
# 4 0.0000 0.0000 0.0000 2989.9032 0.0000 0.0000
# 5 0.0000 0.0000 0.0000 0.0000 0.8874 0.0000
# 6 0.0000 0.0000 0.0000 0.0000 0.0000 2.7309
#
#
#
# Elastic Compliance Matrix: (Units=1/GPa)
#
#
# Indices 1 2 3 4 5 6 
#
# 1 0.012361 -0.001192 -0.001206 0.000000 0.000000 0.000000
# 2 -0.001192 0.007427 -0.001588 0.000000 0.000000 0.000000
# 3 -0.001206 -0.001588 0.009090 0.000000 0.000000 0.000000
# 4 0.000000 0.000000 0.000000 0.000334 0.000000 0.000000
# 5 0.000000 0.000000 0.000000 0.000000 1.126934 0.000000
# 6 0.000000 0.000000 0.000000 0.000000 0.000000 0.366185
#
#
# Mechanical properties :
#
#
# Convention : Reuss Voigt Hill
#
# Bulk Modulus (GPa) = 47.83813 50.98599 49.41206
# Shear Modulus (GPa) = 3.25251 617.76582 310.50916
#
# Velocity S-wave (km/s) = 1.26687 17.45961 12.37826
# Velocity P-wave (km/s) = 5.07403 20.77522 15.12209
#
# Compressibility (1/GPa) = 0.02090383
#
# Stress axis : x y z
#
# Youngs Moduli (GPa) = 80.89950 134.63720 110.01604
#
# Poissons Ratio (x) = 0.16054 0.13271
# Poissons Ratio (y) = 0.09647 0.17475
# Poissons Ratio (z) = 0.09759 0.21386
#
# Static dielectric constant tensor:
#      x y z
#    x -4.526510 0.000000 0.000000 
#    y 0.000000 5.108790 0.000000 
#    z 0.000000 0.000000 4.048010 
# 
# 
# High freq. dielectric constant tensor:
#      x y z
#    x 1.725430 0.000000 0.000000 
#    y 0.000000 1.820320 0.000000 
#    z 0.000000 0.000000 1.800480 
# 
# From -- ./inp_files/38869.got.cif
#   From: 2010.03.12/outbox.cif.g09.slc.cpg/sg21_20_cif.got.tgz:38869.got - 2010.04.14 01:59:26.
