data_PCOD8160413
_publ_section_title
;
Structure prediction by ZEFSAII (Michael W. Deem and Ramdas Pophale) SiO2 
 PCOD8160413
Probable space group: C 2 2 21
;
_chemical_formula_sum "Si O2"
_cell_formula_units_Z 48
_cell_length_a 8.826498
_cell_length_b 28.269712
_cell_length_c 9.148525
_cell_angle_alpha 90.000000
_cell_angle_beta 90.000000
_cell_angle_gamma 90.000000
_cell_volume 2282.763346
_symmetry_space_group_name_H-M "C 2 2 21"
_symmetry_group_IT_number 20
_symmetry_cell_setting 'orthorhombic'
loop_
_space_group_symop_operation_xyz
x,y,z
-x,-y,1/2+z
x,-y,-z
-x,y,1/2-z
1/2+x,1/2+y,z
1/2-x,1/2-y,1/2+z
1/2+x,1/2-y,-z
1/2-x,1/2+y,1/2-z
loop_
_atom_site_type_symbol
_atom_site_label
_atom_site_fract_x
_atom_site_fract_y
_atom_site_fract_z
Si Si1 0.609521 0.781060 0.639565
Si Si2 0.577596 0.954926 0.400780
Si Si3 0.619321 0.276986 0.645776
Si Si4 0.940748 0.620304 0.399015
Si Si5 0.429142 0.454188 0.403672
Si Si6 0.420270 0.620388 0.103144
O O1 0.500000 0.750646 0.750000
O O2 0.667234 0.754005 0.494713
O O3 0.747999 0.794090 0.745664
O O4 0.513034 0.827062 0.590738
O O5 0.500000 0.967850 0.250000
O O6 0.497937 0.908383 0.462575
O O7 0.753332 0.942848 0.384016
O O8 0.548705 0.000000 0.500000
O O9 0.500000 0.248825 0.750000
O O10 0.537711 0.324222 0.584193
O O11 0.760408 0.617338 0.395983
O O12 0.000000 0.595897 0.250000
O O13 0.459538 0.500000 0.500000
O O14 0.500000 0.466707 0.250000
O O15 0.512130 0.408267 0.468078
O O16 0.500000 0.600166 0.250000
#
# Coordination Sequence:
#
# PCOD8160413 Si02
#       6
#     8   8   8   8   8   8
#     4  11  23  45  65  99 136 177 231 281 348 405
#     4  11  25  44  68 101 134 176 223 275 335 398
#     4  11  24  41  69  99 133 184 224 284 345 410
#     4  11  22  42  67  95 134 174 222 277 332 400
#     4  11  25  44  67  99 136 176 223 275 332 400
#     4  11  23  42  68  97 131 177 224 271 339 398
#
# _framework density 21.027145999999998
#
# number of rings (size 3 to 8) (size 9 to 14) (size 15 to 20)
#    0.000    1.000    3.333    4.000    2.333    6.667 
#    3.000    0.000    0.000    0.000    0.000    0.000 
#    0.000    0.000    0.000    0.000    0.000    0.000 
#
# Total GULP energy -297453.061248 kJ/mol
# GULP energy per Si atom -12393.877552 kJ/mol
# Density = 2.097929 g / cm^3
# Si number density = 21.027146 Si / 1000 Ang^3
#
#
#
# Elastic Constant Matrix: (Units=GPa)
#
#
# Indices 1 2 3 4 5 6 
#
# 1 149.3703 59.9920 79.5141 0.0000 0.0000 0.0000
# 2 59.9920 84.3914 58.1046 0.0000 0.0000 0.0000
# 3 79.5141 58.1046 145.1956 0.0000 0.0000 0.0000
# 4 0.0000 0.0000 0.0000 42.1696 0.0000 0.0000
# 5 0.0000 0.0000 0.0000 0.0000 44.2640 0.0000
# 6 0.0000 0.0000 0.0000 0.0000 0.0000 20.6381
#
#
#
# Elastic Compliance Matrix: (Units=1/GPa)
#
#
# Indices 1 2 3 4 5 6 
#
# 1 0.010771 -0.004963 -0.003912 0.000000 0.000000 0.000000
# 2 -0.004963 0.018643 -0.004743 0.000000 0.000000 0.000000
# 3 -0.003912 -0.004743 0.010928 0.000000 0.000000 0.000000
# 4 0.000000 0.000000 0.000000 0.023714 0.000000 0.000000
# 5 0.000000 0.000000 0.000000 0.000000 0.022592 0.000000
# 6 0.000000 0.000000 0.000000 0.000000 0.000000 0.048454
#
#
# Mechanical properties :
#
#
# Convention : Reuss Voigt Hill
#
# Bulk Modulus (GPa) = 76.30401 86.01987 81.16194
# Shear Modulus (GPa) = 29.99301 33.50412 31.74857
#
# Velocity S-wave (km/s) = 3.78086 3.99604 3.88994
# Velocity P-wave (km/s) = 7.44493 7.89233 7.67189
#
# Compressibility (1/GPa) = 0.01310547
#
# Stress axis : x y z
#
# Youngs Moduli (GPa) = 92.84442 53.63928 91.51032
#
# Poissons Ratio (x) = 0.26621 0.35802
# Poissons Ratio (y) = 0.46078 0.43401
# Poissons Ratio (z) = 0.36324 0.25440
#
# Static dielectric constant tensor:
#      x y z
#    x 4.025890 0.000000 0.000000 
#    y 0.000000 3.632790 0.000000 
#    z 0.000000 0.000000 3.920970 
# 
# 
# High freq. dielectric constant tensor:
#      x y z
#    x 1.845130 0.000000 0.000000 
#    y 0.000000 1.810120 0.000000 
#    z 0.000000 0.000000 1.830790 
# 
# From -- ./inp_files/6505.got.cif
#   From: 2010.03.12/outbox.cif.g09.slc.cpg/sg20_4_cif.got.tgz:6505.got - 2010.04.14 01:38:04.
