data_PCOD8160394
_publ_section_title
;
Structure prediction by ZEFSAII (Michael W. Deem and Ramdas Pophale) SiO2 
 PCOD8160394
Probable space group: C 2 2 21
;
_chemical_formula_sum "Si O2"
_cell_formula_units_Z 56
_cell_length_a 14.250173
_cell_length_b 13.463416
_cell_length_c 12.140702
_cell_angle_alpha 90.000000
_cell_angle_beta 90.000000
_cell_angle_gamma 90.000000
_cell_volume 2329.266610
_symmetry_space_group_name_H-M "C 2 2 21"
_symmetry_group_IT_number 20
_symmetry_cell_setting 'orthorhombic'
loop_
_space_group_symop_operation_xyz
x,y,z
-x,-y,1/2+z
x,-y,-z
-x,y,1/2-z
1/2+x,1/2+y,z
1/2-x,1/2-y,1/2+z
1/2+x,1/2-y,-z
1/2-x,1/2+y,1/2-z
loop_
_atom_site_type_symbol
_atom_site_label
_atom_site_fract_x
_atom_site_fract_y
_atom_site_fract_z
Si Si1 0.574967 0.613998 0.499139
Si Si2 0.358443 0.103821 0.233503
Si Si3 0.478258 0.100406 0.438398
Si Si4 0.950292 0.717924 0.863365
Si Si5 0.215921 0.392404 0.275929
Si Si6 0.137006 0.892124 0.051649
Si Si7 0.756720 0.755967 0.095847
O O1 0.611559 0.500000 0.500000
O O2 0.560473 0.661487 0.376185
O O3 0.475357 0.619481 0.562914
O O4 0.651696 0.690998 0.545423
O O5 0.399891 0.136970 0.351695
O O6 0.430185 0.080657 0.134878
O O7 0.287888 0.188406 0.197739
O O8 0.301072 0.005199 0.252543
O O9 0.490715 0.185679 0.529130
O O10 0.448774 0.000000 0.500000
O O11 0.853563 0.655777 0.867023
O O12 0.000000 0.690388 0.750000
O O13 0.321380 0.386019 0.324894
O O14 0.197816 0.340053 0.158480
O O15 0.187345 0.804103 0.983159
O O16 0.162198 0.000000 0.000000
#
# Coordination Sequence:
#
# PCOD8160394 Si02
#       7
#     8   8   8   8   8   8   8
#     4  11  27  50  75 108 152 201 256 315 385 462
#     4  11  24  44  72 111 146 198 249 321 381 459
#     4  11  22  40  74 108 150 185 248 315 393 452
#     4  12  24  46  75 112 151 203 254 314 389 472
#     4  12  25  43  74 109 149 195 254 313 392 451
#     4  11  24  49  78 108 150 205 252 311 382 472
#     4  12  26  49  76 105 152 197 258 318 382 463
#
# _framework density 24.041903999999999
#
# number of rings (size 3 to 8) (size 9 to 14) (size 15 to 20)
#    0.000    0.571    5.714    1.714    2.000    1.714 
#    5.143    0.000    0.000    0.000    0.000    0.000 
#    0.000    0.000    0.000    0.000    0.000    0.000 
#
# Total GULP energy -347038.461909 kJ/mol
# GULP energy per Si atom -12394.230782 kJ/mol
# Density = 2.398718 g / cm^3
# Si number density = 24.041904 Si / 1000 Ang^3
#
#
#
# Elastic Constant Matrix: (Units=GPa)
#
#
# Indices 1 2 3 4 5 6 
#
# 1 79.3264 41.8669 22.0713 0.0000 0.0000 0.0000
# 2 41.8669 147.0385 36.3150 0.0000 0.0000 0.0000
# 3 22.0713 36.3150 109.3254 0.0000 0.0000 0.0000
# 4 0.0000 0.0000 0.0000 44.9610 0.0000 0.0000
# 5 0.0000 0.0000 0.0000 0.0000 21.2548 0.0000
# 6 0.0000 0.0000 0.0000 0.0000 0.0000 37.0166
#
#
#
# Elastic Compliance Matrix: (Units=1/GPa)
#
#
# Indices 1 2 3 4 5 6 
#
# 1 0.015144 -0.003875 -0.001770 0.000000 0.000000 0.000000
# 2 -0.003875 0.008400 -0.002008 0.000000 0.000000 0.000000
# 3 -0.001770 -0.002008 0.010171 0.000000 0.000000 0.000000
# 4 0.000000 0.000000 0.000000 0.022241 0.000000 0.000000
# 5 0.000000 0.000000 0.000000 0.000000 0.047048 0.000000
# 6 0.000000 0.000000 0.000000 0.000000 0.000000 0.027015
#
#
# Mechanical properties :
#
#
# Convention : Reuss Voigt Hill
#
# Bulk Modulus (GPa) = 54.32053 59.57742 56.94897
# Shear Modulus (GPa) = 33.01150 36.34228 34.67689
#
# Velocity S-wave (km/s) = 3.70953 3.89218 3.80195
# Velocity P-wave (km/s) = 6.40239 6.71068 6.55835
#
# Compressibility (1/GPa) = 0.01840925
#
# Stress axis : x y z
#
# Youngs Moduli (GPa) = 66.03410 119.04551 98.31483
#
# Poissons Ratio (x) = 0.46127 0.17404
# Poissons Ratio (y) = 0.25586 0.19742
# Poissons Ratio (z) = 0.11689 0.23905
#
# Static dielectric constant tensor:
#      x y z
#    x 4.349910 0.000000 0.000000 
#    y 0.000000 4.531910 0.000000 
#    z 0.000000 0.000000 4.246310 
# 
# 
# High freq. dielectric constant tensor:
#      x y z
#    x 1.952660 0.000000 0.000000 
#    y 0.000000 1.971230 0.000000 
#    z 0.000000 0.000000 1.947930 
# 
# From -- ./inp_files/15149.got.cif
#   From: 2010.03.12/outbox.cif.g09.slc.cpg/sg20_8_cif.got.tgz:15149.got - 2010.04.14 01:38:04.
