data_PCOD8160272
_publ_section_title
;
Structure prediction by ZEFSAII (Michael W. Deem and Ramdas Pophale) SiO2 
 PCOD8160272
Probable space group: C 2 2 21
;
_chemical_formula_sum "Si O2"
_cell_formula_units_Z 60
_cell_length_a 8.179155
_cell_length_b 11.103544
_cell_length_c 29.190790
_cell_angle_alpha 90.000000
_cell_angle_beta 90.000000
_cell_angle_gamma 90.000000
_cell_volume 2651.037707
_symmetry_space_group_name_H-M "C 2 2 21"
_symmetry_group_IT_number 20
_symmetry_cell_setting 'orthorhombic'
loop_
_space_group_symop_operation_xyz
x,y,z
-x,-y,1/2+z
x,-y,-z
-x,y,1/2-z
1/2+x,1/2+y,z
1/2-x,1/2-y,1/2+z
1/2+x,1/2-y,-z
1/2-x,1/2+y,1/2-z
loop_
_atom_site_type_symbol
_atom_site_label
_atom_site_fract_x
_atom_site_fract_y
_atom_site_fract_z
Si Si1 0.757028 0.768869 0.023801
Si Si2 0.555809 0.162046 0.059014
Si Si3 0.825042 0.363666 0.172441
Si Si4 0.469271 0.316346 0.145952
Si Si5 0.514136 0.706288 0.100693
Si Si6 0.310275 0.514979 0.923069
Si Si7 0.743090 0.375670 0.820757
Si Si8 0.500000 0.713233 0.250000
O O1 0.617918 0.775686 0.062790
O O2 0.881945 0.657264 0.031749
O O3 0.853152 0.895302 0.034659
O O4 0.685119 0.766074 0.973192
O O5 0.535218 0.234093 0.105341
O O6 0.619848 0.028057 0.071664
O O7 0.627348 0.362478 0.172883
O O8 0.902281 0.303921 0.127086
O O9 0.859716 0.506646 0.176518
O O10 0.898000 0.297506 0.216168
O O11 0.353323 0.423159 0.125944
O O12 0.360793 0.240481 0.181458
O O13 0.408109 0.609674 0.072939
O O14 0.633137 0.632322 0.133891
O O15 0.626609 0.373693 0.776266
#
# Coordination Sequence:
#
# PCOD8160272 Si02
#       8
#     8   8   8   8   8   8   8   4
#     4  11  25  42  63  98 141 185 239 288 337 395
#     4  11  23  41  64  97 138 187 233 289 334 390
#     4  11  25  45  74 102 137 180 215 285 347 413
#     4  11  24  42  71 102 134 184 231 275 344 413
#     4  11  22  41  71 100 136 178 235 278 336 410
#     4  11  22  42  64  99 136 182 229 287 329 396
#     4  11  24  47  71 102 134 174 225 278 345 419
#     4  10  28  46  68 112 134 166 224 282 346 426
#
# _framework density 22.632646000000001
#
# number of rings (size 3 to 8) (size 9 to 14) (size 15 to 20)
#    0.000    1.067    5.333    1.200    1.867    3.733 
#    0.000    2.667    0.000    0.000    0.000    0.000 
#    0.000    0.000    0.000    0.000    0.000    0.000 
#
# Total GULP energy -371873.715254 kJ/mol
# GULP energy per Si atom -12395.790508 kJ/mol
# Density = 2.258113 g / cm^3
# Si number density = 22.632646 Si / 1000 Ang^3
#
#
#
# Elastic Constant Matrix: (Units=GPa)
#
#
# Indices 1 2 3 4 5 6 
#
# 1 92.4907 42.7831 21.4927 0.0000 0.0000 0.0000
# 2 42.7831 90.0924 9.2146 0.0000 0.0000 0.0000
# 3 21.4927 9.2146 64.8177 0.0000 0.0000 0.0000
# 4 0.0000 0.0000 0.0000 22.2453 0.0000 0.0000
# 5 0.0000 0.0000 0.0000 0.0000 48.7265 0.0000
# 6 0.0000 0.0000 0.0000 0.0000 0.0000 39.5614
#
#
#
# Elastic Compliance Matrix: (Units=1/GPa)
#
#
# Indices 1 2 3 4 5 6 
#
# 1 0.014796 -0.006621 -0.003965 0.000000 0.000000 0.000000
# 2 -0.006621 0.014226 0.000173 0.000000 0.000000 0.000000
# 3 -0.003965 0.000173 0.016718 0.000000 0.000000 0.000000
# 4 0.000000 0.000000 0.000000 0.044953 0.000000 0.000000
# 5 0.000000 0.000000 0.000000 0.000000 0.020523 0.000000
# 6 0.000000 0.000000 0.000000 0.000000 0.000000 0.025277
#
#
# Mechanical properties :
#
#
# Convention : Reuss Voigt Hill
#
# Bulk Modulus (GPa) = 40.13718 43.82018 41.97868
# Shear Modulus (GPa) = 30.18902 33.70066 31.94484
#
# Velocity S-wave (km/s) = 3.65618 3.86298 3.76100
# Velocity P-wave (km/s) = 5.96626 6.26900 6.11950
#
# Compressibility (1/GPa) = 0.02491456
#
# Stress axis : x y z
#
# Youngs Moduli (GPa) = 67.58697 70.29352 59.81578
#
# Poissons Ratio (x) = 0.46539 0.23716
# Poissons Ratio (y) = 0.44747 -0.01034
# Poissons Ratio (z) = 0.26797 -0.01216
#
# Static dielectric constant tensor:
#      x y z
#    x 4.477130 0.000000 0.000000 
#    y 0.000000 4.034260 0.000000 
#    z 0.000000 0.000000 3.949090 
# 
# 
# High freq. dielectric constant tensor:
#      x y z
#    x 1.900890 0.000000 0.000000 
#    y 0.000000 1.887880 0.000000 
#    z 0.000000 0.000000 1.880310 
# 
# From -- ./inp_files/31036.got.cif
#   From: 2010.03.12/outbox.cif.g09.slc.cpg/sg20_16_cif.got.tgz:31036.got - 2010.04.14 01:38:04.
