data_PCOD8160910
_publ_section_title
;
Structure prediction by ZEFSAII (Michael W. Deem and Ramdas Pophale) SiO2 
 PCOD8160910
Probable space group: C 2 2 2
;
_chemical_formula_sum "Si O2"
_cell_formula_units_Z 60
_cell_length_a 27.624910
_cell_length_b 31.461913
_cell_length_c 5.248063
_cell_angle_alpha 90.000000
_cell_angle_beta 90.000000
_cell_angle_gamma 90.000000
_cell_volume 4561.262194
_symmetry_space_group_name_H-M "C 2 2 2"
_symmetry_group_IT_number 21
_symmetry_cell_setting 'orthorhombic'
loop_
_space_group_symop_operation_xyz
x,y,z
-x,-y,z
x,-y,-z
-x,y,-z
1/2+x,1/2+y,z
1/2-x,1/2-y,z
1/2+x,1/2-y,-z
1/2-x,1/2+y,-z
loop_
_atom_site_type_symbol
_atom_site_label
_atom_site_fract_x
_atom_site_fract_y
_atom_site_fract_z
Si Si1 0.869304 0.774915 0.851132
Si Si2 0.706567 0.649314 0.863501
Si Si3 0.000000 0.101173 0.500000
Si Si4 0.170657 0.743741 0.644088
Si Si5 0.050747 0.839964 0.120986
Si Si6 0.121799 0.909715 0.039271
Si Si7 0.413396 0.450974 0.438913
Si Si8 0.746946 0.319877 0.638970
O O1 0.828972 0.810938 0.850099
O O2 0.862645 0.744747 0.606957
O O3 0.922329 0.795844 0.821029
O O4 0.863857 0.747033 0.107787
O O5 0.675888 0.606314 0.898925
O O6 0.738258 0.649366 0.604348
O O7 0.742193 0.652762 0.104221
O O8 0.037935 0.131749 0.637024
O O9 0.035173 0.069244 0.343098
O O10 0.199112 0.699223 0.637740
O O11 0.208130 0.782311 0.640750
O O12 0.087029 0.869830 0.955235
O O13 0.000000 0.827503 0.000000
O O14 0.103603 0.931439 0.295309
O O15 0.123274 0.941909 0.797112
O O16 0.419624 0.500000 0.500000
#
# Coordination Sequence:
#
# PCOD8160910 Si02
#       8
#     8   8   4   8   8   8   8   8
#     4   9  18  25  38  52  73  92 114 140 174 212
#     4   9  16  26  40  57  70  91 110 136 169 208
#     4  10  21  32  44  56  70  88 126 166 192 238
#     4   9  16  26  35  55  74  93 110 133 161 207
#     4  10  19  30  43  54  71  93 123 155 195 220
#     4  10  20  32  44  58  75  88 116 151 185 232
#     4  11  21  33  45  57  72  93 116 152 200 241
#     4   9  15  24  40  54  74  92 111 128 160 207
#
# _framework density 13.154253000000001
#
# number of rings (size 3 to 8) (size 9 to 14) (size 15 to 20)
#    0.000    2.400    1.333    2.200    1.867    6.400 
#    0.000    1.333    0.000    0.000    0.000    0.000 
#    0.000    0.000    0.000    0.000    0.000    0.000 
#
# Total GULP energy -371691.325422 kJ/mol
# GULP energy per Si atom -12389.710847 kJ/mol
# Density = 1.312431 g / cm^3
# Si number density = 13.154253 Si / 1000 Ang^3
#
#
#
# Elastic Constant Matrix: (Units=GPa)
#
#
# Indices 1 2 3 4 5 6 
#
# 1 56.0313 43.9899 34.4722 0.0000 0.0000 0.0000
# 2 43.9899 41.4873 31.7820 0.0000 0.0000 0.0000
# 3 34.4722 31.7820 105.5912 0.0000 0.0000 0.0000
# 4 0.0000 0.0000 0.0000 18.9447 0.0000 0.0000
# 5 0.0000 0.0000 0.0000 0.0000 15.2881 0.0000
# 6 0.0000 0.0000 0.0000 0.0000 0.0000 -132.5598
#
#
#
# Elastic Compliance Matrix: (Units=1/GPa)
#
#
# Indices 1 2 3 4 5 6 
#
# 1 0.106604 -0.112257 -0.001014 0.000000 0.000000 0.000000
# 2 -0.112257 0.149538 -0.008361 0.000000 0.000000 0.000000
# 3 -0.001014 -0.008361 0.012318 0.000000 0.000000 0.000000
# 4 0.000000 0.000000 0.000000 0.052785 0.000000 0.000000
# 5 0.000000 0.000000 0.000000 0.000000 0.065410 0.000000
# 6 0.000000 0.000000 0.000000 0.000000 0.000000 -0.007544
#
#
# Mechanical properties :
#
#
# Convention : Reuss Voigt Hill
#
# Bulk Modulus (GPa) = 39.69131 47.06643 43.37887
# Shear Modulus (GPa) = 7.92676 -13.47436 -2.77380
#
# Velocity S-wave (km/s) = 2.45746 -3.20399 -1.45370
# Velocity P-wave (km/s) = 6.18800 4.70857 5.49827
#
# Compressibility (1/GPa) = 0.02519443
#
# Stress axis : x y z
#
# Youngs Moduli (GPa) = 9.38054 6.68728 81.18043
#
# Poissons Ratio (x) = 0.75069 0.08234
# Poissons Ratio (y) = 1.05303 0.67876
# Poissons Ratio (z) = 0.00951 0.05591
#
# Static dielectric constant tensor:
#      x y z
#    x 2.473400 0.000000 0.000000 
#    y 0.000000 2.410920 0.000000 
#    z 0.000000 0.000000 3.384710 
# 
# 
# High freq. dielectric constant tensor:
#      x y z
#    x 1.466020 0.000000 0.000000 
#    y 0.000000 1.452660 0.000000 
#    z 0.000000 0.000000 1.518090 
# 
# From -- ./inp_files/6221.got.cif
#   From: 2010.03.12/outbox.cif.g09.slc.cpg/sg21_4_cif.got.tgz:6221.got - 2010.04.14 01:59:26.
