data_PCOD8160608
_publ_section_title
;
Structure prediction by ZEFSAII (Michael W. Deem and Ramdas Pophale) SiO2 
 PCOD8160608
Probable space group: C 2 2 21
;
_chemical_formula_sum "Si O2"
_cell_formula_units_Z 32
_cell_length_a 5.001512
_cell_length_b 24.504590
_cell_length_c 11.175297
_cell_angle_alpha 90.000000
_cell_angle_beta 90.000000
_cell_angle_gamma 90.000000
_cell_volume 1369.644411
_symmetry_space_group_name_H-M "C 2 2 21"
_symmetry_group_IT_number 20
_symmetry_cell_setting 'orthorhombic'
loop_
_space_group_symop_operation_xyz
x,y,z
-x,-y,1/2+z
x,-y,-z
-x,y,1/2-z
1/2+x,1/2+y,z
1/2-x,1/2-y,1/2+z
1/2+x,1/2-y,-z
1/2-x,1/2+y,1/2-z
loop_
_atom_site_type_symbol
_atom_site_label
_atom_site_fract_x
_atom_site_fract_y
_atom_site_fract_z
Si Si1 0.314754 0.995088 0.632654
Si Si2 0.000000 0.081614 0.750000
Si Si3 0.761016 0.873606 0.827974
Si Si4 0.191896 0.284702 0.021427
Si Si5 0.500000 0.155522 0.750000
O O1 0.500000 0.004048 0.750000
O O2 0.176843 0.936105 0.638528
O O3 0.454544 0.000000 0.500000
O O4 0.087966 0.042255 0.639731
O O5 0.749846 0.118418 0.707335
O O6 0.500000 0.868434 0.750000
O O7 0.000000 0.848849 0.750000
O O8 0.737792 0.839517 0.947847
O O9 0.086581 0.303148 0.148425
O O10 0.471945 0.253784 0.040552
#
# Coordination Sequence:
#
# PCOD8160608 Si02
#       5
#     8   4   8   8   4
#     4  11  25  47  77 114 158 204 249 310 381 463
#     4  12  24  48  75 114 155 202 234 320 378 472
#     4  11  25  46  72 109 147 193 244 299 368 451
#     4  12  28  49  79 107 147 200 250 321 376 440
#     4  12  28  50  75 116 151 192 262 310 382 456
#
# _framework density 23.36373
#
# number of rings (size 3 to 8) (size 9 to 14) (size 15 to 20)
#    0.000    0.500    2.500    4.500    5.250    3.000 
#    4.500    0.000    0.000    0.000    0.000    0.000 
#    0.000    0.000    0.000    0.000    0.000    0.000 
#
# Total GULP energy -198401.978677 kJ/mol
# GULP energy per Si atom -12400.123667 kJ/mol
# Density = 2.331055 g / cm^3
# Si number density = 23.363730 Si / 1000 Ang^3
#
#
#
# Elastic Constant Matrix: (Units=GPa)
#
#
# Indices 1 2 3 4 5 6 
#
# 1 112.6250 21.9932 20.9952 0.0000 0.0000 0.0000
# 2 21.9932 106.8544 24.2545 0.0000 0.0000 0.0000
# 3 20.9952 24.2545 154.7558 0.0000 0.0000 0.0000
# 4 0.0000 0.0000 0.0000 28.5100 0.0000 0.0000
# 5 0.0000 0.0000 0.0000 0.0000 37.1304 0.0000
# 6 0.0000 0.0000 0.0000 0.0000 0.0000 40.6433
#
#
#
# Elastic Compliance Matrix: (Units=1/GPa)
#
#
# Indices 1 2 3 4 5 6 
#
# 1 0.009400 -0.001706 -0.001008 0.000000 0.000000 0.000000
# 2 -0.001706 0.010013 -0.001338 0.000000 0.000000 0.000000
# 3 -0.001008 -0.001338 0.006808 0.000000 0.000000 0.000000
# 4 0.000000 0.000000 0.000000 0.035075 0.000000 0.000000
# 5 0.000000 0.000000 0.000000 0.000000 0.026932 0.000000
# 6 0.000000 0.000000 0.000000 0.000000 0.000000 0.024604
#
#
# Mechanical properties :
#
#
# Convention : Reuss Voigt Hill
#
# Bulk Modulus (GPa) = 55.19368 56.52458 55.85913
# Shear Modulus (GPa) = 39.37741 41.72291 40.55016
#
# Velocity S-wave (km/s) = 4.10983 4.23046 4.17058
# Velocity P-wave (km/s) = 6.79675 6.93600 6.86673
#
# Compressibility (1/GPa) = 0.01811802
#
# Stress axis : x y z
#
# Youngs Moduli (GPa) = 106.38241 99.86671 146.88126
#
# Poissons Ratio (x) = 0.17037 0.14804
# Poissons Ratio (y) = 0.18149 0.19652
# Poissons Ratio (z) = 0.10722 0.13361
#
# Static dielectric constant tensor:
#      x y z
#    x 4.332430 0.000000 0.000000 
#    y 0.000000 4.584960 0.000000 
#    z 0.000000 0.000000 4.260740 
# 
# 
# High freq. dielectric constant tensor:
#      x y z
#    x 1.923620 0.000000 0.000000 
#    y 0.000000 1.947670 0.000000 
#    z 0.000000 0.000000 1.922350 
# 
# From -- ./inp_files/12009.got.cif
#   From: 2010.03.12/outbox.cif.g09.slc.cpg/sg20_7_cif.got.tgz:12009.got - 2010.04.14 01:38:04.
