data_PCOD8160499
_publ_section_title
;
Structure prediction by ZEFSAII (Michael W. Deem and Ramdas Pophale) SiO2 
 PCOD8160499
Probable space group: C 2 2 21
;
_chemical_formula_sum "Si O2"
_cell_formula_units_Z 36
_cell_length_a 8.820151
_cell_length_b 19.270099
_cell_length_c 8.870876
_cell_angle_alpha 90.000000
_cell_angle_beta 90.000000
_cell_angle_gamma 90.000000
_cell_volume 1507.740062
_symmetry_space_group_name_H-M "C 2 2 21"
_symmetry_group_IT_number 20
_symmetry_cell_setting 'orthorhombic'
loop_
_space_group_symop_operation_xyz
x,y,z
-x,-y,1/2+z
x,-y,-z
-x,y,1/2-z
1/2+x,1/2+y,z
1/2-x,1/2-y,1/2+z
1/2+x,1/2-y,-z
1/2-x,1/2+y,1/2-z
loop_
_atom_site_type_symbol
_atom_site_label
_atom_site_fract_x
_atom_site_fract_y
_atom_site_fract_z
Si Si1 0.387305 0.000000 0.500000
Si Si2 0.650690 0.587904 0.658515
Si Si3 0.650872 0.645800 0.332494
Si Si4 0.661655 0.199952 0.669842
Si Si5 0.399656 0.120608 0.126768
O O1 0.281860 0.029311 0.637760
O O2 0.499629 0.057591 0.434656
O O3 0.500000 0.560899 0.750000
O O4 0.610283 0.608633 0.488046
O O5 0.714333 0.654802 0.743137
O O6 0.500000 0.663856 0.250000
O O7 0.726426 0.722223 0.349979
O O8 0.752505 0.596281 0.224409
O O9 0.500000 0.193045 0.750000
O O10 0.650630 0.172058 0.501494
O O11 0.500000 0.162073 0.250000
#
# Coordination Sequence:
#
# PCOD8160499 Si02
#       5
#     4   8   8   8   8
#     4  12  28  50  78 114 152 208 274 300 384 472
#     4  12  27  48  72 110 153 195 258 322 384 449
#     4  11  25  46  72 114 154 194 250 317 391 453
#     4  11  23  44  76 111 151 195 249 313 389 464
#     4  12  25  46  78 104 151 200 256 314 367 460
#
# _framework density 23.876795999999999
#
# number of rings (size 3 to 8) (size 9 to 14) (size 15 to 20)
#    0.000    0.444    4.444    2.667    3.111    8.000 
#    4.000    0.000    0.000    0.000    0.000    0.000 
#    0.000    0.000    0.000    0.000    0.000    0.000 
#
# Total GULP energy -223007.825703 kJ/mol
# GULP energy per Si atom -12389.323650 kJ/mol
# Density = 2.382245 g / cm^3
# Si number density = 23.876796 Si / 1000 Ang^3
#
#
#
# Elastic Constant Matrix: (Units=GPa)
#
#
# Indices 1 2 3 4 5 6 
#
# 1 127.5095 50.4881 56.2464 0.0000 0.0000 0.0000
# 2 50.4881 96.1538 33.6497 0.0000 0.0000 0.0000
# 3 56.2464 33.6497 165.9349 0.0000 0.0000 0.0000
# 4 0.0000 0.0000 0.0000 -328.3837 0.0000 0.0000
# 5 0.0000 0.0000 0.0000 0.0000 59.9594 0.0000
# 6 0.0000 0.0000 0.0000 0.0000 0.0000 29.5495
#
#
#
# Elastic Compliance Matrix: (Units=1/GPa)
#
#
# Indices 1 2 3 4 5 6 
#
# 1 0.010947 -0.004790 -0.002740 0.000000 0.000000 0.000000
# 2 -0.004790 0.013290 -0.001072 0.000000 0.000000 0.000000
# 3 -0.002740 -0.001072 0.007172 0.000000 0.000000 0.000000
# 4 0.000000 0.000000 0.000000 -0.003045 0.000000 0.000000
# 5 0.000000 0.000000 0.000000 0.000000 0.016678 0.000000
# 6 0.000000 0.000000 0.000000 0.000000 0.000000 0.033842
#
#
# Mechanical properties :
#
#
# Convention : Reuss Voigt Hill
#
# Bulk Modulus (GPa) = 70.38072 74.48519 72.43296
# Shear Modulus (GPa) = 49.59267 -31.16071 9.21598
#
# Velocity S-wave (km/s) = 4.56238 -3.61648 1.96677
# Velocity P-wave (km/s) = 7.56930 3.71816 5.96318
#
# Compressibility (1/GPa) = 0.01420844
#
# Stress axis : x y z
#
# Youngs Moduli (GPa) = 91.34544 75.24531 139.42377
#
# Poissons Ratio (x) = 0.36039 0.38196
# Poissons Ratio (y) = 0.43750 0.14940
# Poissons Ratio (z) = 0.25025 0.08063
#
# Static dielectric constant tensor:
#      x y z
#    x 5.008950 0.000000 0.000000 
#    y 0.000000 4.307350 0.000000 
#    z 0.000000 0.000000 4.778100 
# 
# 
# High freq. dielectric constant tensor:
#      x y z
#    x 1.956970 0.000000 0.000000 
#    y 0.000000 1.940870 0.000000 
#    z 0.000000 0.000000 1.964570 
# 
# From -- ./inp_files/5915.got.cif
#   From: 2010.03.12/outbox.cif.g09.slc.cpg/sg20_3_cif.got.tgz:5915.got - 2010.04.14 01:38:04.
