data_PCOD8160178
_publ_section_title
;
Structure prediction by ZEFSAII (Michael W. Deem and Ramdas Pophale) SiO2 
 PCOD8160178
Probable space group: C 2 2 21
;
_chemical_formula_sum "Si O2"
_cell_formula_units_Z 48
_cell_length_a 31.374186
_cell_length_b 7.383394
_cell_length_c 9.078659
_cell_angle_alpha 90.000000
_cell_angle_beta 90.000000
_cell_angle_gamma 90.000000
_cell_volume 2103.052988
_symmetry_space_group_name_H-M "C 2 2 21"
_symmetry_group_IT_number 20
_symmetry_cell_setting 'orthorhombic'
loop_
_space_group_symop_operation_xyz
x,y,z
-x,-y,1/2+z
x,-y,-z
-x,y,1/2-z
1/2+x,1/2+y,z
1/2-x,1/2-y,1/2+z
1/2+x,1/2-y,-z
1/2-x,1/2+y,1/2-z
loop_
_atom_site_type_symbol
_atom_site_label
_atom_site_fract_x
_atom_site_fract_y
_atom_site_fract_z
Si Si1 0.143174 0.813388 0.573009
Si Si2 0.769030 0.344588 0.111196
Si Si3 0.895447 0.313507 0.801434
Si Si4 0.596582 0.559068 0.159581
Si Si5 0.957232 0.594267 0.657445
Si Si6 0.691149 0.083786 0.151418
O O1 0.192623 0.773059 0.543768
O O2 0.112251 0.677769 0.479293
O O3 0.131482 0.824987 0.746696
O O4 0.132015 0.000000 0.500000
O O5 0.726466 0.235426 0.133838
O O6 0.786902 0.419274 0.263707
O O7 0.756081 0.500000 0.000000
O O8 0.922689 0.484178 0.751707
O O9 0.848346 0.325843 0.732789
O O10 0.916980 0.124145 0.746832
O O11 0.556911 0.696154 0.135405
O O12 0.615222 0.500000 0.000000
O O13 0.964458 0.500000 0.500000
O O14 0.000000 0.592955 0.750000
O O15 0.674210 0.000000 0.000000
#
# Coordination Sequence:
#
# PCOD8160178 Si02
#       6
#     8   8   8   8   8   8
#     4  10  24  45  74 102 146 194 250 305 376 452
#     4  12  25  45  65 101 146 194 255 307 365 449
#     4  11  25  50  75 110 149 198 250 315 381 462
#     4  11  25  46  76 109 147 188 243 307 382 454
#     4  12  28  50  78 113 150 191 251 317 392 471
#     4  12  27  42  69 104 148 199 251 311 381 434
#
# _framework density 22.823962999999999
#
# number of rings (size 3 to 8) (size 9 to 14) (size 15 to 20)
#    0.000    0.667    3.333    3.000    9.333    1.333 
#    0.000    0.000    0.000    0.000    0.000    0.000 
#    0.000    0.000    0.000    0.000    0.000    0.000 
#
# Total GULP energy -297530.383998 kJ/mol
# GULP energy per Si atom -12397.099333 kJ/mol
# Density = 2.277201 g / cm^3
# Si number density = 22.823963 Si / 1000 Ang^3
#
#
#
# Elastic Constant Matrix: (Units=GPa)
#
#
# Indices 1 2 3 4 5 6 
#
# 1 117.7064 45.2225 56.0955 0.0000 0.0000 0.0000
# 2 45.2225 107.9943 41.8357 0.0000 0.0000 0.0000
# 3 56.0955 41.8357 154.1709 0.0000 0.0000 0.0000
# 4 0.0000 0.0000 0.0000 10.6970 0.0000 0.0000
# 5 0.0000 0.0000 0.0000 0.0000 36.0124 0.0000
# 6 0.0000 0.0000 0.0000 0.0000 0.0000 32.0715
#
#
#
# Elastic Compliance Matrix: (Units=1/GPa)
#
#
# Indices 1 2 3 4 5 6 
#
# 1 0.011366 -0.003528 -0.003178 0.000000 0.000000 0.000000
# 2 -0.003528 0.011443 -0.001821 0.000000 0.000000 0.000000
# 3 -0.003178 -0.001821 0.008137 0.000000 0.000000 0.000000
# 4 0.000000 0.000000 0.000000 0.093484 0.000000 0.000000
# 5 0.000000 0.000000 0.000000 0.000000 0.027768 0.000000
# 6 0.000000 0.000000 0.000000 0.000000 0.000000 0.031180
#
#
# Mechanical properties :
#
#
# Convention : Reuss Voigt Hill
#
# Bulk Modulus (GPa) = 71.99344 74.01990 73.00667
# Shear Modulus (GPa) = 24.38268 31.53737 27.96002
#
# Velocity S-wave (km/s) = 3.27202 3.72124 3.50384
# Velocity P-wave (km/s) = 6.77394 7.13896 6.95884
#
# Compressibility (1/GPa) = 0.01389015
#
# Stress axis : x y z
#
# Youngs Moduli (GPa) = 87.98283 87.39136 122.89707
#
# Poissons Ratio (x) = 0.30834 0.39057
# Poissons Ratio (y) = 0.31043 0.22384
# Poissons Ratio (z) = 0.27961 0.15917
#
# Static dielectric constant tensor:
#      x y z
#    x 4.000290 0.000000 0.000000 
#    y 0.000000 4.359980 0.000000 
#    z 0.000000 0.000000 4.737570 
# 
# 
# High freq. dielectric constant tensor:
#      x y z
#    x 1.874860 0.000000 0.000000 
#    y 0.000000 1.923200 0.000000 
#    z 0.000000 0.000000 1.922250 
# 
# From -- ./inp_files/11453.got.cif
#   From: 2010.03.12/outbox.cif.g09.slc.cpg/sg20_6_cif.got.tgz:11453.got - 2010.04.14 01:38:04.
