data_PCOD8160810
_publ_section_title
;
Structure prediction by ZEFSAII (Michael W. Deem and Ramdas Pophale) SiO2 
 PCOD8160810
Probable space group: C 2 2 2
;
_chemical_formula_sum "Si O2"
_cell_formula_units_Z 38
_cell_length_a 14.907941
_cell_length_b 11.613481
_cell_length_c 12.534326
_cell_angle_alpha 90.000000
_cell_angle_beta 90.000000
_cell_angle_gamma 90.000000
_cell_volume 2170.106586
_symmetry_space_group_name_H-M "C 2 2 2"
_symmetry_group_IT_number 21
_symmetry_cell_setting 'orthorhombic'
loop_
_space_group_symop_operation_xyz
x,y,z
-x,-y,z
x,-y,-z
-x,y,-z
1/2+x,1/2+y,z
1/2-x,1/2-y,z
1/2+x,1/2-y,-z
1/2-x,1/2+y,-z
loop_
_atom_site_type_symbol
_atom_site_label
_atom_site_fract_x
_atom_site_fract_y
_atom_site_fract_z
Si Si1 0.915235 0.377979 0.296230
Si Si2 0.000000 0.291099 0.500000
Si Si3 0.750000 0.750000 0.284312
Si Si4 0.250000 0.750000 0.352091
Si Si5 0.000000 0.500000 0.000000
Si Si6 0.588005 0.119262 0.810261
Si Si7 0.654771 0.625828 0.465626
O O1 0.825215 0.305236 0.275609
O O2 0.897324 0.509942 0.267001
O O3 0.944883 0.371795 0.419697
O O4 0.994725 0.320745 0.226018
O O5 0.071216 0.209049 0.440708
O O6 0.672033 0.795453 0.204347
O O7 0.717139 0.643556 0.360085
O O8 0.290735 0.653259 0.427726
O O9 0.930481 0.577642 0.068813
O O10 0.620546 0.500000 0.500000
#
# Coordination Sequence:
#
# PCOD8160810 Si02
#       7
#     8   4   4   4   2   8   8
#     4   9  18  32  50  75 104 147 175 224 251 325
#     4  10  17  31  46  74 110 154 190 200 260 304
#     4  11  20  34  53  84 104 148 183 226 265 334
#     4   9  18  30  45  70 106 144 185 208 249 304
#     4   8  20  40  56  78  96 136 172 252 300 318
#     4  10  20  36  58  78 106 129 184 230 289 322
#     4  10  19  29  43  72 116 149 183 211 250 309
#
# _framework density 17.510660000000001
#
# number of rings (size 3 to 8) (size 9 to 14) (size 15 to 20)
#    0.000    2.526    2.105    1.579    0.000    1.684 
#    0.000    4.211    0.000    0.000    0.000    0.000 
#    0.000    0.000    0.000    0.000    0.000    0.000 
#
# Total GULP energy -235382.581835 kJ/mol
# GULP energy per Si atom -12388.556939 kJ/mol
# Density = 1.747081 g / cm^3
# Si number density = 17.510660 Si / 1000 Ang^3
#
#
#
# Elastic Constant Matrix: (Units=GPa)
#
#
# Indices 1 2 3 4 5 6 
#
# 1 133.2987 40.4870 38.5718 0.0000 0.0000 0.0000
# 2 40.4870 70.4526 39.4749 0.0000 0.0000 0.0000
# 3 38.5718 39.4749 72.6166 0.0000 0.0000 0.0000
# 4 0.0000 0.0000 0.0000 16.2972 0.0000 0.0000
# 5 0.0000 0.0000 0.0000 0.0000 22.6278 0.0000
# 6 0.0000 0.0000 0.0000 0.0000 0.0000 30.6041
#
#
#
# Elastic Compliance Matrix: (Units=1/GPa)
#
#
# Indices 1 2 3 4 5 6 
#
# 1 0.009521 -0.003793 -0.002995 0.000000 0.000000 0.000000
# 2 -0.003793 0.021922 -0.009902 0.000000 0.000000 0.000000
# 3 -0.002995 -0.009902 0.020745 0.000000 0.000000 0.000000
# 4 0.000000 0.000000 0.000000 0.061360 0.000000 0.000000
# 5 0.000000 0.000000 0.000000 0.000000 0.044193 0.000000
# 6 0.000000 0.000000 0.000000 0.000000 0.000000 0.032675
#
#
# Mechanical properties :
#
#
# Convention : Reuss Voigt Hill
#
# Bulk Modulus (GPa) = 53.17273 57.04836 55.11054
# Shear Modulus (GPa) = 21.73287 24.42808 23.08048
#
# Velocity S-wave (km/s) = 3.52678 3.73908 3.63448
# Velocity P-wave (km/s) = 6.85683 7.16176 7.01095
#
# Compressibility (1/GPa) = 0.01880663
#
# Stress axis : x y z
#
# Youngs Moduli (GPa) = 105.03408 45.61649 48.20485
#
# Poissons Ratio (x) = 0.17303 0.14438
# Poissons Ratio (y) = 0.39840 0.47733
# Poissons Ratio (z) = 0.31460 0.45170
#
# Static dielectric constant tensor:
#      x y z
#    x 3.321830 0.000000 0.000000 
#    y 0.000000 3.098030 0.000000 
#    z 0.000000 0.000000 2.972480 
# 
# 
# High freq. dielectric constant tensor:
#      x y z
#    x 1.694310 0.000000 0.000000 
#    y 0.000000 1.655990 0.000000 
#    z 0.000000 0.000000 1.640520 
# 
# From -- ./inp_files/25039.got.cif
#   From: 2010.03.12/outbox.cif.g09.slc.cpg/sg21_13_cif.got.tgz:25039.got - 2010.04.14 01:59:26.
