data_PCOD8160259
_publ_section_title
;
Structure prediction by ZEFSAII (Michael W. Deem and Ramdas Pophale) SiO2 
 PCOD8160259
Probable space group: C 2 2 21
;
_chemical_formula_sum "Si O2"
_cell_formula_units_Z 60
_cell_length_a 24.473218
_cell_length_b 5.816649
_cell_length_c 19.545692
_cell_angle_alpha 90.000000
_cell_angle_beta 90.000000
_cell_angle_gamma 90.000000
_cell_volume 2782.370674
_symmetry_space_group_name_H-M "C 2 2 21"
_symmetry_group_IT_number 20
_symmetry_cell_setting 'orthorhombic'
loop_
_space_group_symop_operation_xyz
x,y,z
-x,-y,1/2+z
x,-y,-z
-x,y,1/2-z
1/2+x,1/2+y,z
1/2-x,1/2-y,1/2+z
1/2+x,1/2-y,-z
1/2-x,1/2+y,1/2-z
loop_
_atom_site_type_symbol
_atom_site_label
_atom_site_fract_x
_atom_site_fract_y
_atom_site_fract_z
Si Si1 0.227981 0.300500 0.157783
Si Si2 0.241964 0.163101 0.436301
Si Si3 0.500000 0.089648 0.250000
Si Si4 0.822547 0.562043 0.225151
Si Si5 0.580094 0.797740 0.322864
Si Si6 0.123005 0.254381 0.464011
Si Si7 0.900127 0.096148 0.712884
Si Si8 0.156307 0.004607 0.924128
O O1 0.264743 0.513480 0.132994
O O2 0.189534 0.361332 0.221140
O O3 0.268782 0.097828 0.179700
O O4 0.188128 0.228743 0.095671
O O5 0.186028 0.306669 0.443669
O O6 0.296267 0.307961 0.426247
O O7 0.250618 0.000000 0.500000
O O8 0.548257 0.235093 0.215895
O O9 0.523174 0.929712 0.310889
O O10 0.871324 0.483148 0.176843
O O11 0.842686 0.792969 0.263263
O O12 0.582869 0.700670 0.399671
O O13 0.586807 0.616374 0.261792
O O14 0.104167 0.500000 0.500000
O O15 0.119973 0.000000 0.500000
O O16 0.891160 0.040148 0.632476
O O17 0.129099 0.000000 0.000000
#
# Coordination Sequence:
#
# PCOD8160259 Si02
#       8
#     8   8   4   8   8   8   8   8
#     4  12  23  37  56  98 141 185 230 276 328 404
#     4  11  23  38  59  93 144 199 231 264 329 411
#     4  10  26  46  82  94 128 162 244 306 380 432
#     4  11  24  35  62  96 136 179 236 283 330 409
#     4  11  24  46  72  99 131 179 232 305 362 430
#     4  11  27  44  69 105 150 195 240 286 352 430
#     4  11  23  45  70  99 127 178 233 297 363 425
#     4  12  23  39  63  96 144 186 229 275 345 422
#
# _framework density 21.564344999999999
#
# number of rings (size 3 to 8) (size 9 to 14) (size 15 to 20)
#    0.000    0.800    4.000    3.200   11.200    0.000 
#    0.000    0.000    5.867    0.000    0.000    0.000 
#    0.000    0.000    0.000    0.000    0.000    0.000 
#
# Total GULP energy -371736.736968 kJ/mol
# GULP energy per Si atom -12391.224566 kJ/mol
# Density = 2.151526 g / cm^3
# Si number density = 21.564345 Si / 1000 Ang^3
#
#
#
# Elastic Constant Matrix: (Units=GPa)
#
#
# Indices 1 2 3 4 5 6 
#
# 1 93.5966 30.4088 47.9188 0.0000 0.0000 0.0000
# 2 30.4088 85.4953 35.7695 0.0000 0.0000 0.0000
# 3 47.9188 35.7695 137.3551 0.0000 0.0000 0.0000
# 4 0.0000 0.0000 0.0000 35.6595 0.0000 0.0000
# 5 0.0000 0.0000 0.0000 0.0000 19.2799 0.0000
# 6 0.0000 0.0000 0.0000 0.0000 0.0000 10.3921
#
#
#
# Elastic Compliance Matrix: (Units=1/GPa)
#
#
# Indices 1 2 3 4 5 6 
#
# 1 0.013763 -0.003239 -0.003958 0.000000 0.000000 0.000000
# 2 -0.003239 0.013889 -0.002487 0.000000 0.000000 0.000000
# 3 -0.003958 -0.002487 0.009309 0.000000 0.000000 0.000000
# 4 0.000000 0.000000 0.000000 0.028043 0.000000 0.000000
# 5 0.000000 0.000000 0.000000 0.000000 0.051868 0.000000
# 6 0.000000 0.000000 0.000000 0.000000 0.000000 0.096227
#
#
# Mechanical properties :
#
#
# Convention : Reuss Voigt Hill
#
# Bulk Modulus (GPa) = 56.84146 60.51568 58.67857
# Shear Modulus (GPa) = 20.97925 26.55628 23.76777
#
# Velocity S-wave (km/s) = 3.12247 3.51307 3.32351
# Velocity P-wave (km/s) = 6.27821 6.67677 6.48056
#
# Compressibility (1/GPa) = 0.01759279
#
# Stress axis : x y z
#
# Youngs Moduli (GPa) = 72.65920 71.99868 107.42525
#
# Poissons Ratio (x) = 0.23322 0.42518
# Poissons Ratio (y) = 0.23536 0.26715
# Poissons Ratio (z) = 0.28758 0.17905
#
# Static dielectric constant tensor:
#      x y z
#    x 3.729310 0.000000 0.000000 
#    y 0.000000 4.065230 0.000000 
#    z 0.000000 0.000000 4.477890 
# 
# 
# High freq. dielectric constant tensor:
#      x y z
#    x 1.820190 0.000000 0.000000 
#    y 0.000000 1.858650 0.000000 
#    z 0.000000 0.000000 1.852090 
# 
# From -- ./inp_files/25692.got.cif
#   From: 2010.03.12/outbox.cif.g09.slc.cpg/sg20_13_cif.got.tgz:25692.got - 2010.04.14 01:38:04.
