data_PCOD8160983
_publ_section_title
;
Structure prediction by ZEFSAII (Michael W. Deem and Ramdas Pophale) SiO2 
 PCOD8160983
Probable space group: C 2 2 2
;
_chemical_formula_sum "Si O2"
_cell_formula_units_Z 38
_cell_length_a 5.303855
_cell_length_b 14.348845
_cell_length_c 22.193839
_cell_angle_alpha 90.000000
_cell_angle_beta 90.000000
_cell_angle_gamma 90.000000
_cell_volume 1689.044213
_symmetry_space_group_name_H-M "C 2 2 2"
_symmetry_group_IT_number 21
_symmetry_cell_setting 'orthorhombic'
loop_
_space_group_symop_operation_xyz
x,y,z
-x,-y,z
x,-y,-z
-x,y,-z
1/2+x,1/2+y,z
1/2-x,1/2-y,z
1/2+x,1/2-y,-z
1/2-x,1/2+y,-z
loop_
_atom_site_type_symbol
_atom_site_label
_atom_site_fract_x
_atom_site_fract_y
_atom_site_fract_z
Si Si1 0.500000 0.000000 0.000000
Si Si2 0.651918 0.350719 0.940245
Si Si3 0.000000 0.689287 0.500000
Si Si4 0.491275 0.393007 0.813158
Si Si5 0.499849 0.188307 0.370375
Si Si6 0.492863 0.107009 0.244516
O O1 0.348431 0.933192 0.954409
O O2 0.750000 0.250000 0.919963
O O3 0.477347 0.384666 0.885492
O O4 0.500000 0.332071 0.000000
O O5 0.250000 0.750000 0.500372
O O6 0.002049 0.633938 0.435818
O O7 0.500000 0.500000 0.792923
O O8 0.242334 0.344911 0.784465
O O9 0.744120 0.345502 0.785148
O O10 0.750000 0.250000 0.363811
O O11 0.494118 0.114063 0.316790
O O12 0.250000 0.250000 0.365252
O O13 0.500000 0.000000 0.225386
#
# Coordination Sequence:
#
# PCOD8160983 Si02
#       6
#     2   8   4   8   8   8
#     4  12  26  48  76  92 144 172 210 286 354 382
#     4  12  27  46  71 102 130 174 225 276 336 412
#     4   8  16  30  51  80 113 156 198 252 308 366
#     4  10  23  41  66  87 125 168 206 257 324 383
#     4  10  19  34  57  84 118 156 207 255 308 370
#     4  10  22  39  60  88 122 164 200 253 317 377
#
# _framework density 22.497931999999999
#
# number of rings (size 3 to 8) (size 9 to 14) (size 15 to 20)
#    0.000    1.684    1.053    2.842    7.368    2.526 
#    0.000    0.526    0.000    0.000    0.000   13.263 
#    0.000    0.000    0.000    0.000    0.000    0.000 
#
# Total GULP energy -235393.789215 kJ/mol
# GULP energy per Si atom -12389.146801 kJ/mol
# Density = 2.244673 g / cm^3
# Si number density = 22.497932 Si / 1000 Ang^3
#
#
#
# Elastic Constant Matrix: (Units=GPa)
#
#
# Indices 1 2 3 4 5 6 
#
# 1 181.8167 13.6120 56.6560 0.0000 0.0000 0.0000
# 2 13.6120 59.3147 1.6763 0.0000 0.0000 0.0000
# 3 56.6560 1.6763 192.8452 0.0000 0.0000 0.0000
# 4 0.0000 0.0000 0.0000 30.8118 0.0000 0.0000
# 5 0.0000 0.0000 0.0000 0.0000 40.3510 0.0000
# 6 0.0000 0.0000 0.0000 0.0000 0.0000 7.6487
#
#
#
# Elastic Compliance Matrix: (Units=1/GPa)
#
#
# Indices 1 2 3 4 5 6 
#
# 1 0.006163 -0.001363 -0.001799 0.000000 0.000000 0.000000
# 2 -0.001363 0.017165 0.000251 0.000000 0.000000 0.000000
# 3 -0.001799 0.000251 0.005712 0.000000 0.000000 0.000000
# 4 0.000000 0.000000 0.000000 0.032455 0.000000 0.000000
# 5 0.000000 0.000000 0.000000 0.000000 0.024783 0.000000
# 6 0.000000 0.000000 0.000000 0.000000 0.000000 0.130741
#
#
# Mechanical properties :
#
#
# Convention : Reuss Voigt Hill
#
# Bulk Modulus (GPa) = 43.07018 64.20724 53.63871
# Shear Modulus (GPa) = 21.68454 39.89779 30.79116
#
# Velocity S-wave (km/s) = 3.10795 4.21574 3.70350
# Velocity P-wave (km/s) = 5.66258 7.23172 6.49471
#
# Compressibility (1/GPa) = 0.02321792
#
# Stress axis : x y z
#
# Youngs Moduli (GPa) = 162.26913 58.25806 175.07773
#
# Poissons Ratio (x) = 0.07943 0.31491
# Poissons Ratio (y) = 0.22124 -0.04401
# Poissons Ratio (z) = 0.29187 -0.01464
#
# Static dielectric constant tensor:
#      x y z
#    x 4.499140 0.000000 0.000000 
#    y 0.000000 3.516080 0.000000 
#    z 0.000000 0.000000 4.469210 
# 
# 
# High freq. dielectric constant tensor:
#      x y z
#    x 1.906920 0.000000 0.000000 
#    y 0.000000 1.845610 0.000000 
#    z 0.000000 0.000000 1.909030 
# 
# From -- ./inp_files/34710.got.cif
#   From: 2010.03.12/outbox.cif.g09.slc.cpg/sg21_18_cif.got.tgz:34710.got - 2010.04.14 01:59:26.
