data_PCOD8160456
_publ_section_title
;
Structure prediction by ZEFSAII (Michael W. Deem and Ramdas Pophale) SiO2 
 PCOD8160456
Probable space group: C 2 2 21
;
_chemical_formula_sum "Si O2"
_cell_formula_units_Z 64
_cell_length_a 15.269591
_cell_length_b 11.544578
_cell_length_c 18.311138
_cell_angle_alpha 90.000000
_cell_angle_beta 90.000000
_cell_angle_gamma 90.000000
_cell_volume 3227.905431
_symmetry_space_group_name_H-M "C 2 2 21"
_symmetry_group_IT_number 20
_symmetry_cell_setting 'orthorhombic'
loop_
_space_group_symop_operation_xyz
x,y,z
-x,-y,1/2+z
x,-y,-z
-x,y,1/2-z
1/2+x,1/2+y,z
1/2-x,1/2-y,1/2+z
1/2+x,1/2-y,-z
1/2-x,1/2+y,1/2-z
loop_
_atom_site_type_symbol
_atom_site_label
_atom_site_fract_x
_atom_site_fract_y
_atom_site_fract_z
Si Si1 0.311627 0.205960 0.664907
Si Si2 0.461103 0.899529 0.827338
Si Si3 0.870366 0.206680 0.908782
Si Si4 0.873105 0.041720 0.302057
Si Si5 0.438126 0.473134 0.857871
Si Si6 0.603629 0.767250 0.431847
Si Si7 0.440928 0.068276 0.571599
Si Si8 0.306195 0.076407 0.816571
O O1 0.212285 0.227802 0.642881
O O2 0.361419 0.324857 0.678398
O O3 0.357888 0.140302 0.598371
O O4 0.318248 0.131905 0.737885
O O5 0.500000 0.860599 0.750000
O O6 0.448036 0.784618 0.875321
O O7 0.532947 0.980778 0.864412
O O8 0.369140 0.965994 0.820698
O O9 0.900671 0.073434 0.909693
O O10 0.848293 0.244152 0.991375
O O11 0.880287 0.029295 0.215152
O O12 0.960915 0.998045 0.341126
O O13 0.792954 0.964232 0.330531
O O14 0.430724 0.351100 0.897711
O O15 0.521560 0.849152 0.447861
O O16 0.672537 0.829265 0.378593
O O17 0.410851 0.000000 0.500000
#
# Coordination Sequence:
#
# PCOD8160456 Si02
#       8
#     8   8   8   8   8   8   8   8
#     4  12  23  43  69  98 134 173 223 278 334 400
#     4  11  23  39  68  98 128 171 220 272 331 385
#     4  12  26  43  63 101 142 172 212 284 345 392
#     4  11  23  43  66 103 127 175 227 276 328 400
#     4  11  24  42  70  93 137 175 221 271 340 405
#     4  11  24  44  68  95 132 182 219 273 342 404
#     4  11  23  43  68  97 128 170 230 275 322 401
#     4  11  23  42  70  99 131 170 229 279 324 403
#
# _framework density 19.827097999999999
#
# number of rings (size 3 to 8) (size 9 to 14) (size 15 to 20)
#    0.000    0.750    7.500    0.375    1.750    1.000 
#    2.250    2.500    0.000    0.000    0.000    0.000 
#    0.000    0.000    0.000    0.000    0.000    0.000 
#
# Total GULP energy -396993.843553 kJ/mol
# GULP energy per Si atom -12406.057611 kJ/mol
# Density = 1.978197 g / cm^3
# Si number density = 19.827098 Si / 1000 Ang^3
#
#
#
# Elastic Constant Matrix: (Units=GPa)
#
#
# Indices 1 2 3 4 5 6 
#
# 1 67.8492 31.8101 31.8156 0.0000 0.0000 0.0000
# 2 31.8101 97.7216 41.1594 0.0000 0.0000 0.0000
# 3 31.8156 41.1594 119.0465 0.0000 0.0000 0.0000
# 4 0.0000 0.0000 0.0000 35.0283 0.0000 0.0000
# 5 0.0000 0.0000 0.0000 0.0000 23.4556 0.0000
# 6 0.0000 0.0000 0.0000 0.0000 0.0000 26.2127
#
#
#
# Elastic Compliance Matrix: (Units=1/GPa)
#
#
# Indices 1 2 3 4 5 6 
#
# 1 0.018464 -0.004602 -0.003343 0.000000 0.000000 0.000000
# 2 -0.004602 0.013124 -0.003308 0.000000 0.000000 0.000000
# 3 -0.003343 -0.003308 0.010437 0.000000 0.000000 0.000000
# 4 0.000000 0.000000 0.000000 0.028548 0.000000 0.000000
# 5 0.000000 0.000000 0.000000 0.000000 0.042634 0.000000
# 6 0.000000 0.000000 0.000000 0.000000 0.000000 0.038149
#
#
# Mechanical properties :
#
#
# Convention : Reuss Voigt Hill
#
# Bulk Modulus (GPa) = 51.23189 54.90971 53.07080
# Shear Modulus (GPa) = 27.72079 28.92814 28.32447
#
# Velocity S-wave (km/s) = 3.74321 3.82386 3.78375
# Velocity P-wave (km/s) = 6.67664 6.87388 6.77598
#
# Compressibility (1/GPa) = 0.01951909
#
# Stress axis : x y z
#
# Youngs Moduli (GPa) = 54.15948 76.19389 95.81073
#
# Poissons Ratio (x) = 0.35065 0.32033
# Poissons Ratio (y) = 0.24925 0.31692
# Poissons Ratio (z) = 0.18108 0.25203
#
# Static dielectric constant tensor:
#      x y z
#    x 3.487290 0.000000 0.000000 
#    y 0.000000 3.752930 0.000000 
#    z 0.000000 0.000000 3.607360 
# 
# 
# High freq. dielectric constant tensor:
#      x y z
#    x 1.768960 0.000000 0.000000 
#    y 0.000000 1.787000 0.000000 
#    z 0.000000 0.000000 1.777800 
# 
# From -- ./inp_files/24982.got.cif
#   From: 2010.03.12/outbox.cif.g09.slc.cpg/sg20_13_cif.got.tgz:24982.got - 2010.04.14 01:38:04.
