data_PCOD8160925
_publ_section_title
;
Structure prediction by ZEFSAII (Michael W. Deem and Ramdas Pophale) SiO2 
 PCOD8160925
Probable space group: C 2 2 2
;
_chemical_formula_sum "Si O2"
_cell_formula_units_Z 32
_cell_length_a 11.774693
_cell_length_b 28.294308
_cell_length_c 5.050121
_cell_angle_alpha 90.000000
_cell_angle_beta 90.000000
_cell_angle_gamma 90.000000
_cell_volume 1682.482103
_symmetry_space_group_name_H-M "C 2 2 2"
_symmetry_group_IT_number 21
_symmetry_cell_setting 'orthorhombic'
loop_
_space_group_symop_operation_xyz
x,y,z
-x,-y,z
x,-y,-z
-x,y,-z
1/2+x,1/2+y,z
1/2-x,1/2-y,z
1/2+x,1/2-y,-z
1/2-x,1/2+y,-z
loop_
_atom_site_type_symbol
_atom_site_label
_atom_site_fract_x
_atom_site_fract_y
_atom_site_fract_z
Si Si1 0.120582 0.130253 0.867349
Si Si2 0.424615 0.766238 0.746293
Si Si3 0.713149 0.675961 0.334322
Si Si4 0.874354 0.978263 0.750998
O O1 0.158797 0.163247 0.620492
O O2 0.118802 0.077922 0.749390
O O3 0.206714 0.133916 0.116011
O O4 0.000000 0.144826 0.000000
O O5 0.500000 0.752521 0.500000
O O6 0.351940 0.719477 0.807082
O O7 0.345146 0.809699 0.647533
O O8 0.500000 0.780724 0.000000
O O9 0.808191 0.000000 0.500000
O O10 0.000000 0.000000 0.751146
O O11 0.807126 0.000000 0.000000
#
# Coordination Sequence:
#
# PCOD8160925 Si02
#       4
#     8   8   8   8
#     4  12  21  34  54  81 121 151 186 227 272 344
#     4  11  22  41  57  75 115 151 187 243 299 318
#     4  11  24  35  56  87 106 148 206 231 272 357
#     4  10  19  32  47  73 111 161 172 203 281 343
#
# _framework density 19.019517
#
# number of rings (size 3 to 8) (size 9 to 14) (size 15 to 20)
#    0.000    1.000    2.500    7.500    3.500    4.000 
#    0.000    0.000    0.000    0.000    0.000    0.000 
#    0.000   70.000    0.000    0.000    0.000    0.000 
#
# Total GULP energy -198221.545507 kJ/mol
# GULP energy per Si atom -12388.846594 kJ/mol
# Density = 1.897623 g / cm^3
# Si number density = 19.019517 Si / 1000 Ang^3
#
#
#
# Elastic Constant Matrix: (Units=GPa)
#
#
# Indices 1 2 3 4 5 6 
#
# 1 60.6402 29.7368 30.9172 0.0000 0.0000 0.0000
# 2 29.7368 74.8152 32.3743 0.0000 0.0000 0.0000
# 3 30.9172 32.3743 168.4354 0.0000 0.0000 0.0000
# 4 0.0000 0.0000 0.0000 56.9348 0.0000 0.0000
# 5 0.0000 0.0000 0.0000 0.0000 23.3902 0.0000
# 6 0.0000 0.0000 0.0000 0.0000 0.0000 29.0563
#
#
#
# Elastic Compliance Matrix: (Units=1/GPa)
#
#
# Indices 1 2 3 4 5 6 
#
# 1 0.021408 -0.007426 -0.002502 0.000000 0.000000 0.000000
# 2 -0.007426 0.017155 -0.001934 0.000000 0.000000 0.000000
# 3 -0.002502 -0.001934 0.006768 0.000000 0.000000 0.000000
# 4 0.000000 0.000000 0.000000 0.017564 0.000000 0.000000
# 5 0.000000 0.000000 0.000000 0.000000 0.042753 0.000000
# 6 0.000000 0.000000 0.000000 0.000000 0.000000 0.034416
#
#
# Mechanical properties :
#
#
# Convention : Reuss Voigt Hill
#
# Bulk Modulus (GPa) = 46.28382 54.43859 50.36121
# Shear Modulus (GPa) = 29.24123 35.93374 32.58749
#
# Velocity S-wave (km/s) = 3.92526 4.35133 4.14378
# Velocity P-wave (km/s) = 6.70308 7.34371 7.03070
#
# Compressibility (1/GPa) = 0.02160582
#
# Stress axis : x y z
#
# Youngs Moduli (GPa) = 46.71110 58.29222 147.75324
#
# Poissons Ratio (x) = 0.43290 0.36971
# Poissons Ratio (y) = 0.34689 0.28577
# Poissons Ratio (z) = 0.11688 0.11275
#
# Static dielectric constant tensor:
#      x y z
#    x 3.094660 0.000000 0.000000 
#    y 0.000000 3.401990 0.000000 
#    z 0.000000 0.000000 2.439420 
# 
# 
# High freq. dielectric constant tensor:
#      x y z
#    x 1.684080 0.000000 0.000000 
#    y 0.000000 1.731580 0.000000 
#    z 0.000000 0.000000 1.775240 
# 
# From -- ./inp_files/2785.got.cif
#   From: 2010.03.12/outbox.cif.g09.slc.cpg/sg21_2_cif.got.tgz:2785.got - 2010.04.14 01:59:26.
