data_PCOD8160870
_publ_section_title
;
Structure prediction by ZEFSAII (Michael W. Deem and Ramdas Pophale) SiO2 
 PCOD8160870
Probable space group: C 2 2 2
;
_chemical_formula_sum "Si O2"
_cell_formula_units_Z 58
_cell_length_a 32.040042
_cell_length_b 13.751180
_cell_length_c 5.283574
_cell_angle_alpha 90.000000
_cell_angle_beta 90.000000
_cell_angle_gamma 90.000000
_cell_volume 2327.881334
_symmetry_space_group_name_H-M "C 2 2 2"
_symmetry_group_IT_number 21
_symmetry_cell_setting 'orthorhombic'
loop_
_space_group_symop_operation_xyz
x,y,z
-x,-y,z
x,-y,-z
-x,y,-z
1/2+x,1/2+y,z
1/2-x,1/2-y,z
1/2+x,1/2-y,-z
1/2-x,1/2+y,-z
loop_
_atom_site_type_symbol
_atom_site_label
_atom_site_fract_x
_atom_site_fract_y
_atom_site_fract_z
Si Si1 0.525483 0.372562 0.238981
Si Si2 0.130617 0.384244 0.528918
Si Si3 0.241050 0.938291 0.759430
Si Si4 0.152427 0.883433 0.739509
Si Si5 0.461141 0.157218 0.681464
Si Si6 0.881880 0.098776 0.244166
Si Si7 0.000000 0.500000 0.000000
Si Si8 0.328134 0.888076 0.963486
O O1 0.500000 0.388862 0.500000
O O2 0.536703 0.260572 0.179645
O O3 0.569265 0.429018 0.248005
O O4 0.500000 0.413992 0.000000
O O5 0.135731 0.500000 0.500000
O O6 0.082802 0.352660 0.545090
O O7 0.145994 0.336791 0.263212
O O8 0.159026 0.342721 0.763291
O O9 0.202198 0.865943 0.707249
O O10 0.280295 0.877908 0.869108
O O11 0.252099 0.000000 0.500000
O O12 0.225507 0.000000 0.000000
O O13 0.129412 0.836997 0.493613
O O14 0.143792 0.999239 0.742914
O O15 0.132746 0.839491 0.997285
O O16 0.500000 0.149385 0.500000
O O17 0.465999 0.066390 0.863847
O O18 0.340150 0.000000 0.000000
#
# Coordination Sequence:
#
# PCOD8160870 Si02
#       8
#     8   8   8   8   8   8   2   8
#     4  11  24  43  59  82 115 155 200 240 293 351
#     4  10  20  34  50  78 113 140 180 228 285 349
#     4  11  16  29  49  80 119 145 184 232 281 337
#     4  10  18  33  55  88 115 147 195 241 286 329
#     4  11  25  39  61  85 110 152 197 245 297 348
#     4  10  19  35  56  83 118 149 192 249 279 343
#     4  12  22  40  60  82 108 134 194 248 286 336
#     4   9  19  29  47  77 115 147 171 222 294 332
#
# _framework density 24.915358000000001
#
# number of rings (size 3 to 8) (size 9 to 14) (size 15 to 20)
#    0.000    1.655    3.448    3.931    4.828    0.000 
#    0.000    8.276    0.000    0.000    0.000    5.793 
#    0.000    0.000    0.000    0.000    0.000    0.000 
#
# Total GULP energy -359311.252904 kJ/mol
# GULP energy per Si atom -12390.043204 kJ/mol
# Density = 2.485865 g / cm^3
# Si number density = 24.915358 Si / 1000 Ang^3
#
#
#
# Elastic Constant Matrix: (Units=GPa)
#
#
# Indices 1 2 3 4 5 6 
#
# 1 223.1867 -0.2587 92.4007 0.0000 0.0000 0.0000
# 2 -0.2587 24.0213 8.4748 0.0000 0.0000 0.0000
# 3 92.4007 8.4748 222.3381 0.0000 0.0000 0.0000
# 4 0.0000 0.0000 0.0000 52.7096 0.0000 0.0000
# 5 0.0000 0.0000 0.0000 0.0000 92.9289 0.0000
# 6 0.0000 0.0000 0.0000 0.0000 0.0000 16.2529
#
#
#
# Elastic Compliance Matrix: (Units=1/GPa)
#
#
# Indices 1 2 3 4 5 6 
#
# 1 0.005429 0.000866 -0.002289 0.000000 0.000000 0.000000
# 2 0.000866 0.042335 -0.001974 0.000000 0.000000 0.000000
# 3 -0.002289 -0.001974 0.005524 0.000000 0.000000 0.000000
# 4 0.000000 0.000000 0.000000 0.018972 0.000000 0.000000
# 5 0.000000 0.000000 0.000000 0.000000 0.010761 0.000000
# 6 0.000000 0.000000 0.000000 0.000000 0.000000 0.061528
#
#
# Mechanical properties :
#
#
# Convention : Reuss Voigt Hill
#
# Bulk Modulus (GPa) = 21.50751 74.53108 48.01930
# Shear Modulus (GPa) = 29.96853 56.97357 43.47105
#
# Velocity S-wave (km/s) = 3.47192 4.78712 4.18155
# Velocity P-wave (km/s) = 4.97225 7.78036 6.52906
#
# Compressibility (1/GPa) = 0.04649538
#
# Stress axis : x y z
#
# Youngs Moduli (GPa) = 184.18316 23.62087 181.01764
#
# Poissons Ratio (x) = -0.02046 0.41442
# Poissons Ratio (y) = -0.15953 0.35727
# Poissons Ratio (z) = 0.42167 0.04662
#
# Static dielectric constant tensor:
#      x y z
#    x 4.364320 0.000000 0.000000 
#    y 0.000000 -1.485640 0.000000 
#    z 0.000000 0.000000 5.635630 
# 
# 
# High freq. dielectric constant tensor:
#      x y z
#    x 2.001560 0.000000 0.000000 
#    y 0.000000 1.958740 0.000000 
#    z 0.000000 0.000000 2.016800 
# 
# From -- ./inp_files/7475.got.cif
#   From: 2010.03.12/outbox.cif.g09.slc.cpg/sg21_4_cif.got.tgz:7475.got - 2010.04.14 01:59:26.
