data_PCOD8160594
_publ_section_title
;
Structure prediction by ZEFSAII (Michael W. Deem and Ramdas Pophale) SiO2 
 PCOD8160594
Probable space group: C 2 2 21
;
_chemical_formula_sum "Si O2"
_cell_formula_units_Z 48
_cell_length_a 5.226404
_cell_length_b 13.155180
_cell_length_c 29.976254
_cell_angle_alpha 90.000000
_cell_angle_beta 90.000000
_cell_angle_gamma 90.000000
_cell_volume 2060.995922
_symmetry_space_group_name_H-M "C 2 2 21"
_symmetry_group_IT_number 20
_symmetry_cell_setting 'orthorhombic'
loop_
_space_group_symop_operation_xyz
x,y,z
-x,-y,1/2+z
x,-y,-z
-x,y,1/2-z
1/2+x,1/2+y,z
1/2-x,1/2-y,1/2+z
1/2+x,1/2-y,-z
1/2-x,1/2+y,1/2-z
loop_
_atom_site_type_symbol
_atom_site_label
_atom_site_fract_x
_atom_site_fract_y
_atom_site_fract_z
Si Si1 0.155759 0.363442 0.409692
Si Si2 0.561865 0.676322 0.700281
Si Si3 0.958401 0.226985 0.165969
Si Si4 0.964153 0.731641 0.471732
Si Si5 0.999912 0.001859 0.362756
Si Si6 0.187564 0.485941 0.952049
O O1 0.994324 0.278185 0.382719
O O2 0.995691 0.415149 0.449255
O O3 0.406294 0.311074 0.431556
O O4 0.222552 0.453582 0.374202
O O5 0.500000 0.639311 0.750000
O O6 0.823575 0.740471 0.700956
O O7 0.631611 0.578845 0.670144
O O8 0.327471 0.744548 0.681818
O O9 0.002176 0.107198 0.162709
O O10 0.737651 0.740095 0.508169
O O11 0.973616 0.618598 0.451117
O O12 0.125129 0.014715 0.410840
O O13 0.331344 0.500000 0.000000
#
# Coordination Sequence:
#
# PCOD8160594 Si02
#       6
#     8   8   8   8   8   8
#     4  11  25  43  68 101 144 187 240 295 351 414
#     4  11  26  48  75 108 143 181 236 298 362 436
#     4  11  25  46  74 105 142 186 230 292 364 423
#     4  12  27  45  67  98 142 193 244 295 345 407
#     4  11  26  44  75 103 148 189 238 296 358 428
#     4  12  24  43  71 103 142 194 241 289 348 419
#
# _framework density 23.289712999999999
#
# number of rings (size 3 to 8) (size 9 to 14) (size 15 to 20)
#    0.000    0.667    5.000    1.500    4.667    2.000 
#    0.000    0.000    0.000    0.000    0.000    0.000 
#    0.000    0.000    0.000    0.000    0.000    0.000 
#
# Total GULP energy -297546.330202 kJ/mol
# GULP energy per Si atom -12397.763758 kJ/mol
# Density = 2.323670 g / cm^3
# Si number density = 23.289713 Si / 1000 Ang^3
#
#
#
# Elastic Constant Matrix: (Units=GPa)
#
#
# Indices 1 2 3 4 5 6 
#
# 1 66.1813 25.3137 4.0524 0.0000 0.0000 0.0000
# 2 25.3137 121.1763 13.8277 0.0000 0.0000 0.0000
# 3 4.0524 13.8277 91.3979 0.0000 0.0000 0.0000
# 4 0.0000 0.0000 0.0000 22.6868 0.0000 0.0000
# 5 0.0000 0.0000 0.0000 0.0000 35.4596 0.0000
# 6 0.0000 0.0000 0.0000 0.0000 0.0000 29.1060
#
#
#
# Elastic Compliance Matrix: (Units=1/GPa)
#
#
# Indices 1 2 3 4 5 6 
#
# 1 0.016426 -0.003407 -0.000213 0.000000 0.000000 0.000000
# 2 -0.003407 0.009104 -0.001226 0.000000 0.000000 0.000000
# 3 -0.000213 -0.001226 0.011136 0.000000 0.000000 0.000000
# 4 0.000000 0.000000 0.000000 0.044078 0.000000 0.000000
# 5 0.000000 0.000000 0.000000 0.000000 0.028201 0.000000
# 6 0.000000 0.000000 0.000000 0.000000 0.000000 0.034357
#
#
# Mechanical properties :
#
#
# Convention : Reuss Voigt Hill
#
# Bulk Modulus (GPa) = 37.07285 40.57146 38.82216
# Shear Modulus (GPa) = 30.86665 33.15460 32.01063
#
# Velocity S-wave (km/s) = 3.64446 3.77712 3.71138
# Velocity P-wave (km/s) = 5.80191 6.03989 5.92210
#
# Compressibility (1/GPa) = 0.02697391
#
# Stress axis : x y z
#
# Youngs Moduli (GPa) = 60.87822 109.84025 89.79777
#
# Poissons Ratio (x) = 0.37424 0.01911
# Poissons Ratio (y) = 0.20742 0.11012
# Poissons Ratio (z) = 0.01296 0.13470
#
# Static dielectric constant tensor:
#      x y z
#    x 3.922660 0.000000 0.000000 
#    y 0.000000 4.603450 0.000000 
#    z 0.000000 0.000000 4.194120 
# 
# 
# High freq. dielectric constant tensor:
#      x y z
#    x 1.904120 0.000000 0.000000 
#    y 0.000000 1.939430 0.000000 
#    z 0.000000 0.000000 1.920280 
# 
# From -- ./inp_files/29834.got.cif
#   From: 2010.03.12/outbox.cif.g09.slc.cpg/sg20_15_cif.got.tgz:29834.got - 2010.04.14 01:38:04.
