data_PCOD8160197
_publ_section_title
;
Structure prediction by ZEFSAII (Michael W. Deem and Ramdas Pophale) SiO2 
 PCOD8160197
Probable space group: C 2 2 21
;
_chemical_formula_sum "Si O2"
_cell_formula_units_Z 48
_cell_length_a 17.025014
_cell_length_b 22.428426
_cell_length_c 5.470657
_cell_angle_alpha 90.000000
_cell_angle_beta 90.000000
_cell_angle_gamma 90.000000
_cell_volume 2088.939010
_symmetry_space_group_name_H-M "C 2 2 21"
_symmetry_group_IT_number 20
_symmetry_cell_setting 'orthorhombic'
loop_
_space_group_symop_operation_xyz
x,y,z
-x,-y,1/2+z
x,-y,-z
-x,y,1/2-z
1/2+x,1/2+y,z
1/2-x,1/2-y,1/2+z
1/2+x,1/2-y,-z
1/2-x,1/2+y,1/2-z
loop_
_atom_site_type_symbol
_atom_site_label
_atom_site_fract_x
_atom_site_fract_y
_atom_site_fract_z
Si Si1 0.734307 0.000000 0.000000
Si Si2 0.927416 0.272439 0.419976
Si Si3 0.207001 0.096647 0.837583
Si Si4 0.500000 0.132985 0.250000
Si Si5 0.353479 0.936209 0.878848
Si Si6 0.451633 0.359547 0.493911
Si Si7 0.237866 0.283952 0.186899
O O1 0.676715 0.948475 0.896280
O O2 0.790636 0.033303 0.804683
O O3 0.940136 0.326183 0.604025
O O4 0.919854 0.207738 0.547343
O O5 0.854171 0.292178 0.253761
O O6 0.000000 0.265264 0.250000
O O7 0.126615 0.098698 0.996426
O O8 0.212102 0.155047 0.662416
O O9 0.284844 0.103743 0.003090
O O10 0.560215 0.092499 0.404744
O O11 0.359746 0.000000 0.000000
O O12 0.500000 0.377504 0.250000
O O13 0.500000 0.368926 0.750000
O O14 0.267368 0.244636 0.414609
#
# Coordination Sequence:
#
# PCOD8160197 Si02
#       7
#     4   8   8   4   8   8   8
#     4  10  24  46  78 102 140 200 254 312 368 434
#     4  11  25  41  65 102 150 186 240 290 367 437
#     4  11  25  46  76 102 149 193 255 310 376 444
#     4  12  24  42  72 100 152 190 244 300 364 446
#     4  10  25  45  69 103 140 194 251 311 369 434
#     4  11  26  44  73 108 150 190 237 305 379 442
#     4  12  28  43  73 111 149 199 247 297 369 457
#
# _framework density 22.978169999999999
#
# number of rings (size 3 to 8) (size 9 to 14) (size 15 to 20)
#    0.000    1.000    2.500    2.000   15.167    1.333 
#    0.000    0.000    5.500    0.000    0.000    0.000 
#    0.000    0.000    0.000    0.000    0.000    0.000 
#
# Total GULP energy -297382.032878 kJ/mol
# GULP energy per Si atom -12390.918037 kJ/mol
# Density = 2.292587 g / cm^3
# Si number density = 22.978170 Si / 1000 Ang^3
#
#
#
# Elastic Constant Matrix: (Units=GPa)
#
#
# Indices 1 2 3 4 5 6 
#
# 1 160.6334 41.9463 37.7587 0.0000 0.0000 0.0000
# 2 41.9463 71.0949 23.2958 0.0000 0.0000 0.0000
# 3 37.7587 23.2958 94.8970 0.0000 0.0000 0.0000
# 4 0.0000 0.0000 0.0000 27.6914 0.0000 0.0000
# 5 0.0000 0.0000 0.0000 0.0000 29.7816 0.0000
# 6 0.0000 0.0000 0.0000 0.0000 0.0000 41.1550
#
#
#
# Elastic Compliance Matrix: (Units=1/GPa)
#
#
# Indices 1 2 3 4 5 6 
#
# 1 0.007735 -0.003866 -0.002129 0.000000 0.000000 0.000000
# 2 -0.003866 0.017229 -0.002691 0.000000 0.000000 0.000000
# 3 -0.002129 -0.002691 0.012045 0.000000 0.000000 0.000000
# 4 0.000000 0.000000 0.000000 0.036112 0.000000 0.000000
# 5 0.000000 0.000000 0.000000 0.000000 0.033578 0.000000
# 6 0.000000 0.000000 0.000000 0.000000 0.000000 0.024298
#
#
# Mechanical properties :
#
#
# Convention : Reuss Voigt Hill
#
# Bulk Modulus (GPa) = 50.92369 59.18077 55.05223
# Shear Modulus (GPa) = 32.27564 34.63391 33.45477
#
# Velocity S-wave (km/s) = 3.75189 3.88655 3.81981
# Velocity P-wave (km/s) = 6.40147 6.77875 6.59281
#
# Compressibility (1/GPa) = 0.01963723
#
# Stress axis : x y z
#
# Youngs Moduli (GPa) = 129.27649 58.04284 83.01975
#
# Poissons Ratio (x) = 0.22442 0.17672
# Poissons Ratio (y) = 0.49983 0.22340
# Poissons Ratio (z) = 0.27519 0.15619
#
# Static dielectric constant tensor:
#      x y z
#    x 4.205830 0.000000 0.000000 
#    y 0.000000 4.751660 0.000000 
#    z 0.000000 0.000000 4.022470 
# 
# 
# High freq. dielectric constant tensor:
#      x y z
#    x 1.920790 0.000000 0.000000 
#    y 0.000000 1.906780 0.000000 
#    z 0.000000 0.000000 1.897000 
# 
# From -- ./inp_files/2053.got.cif
#   From: 2010.03.12/outbox.cif.g09.slc.cpg/sg20_2_cif.got.tgz:2053.got - 2010.04.14 01:38:04.
