data_PCOD8160389
_publ_section_title
;
Structure prediction by ZEFSAII (Michael W. Deem and Ramdas Pophale) SiO2 
 PCOD8160389
Probable space group: C 2 2 21
;
_chemical_formula_sum "Si O2"
_cell_formula_units_Z 52
_cell_length_a 16.606265
_cell_length_b 15.827176
_cell_length_c 9.467098
_cell_angle_alpha 90.000000
_cell_angle_beta 90.000000
_cell_angle_gamma 90.000000
_cell_volume 2488.240007
_symmetry_space_group_name_H-M "C 2 2 21"
_symmetry_group_IT_number 20
_symmetry_cell_setting 'orthorhombic'
loop_
_space_group_symop_operation_xyz
x,y,z
-x,-y,1/2+z
x,-y,-z
-x,y,1/2-z
1/2+x,1/2+y,z
1/2-x,1/2-y,1/2+z
1/2+x,1/2-y,-z
1/2-x,1/2+y,1/2-z
loop_
_atom_site_type_symbol
_atom_site_label
_atom_site_fract_x
_atom_site_fract_y
_atom_site_fract_z
Si Si1 0.680115 0.869092 0.311580
Si Si2 0.599177 0.289821 0.565827
Si Si3 0.315480 0.359906 0.686578
Si Si4 0.942700 0.427352 0.384578
Si Si5 0.245007 0.000000 0.000000
Si Si6 0.572004 0.747905 0.994826
Si Si7 0.675451 0.258403 0.271112
O O1 0.612970 0.799175 0.352351
O O2 0.648569 0.920596 0.175114
O O3 0.767493 0.830912 0.287774
O O4 0.692586 0.933337 0.438240
O O5 0.631900 0.364278 0.669328
O O6 0.506284 0.309834 0.527593
O O7 0.649846 0.288670 0.424158
O O8 0.312578 0.452352 0.614107
O O9 0.353104 0.287594 0.584551
O O10 0.224378 0.329871 0.721908
O O11 0.951457 0.500000 0.500000
O O12 0.959997 0.339994 0.463738
O O13 0.000000 0.444296 0.250000
O O14 0.597862 0.750266 0.830576
#
# Coordination Sequence:
#
# PCOD8160389 Si02
#       7
#     8   8   8   8   4   8   8
#     4  11  24  41  65  96 137 175 230 285 343 409
#     4  11  22  41  70  97 130 182 228 287 345 423
#     4  11  22  41  71  93 134 187 230 283 344 412
#     4  12  27  43  64 100 147 181 229 287 361 426
#     4  12  24  42  68 104 138 180 240 294 344 402
#     4  12  22  44  67  98 133 183 226 287 351 423
#     4  11  22  40  68 100 125 177 240 275 340 425
#
# _framework density 20.898305000000001
#
# number of rings (size 3 to 8) (size 9 to 14) (size 15 to 20)
#    0.000    0.615    7.692    1.846    3.231    1.231 
#    0.000    0.000    6.769    0.000    0.000    0.000 
#    0.000    0.000    0.000    0.000    0.000    0.000 
#
# Total GULP energy -322332.226329 kJ/mol
# GULP energy per Si atom -12397.393320 kJ/mol
# Density = 2.085074 g / cm^3
# Si number density = 20.898305 Si / 1000 Ang^3
#
#
#
# Elastic Constant Matrix: (Units=GPa)
#
#
# Indices 1 2 3 4 5 6 
#
# 1 100.2110 26.8006 46.9859 0.0000 0.0000 0.0000
# 2 26.8006 70.3486 41.5055 0.0000 0.0000 0.0000
# 3 46.9859 41.5055 138.8639 0.0000 0.0000 0.0000
# 4 0.0000 0.0000 0.0000 45.0835 0.0000 0.0000
# 5 0.0000 0.0000 0.0000 0.0000 45.4697 0.0000
# 6 0.0000 0.0000 0.0000 0.0000 0.0000 7.5961
#
#
#
# Elastic Compliance Matrix: (Units=1/GPa)
#
#
# Indices 1 2 3 4 5 6 
#
# 1 0.012269 -0.002701 -0.003344 0.000000 0.000000 0.000000
# 2 -0.002701 0.017853 -0.004422 0.000000 0.000000 0.000000
# 3 -0.003344 -0.004422 0.009655 0.000000 0.000000 0.000000
# 4 0.000000 0.000000 0.000000 0.022181 0.000000 0.000000
# 5 0.000000 0.000000 0.000000 0.000000 0.021993 0.000000
# 6 0.000000 0.000000 0.000000 0.000000 0.000000 0.131647
#
#
# Mechanical properties :
#
#
# Convention : Reuss Voigt Hill
#
# Bulk Modulus (GPa) = 53.07291 60.00082 56.53686
# Shear Modulus (GPa) = 20.59194 32.57197 26.58196
#
# Velocity S-wave (km/s) = 3.14242 3.95219 3.57033
# Velocity P-wave (km/s) = 6.21428 7.04269 6.64142
#
# Compressibility (1/GPa) = 0.01884201
#
# Stress axis : x y z
#
# Youngs Moduli (GPa) = 81.50436 56.01272 103.57819
#
# Poissons Ratio (x) = 0.15130 0.34637
# Poissons Ratio (y) = 0.22016 0.45804
# Poissons Ratio (z) = 0.27255 0.24770
#
# Static dielectric constant tensor:
#      x y z
#    x 3.786780 0.000000 0.000000 
#    y 0.000000 3.534720 0.000000 
#    z 0.000000 0.000000 4.155630 
# 
# 
# High freq. dielectric constant tensor:
#      x y z
#    x 1.818770 0.000000 0.000000 
#    y 0.000000 1.783350 0.000000 
#    z 0.000000 0.000000 1.837330 
# 
# From -- ./inp_files/9513.got.cif
#   From: 2010.03.12/outbox.cif.g09.slc.cpg/sg20_5_cif.got.tgz:9513.got - 2010.04.14 01:38:04.
