data_PCOD8160756
_publ_section_title
;
Structure prediction by ZEFSAII (Michael W. Deem and Ramdas Pophale) SiO2 
 PCOD8160756
Probable space group: C 2 2 21
;
_chemical_formula_sum "Si O2"
_cell_formula_units_Z 24
_cell_length_a 8.666483
_cell_length_b 12.137970
_cell_length_c 8.342265
_cell_angle_alpha 90.000000
_cell_angle_beta 90.000000
_cell_angle_gamma 90.000000
_cell_volume 877.552142
_symmetry_space_group_name_H-M "C 2 2 21"
_symmetry_group_IT_number 20
_symmetry_cell_setting 'orthorhombic'
loop_
_space_group_symop_operation_xyz
x,y,z
-x,-y,1/2+z
x,-y,-z
-x,y,1/2-z
1/2+x,1/2+y,z
1/2-x,1/2-y,1/2+z
1/2+x,1/2-y,-z
1/2-x,1/2+y,1/2-z
loop_
_atom_site_type_symbol
_atom_site_label
_atom_site_fract_x
_atom_site_fract_y
_atom_site_fract_z
Si Si1 0.500000 0.576864 0.750000
Si Si2 0.253317 0.172384 0.972665
Si Si3 0.501223 0.000000 0.500000
Si Si4 0.774009 0.101872 0.166226
O O1 0.602530 0.654437 0.863551
O O2 0.607608 0.498437 0.639980
O O3 0.389325 0.090943 0.915170
O O4 0.310158 0.298607 0.957249
O O5 0.209936 0.148666 0.155290
O O6 0.397735 0.943483 0.636815
#
# Coordination Sequence:
#
# PCOD8160756 Si02
#       4
#     4   8   4   8
#     4  12  30  54  78 120 168 216 274 334 410 492
#     4  12  31  53  86 122 165 219 278 338 419 485
#     4  12  30  54  82 122 168 212 274 340 412 494
#     4  12  32  51  86 123 165 219 276 342 412 492
#
# _framework density 27.348801999999999
#
# number of rings (size 3 to 8) (size 9 to 14) (size 15 to 20)
#    0.000    0.000    3.333    1.000   18.667    0.000 
#    0.000    0.000    0.000    0.000    0.000    0.000 
#    0.000    0.000    0.000    0.000    0.000    0.000 
#
# Total GULP energy -148893.044618 kJ/mol
# GULP energy per Si atom -12407.753718 kJ/mol
# Density = 2.728655 g / cm^3
# Si number density = 27.348802 Si / 1000 Ang^3
#
#
#
# Elastic Constant Matrix: (Units=GPa)
#
#
# Indices 1 2 3 4 5 6 
#
# 1 131.9054 14.6161 6.5232 0.0000 0.0000 0.0000
# 2 14.6161 129.9708 -11.1076 0.0000 0.0000 0.0000
# 3 6.5232 -11.1076 89.6718 0.0000 0.0000 0.0000
# 4 0.0000 0.0000 0.0000 33.7424 0.0000 0.0000
# 5 0.0000 0.0000 0.0000 0.0000 58.2201 0.0000
# 6 0.0000 0.0000 0.0000 0.0000 0.0000 16.7165
#
#
#
# Elastic Compliance Matrix: (Units=1/GPa)
#
#
# Indices 1 2 3 4 5 6 
#
# 1 0.007717 -0.000926 -0.000676 0.000000 0.000000 0.000000
# 2 -0.000926 0.007887 0.001044 0.000000 0.000000 0.000000
# 3 -0.000676 0.001044 0.011330 0.000000 0.000000 0.000000
# 4 0.000000 0.000000 0.000000 0.029636 0.000000 0.000000
# 5 0.000000 0.000000 0.000000 0.000000 0.017176 0.000000
# 6 0.000000 0.000000 0.000000 0.000000 0.000000 0.059821
#
#
# Mechanical properties :
#
#
# Convention : Reuss Voigt Hill
#
# Bulk Modulus (GPa) = 38.72934 41.29016 40.00975
# Shear Modulus (GPa) = 34.89427 44.50355 39.69891
#
# Velocity S-wave (km/s) = 3.57585 4.03830 3.81409
# Velocity P-wave (km/s) = 5.58936 6.07242 5.83589
#
# Compressibility (1/GPa) = 0.02582022
#
# Stress axis : x y z
#
# Youngs Moduli (GPa) = 129.58080 126.78485 88.25875
#
# Poissons Ratio (x) = 0.11736 0.05967
# Poissons Ratio (y) = 0.11994 -0.09217
# Poissons Ratio (z) = 0.08760 -0.13241
#
# Static dielectric constant tensor:
#      x y z
#    x 5.163260 0.000000 0.000000 
#    y 0.000000 5.221700 0.000000 
#    z 0.000000 0.000000 4.774740 
# 
# 
# High freq. dielectric constant tensor:
#      x y z
#    x 2.113450 0.000000 0.000000 
#    y 0.000000 2.112220 0.000000 
#    z 0.000000 0.000000 2.112240 
# 
# From -- ./inp_files/5565.got.cif
#   From: 2010.03.12/outbox.cif.g09.slc.cpg/sg20_3_cif.got.tgz:5565.got - 2010.04.14 01:38:04.
