data_PCOD8160055
_publ_section_title
;
Structure prediction by ZEFSAII (Michael W. Deem and Ramdas Pophale) SiO2 
 PCOD8160055
Probable space group: C 2 2 21
;
_chemical_formula_sum "Si O2"
_cell_formula_units_Z 28
_cell_length_a 18.942810
_cell_length_b 4.897004
_cell_length_c 11.108667
_cell_angle_alpha 90.000000
_cell_angle_beta 90.000000
_cell_angle_gamma 90.000000
_cell_volume 1030.473458
_symmetry_space_group_name_H-M "C 2 2 21"
_symmetry_group_IT_number 20
_symmetry_cell_setting 'orthorhombic'
loop_
_space_group_symop_operation_xyz
x,y,z
-x,-y,1/2+z
x,-y,-z
-x,y,1/2-z
1/2+x,1/2+y,z
1/2-x,1/2-y,1/2+z
1/2+x,1/2-y,-z
1/2-x,1/2+y,1/2-z
loop_
_atom_site_type_symbol
_atom_site_label
_atom_site_fract_x
_atom_site_fract_y
_atom_site_fract_z
Si Si1 0.983016 0.322581 0.619389
Si Si2 0.162377 0.866600 0.193245
Si Si3 0.318450 0.865352 0.151286
Si Si4 0.908205 0.000000 0.000000
O O1 0.996783 0.500000 0.500000
O O2 0.903765 0.205157 0.609037
O O3 0.000000 0.466118 0.750000
O O4 0.040436 0.077308 0.612297
O O5 0.235446 0.822310 0.120939
O O6 0.162860 0.676289 0.313533
O O7 0.158431 0.179807 0.234973
O O8 0.360534 0.763277 0.034283
#
# Coordination Sequence:
#
# PCOD8160055 Si02
#       4
#     8   8   8   4
#     4  12  27  46  75 112 153 201 249 319 378 457
#     4  10  23  47  72 108 146 199 252 312 375 453
#     4  10  23  45  75 104 150 196 253 312 377 449
#     4  12  26  42  74 108 150 200 250 318 380 448
#
# _framework density 27.171976000000001
#
# number of rings (size 3 to 8) (size 9 to 14) (size 15 to 20)
#    0.000    1.143    2.857    1.714    6.000    1.143 
#    0.000    0.000    0.000    0.000    0.000    0.000 
#    0.000    0.000    0.000    0.000    0.000    0.000 
#
# Total GULP energy -173581.845605 kJ/mol
# GULP energy per Si atom -12398.703257 kJ/mol
# Density = 2.711013 g / cm^3
# Si number density = 27.171976 Si / 1000 Ang^3
#
#
#
# Elastic Constant Matrix: (Units=GPa)
#
#
# Indices 1 2 3 4 5 6 
#
# 1 178.5829 -23.4169 19.1449 0.0000 0.0000 0.0000
# 2 -23.4169 33.9869 -0.3471 0.0000 0.0000 0.0000
# 3 19.1449 -0.3471 135.0764 0.0000 0.0000 0.0000
# 4 0.0000 0.0000 0.0000 27.8146 0.0000 0.0000
# 5 0.0000 0.0000 0.0000 0.0000 41.6119 0.0000
# 6 0.0000 0.0000 0.0000 0.0000 0.0000 17.6630
#
#
#
# Elastic Compliance Matrix: (Units=1/GPa)
#
#
# Indices 1 2 3 4 5 6 
#
# 1 0.006258 0.004303 -0.000876 0.000000 0.000000 0.000000
# 2 0.004303 0.032382 -0.000527 0.000000 0.000000 0.000000
# 3 -0.000876 -0.000527 0.007526 0.000000 0.000000 0.000000
# 4 0.000000 0.000000 0.000000 0.035952 0.000000 0.000000
# 5 0.000000 0.000000 0.000000 0.000000 0.024032 0.000000
# 6 0.000000 0.000000 0.000000 0.000000 0.000000 0.056615
#
#
# Mechanical properties :
#
#
# Convention : Reuss Voigt Hill
#
# Bulk Modulus (GPa) = 19.24327 37.60088 28.42208
# Shear Modulus (GPa) = 28.68828 40.90225 34.79526
#
# Velocity S-wave (km/s) = 3.25284 3.88404 3.58237
# Velocity P-wave (km/s) = 4.60493 5.82945 5.25299
#
# Compressibility (1/GPa) = 0.05196622
#
# Stress axis : x y z
#
# Youngs Moduli (GPa) = 159.80252 30.88111 132.87261
#
# Poissons Ratio (x) = -0.13287 0.11638
# Poissons Ratio (y) = -0.68757 0.06997
# Poissons Ratio (z) = 0.13997 0.01626
#
# Static dielectric constant tensor:
#      x y z
#    x 5.371420 0.000000 0.000000 
#    y 0.000000 4.752540 0.000000 
#    z 0.000000 0.000000 4.457620 
# 
# 
# High freq. dielectric constant tensor:
#      x y z
#    x 2.127830 0.000000 0.000000 
#    y 0.000000 2.086130 0.000000 
#    z 0.000000 0.000000 2.076430 
# 
# From -- ./inp_files/11825.got.cif
#   From: 2010.03.12/outbox.cif.g09.slc.cpg/sg20_6_cif.got.tgz:11825.got - 2010.04.14 01:38:04.
