data_PCOD8160052
_publ_section_title
;
Structure prediction by ZEFSAII (Michael W. Deem and Ramdas Pophale) SiO2 
 PCOD8160052
Probable space group: C 2 2 21
;
_chemical_formula_sum "Si O2"
_cell_formula_units_Z 40
_cell_length_a 9.723719
_cell_length_b 23.496218
_cell_length_c 7.374952
_cell_angle_alpha 90.000000
_cell_angle_beta 90.000000
_cell_angle_gamma 90.000000
_cell_volume 1684.959866
_symmetry_space_group_name_H-M "C 2 2 21"
_symmetry_group_IT_number 20
_symmetry_cell_setting 'orthorhombic'
loop_
_space_group_symop_operation_xyz
x,y,z
-x,-y,1/2+z
x,-y,-z
-x,y,1/2-z
1/2+x,1/2+y,z
1/2-x,1/2-y,1/2+z
1/2+x,1/2-y,-z
1/2-x,1/2+y,1/2-z
loop_
_atom_site_type_symbol
_atom_site_label
_atom_site_fract_x
_atom_site_fract_y
_atom_site_fract_z
Si Si1 0.654972 0.508663 0.708081
Si Si2 0.154021 0.588820 0.269946
Si Si3 0.305224 0.186958 0.942040
Si Si4 0.003740 0.780949 0.047119
Si Si5 0.287508 0.628378 0.899885
O O1 0.690338 0.500000 0.500000
O O2 0.500000 0.490742 0.750000
O O3 0.751457 0.465808 0.823511
O O4 0.682727 0.575319 0.736669
O O5 0.154462 0.634885 0.429032
O O6 0.000000 0.565418 0.250000
O O7 0.200652 0.615740 0.078921
O O8 0.295783 0.170522 0.730472
O O9 0.160855 0.212169 0.018216
O O10 0.421190 0.235248 0.930211
O O11 0.931299 0.843144 0.037879
O O12 0.000000 0.756534 0.250000
#
# Coordination Sequence:
#
# PCOD8160052 Si02
#       5
#     8   8   8   8   8
#     4  10  23  45  74 102 138 181 234 286 341 415
#     4  11  27  47  68 105 145 177 231 290 347 410
#     4  11  25  46  74  98 141 186 229 283 349 404
#     4  10  24  46  68 104 140 178 234 285 337 413
#     4  10  25  48  70 101 140 181 233 283 340 417
#
# _framework density 23.739438
#
# number of rings (size 3 to 8) (size 9 to 14) (size 15 to 20)
#    0.000    1.600    0.000    2.400   16.800    0.800 
#   14.400    0.000    0.000    0.000    0.000    0.000 
#    0.000    0.000    0.000    0.000    0.000    0.000 
#
# Total GULP energy -247981.476753 kJ/mol
# GULP energy per Si atom -12399.073838 kJ/mol
# Density = 2.368541 g / cm^3
# Si number density = 23.739438 Si / 1000 Ang^3
#
#
#
# Elastic Constant Matrix: (Units=GPa)
#
#
# Indices 1 2 3 4 5 6 
#
# 1 96.3401 6.0425 -19.8676 0.0000 0.0000 0.0000
# 2 6.0425 93.2368 -12.0587 0.0000 0.0000 0.0000
# 3 -19.8676 -12.0587 36.8688 0.0000 0.0000 0.0000
# 4 0.0000 0.0000 0.0000 21.4873 0.0000 0.0000
# 5 0.0000 0.0000 0.0000 0.0000 33.1829 0.0000
# 6 0.0000 0.0000 0.0000 0.0000 0.0000 9.5158
#
#
#
# Elastic Compliance Matrix: (Units=1/GPa)
#
#
# Indices 1 2 3 4 5 6 
#
# 1 0.011678 0.000060 0.006312 0.000000 0.000000 0.000000
# 2 0.000060 0.011199 0.003695 0.000000 0.000000 0.000000
# 3 0.006312 0.003695 0.031733 0.000000 0.000000 0.000000
# 4 0.000000 0.000000 0.000000 0.046539 0.000000 0.000000
# 5 0.000000 0.000000 0.000000 0.000000 0.030136 0.000000
# 6 0.000000 0.000000 0.000000 0.000000 0.000000 0.105089
#
#
# Mechanical properties :
#
#
# Convention : Reuss Voigt Hill
#
# Bulk Modulus (GPa) = 13.37886 19.40870 16.39378
# Shear Modulus (GPa) = 20.73351 29.65914 25.19633
#
# Velocity S-wave (km/s) = 2.95850 3.53847 3.26140
# Velocity P-wave (km/s) = 4.16152 4.98877 4.59380
#
# Compressibility (1/GPa) = 0.07474481
#
# Stress axis : x y z
#
# Youngs Moduli (GPa) = 85.63166 89.29035 31.51261
#
# Poissons Ratio (x) = -0.00532 -0.19892
# Poissons Ratio (y) = -0.00510 -0.11644
# Poissons Ratio (z) = -0.54054 -0.32994
#
# Static dielectric constant tensor:
#      x y z
#    x 4.351380 0.000000 0.000000 
#    y 0.000000 4.842230 0.000000 
#    z 0.000000 0.000000 4.084910 
# 
# 
# High freq. dielectric constant tensor:
#      x y z
#    x 1.943570 0.000000 0.000000 
#    y 0.000000 1.951010 0.000000 
#    z 0.000000 0.000000 1.936460 
# 
# From -- ./inp_files/6069.got.cif
#   From: 2010.03.12/outbox.cif.g09.slc.cpg/sg20_4_cif.got.tgz:6069.got - 2010.04.14 01:38:04.
