data_PCOD8160351
_publ_section_title
;
Structure prediction by ZEFSAII (Michael W. Deem and Ramdas Pophale) SiO2 
 PCOD8160351
Probable space group: C 2 2 21
;
_chemical_formula_sum "Si O2"
_cell_formula_units_Z 48
_cell_length_a 9.406507
_cell_length_b 26.676665
_cell_length_c 8.356471
_cell_angle_alpha 90.000000
_cell_angle_beta 90.000000
_cell_angle_gamma 90.000000
_cell_volume 2096.924667
_symmetry_space_group_name_H-M "C 2 2 21"
_symmetry_group_IT_number 20
_symmetry_cell_setting 'orthorhombic'
loop_
_space_group_symop_operation_xyz
x,y,z
-x,-y,1/2+z
x,-y,-z
-x,y,1/2-z
1/2+x,1/2+y,z
1/2-x,1/2-y,1/2+z
1/2+x,1/2-y,-z
1/2-x,1/2+y,1/2-z
loop_
_atom_site_type_symbol
_atom_site_label
_atom_site_fract_x
_atom_site_fract_y
_atom_site_fract_z
Si Si1 0.419415 0.781791 0.395059
Si Si2 0.659556 0.894230 0.793789
Si Si3 0.619965 0.375179 0.132772
Si Si4 0.610188 0.546053 0.113843
Si Si5 0.302138 0.196659 0.077489
Si Si6 0.640776 0.893891 0.162559
O O1 0.500000 0.753590 0.250000
O O2 0.530912 0.791703 0.540962
O O3 0.280809 0.748894 0.427605
O O4 0.362399 0.833972 0.329838
O O5 0.500000 0.903535 0.750000
O O6 0.746188 0.935344 0.696072
O O7 0.705276 0.836880 0.741653
O O8 0.669641 0.908199 0.979751
O O9 0.500000 0.351664 0.250000
O O10 0.722582 0.412078 0.236063
O O11 0.546447 0.408028 0.992737
O O12 0.724029 0.333256 0.063191
O O13 0.500000 0.530184 0.250000
O O14 0.645832 0.500000 0.000000
O O15 0.500000 0.916496 0.250000
#
# Coordination Sequence:
#
# PCOD8160351 Si02
#       6
#     8   8   8   8   8   8
#     4  11  24  39  59  94 132 190 237 287 337 388
#     4  11  23  44  72  99 138 182 228 285 342 402
#     4  11  23  41  67  97 130 183 230 274 345 413
#     4  11  25  48  74 108 140 170 216 275 346 419
#     4  11  25  40  61  96 138 188 238 291 338 392
#     4  11  21  43  64  91 135 183 227 282 339 389
#
# _framework density 22.890664000000001
#
# number of rings (size 3 to 8) (size 9 to 14) (size 15 to 20)
#    0.000    1.000    5.000    2.500    4.667    2.667 
#    0.000    3.333    0.000    0.000    0.000    0.000 
#    0.000    0.000    0.000    0.000    0.000    0.000 
#
# Total GULP energy -297362.858818 kJ/mol
# GULP energy per Si atom -12390.119117 kJ/mol
# Density = 2.283856 g / cm^3
# Si number density = 22.890664 Si / 1000 Ang^3
#
#
#
# Elastic Constant Matrix: (Units=GPa)
#
#
# Indices 1 2 3 4 5 6 
#
# 1 100.4710 22.7188 27.1015 0.0000 0.0000 0.0000
# 2 22.7188 67.0864 21.9363 0.0000 0.0000 0.0000
# 3 27.1015 21.9363 127.0543 0.0000 0.0000 0.0000
# 4 0.0000 0.0000 0.0000 23.8981 0.0000 0.0000
# 5 0.0000 0.0000 0.0000 0.0000 47.8322 0.0000
# 6 0.0000 0.0000 0.0000 0.0000 0.0000 23.3373
#
#
#
# Elastic Compliance Matrix: (Units=1/GPa)
#
#
# Indices 1 2 3 4 5 6 
#
# 1 0.011167 -0.003183 -0.001833 0.000000 0.000000 0.000000
# 2 -0.003183 0.016705 -0.002205 0.000000 0.000000 0.000000
# 3 -0.001833 -0.002205 0.008642 0.000000 0.000000 0.000000
# 4 0.000000 0.000000 0.000000 0.041844 0.000000 0.000000
# 5 0.000000 0.000000 0.000000 0.000000 0.020906 0.000000
# 6 0.000000 0.000000 0.000000 0.000000 0.000000 0.042850
#
#
# Mechanical properties :
#
#
# Convention : Reuss Voigt Hill
#
# Bulk Modulus (GPa) = 45.30291 48.68056 46.99173
# Shear Modulus (GPa) = 30.50385 33.87052 32.18719
#
# Velocity S-wave (km/s) = 3.65443 3.85081 3.75390
# Velocity P-wave (km/s) = 6.13518 6.40971 6.27395
#
# Compressibility (1/GPa) = 0.02207364
#
# Stress axis : x y z
#
# Youngs Moduli (GPa) = 89.54891 59.86228 115.70999
#
# Poissons Ratio (x) = 0.19051 0.21204
# Poissons Ratio (y) = 0.28499 0.25518
# Poissons Ratio (z) = 0.16410 0.13202
#
# Static dielectric constant tensor:
#      x y z
#    x 4.216180 0.000000 0.000000 
#    y 0.000000 3.687760 0.000000 
#    z 0.000000 0.000000 4.722440 
# 
# 
# High freq. dielectric constant tensor:
#      x y z
#    x 1.911660 0.000000 0.000000 
#    y 0.000000 1.862300 0.000000 
#    z 0.000000 0.000000 1.927060 
# 
# From -- ./inp_files/6524.got.cif
#   From: 2010.03.12/outbox.cif.g09.slc.cpg/sg20_4_cif.got.tgz:6524.got - 2010.04.14 01:38:04.
