data_PCOD8160890
_publ_section_title
;
Structure prediction by ZEFSAII (Michael W. Deem and Ramdas Pophale) SiO2 
 PCOD8160890
Probable space group: C 2 2 2
;
_chemical_formula_sum "Si O2"
_cell_formula_units_Z 40
_cell_length_a 16.711690
_cell_length_b 12.577140
_cell_length_c 8.897017
_cell_angle_alpha 90.000000
_cell_angle_beta 90.000000
_cell_angle_gamma 90.000000
_cell_volume 1870.021874
_symmetry_space_group_name_H-M "C 2 2 2"
_symmetry_group_IT_number 21
_symmetry_cell_setting 'orthorhombic'
loop_
_space_group_symop_operation_xyz
x,y,z
-x,-y,z
x,-y,-z
-x,y,-z
1/2+x,1/2+y,z
1/2-x,1/2-y,z
1/2+x,1/2-y,-z
1/2-x,1/2+y,-z
loop_
_atom_site_type_symbol
_atom_site_label
_atom_site_fract_x
_atom_site_fract_y
_atom_site_fract_z
Si Si1 0.660523 0.206141 0.688025
Si Si2 0.818449 0.516198 0.823230
Si Si3 0.857955 0.924816 0.816378
Si Si4 0.157764 0.277444 0.658663
Si Si5 0.077118 0.132664 0.104917
O O1 0.750000 0.250000 0.715898
O O2 0.637268 0.204195 0.513988
O O3 0.594726 0.274953 0.777041
O O4 0.647900 0.086872 0.741955
O O5 0.727093 0.527875 0.767998
O O6 0.865809 0.620332 0.761088
O O7 0.830357 0.500000 0.000000
O O8 0.889789 0.828593 0.711084
O O9 0.925139 0.018141 0.809319
O O10 0.848892 0.878073 0.986643
O O11 0.250000 0.250000 0.686930
O O12 0.000000 0.154562 0.000000
#
# Coordination Sequence:
#
# PCOD8160890 Si02
#       5
#     8   8   8   8   8
#     4  11  20  36  56  88 128 164 210 265 321 379
#     4  11  18  32  58  91 122 158 208 267 319 370
#     4  10  18  36  55  85 121 160 210 255 314 372
#     4   9  21  32  55  90 125 164 206 263 323 377
#     4  11  22  37  60  88 122 165 210 259 312 379
#
# _framework density 21.390125000000001
#
# number of rings (size 3 to 8) (size 9 to 14) (size 15 to 20)
#    0.000    1.600    4.000    3.000    0.000    2.400 
#    0.000    1.000    0.000   11.400    0.000    5.600 
#    0.000    0.000    0.000    0.000    0.000    0.000 
#
# Total GULP energy -247862.387226 kJ/mol
# GULP energy per Si atom -12393.119361 kJ/mol
# Density = 2.134144 g / cm^3
# Si number density = 21.390125 Si / 1000 Ang^3
#
#
#
# Elastic Constant Matrix: (Units=GPa)
#
#
# Indices 1 2 3 4 5 6 
#
# 1 47.8324 38.5396 29.8668 0.0000 0.0000 0.0000
# 2 38.5396 214.2331 116.7805 0.0000 0.0000 0.0000
# 3 29.8668 116.7805 151.5615 0.0000 0.0000 0.0000
# 4 0.0000 0.0000 0.0000 44.7302 0.0000 0.0000
# 5 0.0000 0.0000 0.0000 0.0000 22.9721 0.0000
# 6 0.0000 0.0000 0.0000 0.0000 0.0000 13.0919
#
#
#
# Elastic Compliance Matrix: (Units=1/GPa)
#
#
# Indices 1 2 3 4 5 6 
#
# 1 0.024996 -0.003124 -0.002519 0.000000 0.000000 0.000000
# 2 -0.003124 0.008438 -0.005886 0.000000 0.000000 0.000000
# 3 -0.002519 -0.005886 0.011630 0.000000 0.000000 0.000000
# 4 0.000000 0.000000 0.000000 0.022356 0.000000 0.000000
# 5 0.000000 0.000000 0.000000 0.000000 0.043531 0.000000
# 6 0.000000 0.000000 0.000000 0.000000 0.000000 0.076383
#
#
# Mechanical properties :
#
#
# Convention : Reuss Voigt Hill
#
# Bulk Modulus (GPa) = 45.44130 87.11120 66.27625
# Shear Modulus (GPa) = 22.96442 31.38819 27.17630
#
# Velocity S-wave (km/s) = 3.28014 3.83484 3.56828
# Velocity P-wave (km/s) = 5.96958 7.77312 6.93027
#
# Compressibility (1/GPa) = 0.02200641
#
# Stress axis : x y z
#
# Youngs Moduli (GPa) = 40.00662 118.50456 85.98462
#
# Poissons Ratio (x) = 0.37015 0.21659
# Poissons Ratio (y) = 0.12496 0.50615
# Poissons Ratio (z) = 0.10078 0.69757
#
# Static dielectric constant tensor:
#      x y z
#    x 3.427550 0.000000 0.000000 
#    y 0.000000 4.198780 0.000000 
#    z 0.000000 0.000000 3.890690 
# 
# 
# High freq. dielectric constant tensor:
#      x y z
#    x 1.787290 0.000000 0.000000 
#    y 0.000000 1.859540 0.000000 
#    z 0.000000 0.000000 1.836740 
# 
# From -- ./inp_files/12734.got.cif
#   From: 2010.03.12/outbox.cif.g09.slc.cpg/sg21_7_cif.got.tgz:12734.got - 2010.04.14 01:59:26.
