data_PCOD8160242
_publ_section_title
;
Structure prediction by ZEFSAII (Michael W. Deem and Ramdas Pophale) SiO2 
 PCOD8160242
Probable space group: C 2 2 21
;
_chemical_formula_sum "Si O2"
_cell_formula_units_Z 48
_cell_length_a 16.427369
_cell_length_b 6.342445
_cell_length_c 23.210953
_cell_angle_alpha 90.000000
_cell_angle_beta 90.000000
_cell_angle_gamma 90.000000
_cell_volume 2418.341867
_symmetry_space_group_name_H-M "C 2 2 21"
_symmetry_group_IT_number 20
_symmetry_cell_setting 'orthorhombic'
loop_
_space_group_symop_operation_xyz
x,y,z
-x,-y,1/2+z
x,-y,-z
-x,y,1/2-z
1/2+x,1/2+y,z
1/2-x,1/2-y,1/2+z
1/2+x,1/2-y,-z
1/2-x,1/2+y,1/2-z
loop_
_atom_site_type_symbol
_atom_site_label
_atom_site_fract_x
_atom_site_fract_y
_atom_site_fract_z
Si Si1 0.004404 0.880437 0.056052
Si Si2 0.241291 0.610962 0.327085
Si Si3 0.638565 0.221423 0.734904
Si Si4 0.413110 0.387113 0.168993
Si Si5 0.913564 0.500000 0.500000
Si Si6 0.500000 0.909311 0.750000
Si Si7 0.665423 0.616868 0.057208
O O1 0.931594 0.894477 0.101435
O O2 0.028252 0.640751 0.040608
O O3 0.084219 0.000363 0.079839
O O4 0.970806 0.000000 0.000000
O O5 0.318354 0.659586 0.287217
O O6 0.203567 0.387579 0.307870
O O7 0.176424 0.797049 0.319718
O O8 0.266912 0.601111 0.393650
O O9 0.584370 0.382085 0.697343
O O10 0.579069 0.049737 0.763526
O O11 0.483437 0.238774 0.195215
O O12 0.856143 0.641931 0.541098
O O13 0.698997 0.500000 0.000000
#
# Coordination Sequence:
#
# PCOD8160242 Si02
#       7
#     8   8   8   8   4   4   8
#     4   9  21  39  63  92 121 159 209 257 306 369
#     4  11  24  41  63  90 132 163 205 260 318 377
#     4  11  24  43  61  95 128 165 206 263 316 373
#     4  11  24  42  61  96 124 167 208 257 321 373
#     4   8  18  40  64  92 122 152 210 258 314 358
#     4  10  26  38  66  94 116 166 218 252 308 378
#     4   9  21  39  62  93 119 167 210 253 309 374
#
# _framework density 19.848310999999999
#
# number of rings (size 3 to 8) (size 9 to 14) (size 15 to 20)
#    0.000    2.333    1.667    0.500    7.000    6.667 
#    6.000    0.000    0.000    0.000    0.000    0.000 
#    0.000    0.000    0.000    0.000    0.000    0.000 
#
# Total GULP energy -297649.864340 kJ/mol
# GULP energy per Si atom -12402.077681 kJ/mol
# Density = 1.980314 g / cm^3
# Si number density = 19.848311 Si / 1000 Ang^3
#
#
#
# Elastic Constant Matrix: (Units=GPa)
#
#
# Indices 1 2 3 4 5 6 
#
# 1 73.2478 42.5972 51.9695 0.0000 0.0000 0.0000
# 2 42.5972 136.6294 54.3098 0.0000 0.0000 0.0000
# 3 51.9695 54.3098 127.9272 0.0000 0.0000 0.0000
# 4 0.0000 0.0000 0.0000 22.1917 0.0000 0.0000
# 5 0.0000 0.0000 0.0000 0.0000 50.9787 0.0000
# 6 0.0000 0.0000 0.0000 0.0000 0.0000 19.5918
#
#
#
# Elastic Compliance Matrix: (Units=1/GPa)
#
#
# Indices 1 2 3 4 5 6 
#
# 1 0.020651 -0.003734 -0.006804 0.000000 0.000000 0.000000
# 2 -0.003734 0.009480 -0.002508 0.000000 0.000000 0.000000
# 3 -0.006804 -0.002508 0.011646 0.000000 0.000000 0.000000
# 4 0.000000 0.000000 0.000000 0.045062 0.000000 0.000000
# 5 0.000000 0.000000 0.000000 0.000000 0.019616 0.000000
# 6 0.000000 0.000000 0.000000 0.000000 0.000000 0.051042
#
#
# Mechanical properties :
#
#
# Convention : Reuss Voigt Hill
#
# Bulk Modulus (GPa) = 63.75383 70.61750 67.18566
# Shear Modulus (GPa) = 26.48065 31.14764 28.81415
#
# Velocity S-wave (km/s) = 3.65657 3.96572 3.81427
# Velocity P-wave (km/s) = 7.07231 7.52496 7.30214
#
# Compressibility (1/GPa) = 0.01568533
#
# Stress axis : x y z
#
# Youngs Moduli (GPa) = 48.42289 105.48523 85.86787
#
# Poissons Ratio (x) = 0.39386 0.58427
# Poissons Ratio (y) = 0.18080 0.21534
# Poissons Ratio (z) = 0.32949 0.26453
#
# Static dielectric constant tensor:
#      x y z
#    x 3.395850 0.000000 0.000000 
#    y 0.000000 3.757470 0.000000 
#    z 0.000000 0.000000 3.434410 
# 
# 
# High freq. dielectric constant tensor:
#      x y z
#    x 1.760650 0.000000 0.000000 
#    y 0.000000 1.788000 0.000000 
#    z 0.000000 0.000000 1.769910 
# 
# From -- ./inp_files/30424.got.cif
#   From: 2010.03.12/outbox.cif.g09.slc.cpg/sg20_16_cif.got.tgz:30424.got - 2010.04.14 01:38:04.
