data_PCOD8160234
_publ_section_title
;
Structure prediction by ZEFSAII (Michael W. Deem and Ramdas Pophale) SiO2 
 PCOD8160234
Probable space group: C 2 2 21
;
_chemical_formula_sum "Si O2"
_cell_formula_units_Z 56
_cell_length_a 14.334520
_cell_length_b 19.221382
_cell_length_c 10.158709
_cell_angle_alpha 90.000000
_cell_angle_beta 90.000000
_cell_angle_gamma 90.000000
_cell_volume 2799.021824
_symmetry_space_group_name_H-M "C 2 2 21"
_symmetry_group_IT_number 20
_symmetry_cell_setting 'orthorhombic'
loop_
_space_group_symop_operation_xyz
x,y,z
-x,-y,1/2+z
x,-y,-z
-x,y,1/2-z
1/2+x,1/2+y,z
1/2-x,1/2-y,1/2+z
1/2+x,1/2-y,-z
1/2-x,1/2+y,1/2-z
loop_
_atom_site_type_symbol
_atom_site_label
_atom_site_fract_x
_atom_site_fract_y
_atom_site_fract_z
Si Si1 0.854972 0.769376 0.993258
Si Si2 0.108835 0.873944 0.271747
Si Si3 0.893466 0.140515 0.248309
Si Si4 0.068212 0.532658 0.137601
Si Si5 0.716351 0.508610 0.347772
Si Si6 0.508757 0.190086 0.104490
Si Si7 0.844715 0.208231 0.515386
O O1 0.882875 0.792485 0.846101
O O2 0.747122 0.753538 0.000498
O O3 0.881087 0.831607 0.092782
O O4 0.908018 0.697391 0.033929
O O5 0.155110 0.832602 0.151962
O O6 0.000000 0.891824 0.250000
O O7 0.168774 0.944598 0.273349
O O8 0.827788 0.080004 0.197921
O O9 0.858725 0.156505 0.394682
O O10 0.000000 0.114954 0.250000
O O11 0.172885 0.513063 0.179737
O O12 0.052215 0.614528 0.120304
O O13 0.000000 0.502842 0.250000
O O14 0.038928 0.500000 0.000000
O O15 0.695846 0.500000 0.500000
O O16 0.500000 0.224497 0.250000
O O17 0.573396 0.235854 0.011560
#
# Coordination Sequence:
#
# PCOD8160234 Si02
#       7
#     8   8   8   8   8   8   8
#     4  12  23  42  69  98 135 178 221 273 339 401
#     4  12  23  47  70  96 135 184 225 270 344 412
#     4  12  24  43  64 103 136 165 226 287 331 390
#     4  10  25  47  72  97 137 182 228 272 329 407
#     4  11  25  44  71  95 135 188 222 273 341 407
#     4  11  22  44  70  93 138 186 215 267 342 409
#     4  12  25  39  68 105 134 169 229 278 335 400
#
# _framework density 20.006989999999998
#
# number of rings (size 3 to 8) (size 9 to 14) (size 15 to 20)
#    0.000    0.571    5.714    2.143    6.000    1.714 
#    2.571    0.000    0.000    0.000    0.000    0.000 
#    0.000    0.000    0.000    0.000    0.000    0.000 
#
# Total GULP energy -347266.144564 kJ/mol
# GULP energy per Si atom -12402.362306 kJ/mol
# Density = 1.996145 g / cm^3
# Si number density = 20.006990 Si / 1000 Ang^3
#
#
#
# Elastic Constant Matrix: (Units=GPa)
#
#
# Indices 1 2 3 4 5 6 
#
# 1 109.8004 48.7715 58.9259 0.0000 0.0000 0.0000
# 2 48.7715 70.6123 25.1361 0.0000 0.0000 0.0000
# 3 58.9259 25.1361 94.6880 0.0000 0.0000 0.0000
# 4 0.0000 0.0000 0.0000 28.9809 0.0000 0.0000
# 5 0.0000 0.0000 0.0000 0.0000 30.4916 0.0000
# 6 0.0000 0.0000 0.0000 0.0000 0.0000 81.3176
#
#
#
# Elastic Compliance Matrix: (Units=1/GPa)
#
#
# Indices 1 2 3 4 5 6 
#
# 1 0.017868 -0.009258 -0.008662 0.000000 0.000000 0.000000
# 2 -0.009258 0.020437 0.000336 0.000000 0.000000 0.000000
# 3 -0.008662 0.000336 0.015862 0.000000 0.000000 0.000000
# 4 0.000000 0.000000 0.000000 0.034505 0.000000 0.000000
# 5 0.000000 0.000000 0.000000 0.000000 0.032796 0.000000
# 6 0.000000 0.000000 0.000000 0.000000 0.000000 0.012297
#
#
# Mechanical properties :
#
#
# Convention : Reuss Voigt Hill
#
# Bulk Modulus (GPa) = 52.63294 60.08532 56.35913
# Shear Modulus (GPa) = 28.52789 37.64251 33.08520
#
# Velocity S-wave (km/s) = 3.78020 4.34229 4.07096
# Velocity P-wave (km/s) = 6.73926 7.43223 7.09421
#
# Compressibility (1/GPa) = 0.01899951
#
# Stress axis : x y z
#
# Youngs Moduli (GPa) = 55.96484 48.93173 63.04258
#
# Poissons Ratio (x) = 0.45301 0.54608
# Poissons Ratio (y) = 0.51813 -0.02120
# Poissons Ratio (z) = 0.48477 -0.01646
#
# Static dielectric constant tensor:
#      x y z
#    x 4.222480 0.000000 0.000000 
#    y 0.000000 3.815920 0.000000 
#    z 0.000000 0.000000 3.953460 
# 
# 
# High freq. dielectric constant tensor:
#      x y z
#    x 1.798300 0.000000 0.000000 
#    y 0.000000 1.775090 0.000000 
#    z 0.000000 0.000000 1.792020 
# 
# From -- ./inp_files/8732.got.cif
#   From: 2010.03.12/outbox.cif.g09.slc.cpg/sg20_5_cif.got.tgz:8732.got - 2010.04.14 01:38:04.
