data_PCOD8160076
_publ_section_title
;
Structure prediction by ZEFSAII (Michael W. Deem and Ramdas Pophale) SiO2 
 PCOD8160076
Probable space group: C 2 2 21
;
_chemical_formula_sum "Si O2"
_cell_formula_units_Z 64
_cell_length_a 17.410515
_cell_length_b 18.889618
_cell_length_c 8.642741
_cell_angle_alpha 90.000000
_cell_angle_beta 90.000000
_cell_angle_gamma 90.000000
_cell_volume 2842.407180
_symmetry_space_group_name_H-M "C 2 2 21"
_symmetry_group_IT_number 20
_symmetry_cell_setting 'orthorhombic'
loop_
_space_group_symop_operation_xyz
x,y,z
-x,-y,1/2+z
x,-y,-z
-x,y,1/2-z
1/2+x,1/2+y,z
1/2-x,1/2-y,1/2+z
1/2+x,1/2-y,-z
1/2-x,1/2+y,1/2-z
loop_
_atom_site_type_symbol
_atom_site_label
_atom_site_fract_x
_atom_site_fract_y
_atom_site_fract_z
Si Si1 0.646916 0.575950 0.445049
Si Si2 0.467198 0.695107 0.096241
Si Si3 0.766781 0.035548 0.340576
Si Si4 0.289190 0.096489 0.664526
Si Si5 0.039223 0.573717 0.917412
Si Si6 0.819818 0.271238 0.124038
Si Si7 0.703664 0.180595 0.289256
Si Si8 0.450020 0.795587 0.606836
O O1 0.616604 0.500000 0.500000
O O2 0.581789 0.633509 0.487218
O O3 0.662477 0.565309 0.261261
O O4 0.724639 0.601098 0.532238
O O5 0.500000 0.659630 0.250000
O O6 0.411379 0.761315 0.142415
O O7 0.540063 0.725936 0.001245
O O8 0.707228 0.100787 0.357570
O O9 0.796756 0.000000 0.500000
O O10 0.718709 0.976168 0.254676
O O11 0.371224 0.092408 0.584742
O O12 0.286244 0.161207 0.785528
O O13 0.000000 0.574884 0.750000
O O14 0.020710 0.500000 0.000000
O O15 0.008591 0.636742 0.026445
O O16 0.780799 0.201101 0.196389
O O17 0.803628 0.270985 0.940728
O O18 0.636764 0.192250 0.162755
O O19 0.500000 0.774078 0.750000
#
# Coordination Sequence:
#
# PCOD8160076 Si02
#       8
#     8   8   8   8   8   8   8   8
#     4  10  23  47  75 101 143 188 245 305 364 436
#     4  12  26  47  72 102 145 191 239 305 369 437
#     4  11  22  42  69 109 143 184 243 303 356 434
#     4  11  23  43  71 105 143 185 242 296 365 432
#     4  12  26  44  68 102 146 199 238 292 358 436
#     4  12  25  43  72 106 140 190 241 300 366 449
#     4  12  26  43  72 105 146 190 247 297 369 450
#     4  12  26  45  65 101 145 187 233 296 359 433
#
# _framework density 22.516124999999999
#
# number of rings (size 3 to 8) (size 9 to 14) (size 15 to 20)
#    0.000    0.500    3.750    5.625    3.500    0.500 
#    0.000    1.250    0.000    0.000    0.000    0.000 
#    0.000    0.000    0.000    0.000    0.000    0.000 
#
# Total GULP energy -396682.359069 kJ/mol
# GULP energy per Si atom -12396.323721 kJ/mol
# Density = 2.246488 g / cm^3
# Si number density = 22.516125 Si / 1000 Ang^3
#
#
#
# Elastic Constant Matrix: (Units=GPa)
#
#
# Indices 1 2 3 4 5 6 
#
# 1 57.2235 33.3016 32.8699 0.0000 0.0000 0.0000
# 2 33.3016 133.5744 48.3414 0.0000 0.0000 0.0000
# 3 32.8699 48.3414 135.5009 0.0000 0.0000 0.0000
# 4 0.0000 0.0000 0.0000 28.5421 0.0000 0.0000
# 5 0.0000 0.0000 0.0000 0.0000 35.7526 0.0000
# 6 0.0000 0.0000 0.0000 0.0000 0.0000 25.9281
#
#
#
# Elastic Compliance Matrix: (Units=1/GPa)
#
#
# Indices 1 2 3 4 5 6 
#
# 1 0.022100 -0.004099 -0.003899 0.000000 0.000000 0.000000
# 2 -0.004099 0.009357 -0.002344 0.000000 0.000000 0.000000
# 3 -0.003899 -0.002344 0.009162 0.000000 0.000000 0.000000
# 4 0.000000 0.000000 0.000000 0.035036 0.000000 0.000000
# 5 0.000000 0.000000 0.000000 0.000000 0.027970 0.000000
# 6 0.000000 0.000000 0.000000 0.000000 0.000000 0.038568
#
#
# Mechanical properties :
#
#
# Convention : Reuss Voigt Hill
#
# Bulk Modulus (GPa) = 50.16057 61.70272 55.93165
# Shear Modulus (GPa) = 29.49485 32.16359 30.82922
#
# Velocity S-wave (km/s) = 3.62324 3.78361 3.70429
# Velocity P-wave (km/s) = 6.31109 6.82282 6.57194
#
# Compressibility (1/GPa) = 0.01993598
#
# Stress axis : x y z
#
# Youngs Moduli (GPa) = 45.24847 106.87675 109.14698
#
# Poissons Ratio (x) = 0.43807 0.42554
# Poissons Ratio (y) = 0.18547 0.25581
# Poissons Ratio (z) = 0.17641 0.25049
#
# Static dielectric constant tensor:
#      x y z
#    x 3.994990 0.000000 0.000000 
#    y 0.000000 4.246090 0.000000 
#    z 0.000000 0.000000 5.034000 
# 
# 
# High freq. dielectric constant tensor:
#      x y z
#    x 1.863350 0.000000 0.000000 
#    y 0.000000 1.903440 0.000000 
#    z 0.000000 0.000000 1.902310 
# 
# From -- ./inp_files/9657.got.cif
#   From: 2010.03.12/outbox.cif.g09.slc.cpg/sg20_5_cif.got.tgz:9657.got - 2010.04.14 01:38:04.
