data_PCOD8160823
_publ_section_title
;
Structure prediction by ZEFSAII (Michael W. Deem and Ramdas Pophale) SiO2 
 PCOD8160823
Probable space group: C 2 2 2
;
_chemical_formula_sum "Si O2"
_cell_formula_units_Z 56
_cell_length_a 18.278338
_cell_length_b 18.277913
_cell_length_c 10.699194
_cell_angle_alpha 90.000000
_cell_angle_beta 90.000000
_cell_angle_gamma 90.000000
_cell_volume 3574.492351
_symmetry_space_group_name_H-M "C 2 2 2"
_symmetry_group_IT_number 21
_symmetry_cell_setting 'orthorhombic'
loop_
_space_group_symop_operation_xyz
x,y,z
-x,-y,z
x,-y,-z
-x,y,-z
1/2+x,1/2+y,z
1/2-x,1/2-y,z
1/2+x,1/2-y,-z
1/2-x,1/2+y,-z
loop_
_atom_site_type_symbol
_atom_site_label
_atom_site_fract_x
_atom_site_fract_y
_atom_site_fract_z
Si Si1 0.670759 0.586220 0.996441
Si Si2 0.363977 0.754540 0.283121
Si Si3 0.413782 0.670766 0.496439
Si Si4 0.754532 0.363979 0.216878
Si Si5 0.536897 0.661192 0.874103
Si Si6 0.661180 0.536897 0.625898
Si Si7 0.395847 0.395842 0.250001
O O1 0.744768 0.617638 0.931459
O O2 0.603368 0.606481 0.905114
O O3 0.675108 0.500000 0.000000
O O4 0.659904 0.620426 0.134924
O O5 0.382360 0.744775 0.431457
O O6 0.297977 0.702026 0.249998
O O7 0.337525 0.837533 0.250001
O O8 0.435487 0.732180 0.202605
O O9 0.500000 0.675123 0.500000
O O10 0.393527 0.603371 0.405111
O O11 0.379576 0.659908 0.634920
O O12 0.732167 0.435490 0.297392
O O13 0.478975 0.614305 0.794621
O O14 0.500000 0.691973 0.000000
O O15 0.691960 0.500000 0.500000
O O16 0.614294 0.478973 0.705376
#
# Coordination Sequence:
#
# PCOD8160823 Si02
#       7
#     8   8   8   8   8   8   8
#     4  10  18  27  41  66  93 127 158 194 234 281
#     4   9  17  31  45  59  87 131 171 185 221 285
#     4  10  18  27  41  66  93 127 158 194 234 281
#     4   9  17  31  45  59  87 131 171 185 221 285
#     4   9  18  27  41  65  93 128 151 193 233 279
#     4   9  18  27  41  65  93 128 151 193 233 279
#     4  10  18  27  40  67 104 120 156 195 237 286
#
# _framework density 15.66656
#
# number of rings (size 3 to 8) (size 9 to 14) (size 15 to 20)
#    0.000    2.571    2.857    0.000    0.000    6.286 
#    0.000    0.000    0.000   30.857    0.000    0.000 
#    0.000    3.429    0.000    0.000    0.000    0.000 
#
# Total GULP energy -346925.638711 kJ/mol
# GULP energy per Si atom -12390.201383 kJ/mol
# Density = 1.563090 g / cm^3
# Si number density = 15.666560 Si / 1000 Ang^3
#
#
#
# Elastic Constant Matrix: (Units=GPa)
#
#
# Indices 1 2 3 4 5 6 
#
# 1 53.0965 48.6211 47.0400 0.0000 0.0000 0.0000
# 2 48.6211 53.0811 47.0334 0.0000 0.0000 0.0000
# 3 47.0400 47.0334 128.1916 0.0000 0.0000 0.0000
# 4 0.0000 0.0000 0.0000 14.9526 0.0000 0.0000
# 5 0.0000 0.0000 0.0000 0.0000 14.9535 0.0000
# 6 0.0000 0.0000 0.0000 0.0000 0.0000 30.3696
#
#
#
# Elastic Compliance Matrix: (Units=1/GPa)
#
#
# Indices 1 2 3 4 5 6 
#
# 1 0.119338 -0.104473 -0.005460 0.000000 0.000000 0.000000
# 2 -0.104473 0.119373 -0.005462 0.000000 0.000000 0.000000
# 3 -0.005460 -0.005462 0.011808 0.000000 0.000000 0.000000
# 4 0.000000 0.000000 0.000000 0.066878 0.000000 0.000000
# 5 0.000000 0.000000 0.000000 0.000000 0.066874 0.000000
# 6 0.000000 0.000000 0.000000 0.000000 0.000000 0.032928
#
#
# Mechanical properties :
#
#
# Convention : Reuss Voigt Hill
#
# Bulk Modulus (GPa) = 50.68336 57.75090 54.21713
# Shear Modulus (GPa) = 7.63867 18.16679 12.90273
#
# Velocity S-wave (km/s) = 2.21051 3.40897 2.87293
# Velocity P-wave (km/s) = 6.23993 7.24136 6.75922
#
# Compressibility (1/GPa) = 0.01973034
#
# Stress axis : x y z
#
# Youngs Moduli (GPa) = 8.37958 8.37710 84.68639
#
# Poissons Ratio (x) = 0.87518 0.46239
# Poissons Ratio (y) = 0.87544 0.46253
# Poissons Ratio (z) = 0.04575 0.04575
#
# Static dielectric constant tensor:
#      x y z
#    x 2.940530 0.000000 0.000000 
#    y 0.000000 2.940460 0.000000 
#    z 0.000000 0.000000 3.564190 
# 
# 
# High freq. dielectric constant tensor:
#      x y z
#    x 1.557730 0.000000 0.000000 
#    y 0.000000 1.557730 0.000000 
#    z 0.000000 0.000000 1.625990 
# 
# From -- ./inp_files/26268.got.cif
#   From: 2010.03.12/outbox.cif.g09.slc.cpg/sg21_14_cif.got.tgz:26268.got - 2010.04.14 01:59:26.
