data_PCOD8160886
_publ_section_title
;
Structure prediction by ZEFSAII (Michael W. Deem and Ramdas Pophale) SiO2 
 PCOD8160886
Probable space group: C 2 2 2
;
_chemical_formula_sum "Si O2"
_cell_formula_units_Z 40
_cell_length_a 7.682056
_cell_length_b 24.187542
_cell_length_c 10.235837
_cell_angle_alpha 90.000000
_cell_angle_beta 90.000000
_cell_angle_gamma 90.000000
_cell_volume 1901.921407
_symmetry_space_group_name_H-M "C 2 2 2"
_symmetry_group_IT_number 21
_symmetry_cell_setting 'orthorhombic'
loop_
_space_group_symop_operation_xyz
x,y,z
-x,-y,z
x,-y,-z
-x,y,-z
1/2+x,1/2+y,z
1/2-x,1/2-y,z
1/2+x,1/2-y,-z
1/2-x,1/2+y,-z
loop_
_atom_site_type_symbol
_atom_site_label
_atom_site_fract_x
_atom_site_fract_y
_atom_site_fract_z
Si Si1 0.800702 0.440534 0.778315
Si Si2 0.391144 0.293299 0.384856
Si Si3 0.195292 0.397076 0.493425
Si Si4 0.198486 0.565433 0.220721
Si Si5 0.499493 0.358648 0.856721
O O1 0.784321 0.442026 0.621200
O O2 0.762129 0.502756 0.824815
O O3 0.667052 0.398229 0.842977
O O4 0.997373 0.421007 0.813004
O O5 0.500000 0.262789 0.500000
O O6 0.250000 0.250000 0.331861
O O7 0.316677 0.345709 0.461592
O O8 0.500467 0.312291 0.257065
O O9 0.248102 0.426677 0.627350
O O10 0.000000 0.374018 0.500000
O O11 0.322089 0.606248 0.141706
O O12 0.500000 0.330042 0.000000
#
# Coordination Sequence:
#
# PCOD8160886 Si02
#       5
#     8   8   8   8   8
#     4   9  20  32  58  92 127 168 210 245 290 381
#     4  11  22  41  67  91 112 151 209 270 321 373
#     4   9  17  33  57  89 125 155 196 261 313 359
#     4  10  18  35  58  91 129 168 204 245 307 359
#     4  11  24  41  60  87 130 166 204 252 312 372
#
# _framework density 21.031362999999999
#
# number of rings (size 3 to 8) (size 9 to 14) (size 15 to 20)
#    0.000    2.000    2.000    1.800    0.000    4.800 
#    0.000    5.000    0.000    0.000    0.000    0.000 
#    0.000    0.000    0.000    0.000    0.000    0.000 
#
# Total GULP energy -247917.095914 kJ/mol
# GULP energy per Si atom -12395.854796 kJ/mol
# Density = 2.098350 g / cm^3
# Si number density = 21.031363 Si / 1000 Ang^3
#
#
#
# Elastic Constant Matrix: (Units=GPa)
#
#
# Indices 1 2 3 4 5 6 
#
# 1 86.6978 23.6989 29.8812 0.0000 0.0000 0.0000
# 2 23.6989 59.4803 18.6420 0.0000 0.0000 0.0000
# 3 29.8812 18.6420 132.5276 0.0000 0.0000 0.0000
# 4 0.0000 0.0000 0.0000 9.2290 0.0000 0.0000
# 5 0.0000 0.0000 0.0000 0.0000 17.9219 0.0000
# 6 0.0000 0.0000 0.0000 0.0000 0.0000 33.1391
#
#
#
# Elastic Compliance Matrix: (Units=1/GPa)
#
#
# Indices 1 2 3 4 5 6 
#
# 1 0.013647 -0.004679 -0.002419 0.000000 0.000000 0.000000
# 2 -0.004679 0.019192 -0.001645 0.000000 0.000000 0.000000
# 3 -0.002419 -0.001645 0.008322 0.000000 0.000000 0.000000
# 4 0.000000 0.000000 0.000000 0.108354 0.000000 0.000000
# 5 0.000000 0.000000 0.000000 0.000000 0.055798 0.000000
# 6 0.000000 0.000000 0.000000 0.000000 0.000000 0.030176
#
#
# Mechanical properties :
#
#
# Convention : Reuss Voigt Hill
#
# Bulk Modulus (GPa) = 42.23686 47.01665 44.62675
# Shear Modulus (GPa) = 19.16691 25.82359 22.49525
#
# Velocity S-wave (km/s) = 3.02213 3.50789 3.27403
# Velocity P-wave (km/s) = 5.68367 6.22985 5.96302
#
# Compressibility (1/GPa) = 0.02367600
#
# Stress axis : x y z
#
# Youngs Moduli (GPa) = 73.27576 52.10470 120.15901
#
# Poissons Ratio (x) = 0.24382 0.29064
# Poissons Ratio (y) = 0.34288 0.19761
# Poissons Ratio (z) = 0.17724 0.08569
#
# Static dielectric constant tensor:
#      x y z
#    x 4.349050 0.000000 0.000000 
#    y 0.000000 3.462400 0.000000 
#    z 0.000000 0.000000 3.789430 
# 
# 
# High freq. dielectric constant tensor:
#      x y z
#    x 1.831820 0.000000 0.000000 
#    y 0.000000 1.792740 0.000000 
#    z 0.000000 0.000000 1.821540 
# 
# From -- ./inp_files/10918.got.cif
#   From: 2010.03.12/outbox.cif.g09.slc.cpg/sg21_6_cif.got.tgz:10918.got - 2010.04.14 01:59:26.
