data_PCOD8160445
_publ_section_title
;
Structure prediction by ZEFSAII (Michael W. Deem and Ramdas Pophale) SiO2 
 PCOD8160445
Probable space group: C 2 2 21
;
_chemical_formula_sum "Si O2"
_cell_formula_units_Z 64
_cell_length_a 11.016331
_cell_length_b 9.265799
_cell_length_c 27.991519
_cell_angle_alpha 90.000000
_cell_angle_beta 90.000000
_cell_angle_gamma 90.000000
_cell_volume 2857.237346
_symmetry_space_group_name_H-M "C 2 2 21"
_symmetry_group_IT_number 20
_symmetry_cell_setting 'orthorhombic'
loop_
_space_group_symop_operation_xyz
x,y,z
-x,-y,1/2+z
x,-y,-z
-x,y,1/2-z
1/2+x,1/2+y,z
1/2-x,1/2-y,1/2+z
1/2+x,1/2-y,-z
1/2-x,1/2+y,1/2-z
loop_
_atom_site_type_symbol
_atom_site_label
_atom_site_fract_x
_atom_site_fract_y
_atom_site_fract_z
Si Si1 0.731768 0.366223 0.471025
Si Si2 0.011390 0.830978 0.414747
Si Si3 0.273467 0.378105 0.463645
Si Si4 0.891340 0.470177 0.885531
Si Si5 0.717766 0.408689 0.298126
Si Si6 0.726897 0.085324 0.286751
Si Si7 0.022076 0.951882 0.833883
Si Si8 0.891961 0.670472 0.616796
O O1 0.788901 0.500000 0.500000
O O2 0.609373 0.424104 0.444884
O O3 0.693848 0.239605 0.508021
O O4 0.831359 0.300409 0.434461
O O5 0.893324 0.793761 0.445686
O O6 0.093746 0.694598 0.400601
O O7 0.959566 0.912883 0.368706
O O8 0.316766 0.500000 0.500000
O O9 0.198532 0.445777 0.420360
O O10 0.840826 0.481417 0.832090
O O11 0.024342 0.533080 0.887663
O O12 0.683787 0.250331 0.277004
O O13 0.804896 0.491184 0.260278
O O14 0.605266 0.517956 0.307278
O O15 0.785997 0.373554 0.346935
O O16 0.871633 0.064360 0.294958
O O17 0.027364 0.806705 0.866103
#
# Coordination Sequence:
#
# PCOD8160445 Si02
#       8
#     8   8   8   8   8   8   8   8
#     4  12  26  45  68 104 142 187 248 292 353 436
#     4  12  23  45  71  98 139 187 238 291 355 422
#     4  12  26  44  73 103 141 190 236 298 358 422
#     4  12  26  45  68 105 146 182 238 298 356 430
#     4  11  25  48  74 104 145 182 244 295 361 435
#     4  11  25  47  72 108 140 188 238 296 361 437
#     4  11  22  46  76  99 137 190 236 291 362 421
#     4  11  27  45  72 103 146 189 236 301 359 428
#
# _framework density 22.399258
#
# number of rings (size 3 to 8) (size 9 to 14) (size 15 to 20)
#    0.000    0.500    5.000    3.000    5.250    3.000 
#    2.250    0.000    0.000    0.000    0.000    0.000 
#    0.000    0.000    0.000    0.000    0.000    0.000 
#
# Total GULP energy -396766.422320 kJ/mol
# GULP energy per Si atom -12398.950698 kJ/mol
# Density = 2.234828 g / cm^3
# Si number density = 22.399258 Si / 1000 Ang^3
#
#
#
# Elastic Constant Matrix: (Units=GPa)
#
#
# Indices 1 2 3 4 5 6 
#
# 1 66.8106 31.6305 0.2391 0.0000 0.0000 0.0000
# 2 31.6305 107.4784 51.1089 0.0000 0.0000 0.0000
# 3 0.2391 51.1089 80.3397 0.0000 0.0000 0.0000
# 4 0.0000 0.0000 0.0000 40.3353 0.0000 0.0000
# 5 0.0000 0.0000 0.0000 0.0000 10.9924 0.0000
# 6 0.0000 0.0000 0.0000 0.0000 0.0000 41.5682
#
#
#
# Elastic Compliance Matrix: (Units=1/GPa)
#
#
# Indices 1 2 3 4 5 6 
#
# 1 0.018660 -0.007835 0.004929 0.000000 0.000000 0.000000
# 2 -0.007835 0.016630 -0.010556 0.000000 0.000000 0.000000
# 3 0.004929 -0.010556 0.019148 0.000000 0.000000 0.000000
# 4 0.000000 0.000000 0.000000 0.024792 0.000000 0.000000
# 5 0.000000 0.000000 0.000000 0.000000 0.090972 0.000000
# 6 0.000000 0.000000 0.000000 0.000000 0.000000 0.024057
#
#
# Mechanical properties :
#
#
# Convention : Reuss Voigt Hill
#
# Bulk Modulus (GPa) = 36.34698 46.73175 41.53937
# Shear Modulus (GPa) = 21.70584 30.02252 25.86418
#
# Velocity S-wave (km/s) = 3.11632 3.66503 3.40176
# Velocity P-wave (km/s) = 5.40469 6.23043 5.83220
#
# Compressibility (1/GPa) = 0.02751260
#
# Stress axis : x y z
#
# Youngs Moduli (GPa) = 53.59183 60.13353 52.22576
#
# Poissons Ratio (x) = 0.47116 -0.25742
# Poissons Ratio (y) = 0.41991 0.55128
# Poissons Ratio (z) = -0.26415 0.63476
#
# Static dielectric constant tensor:
#      x y z
#    x 3.934140 0.000000 0.000000 
#    y 0.000000 4.233880 0.000000 
#    z 0.000000 0.000000 4.214390 
# 
# 
# High freq. dielectric constant tensor:
#      x y z
#    x 1.875210 0.000000 0.000000 
#    y 0.000000 1.883500 0.000000 
#    z 0.000000 0.000000 1.898810 
# 
# From -- ./inp_files/31192.got.cif
#   From: 2010.03.12/outbox.cif.g09.slc.cpg/sg20_16_cif.got.tgz:31192.got - 2010.04.14 01:38:04.
