data_PCOD8160667
_publ_section_title
;
Structure prediction by ZEFSAII (Michael W. Deem and Ramdas Pophale) SiO2 
 PCOD8160667
Probable space group: C 2 2 21
;
_chemical_formula_sum "Si O2"
_cell_formula_units_Z 64
_cell_length_a 17.661893
_cell_length_b 14.662766
_cell_length_c 11.125103
_cell_angle_alpha 90.000000
_cell_angle_beta 90.000000
_cell_angle_gamma 90.000000
_cell_volume 2881.092446
_symmetry_space_group_name_H-M "C 2 2 21"
_symmetry_group_IT_number 20
_symmetry_cell_setting 'orthorhombic'
loop_
_space_group_symop_operation_xyz
x,y,z
-x,-y,1/2+z
x,-y,-z
-x,y,1/2-z
1/2+x,1/2+y,z
1/2-x,1/2-y,1/2+z
1/2+x,1/2-y,-z
1/2-x,1/2+y,1/2-z
loop_
_atom_site_type_symbol
_atom_site_label
_atom_site_fract_x
_atom_site_fract_y
_atom_site_fract_z
Si Si1 0.089606 0.246321 0.890491
Si Si2 0.931567 0.694322 0.001712
Si Si3 0.670322 0.219014 0.880329
Si Si4 0.641991 0.899926 0.708949
Si Si5 0.189397 0.108295 0.261900
Si Si6 0.676321 0.357775 0.466119
Si Si7 0.580323 0.913479 0.260327
Si Si8 0.587647 0.440424 0.257754
O O1 0.105763 0.334454 0.809505
O O2 0.095586 0.153112 0.816129
O O3 0.155394 0.237935 0.989272
O O4 0.008192 0.256765 0.953330
O O5 0.933547 0.654439 0.870043
O O6 0.906160 0.613199 0.088864
O O7 0.864475 0.765571 0.001178
O O8 0.656135 0.293684 0.775785
O O9 0.751709 0.168006 0.882263
O O10 0.605542 0.144062 0.855742
O O11 0.730767 0.884343 0.693844
O O12 0.641321 0.007221 0.734133
O O13 0.199333 0.095714 0.406479
O O14 0.137731 0.025681 0.208772
O O15 0.618172 0.422118 0.392678
O O16 0.500000 0.964099 0.250000
O O17 0.500000 0.471699 0.250000
#
# Coordination Sequence:
#
# PCOD8160667 Si02
#       8
#     8   8   8   8   8   8   8   8
#     4  12  24  47  75 105 145 196 242 297 377 444
#     4  12  23  44  77 100 141 191 244 299 371 434
#     4  12  26  45  74 101 146 196 238 299 376 443
#     4  12  25  45  72 105 145 187 244 305 366 438
#     4  12  27  47  73 108 145 192 246 308 366 443
#     4  12  24  48  76 101 143 198 245 299 374 436
#     4  12  26  44  69 106 144 183 239 307 367 435
#     4  12  26  47  75 107 145 196 250 302 365 445
#
# _framework density 22.213797
#
# number of rings (size 3 to 8) (size 9 to 14) (size 15 to 20)
#    0.000    0.000    7.500    2.625    0.000    3.500 
#    4.500    0.000    0.000    0.000    0.000    0.000 
#    0.000    0.000    0.000    0.000    0.000    0.000 
#
# Total GULP energy -396644.298830 kJ/mol
# GULP energy per Si atom -12395.134338 kJ/mol
# Density = 2.216324 g / cm^3
# Si number density = 22.213797 Si / 1000 Ang^3
#
#
#
# Elastic Constant Matrix: (Units=GPa)
#
#
# Indices 1 2 3 4 5 6 
#
# 1 108.7229 35.5694 25.6822 0.0000 0.0000 0.0000
# 2 35.5694 85.5398 -5.3028 0.0000 0.0000 0.0000
# 3 25.6822 -5.3028 59.5004 0.0000 0.0000 0.0000
# 4 0.0000 0.0000 0.0000 14.8971 0.0000 0.0000
# 5 0.0000 0.0000 0.0000 0.0000 31.4859 0.0000
# 6 0.0000 0.0000 0.0000 0.0000 0.0000 39.1090
#
#
#
# Elastic Compliance Matrix: (Units=1/GPa)
#
#
# Indices 1 2 3 4 5 6 
#
# 1 0.012378 -0.005509 -0.005834 0.000000 0.000000 0.000000
# 2 -0.005509 0.014207 0.003644 0.000000 0.000000 0.000000
# 3 -0.005834 0.003644 0.019649 0.000000 0.000000 0.000000
# 4 0.000000 0.000000 0.000000 0.067127 0.000000 0.000000
# 5 0.000000 0.000000 0.000000 0.000000 0.031760 0.000000
# 6 0.000000 0.000000 0.000000 0.000000 0.000000 0.025570
#
#
# Mechanical properties :
#
#
# Convention : Reuss Voigt Hill
#
# Bulk Modulus (GPa) = 32.42815 40.62896 36.52856
# Shear Modulus (GPa) = 25.46248 30.28599 27.87424
#
# Velocity S-wave (km/s) = 3.38930 3.69641 3.54618
# Velocity P-wave (km/s) = 5.47233 6.04546 5.76602
#
# Compressibility (1/GPa) = 0.03083740
#
# Stress axis : x y z
#
# Youngs Moduli (GPa) = 80.78914 70.38788 50.89225
#
# Poissons Ratio (x) = 0.38774 0.29689
# Poissons Ratio (y) = 0.44504 -0.18545
# Poissons Ratio (z) = 0.47129 -0.25649
#
# Static dielectric constant tensor:
#      x y z
#    x 4.693790 0.000000 0.000000 
#    y 0.000000 3.962870 0.000000 
#    z 0.000000 0.000000 4.451830 
# 
# 
# High freq. dielectric constant tensor:
#      x y z
#    x 1.887850 0.000000 0.000000 
#    y 0.000000 1.883660 0.000000 
#    z 0.000000 0.000000 1.870370 
# 
# From -- ./inp_files/15907.got.cif
#   From: 2010.03.12/outbox.cif.g09.slc.cpg/sg20_8_cif.got.tgz:15907.got - 2010.04.14 01:38:04.
