data_PCOD8160911
_publ_section_title
;
Structure prediction by ZEFSAII (Michael W. Deem and Ramdas Pophale) SiO2 
 PCOD8160911
Probable space group: C 2 2 2
;
_chemical_formula_sum "Si O2"
_cell_formula_units_Z 34
_cell_length_a 21.592895
_cell_length_b 5.201055
_cell_length_c 18.075992
_cell_angle_alpha 90.000000
_cell_angle_beta 90.000000
_cell_angle_gamma 90.000000
_cell_volume 2030.039366
_symmetry_space_group_name_H-M "C 2 2 2"
_symmetry_group_IT_number 21
_symmetry_cell_setting 'orthorhombic'
loop_
_space_group_symop_operation_xyz
x,y,z
-x,-y,z
x,-y,-z
-x,y,-z
1/2+x,1/2+y,z
1/2-x,1/2-y,z
1/2+x,1/2-y,-z
1/2-x,1/2+y,-z
loop_
_atom_site_type_symbol
_atom_site_label
_atom_site_fract_x
_atom_site_fract_y
_atom_site_fract_z
Si Si1 0.500000 0.500000 0.000000
Si Si2 0.676482 0.751367 0.708972
Si Si3 0.176437 0.249186 0.204094
Si Si4 0.176118 0.249728 0.542507
Si Si5 0.618321 0.739877 0.044040
O O1 0.544255 0.682314 0.050379
O O2 0.750000 0.750000 0.705328
O O3 0.652576 0.503856 0.753663
O O4 0.649604 0.747021 0.625851
O O5 0.652715 0.006698 0.749589
O O6 0.250000 0.250000 0.195081
O O7 0.146312 0.263454 0.124397
O O8 0.150926 0.500000 0.500000
O O9 0.250000 0.250000 0.543670
O O10 0.150842 0.000000 0.500000
O O11 0.650061 0.500000 0.000000
O O12 0.631972 0.000000 0.000000
#
# Coordination Sequence:
#
# PCOD8160911 Si02
#       5
#     2   8   8   8   8
#     4   8  22  36  54  68  90 112 160 186 250 264
#     4   9  17  28  40  60  92 124 157 190 225 267
#     4  10  19  30  45  66  94 126 154 189 233 273
#     4   9  15  23  37  56  80 118 163 192 211 250
#     4  10  20  34  51  69  89 117 157 189 237 276
#
# _framework density 16.748443999999999
#
# number of rings (size 3 to 8) (size 9 to 14) (size 15 to 20)
#    0.706    1.882    0.000    3.176    0.000    6.588 
#    0.000    0.000    0.000    0.000    0.000    0.000 
#    0.000    0.000    0.000   15.882    0.471    7.059 
#
# Total GULP energy -210714.109135 kJ/mol
# GULP energy per Si atom -12394.947596 kJ/mol
# Density = 1.671032 g / cm^3
# Si number density = 16.748444 Si / 1000 Ang^3
#
#
#
# Elastic Constant Matrix: (Units=GPa)
#
#
# Indices 1 2 3 4 5 6 
#
# 1 20.7383 19.5369 28.0785 0.0000 0.0000 0.0000
# 2 19.5369 186.7084 101.8547 0.0000 0.0000 0.0000
# 3 28.0785 101.8547 187.3311 0.0000 0.0000 0.0000
# 4 0.0000 0.0000 0.0000 38.3202 0.0000 0.0000
# 5 0.0000 0.0000 0.0000 0.0000 -4.1875 0.0000
# 6 0.0000 0.0000 0.0000 0.0000 0.0000 5.8298
#
#
#
# Elastic Compliance Matrix: (Units=1/GPa)
#
#
# Indices 1 2 3 4 5 6 
#
# 1 0.061010 -0.001984 -0.008066 0.000000 0.000000 0.000000
# 2 -0.001984 0.007679 -0.003878 0.000000 0.000000 0.000000
# 3 -0.008066 -0.003878 0.008656 0.000000 0.000000 0.000000
# 4 0.000000 0.000000 0.000000 0.026096 0.000000 0.000000
# 5 0.000000 0.000000 0.000000 0.000000 -0.238807 0.000000
# 6 0.000000 0.000000 0.000000 0.000000 0.000000 0.171531
#
#
# Mechanical properties :
#
#
# Convention : Reuss Voigt Hill
#
# Bulk Modulus (GPa) = 20.20644 77.07977 48.64310
# Shear Modulus (GPa) = 62.09922 24.34636 43.22279
#
# Velocity S-wave (km/s) = 6.09574 3.81681 5.08558
# Velocity P-wave (km/s) = 7.85080 8.09605 7.97437
#
# Compressibility (1/GPa) = 0.04948918
#
# Stress axis : x y z
#
# Youngs Moduli (GPa) = 16.39081 130.22534 115.53254
#
# Poissons Ratio (x) = 0.25834 0.93188
# Poissons Ratio (y) = 0.03252 0.44802
# Poissons Ratio (z) = 0.13221 0.50499
#
# Static dielectric constant tensor:
#      x y z
#    x 2.519820 0.000000 0.000000 
#    y 0.000000 3.622640 0.000000 
#    z 0.000000 0.000000 3.248770 
# 
# 
# High freq. dielectric constant tensor:
#      x y z
#    x 1.565080 0.000000 0.000000 
#    y 0.000000 1.670850 0.000000 
#    z 0.000000 0.000000 1.656480 
# 
# From -- ./inp_files/29054.got.cif
#   From: 2010.03.12/outbox.cif.g09.slc.cpg/sg21_15_cif.got.tgz:29054.got - 2010.04.14 01:59:26.
