data_PCOD8160666
_publ_section_title
;
Structure prediction by ZEFSAII (Michael W. Deem and Ramdas Pophale) SiO2 
 PCOD8160666
Probable space group: C 2 2 21
;
_chemical_formula_sum "Si O2"
_cell_formula_units_Z 40
_cell_length_a 17.179974
_cell_length_b 16.062060
_cell_length_c 6.042544
_cell_angle_alpha 90.000000
_cell_angle_beta 90.000000
_cell_angle_gamma 90.000000
_cell_volume 1667.414476
_symmetry_space_group_name_H-M "C 2 2 21"
_symmetry_group_IT_number 20
_symmetry_cell_setting 'orthorhombic'
loop_
_space_group_symop_operation_xyz
x,y,z
-x,-y,1/2+z
x,-y,-z
-x,y,1/2-z
1/2+x,1/2+y,z
1/2-x,1/2-y,1/2+z
1/2+x,1/2-y,-z
1/2-x,1/2+y,1/2-z
loop_
_atom_site_type_symbol
_atom_site_label
_atom_site_fract_x
_atom_site_fract_y
_atom_site_fract_z
Si Si1 0.554460 0.745176 0.441478
Si Si2 0.678817 0.783369 0.115577
Si Si3 0.658502 0.345829 0.223640
Si Si4 0.500000 0.882291 0.750000
Si Si5 0.782642 0.000000 0.500000
Si Si6 0.338915 0.066301 0.317627
O O1 0.500000 0.702943 0.250000
O O2 0.630644 0.791671 0.341757
O O3 0.582588 0.676062 0.624751
O O4 0.502288 0.819389 0.540849
O O5 0.768544 0.804692 0.152363
O O6 0.657204 0.691952 0.023444
O O7 0.653632 0.842036 0.915154
O O8 0.666367 0.445638 0.175749
O O9 0.572525 0.946806 0.736862
O O10 0.725309 0.064062 0.374257
O O11 0.313196 0.000000 0.500000
#
# Coordination Sequence:
#
# PCOD8160666 Si02
#       6
#     8   8   8   4   4   8
#     4  12  24  44  73 108 144 191 257 300 361 440
#     4  12  23  44  74 104 144 197 249 298 361 448
#     4  12  24  43  72 110 148 193 251 307 369 439
#     4  12  26  42  66 106 146 202 238 294 366 454
#     4  12  28  44  68 112 154 188 244 318 368 434
#     4  12  26  42  65 106 156 197 240 295 372 444
#
# _framework density 23.989235000000001
#
# number of rings (size 3 to 8) (size 9 to 14) (size 15 to 20)
#    0.000    0.000    8.000    2.400    1.400    0.000 
#    0.000    0.000    0.000    0.000   26.000    0.000 
#    0.000    0.000    0.000    0.000    0.000    0.000 
#
# Total GULP energy -247856.924952 kJ/mol
# GULP energy per Si atom -12392.846248 kJ/mol
# Density = 2.393463 g / cm^3
# Si number density = 23.989235 Si / 1000 Ang^3
#
#
#
# Elastic Constant Matrix: (Units=GPa)
#
#
# Indices 1 2 3 4 5 6 
#
# 1 83.2992 26.1577 29.6469 0.0000 0.0000 0.0000
# 2 26.1577 83.6609 31.5064 0.0000 0.0000 0.0000
# 3 29.6469 31.5064 92.9771 0.0000 0.0000 0.0000
# 4 0.0000 0.0000 0.0000 34.7884 0.0000 0.0000
# 5 0.0000 0.0000 0.0000 0.0000 53.4255 0.0000
# 6 0.0000 0.0000 0.0000 0.0000 0.0000 33.8577
#
#
#
# Elastic Compliance Matrix: (Units=1/GPa)
#
#
# Indices 1 2 3 4 5 6 
#
# 1 0.014227 -0.003141 -0.003472 0.000000 0.000000 0.000000
# 2 -0.003141 0.014395 -0.003876 0.000000 0.000000 0.000000
# 3 -0.003472 -0.003876 0.013176 0.000000 0.000000 0.000000
# 4 0.000000 0.000000 0.000000 0.028745 0.000000 0.000000
# 5 0.000000 0.000000 0.000000 0.000000 0.018718 0.000000
# 6 0.000000 0.000000 0.000000 0.000000 0.000000 0.029535
#
#
# Mechanical properties :
#
#
# Convention : Reuss Voigt Hill
#
# Bulk Modulus (GPa) = 48.03231 48.28435 48.15833
# Shear Modulus (GPa) = 34.07985 35.92274 35.00130
#
# Velocity S-wave (km/s) = 3.77321 3.87389 3.82388
# Velocity P-wave (km/s) = 6.24890 6.33882 6.29402
#
# Compressibility (1/GPa) = 0.02081932
#
# Stress axis : x y z
#
# Youngs Moduli (GPa) = 70.28927 69.46946 75.89521
#
# Poissons Ratio (x) = 0.21818 0.26352
# Poissons Ratio (y) = 0.22075 0.29420
# Poissons Ratio (z) = 0.24406 0.26929
#
# Static dielectric constant tensor:
#      x y z
#    x 4.551330 0.000000 0.000000 
#    y 0.000000 4.068500 0.000000 
#    z 0.000000 0.000000 4.513100 
# 
# 
# High freq. dielectric constant tensor:
#      x y z
#    x 1.955310 0.000000 0.000000 
#    y 0.000000 1.915470 0.000000 
#    z 0.000000 0.000000 1.964100 
# 
# From -- ./inp_files/2526.got.cif
#   From: 2010.03.12/outbox.cif.g09.slc.cpg/sg20_2_cif.got.tgz:2526.got - 2010.04.14 01:38:04.
