data_PCOD8160699
_publ_section_title
;
Structure prediction by ZEFSAII (Michael W. Deem and Ramdas Pophale) SiO2 
 PCOD8160699
Probable space group: C 2 2 21
;
_chemical_formula_sum "Si O2"
_cell_formula_units_Z 28
_cell_length_a 23.037099
_cell_length_b 10.204816
_cell_length_c 4.937321
_cell_angle_alpha 90.000000
_cell_angle_beta 90.000000
_cell_angle_gamma 90.000000
_cell_volume 1160.711617
_symmetry_space_group_name_H-M "C 2 2 21"
_symmetry_group_IT_number 20
_symmetry_cell_setting 'orthorhombic'
loop_
_space_group_symop_operation_xyz
x,y,z
-x,-y,1/2+z
x,-y,-z
-x,y,1/2-z
1/2+x,1/2+y,z
1/2-x,1/2-y,1/2+z
1/2+x,1/2-y,-z
1/2-x,1/2+y,1/2-z
loop_
_atom_site_type_symbol
_atom_site_label
_atom_site_fract_x
_atom_site_fract_y
_atom_site_fract_z
Si Si1 0.339556 0.000000 0.500000
Si Si2 0.216383 0.709630 0.666409
Si Si3 0.000000 0.093157 0.750000
Si Si4 0.105280 0.718604 0.367079
Si Si5 0.536362 0.000000 0.500000
O O1 0.298558 0.061820 0.735899
O O2 0.377382 0.118977 0.376696
O O3 0.265989 0.705980 0.432894
O O4 0.161050 0.780282 0.519018
O O5 0.940176 0.174607 0.764034
O O6 0.992330 0.000000 0.500000
O O7 0.074609 0.624941 0.593152
O O8 0.500000 0.052872 0.250000
#
# Coordination Sequence:
#
# PCOD8160699 Si02
#       5
#     4   8   4   8   4
#     4  12  25  52  84 124 152 208 273 344 390 470
#     4  12  27  48  77 120 165 204 258 334 404 473
#     4  12  34  54  76 114 170 218 260 320 406 494
#     4  12  27  49  87 115 164 200 278 322 405 472
#     4  12  25  40  82 130 146 190 255 344 394 448
#
# _framework density 24.123131000000001
#
# number of rings (size 3 to 8) (size 9 to 14) (size 15 to 20)
#    0.000    0.000    7.143    0.857    6.000    0.000 
#    2.571    5.714    0.000    0.000    0.000    0.000 
#    0.000    0.000    0.000    0.000    0.000    0.000 
#
# Total GULP energy -173483.440416 kJ/mol
# GULP energy per Si atom -12391.674315 kJ/mol
# Density = 2.406823 g / cm^3
# Si number density = 24.123131 Si / 1000 Ang^3
#
#
#
# Elastic Constant Matrix: (Units=GPa)
#
#
# Indices 1 2 3 4 5 6 
#
# 1 148.6671 83.0472 76.0781 0.0000 0.0000 0.0000
# 2 83.0472 136.7751 66.9468 0.0000 0.0000 0.0000
# 3 76.0781 66.9468 162.2675 0.0000 0.0000 0.0000
# 4 0.0000 0.0000 0.0000 52.7561 0.0000 0.0000
# 5 0.0000 0.0000 0.0000 0.0000 15.4211 0.0000
# 6 0.0000 0.0000 0.0000 0.0000 0.0000 -85.5349
#
#
#
# Elastic Compliance Matrix: (Units=1/GPa)
#
#
# Indices 1 2 3 4 5 6 
#
# 1 0.011293 -0.005345 -0.003090 0.000000 0.000000 0.000000
# 2 -0.005345 0.011691 -0.002317 0.000000 0.000000 0.000000
# 3 -0.003090 -0.002317 0.008567 0.000000 0.000000 0.000000
# 4 0.000000 0.000000 0.000000 0.018955 0.000000 0.000000
# 5 0.000000 0.000000 0.000000 0.000000 0.064846 0.000000
# 6 0.000000 0.000000 0.000000 0.000000 0.000000 -0.011691
#
#
# Mechanical properties :
#
#
# Convention : Reuss Voigt Hill
#
# Bulk Modulus (GPa) = 99.52557 99.98376 99.75467
# Shear Modulus (GPa) = 38.90618 11.30431 25.10524
#
# Velocity S-wave (km/s) = 4.02035 2.16709 3.22951
# Velocity P-wave (km/s) = 7.93081 6.91368 7.43965
#
# Compressibility (1/GPa) = 0.01004767
#
# Stress axis : x y z
#
# Youngs Moduli (GPa) = 88.54946 85.53747 116.72238
#
# Poissons Ratio (x) = 0.45717 0.36063
# Poissons Ratio (y) = 0.47327 0.27050
# Poissons Ratio (z) = 0.27359 0.19823
#
# Static dielectric constant tensor:
#      x y z
#    x 4.913220 0.000000 0.000000 
#    y 0.000000 4.196780 0.000000 
#    z 0.000000 0.000000 4.571350 
# 
# 
# High freq. dielectric constant tensor:
#      x y z
#    x 1.977620 0.000000 0.000000 
#    y 0.000000 1.924850 0.000000 
#    z 0.000000 0.000000 1.977920 
# 
# From -- ./inp_files/2968.got.cif
#   From: 2010.03.12/outbox.cif.g09.slc.cpg/sg20_2_cif.got.tgz:2968.got - 2010.04.14 01:38:04.
