data_PCOD8160618
_publ_section_title
;
Structure prediction by ZEFSAII (Michael W. Deem and Ramdas Pophale) SiO2 
 PCOD8160618
Probable space group: C 2 2 21
;
_chemical_formula_sum "Si O2"
_cell_formula_units_Z 28
_cell_length_a 6.959317
_cell_length_b 18.121626
_cell_length_c 9.139790
_cell_angle_alpha 90.000000
_cell_angle_beta 90.000000
_cell_angle_gamma 90.000000
_cell_volume 1152.656755
_symmetry_space_group_name_H-M "C 2 2 21"
_symmetry_group_IT_number 20
_symmetry_cell_setting 'orthorhombic'
loop_
_space_group_symop_operation_xyz
x,y,z
-x,-y,1/2+z
x,-y,-z
-x,y,1/2-z
1/2+x,1/2+y,z
1/2-x,1/2-y,1/2+z
1/2+x,1/2-y,-z
1/2-x,1/2+y,1/2-z
loop_
_atom_site_type_symbol
_atom_site_label
_atom_site_fract_x
_atom_site_fract_y
_atom_site_fract_z
Si Si1 0.778043 0.327977 0.639130
Si Si2 0.646794 0.689962 0.045840
Si Si3 0.844400 0.050348 0.625167
Si Si4 0.500000 0.956611 0.750000
O O1 0.561330 0.340910 0.589269
O O2 0.780185 0.301784 0.809954
O O3 0.878040 0.267984 0.534601
O O4 0.895418 0.404468 0.628566
O O5 0.731832 0.628889 0.935766
O O6 0.000000 0.064240 0.750000
O O7 0.943130 0.000000 0.500000
O O8 0.656632 0.007473 0.675917
#
# Coordination Sequence:
#
# PCOD8160618 Si02
#       4
#     8   8   8   4
#     4  11  25  49  79 112 156 205 265 322 390 470
#     4  11  26  48  78 114 158 205 260 328 386 468
#     4  12  28  51  78 117 157 206 258 327 393 467
#     4  12  26  48  80 112 156 206 254 326 392 464
#
# _framework density 24.291706000000001
#
# number of rings (size 3 to 8) (size 9 to 14) (size 15 to 20)
#    0.000    0.571    2.857    3.429    6.000    5.714 
#    0.000    0.000    0.000    0.000    0.000    0.000 
#    0.000    0.000    0.000    0.000    0.000    0.000 
#
# Total GULP energy -173630.858610 kJ/mol
# GULP energy per Si atom -12402.204186 kJ/mol
# Density = 2.423642 g / cm^3
# Si number density = 24.291706 Si / 1000 Ang^3
#
#
#
# Elastic Constant Matrix: (Units=GPa)
#
#
# Indices 1 2 3 4 5 6 
#
# 1 82.6390 32.3018 44.1153 0.0000 0.0000 0.0000
# 2 32.3018 140.7396 62.0076 0.0000 0.0000 0.0000
# 3 44.1153 62.0076 140.7366 0.0000 0.0000 0.0000
# 4 0.0000 0.0000 0.0000 47.5958 0.0000 0.0000
# 5 0.0000 0.0000 0.0000 0.0000 40.0426 0.0000
# 6 0.0000 0.0000 0.0000 0.0000 0.0000 469.5705
#
#
#
# Elastic Compliance Matrix: (Units=1/GPa)
#
#
# Indices 1 2 3 4 5 6 
#
# 1 0.014847 -0.001684 -0.003912 0.000000 0.000000 0.000000
# 2 -0.001684 0.009008 -0.003441 0.000000 0.000000 0.000000
# 3 -0.003912 -0.003441 0.009848 0.000000 0.000000 0.000000
# 4 0.000000 0.000000 0.000000 0.021010 0.000000 0.000000
# 5 0.000000 0.000000 0.000000 0.000000 0.024973 0.000000
# 6 0.000000 0.000000 0.000000 0.000000 0.000000 0.002130
#
#
# Mechanical properties :
#
#
# Convention : Reuss Voigt Hill
#
# Bulk Modulus (GPa) = 63.98383 71.21827 67.60105
# Shear Modulus (GPa) = 47.57363 126.48780 87.03071
#
# Velocity S-wave (km/s) = 4.43022 7.22381 5.99209
# Velocity P-wave (km/s) = 7.25025 9.94784 8.70418
#
# Compressibility (1/GPa) = 0.01562895
#
# Stress axis : x y z
#
# Youngs Moduli (GPa) = 67.35143 111.01421 101.54567
#
# Poissons Ratio (x) = 0.18696 0.39725
# Poissons Ratio (y) = 0.11343 0.34941
# Poissons Ratio (z) = 0.26348 0.38199
#
# Static dielectric constant tensor:
#      x y z
#    x 4.409590 0.000000 0.000000 
#    y 0.000000 4.354490 0.000000 
#    z 0.000000 0.000000 1.758180 
# 
# 
# High freq. dielectric constant tensor:
#      x y z
#    x 1.978440 0.000000 0.000000 
#    y 0.000000 1.969440 0.000000 
#    z 0.000000 0.000000 1.966040 
# 
# From -- ./inp_files/5687.got.cif
#   From: 2010.03.12/outbox.cif.g09.slc.cpg/sg20_3_cif.got.tgz:5687.got - 2010.04.14 01:38:04.
