data_PCOD8160776
_publ_section_title
;
Structure prediction by ZEFSAII (Michael W. Deem and Ramdas Pophale) SiO2 
 PCOD8160776
Probable space group: C 2 2 2
;
_chemical_formula_sum "Si O2"
_cell_formula_units_Z 40
_cell_length_a 34.862357
_cell_length_b 5.107232
_cell_length_c 13.483653
_cell_angle_alpha 90.000000
_cell_angle_beta 90.000000
_cell_angle_gamma 90.000000
_cell_volume 2400.766375
_symmetry_space_group_name_H-M "C 2 2 2"
_symmetry_group_IT_number 21
_symmetry_cell_setting 'orthorhombic'
loop_
_space_group_symop_operation_xyz
x,y,z
-x,-y,z
x,-y,-z
-x,y,-z
1/2+x,1/2+y,z
1/2-x,1/2-y,z
1/2+x,1/2-y,-z
1/2-x,1/2+y,-z
loop_
_atom_site_type_symbol
_atom_site_label
_atom_site_fract_x
_atom_site_fract_y
_atom_site_fract_z
Si Si1 0.775294 0.500000 0.500000
Si Si2 0.322765 0.663418 0.188694
Si Si3 0.394636 0.249493 0.932609
Si Si4 0.982648 0.251128 0.110462
Si Si5 0.205811 0.325190 0.293882
Si Si6 0.774862 0.000000 0.000000
O O1 0.750000 0.250000 0.465100
O O2 0.801737 0.591103 0.408027
O O3 0.366676 0.730979 0.161977
O O4 0.320576 0.427180 0.268723
O O5 0.302979 0.928285 0.225072
O O6 0.301427 0.569844 0.091190
O O7 0.437093 0.236385 0.888683
O O8 0.389418 0.500000 0.000000
O O9 0.384659 0.000000 0.000000
O O10 0.000000 0.500000 0.168180
O O11 0.000000 0.000000 0.167182
O O12 0.000000 0.250026 0.000000
O O13 0.250000 0.250000 0.279078
O O14 0.750000 0.250000 0.968269
#
# Coordination Sequence:
#
# PCOD8160776 Si02
#       6
#     4   8   8   8   8   4
#     4  10  20  36  62  82  90 116 165 228 285 324
#     4  12  24  35  48  71 103 137 168 211 247 298
#     4  12  21  33  47  67  99 136 177 204 239 294
#     4  10  16  29  48  67  86 122 176 212 244 272
#     4  11  22  39  55  74  96 125 171 221 268 305
#     4  12  24  34  46  62  91 138 181 202 228 274
#
# _framework density 16.661348
#
# number of rings (size 3 to 8) (size 9 to 14) (size 15 to 20)
#    0.000    0.800    5.000    7.200    1.400    0.000 
#    0.000    0.000    0.000    0.000    0.000    0.000 
#    0.000    0.000    0.000   13.500    0.000    1.200 
#
# Total GULP energy -247960.506473 kJ/mol
# GULP energy per Si atom -12398.025324 kJ/mol
# Density = 1.662343 g / cm^3
# Si number density = 16.661348 Si / 1000 Ang^3
#
#
#
# Elastic Constant Matrix: (Units=GPa)
#
#
# Indices 1 2 3 4 5 6 
#
# 1 118.2597 50.6785 51.3228 0.0000 0.0000 0.0000
# 2 50.6785 161.7387 38.5541 0.0000 0.0000 0.0000
# 3 51.3228 38.5541 70.8780 0.0000 0.0000 0.0000
# 4 0.0000 0.0000 0.0000 33.9854 0.0000 0.0000
# 5 0.0000 0.0000 0.0000 0.0000 -1.9209 0.0000
# 6 0.0000 0.0000 0.0000 0.0000 0.0000 23.5745
#
#
#
# Elastic Compliance Matrix: (Units=1/GPa)
#
#
# Indices 1 2 3 4 5 6 
#
# 1 0.012917 -0.002089 -0.008217 0.000000 0.000000 0.000000
# 2 -0.002089 0.007442 -0.002535 0.000000 0.000000 0.000000
# 3 -0.008217 -0.002535 0.021438 0.000000 0.000000 0.000000
# 4 0.000000 0.000000 0.000000 0.029424 0.000000 0.000000
# 5 0.000000 0.000000 0.000000 0.000000 -0.520594 0.000000
# 6 0.000000 0.000000 0.000000 0.000000 0.000000 0.042419
#
#
# Mechanical properties :
#
#
# Convention : Reuss Voigt Hill
#
# Bulk Modulus (GPa) = 62.05733 70.22079 66.13906
# Shear Modulus (GPa) = -13.30142 25.14921 5.92390
#
# Velocity S-wave (km/s) = -2.82856 3.88936 1.88764
# Velocity P-wave (km/s) = 5.16328 7.89980 6.67332
#
# Compressibility (1/GPa) = 0.01611413
#
# Stress axis : x y z
#
# Youngs Moduli (GPa) = 77.41647 134.37880 46.64615
#
# Poissons Ratio (x) = 0.28067 0.38330
# Poissons Ratio (y) = 0.16170 0.11827
# Poissons Ratio (z) = 0.63615 0.34072
#
# Static dielectric constant tensor:
#      x y z
#    x 2.816350 0.000000 0.000000 
#    y 0.000000 3.255680 0.000000 
#    z 0.000000 0.000000 2.883680 
# 
# 
# High freq. dielectric constant tensor:
#      x y z
#    x 1.624280 0.000000 0.000000 
#    y 0.000000 1.684140 0.000000 
#    z 0.000000 0.000000 1.593940 
# 
# From -- ./inp_files/27962.got.cif
#   From: 2010.03.12/outbox.cif.g09.slc.cpg/sg21_14_cif.got.tgz:27962.got - 2010.04.14 01:59:26.
