data_PCOD8160406
_publ_section_title
;
Structure prediction by ZEFSAII (Michael W. Deem and Ramdas Pophale) SiO2 
 PCOD8160406
Probable space group: C 2 2 21
;
_chemical_formula_sum "Si O2"
_cell_formula_units_Z 64
_cell_length_a 11.328904
_cell_length_b 9.495236
_cell_length_c 28.039139
_cell_angle_alpha 90.000000
_cell_angle_beta 90.000000
_cell_angle_gamma 90.000000
_cell_volume 3016.187485
_symmetry_space_group_name_H-M "C 2 2 21"
_symmetry_group_IT_number 20
_symmetry_cell_setting 'orthorhombic'
loop_
_space_group_symop_operation_xyz
x,y,z
-x,-y,1/2+z
x,-y,-z
-x,y,1/2-z
1/2+x,1/2+y,z
1/2-x,1/2-y,1/2+z
1/2+x,1/2-y,-z
1/2-x,1/2+y,1/2-z
loop_
_atom_site_type_symbol
_atom_site_label
_atom_site_fract_x
_atom_site_fract_y
_atom_site_fract_z
Si Si1 0.242304 0.360887 0.814145
Si Si2 0.312694 0.493762 0.443586
Si Si3 0.404147 0.760147 0.393406
Si Si4 0.540503 0.993863 0.444602
Si Si5 0.668084 0.644375 0.643926
Si Si6 0.428786 0.751471 0.607699
Si Si7 0.108391 0.636768 0.277883
Si Si8 0.955198 0.331651 0.198183
O O1 0.315911 0.486576 0.837584
O O2 0.129591 0.308115 0.843895
O O3 0.202003 0.413772 0.761992
O O4 0.325826 0.226738 0.810842
O O5 0.338228 0.500000 0.500000
O O6 0.394863 0.603489 0.414886
O O7 0.176287 0.521789 0.431385
O O8 0.339892 0.338040 0.424591
O O9 0.272539 0.825334 0.393713
O O10 0.451497 0.767898 0.339265
O O11 0.496186 0.842915 0.426457
O O12 0.460981 0.112201 0.421737
O O13 0.519667 0.000000 0.500000
O O14 0.542245 0.654903 0.618396
O O15 0.673208 0.757256 0.686715
O O16 0.056249 0.501308 0.306340
O O17 0.000000 0.712884 0.250000
O O18 0.000000 0.285878 0.250000
#
# Coordination Sequence:
#
# PCOD8160406 Si02
#       8
#     8   8   8   8   8   8   8   8
#     4  12  24  42  64  98 136 180 233 279 336 401
#     4  11  26  46  72 102 134 178 229 287 353 420
#     4  12  23  45  69 100 137 182 228 284 348 412
#     4  11  24  46  72  99 136 178 225 284 352 412
#     4  12  24  41  67  97 136 182 224 282 339 403
#     4  12  24  44  68 101 134 175 228 279 344 410
#     4  11  22  42  64  93 136 184 230 277 327 400
#     4  11  25  43  67  99 139 187 232 285 342 407
#
# _framework density 21.21884
#
# number of rings (size 3 to 8) (size 9 to 14) (size 15 to 20)
#    0.000    0.500    3.750    6.000    1.750    0.500 
#    4.500    0.625    0.000    0.000    0.000    0.000 
#    0.000    0.000    0.000    0.000    0.000    0.000 
#
# Total GULP energy -396942.116051 kJ/mol
# GULP energy per Si atom -12404.441127 kJ/mol
# Density = 2.117054 g / cm^3
# Si number density = 21.218840 Si / 1000 Ang^3
#
#
#
# Elastic Constant Matrix: (Units=GPa)
#
#
# Indices 1 2 3 4 5 6 
#
# 1 76.7016 32.4616 48.8533 0.0000 0.0000 0.0000
# 2 32.4616 74.7082 35.4044 0.0000 0.0000 0.0000
# 3 48.8533 35.4044 102.4103 0.0000 0.0000 0.0000
# 4 0.0000 0.0000 0.0000 26.7407 0.0000 0.0000
# 5 0.0000 0.0000 0.0000 0.0000 38.8775 0.0000
# 6 0.0000 0.0000 0.0000 0.0000 0.0000 44.2362
#
#
#
# Elastic Compliance Matrix: (Units=1/GPa)
#
#
# Indices 1 2 3 4 5 6 
#
# 1 0.020196 -0.005035 -0.007894 0.000000 0.000000 0.000000
# 2 -0.005035 0.017263 -0.003566 0.000000 0.000000 0.000000
# 3 -0.007894 -0.003566 0.014763 0.000000 0.000000 0.000000
# 4 0.000000 0.000000 0.000000 0.037396 0.000000 0.000000
# 5 0.000000 0.000000 0.000000 0.000000 0.025722 0.000000
# 6 0.000000 0.000000 0.000000 0.000000 0.000000 0.022606
#
#
# Mechanical properties :
#
#
# Convention : Reuss Voigt Hill
#
# Bulk Modulus (GPa) = 51.99407 54.13985 53.06696
# Shear Modulus (GPa) = 28.19343 31.11095 29.65219
#
# Velocity S-wave (km/s) = 3.64909 3.83325 3.74230
# Velocity P-wave (km/s) = 6.50472 6.72027 6.61337
#
# Compressibility (1/GPa) = 0.01923296
#
# Stress axis : x y z
#
# Youngs Moduli (GPa) = 49.51488 57.92705 67.73623
#
# Poissons Ratio (x) = 0.29164 0.53469
# Poissons Ratio (y) = 0.24928 0.24157
# Poissons Ratio (z) = 0.39085 0.20659
#
# Static dielectric constant tensor:
#      x y z
#    x 3.971060 0.000000 0.000000 
#    y 0.000000 3.711000 0.000000 
#    z 0.000000 0.000000 3.836340 
# 
# 
# High freq. dielectric constant tensor:
#      x y z
#    x 1.845980 0.000000 0.000000 
#    y 0.000000 1.830670 0.000000 
#    z 0.000000 0.000000 1.836320 
# 
# From -- ./inp_files/31189.got.cif
#   From: 2010.03.12/outbox.cif.g09.slc.cpg/sg20_16_cif.got.tgz:31189.got - 2010.04.14 01:38:04.
