data_PCOD8160627
_publ_section_title
;
Structure prediction by ZEFSAII (Michael W. Deem and Ramdas Pophale) SiO2 
 PCOD8160627
Probable space group: C 2 2 21
;
_chemical_formula_sum "Si O2"
_cell_formula_units_Z 40
_cell_length_a 18.393252
_cell_length_b 5.067607
_cell_length_c 17.859666
_cell_angle_alpha 90.000000
_cell_angle_beta 90.000000
_cell_angle_gamma 90.000000
_cell_volume 1664.695406
_symmetry_space_group_name_H-M "C 2 2 21"
_symmetry_group_IT_number 20
_symmetry_cell_setting 'orthorhombic'
loop_
_space_group_symop_operation_xyz
x,y,z
-x,-y,1/2+z
x,-y,-z
-x,y,1/2-z
1/2+x,1/2+y,z
1/2-x,1/2-y,1/2+z
1/2+x,1/2-y,-z
1/2-x,1/2+y,1/2-z
loop_
_atom_site_type_symbol
_atom_site_label
_atom_site_fract_x
_atom_site_fract_y
_atom_site_fract_z
Si Si1 0.909901 0.231706 0.340117
Si Si2 0.712486 0.260386 0.953386
Si Si3 0.500727 0.752651 0.836509
Si Si4 0.854988 0.100604 0.917128
Si Si5 0.204803 0.832203 0.722998
O O1 0.842019 0.321223 0.388934
O O2 0.972545 0.449727 0.346322
O O3 0.876062 0.213335 0.257219
O O4 0.943257 0.958873 0.371694
O O5 0.793630 0.331838 0.923514
O O6 0.678947 0.500000 0.000000
O O7 0.726162 0.000000 0.000000
O O8 0.500000 0.671219 0.750000
O O9 0.423032 0.731400 0.875764
O O10 0.813827 0.881550 0.864621
O O11 0.878998 0.000000 0.000000
O O12 0.257994 0.582677 0.734623
#
# Coordination Sequence:
#
# PCOD8160627 Si02
#       5
#     8   8   8   8   8
#     4  12  26  47  77 105 147 203 252 312 372 460
#     4  11  26  47  73 109 148 192 253 316 380 450
#     4  12  27  47  73 110 152 198 254 307 381 455
#     4  11  28  48  78 115 155 200 252 324 384 449
#     4  12  26  46  80 116 148 199 262 318 381 452
#
# _framework density 24.028421999999999
#
# number of rings (size 3 to 8) (size 9 to 14) (size 15 to 20)
#    0.000    0.400    4.000    3.000    5.600    5.600 
#    0.000    0.000    0.000    0.000    0.000    0.000 
#    0.000    0.000    0.000    0.000    0.000    0.000 
#
# Total GULP energy -247925.678672 kJ/mol
# GULP energy per Si atom -12396.283934 kJ/mol
# Density = 2.397373 g / cm^3
# Si number density = 24.028422 Si / 1000 Ang^3
#
#
#
# Elastic Constant Matrix: (Units=GPa)
#
#
# Indices 1 2 3 4 5 6 
#
# 1 126.6736 36.5507 59.1499 0.0000 0.0000 0.0000
# 2 36.5507 125.3223 28.0335 0.0000 0.0000 0.0000
# 3 59.1499 28.0335 139.2026 0.0000 0.0000 0.0000
# 4 0.0000 0.0000 0.0000 16.4573 0.0000 0.0000
# 5 0.0000 0.0000 0.0000 0.0000 56.9473 0.0000
# 6 0.0000 0.0000 0.0000 0.0000 0.0000 27.0074
#
#
#
# Elastic Compliance Matrix: (Units=1/GPa)
#
#
# Indices 1 2 3 4 5 6 
#
# 1 0.010366 -0.002134 -0.003975 0.000000 0.000000 0.000000
# 2 -0.002134 0.008795 -0.000864 0.000000 0.000000 0.000000
# 3 -0.003975 -0.000864 0.009047 0.000000 0.000000 0.000000
# 4 0.000000 0.000000 0.000000 0.060763 0.000000 0.000000
# 5 0.000000 0.000000 0.000000 0.000000 0.017560 0.000000
# 6 0.000000 0.000000 0.000000 0.000000 0.000000 0.037027
#
#
# Mechanical properties :
#
#
# Convention : Reuss Voigt Hill
#
# Bulk Modulus (GPa) = 70.12030 70.96298 70.54164
# Shear Modulus (GPa) = 30.81486 37.91337 34.36411
#
# Velocity S-wave (km/s) = 3.58499 3.97653 3.78583
# Velocity P-wave (km/s) = 6.81042 7.11904 6.96644
#
# Compressibility (1/GPa) = 0.01426120
#
# Stress axis : x y z
#
# Youngs Moduli (GPa) = 96.46701 113.69810 110.53493
#
# Poissons Ratio (x) = 0.24265 0.43938
# Poissons Ratio (y) = 0.20588 0.09554
# Poissons Ratio (z) = 0.38346 0.09828
#
# Static dielectric constant tensor:
#      x y z
#    x 4.394180 0.000000 0.000000 
#    y 0.000000 4.147510 0.000000 
#    z 0.000000 0.000000 4.411960 
# 
# 
# High freq. dielectric constant tensor:
#      x y z
#    x 1.970940 0.000000 0.000000 
#    y 0.000000 1.948850 0.000000 
#    z 0.000000 0.000000 1.957040 
# 
# From -- ./inp_files/25088.got.cif
#   From: 2010.03.12/outbox.cif.g09.slc.cpg/sg20_13_cif.got.tgz:25088.got - 2010.04.14 01:38:04.
