data_PCOD8160497
_publ_section_title
;
Structure prediction by ZEFSAII (Michael W. Deem and Ramdas Pophale) SiO2 
 PCOD8160497
Probable space group: C 2 2 21
;
_chemical_formula_sum "Si O2"
_cell_formula_units_Z 48
_cell_length_a 11.659902
_cell_length_b 9.979666
_cell_length_c 17.447017
_cell_angle_alpha 90.000000
_cell_angle_beta 90.000000
_cell_angle_gamma 90.000000
_cell_volume 2030.168528
_symmetry_space_group_name_H-M "C 2 2 21"
_symmetry_group_IT_number 20
_symmetry_cell_setting 'orthorhombic'
loop_
_space_group_symop_operation_xyz
x,y,z
-x,-y,1/2+z
x,-y,-z
-x,y,1/2-z
1/2+x,1/2+y,z
1/2-x,1/2-y,1/2+z
1/2+x,1/2-y,-z
1/2-x,1/2+y,1/2-z
loop_
_atom_site_type_symbol
_atom_site_label
_atom_site_fract_x
_atom_site_fract_y
_atom_site_fract_z
Si Si1 0.742430 0.500260 0.599265
Si Si2 0.866023 0.401407 0.875632
Si Si3 0.000000 0.228068 0.250000
Si Si4 0.524047 0.865981 0.089218
Si Si5 0.500000 0.725766 0.750000
Si Si6 0.359817 0.697435 0.998375
Si Si7 0.322584 0.500133 0.734471
O O1 0.727587 0.346542 0.568369
O O2 0.629308 0.572443 0.561954
O O3 0.752652 0.521393 0.689421
O O4 0.850771 0.581507 0.564644
O O5 0.942360 0.507220 0.920517
O O6 0.808793 0.312978 0.942888
O O7 0.762514 0.478691 0.835260
O O8 0.945991 0.317011 0.816742
O O9 0.986485 0.321589 0.323032
O O10 0.110481 0.134648 0.254434
O O11 0.481920 0.745399 0.033365
O O12 0.401293 0.628672 0.715386
#
# Coordination Sequence:
#
# PCOD8160497 Si02
#       7
#     8   8   4   8   4   8   8
#     4  11  24  49  76  99 150 201 230 317 373 425
#     4  12  26  45  71 108 151 188 246 304 365 446
#     4  11  23  44  74 110 139 191 256 298 360 455
#     4  12  26  46  75 111 145 200 246 299 379 440
#     4  11  25  46  72 108 141 187 252 302 358 447
#     4  11  26  46  71 109 147 188 250 302 369 449
#     4  11  24  46  75 105 145 195 241 308 369 427
#
# _framework density 23.643357999999999
#
# number of rings (size 3 to 8) (size 9 to 14) (size 15 to 20)
#    0.000    0.667    3.333    4.000    7.000    1.333 
#    0.000    0.000    0.000    0.000    0.000    0.000 
#    0.000    0.000    0.000    0.000    0.000    0.000 
#
# Total GULP energy -297353.082170 kJ/mol
# GULP energy per Si atom -12389.711757 kJ/mol
# Density = 2.358954 g / cm^3
# Si number density = 23.643358 Si / 1000 Ang^3
#
#
#
# Elastic Constant Matrix: (Units=GPa)
#
#
# Indices 1 2 3 4 5 6 
#
# 1 117.8737 57.8702 33.7151 0.0000 0.0000 0.0000
# 2 57.8702 108.1279 35.0873 0.0000 0.0000 0.0000
# 3 33.7151 35.0873 95.7211 0.0000 0.0000 0.0000
# 4 0.0000 0.0000 0.0000 50.3447 0.0000 0.0000
# 5 0.0000 0.0000 0.0000 0.0000 -3.8716 0.0000
# 6 0.0000 0.0000 0.0000 0.0000 0.0000 30.4615
#
#
#
# Elastic Compliance Matrix: (Units=1/GPa)
#
#
# Indices 1 2 3 4 5 6 
#
# 1 0.011869 -0.005670 -0.002102 0.000000 0.000000 0.000000
# 2 -0.005670 0.013206 -0.002844 0.000000 0.000000 0.000000
# 3 -0.002102 -0.002844 0.012230 0.000000 0.000000 0.000000
# 4 0.000000 0.000000 0.000000 0.019863 0.000000 0.000000
# 5 0.000000 0.000000 0.000000 0.000000 -0.258294 0.000000
# 6 0.000000 0.000000 0.000000 0.000000 0.000000 0.032828
#
#
# Mechanical properties :
#
#
# Convention : Reuss Voigt Hill
#
# Bulk Modulus (GPa) = 62.21661 63.89642 63.05652
# Shear Modulus (GPa) = -35.28332 28.39027 -3.44653
#
# Velocity S-wave (km/s) = -3.86724 3.46897 -1.20867
# Velocity P-wave (km/s) = 2.53595 6.56725 4.97794
#
# Compressibility (1/GPa) = 0.01607288
#
# Stress axis : x y z
#
# Youngs Moduli (GPa) = 84.25619 75.72539 81.76816
#
# Poissons Ratio (x) = 0.42936 0.17188
# Poissons Ratio (y) = 0.47773 0.23251
# Poissons Ratio (z) = 0.17711 0.21533
#
# Static dielectric constant tensor:
#      x y z
#    x 4.372960 0.000000 0.000000 
#    y 0.000000 5.124220 0.000000 
#    z 0.000000 0.000000 4.587510 
# 
# 
# High freq. dielectric constant tensor:
#      x y z
#    x 1.913600 0.000000 0.000000 
#    y 0.000000 1.951150 0.000000 
#    z 0.000000 0.000000 1.952040 
# 
# From -- ./inp_files/24267.got.cif
#   From: 2010.03.12/outbox.cif.g09.slc.cpg/sg20_13_cif.got.tgz:24267.got - 2010.04.14 01:38:04.
