data_PCOD8160094
_publ_section_title
;
Structure prediction by ZEFSAII (Michael W. Deem and Ramdas Pophale) SiO2 
 PCOD8160094
Probable space group: C 2 2 21
;
_chemical_formula_sum "Si O2"
_cell_formula_units_Z 48
_cell_length_a 6.249968
_cell_length_b 23.791028
_cell_length_c 15.593766
_cell_angle_alpha 90.000000
_cell_angle_beta 90.000000
_cell_angle_gamma 90.000000
_cell_volume 2318.686400
_symmetry_space_group_name_H-M "C 2 2 21"
_symmetry_group_IT_number 20
_symmetry_cell_setting 'orthorhombic'
loop_
_space_group_symop_operation_xyz
x,y,z
-x,-y,1/2+z
x,-y,-z
-x,y,1/2-z
1/2+x,1/2+y,z
1/2-x,1/2-y,1/2+z
1/2+x,1/2-y,-z
1/2-x,1/2+y,1/2-z
loop_
_atom_site_type_symbol
_atom_site_label
_atom_site_fract_x
_atom_site_fract_y
_atom_site_fract_z
Si Si1 0.115951 0.417032 0.161161
Si Si2 0.330145 0.710959 0.113687
Si Si3 0.772409 0.862519 0.604904
Si Si4 0.500000 0.456812 0.250000
Si Si5 0.000000 0.690822 0.250000
Si Si6 0.509602 0.181929 0.964475
Si Si7 0.127900 0.474674 0.668286
O O1 0.369826 0.419137 0.181128
O O2 0.084448 0.371161 0.089068
O O3 0.000000 0.400556 0.250000
O O4 0.027313 0.477577 0.126630
O O5 0.485262 0.656528 0.128098
O O6 0.471832 0.766338 0.099615
O O7 0.181640 0.725081 0.196667
O O8 0.195467 0.698442 0.029327
O O9 0.616725 0.846333 0.680958
O O10 0.707643 0.833402 0.515368
O O11 0.719952 0.929239 0.600041
O O12 0.659845 0.495434 0.198867
O O13 0.000000 0.447963 0.750000
#
# Coordination Sequence:
#
# PCOD8160094 Si02
#       7
#     8   8   8   4   4   8   8
#     4   9  21  41  63  91 127 168 216 262 315 388
#     4  11  24  43  64  95 129 168 219 270 325 387
#     4  11  22  40  65  94 129 165 207 269 325 385
#     4   8  18  36  63  94 122 163 214 264 318 374
#     4  10  24  40  67  96 116 167 216 264 324 380
#     4  11  24  44  61  91 133 171 212 272 326 381
#     4   9  19  37  63  93 125 164 214 266 315 386
#
# _framework density 20.701377000000001
#
# number of rings (size 3 to 8) (size 9 to 14) (size 15 to 20)
#    0.000    2.333    2.500    0.500    2.333    6.000 
#    0.000    1.667    0.000    0.000    0.000    0.000 
#    0.000    0.000    0.000    0.000    0.000    0.000 
#
# Total GULP energy -297371.087588 kJ/mol
# GULP energy per Si atom -12390.461983 kJ/mol
# Density = 2.065426 g / cm^3
# Si number density = 20.701377 Si / 1000 Ang^3
#
#
#
# Elastic Constant Matrix: (Units=GPa)
#
#
# Indices 1 2 3 4 5 6 
#
# 1 128.8474 42.9157 32.4712 0.0000 0.0000 0.0000
# 2 42.9157 117.1334 45.1221 0.0000 0.0000 0.0000
# 3 32.4712 45.1221 73.3968 0.0000 0.0000 0.0000
# 4 0.0000 0.0000 0.0000 36.2605 0.0000 0.0000
# 5 0.0000 0.0000 0.0000 0.0000 22.3258 0.0000
# 6 0.0000 0.0000 0.0000 0.0000 0.0000 22.2595
#
#
#
# Elastic Compliance Matrix: (Units=1/GPa)
#
#
# Indices 1 2 3 4 5 6 
#
# 1 0.009209 -0.002365 -0.002620 0.000000 0.000000 0.000000
# 2 -0.002365 0.011794 -0.006204 0.000000 0.000000 0.000000
# 3 -0.002620 -0.006204 0.018598 0.000000 0.000000 0.000000
# 4 0.000000 0.000000 0.000000 0.027578 0.000000 0.000000
# 5 0.000000 0.000000 0.000000 0.000000 0.044791 0.000000
# 6 0.000000 0.000000 0.000000 0.000000 0.000000 0.044925
#
#
# Mechanical properties :
#
#
# Convention : Reuss Voigt Hill
#
# Bulk Modulus (GPa) = 58.06478 62.26618 60.16548
# Shear Modulus (GPa) = 27.02495 29.42707 28.22601
#
# Velocity S-wave (km/s) = 3.61704 3.77437 3.69655
# Velocity P-wave (km/s) = 6.74934 7.00986 6.88083
#
# Compressibility (1/GPa) = 0.01722215
#
# Stress axis : x y z
#
# Youngs Moduli (GPa) = 108.58830 84.79159 53.76907
#
# Poissons Ratio (x) = 0.20050 0.14090
# Poissons Ratio (y) = 0.25677 0.33360
# Poissons Ratio (z) = 0.28455 0.52607
#
# Static dielectric constant tensor:
#      x y z
#    x 4.147410 0.000000 0.000000 
#    y 0.000000 3.703390 0.000000 
#    z 0.000000 0.000000 3.567890 
# 
# 
# High freq. dielectric constant tensor:
#      x y z
#    x 1.822920 0.000000 0.000000 
#    y 0.000000 1.801170 0.000000 
#    z 0.000000 0.000000 1.794130 
# 
# From -- ./inp_files/22831.got.cif
#   From: 2010.03.12/outbox.cif.g09.slc.cpg/sg20_12_cif.got.tgz:22831.got - 2010.04.14 01:38:04.
