data_PCOD8160423
_publ_section_title
;
Structure prediction by ZEFSAII (Michael W. Deem and Ramdas Pophale) SiO2 
 PCOD8160423
Probable space group: C 2 2 21
;
_chemical_formula_sum "Si O2"
_cell_formula_units_Z 40
_cell_length_a 7.885678
_cell_length_b 12.645052
_cell_length_c 17.978687
_cell_angle_alpha 90.000000
_cell_angle_beta 90.000000
_cell_angle_gamma 90.000000
_cell_volume 1792.741329
_symmetry_space_group_name_H-M "C 2 2 21"
_symmetry_group_IT_number 20
_symmetry_cell_setting 'orthorhombic'
loop_
_space_group_symop_operation_xyz
x,y,z
-x,-y,1/2+z
x,-y,-z
-x,y,1/2-z
1/2+x,1/2+y,z
1/2-x,1/2-y,1/2+z
1/2+x,1/2-y,-z
1/2-x,1/2+y,1/2-z
loop_
_atom_site_type_symbol
_atom_site_label
_atom_site_fract_x
_atom_site_fract_y
_atom_site_fract_z
Si Si1 0.000000 0.630010 0.750000
Si Si2 0.427595 0.945384 0.854322
Si Si3 0.830989 0.609830 0.460826
Si Si4 0.734416 0.500000 0.000000
Si Si5 0.151651 0.228874 0.696394
Si Si6 0.486969 0.678937 0.964372
O O1 0.074115 0.558343 0.683985
O O2 0.159937 0.697280 0.777752
O O3 0.621564 0.906284 0.873321
O O4 0.343240 0.857023 0.801951
O O5 0.341495 0.944392 0.935374
O O6 0.881019 0.500000 0.500000
O O7 0.634641 0.637360 0.469759
O O8 0.938716 0.709558 0.492099
O O9 0.630662 0.590670 0.957193
O O10 0.115133 0.185460 0.613470
O O11 0.000000 0.186992 0.750000
#
# Coordination Sequence:
#
# PCOD8160423 Si02
#       6
#     4   8   8   4   8   8
#     4  12  26  50  78 102 154 204 240 304 380 432
#     4  11  25  47  73 107 146 191 247 306 364 444
#     4  11  22  43  68 103 145 182 237 302 365 425
#     4  12  24  44  74 116 144 192 252 310 374 440
#     4  11  25  50  70 109 148 197 252 301 366 456
#     4  11  24  43  72 107 144 190 242 306 372 432
#
# _framework density 22.312197999999999
#
# number of rings (size 3 to 8) (size 9 to 14) (size 15 to 20)
#    0.000    0.800    3.000    4.800    0.000    0.000 
#   19.800    0.000    0.000    0.000    0.000    0.000 
#    0.000    0.000    0.000    0.000    0.000    0.000 
#
# Total GULP energy -247886.230041 kJ/mol
# GULP energy per Si atom -12394.311502 kJ/mol
# Density = 2.226141 g / cm^3
# Si number density = 22.312198 Si / 1000 Ang^3
#
#
#
# Elastic Constant Matrix: (Units=GPa)
#
#
# Indices 1 2 3 4 5 6 
#
# 1 107.3252 39.6758 41.8700 0.0000 0.0000 0.0000
# 2 39.6758 134.8896 26.6095 0.0000 0.0000 0.0000
# 3 41.8700 26.6095 74.4865 0.0000 0.0000 0.0000
# 4 0.0000 0.0000 0.0000 39.5169 0.0000 0.0000
# 5 0.0000 0.0000 0.0000 0.0000 40.2057 0.0000
# 6 0.0000 0.0000 0.0000 0.0000 0.0000 35.2699
#
#
#
# Elastic Compliance Matrix: (Units=1/GPa)
#
#
# Indices 1 2 3 4 5 6 
#
# 1 0.012672 -0.002498 -0.006231 0.000000 0.000000 0.000000
# 2 -0.002498 0.008468 -0.001621 0.000000 0.000000 0.000000
# 3 -0.006231 -0.001621 0.017507 0.000000 0.000000 0.000000
# 4 0.000000 0.000000 0.000000 0.025306 0.000000 0.000000
# 5 0.000000 0.000000 0.000000 0.000000 0.024872 0.000000
# 6 0.000000 0.000000 0.000000 0.000000 0.000000 0.028353
#
#
# Mechanical properties :
#
#
# Convention : Reuss Voigt Hill
#
# Bulk Modulus (GPa) = 55.71894 59.22357 57.47125
# Shear Modulus (GPa) = 34.75647 36.90155 35.82901
#
# Velocity S-wave (km/s) = 3.95110 4.07120 4.01160
# Velocity P-wave (km/s) = 6.77064 6.97856 6.87538
#
# Compressibility (1/GPa) = 0.01794722
#
# Stress axis : x y z
#
# Youngs Moduli (GPa) = 78.91648 118.09171 57.12146
#
# Poissons Ratio (x) = 0.29500 0.35590
# Poissons Ratio (y) = 0.19714 0.09259
# Poissons Ratio (z) = 0.49169 0.19141
#
# Static dielectric constant tensor:
#      x y z
#    x 4.065690 0.000000 0.000000 
#    y 0.000000 4.171890 0.000000 
#    z 0.000000 0.000000 4.019470 
# 
# 
# High freq. dielectric constant tensor:
#      x y z
#    x 1.882050 0.000000 0.000000 
#    y 0.000000 1.895440 0.000000 
#    z 0.000000 0.000000 1.867600 
# 
# From -- ./inp_files/23214.got.cif
#   From: 2010.03.12/outbox.cif.g09.slc.cpg/sg20_12_cif.got.tgz:23214.got - 2010.04.14 01:38:04.
