data_PCOD8160948
_publ_section_title
;
Structure prediction by ZEFSAII (Michael W. Deem and Ramdas Pophale) SiO2 
 PCOD8160948
Probable space group: C 2 2 2
;
_chemical_formula_sum "Si O2"
_cell_formula_units_Z 40
_cell_length_a 13.472615
_cell_length_b 15.146347
_cell_length_c 9.171262
_cell_angle_alpha 90.000000
_cell_angle_beta 90.000000
_cell_angle_gamma 90.000000
_cell_volume 1871.495994
_symmetry_space_group_name_H-M "C 2 2 2"
_symmetry_group_IT_number 21
_symmetry_cell_setting 'orthorhombic'
loop_
_space_group_symop_operation_xyz
x,y,z
-x,-y,z
x,-y,-z
-x,y,-z
1/2+x,1/2+y,z
1/2-x,1/2-y,z
1/2+x,1/2-y,-z
1/2-x,1/2+y,-z
loop_
_atom_site_type_symbol
_atom_site_label
_atom_site_fract_x
_atom_site_fract_y
_atom_site_fract_z
Si Si1 0.430167 0.424775 0.272421
Si Si2 0.500000 0.290520 0.500000
Si Si3 0.257883 0.655249 0.873610
Si Si4 0.368615 0.862670 0.585243
Si Si5 0.000000 0.500000 0.256939
Si Si6 0.722744 0.500000 0.500000
Si Si7 0.353525 0.000000 0.000000
O O1 0.500000 0.500000 0.203043
O O2 0.498484 0.356215 0.362321
O O3 0.373445 0.369743 0.149312
O O4 0.346535 0.477735 0.364136
O O5 0.596943 0.227374 0.505057
O O6 0.250000 0.750000 0.951691
O O7 0.197557 0.663079 0.723159
O O8 0.213262 0.585209 0.982544
O O9 0.465715 0.918329 0.640490
O O10 0.299313 0.918077 0.472598
O O11 0.088230 0.525381 0.146999
#
# Coordination Sequence:
#
# PCOD8160948 Si02
#       7
#     8   4   8   8   4   4   4
#     4  11  21  37  55  80 124 160 186 225 294 359
#     4  12  19  33  54  90 118 162 180 231 285 358
#     4  10  20  38  60  84 109 153 199 249 290 348
#     4  10  20  30  56  84 116 146 191 233 286 349
#     4   9  18  39  56  84 108 147 188 251 296 344
#     4  10  19  33  52  80 120 160 180 223 283 360
#     4   9  20  38  67  76 110 152 199 250 314 323
#
# _framework density 21.373277000000002
#
# number of rings (size 3 to 8) (size 9 to 14) (size 15 to 20)
#    0.000    1.800    4.000    1.200    0.000    0.000 
#    0.000    2.500    4.400    0.000    0.000    0.000 
#    0.000    0.000    0.000    0.000    0.000    0.000 
#
# Total GULP energy -247837.551106 kJ/mol
# GULP energy per Si atom -12391.877555 kJ/mol
# Density = 2.132463 g / cm^3
# Si number density = 21.373277 Si / 1000 Ang^3
#
#
#
# Elastic Constant Matrix: (Units=GPa)
#
#
# Indices 1 2 3 4 5 6 
#
# 1 102.2437 73.2565 22.3779 0.0000 0.0000 0.0000
# 2 73.2565 178.9265 39.1317 0.0000 0.0000 0.0000
# 3 22.3779 39.1317 46.3737 0.0000 0.0000 0.0000
# 4 0.0000 0.0000 0.0000 21.1029 0.0000 0.0000
# 5 0.0000 0.0000 0.0000 0.0000 -4.9897 0.0000
# 6 0.0000 0.0000 0.0000 0.0000 0.0000 42.3928
#
#
#
# Elastic Compliance Matrix: (Units=1/GPa)
#
#
# Indices 1 2 3 4 5 6 
#
# 1 0.014048 -0.005235 -0.002361 0.000000 0.000000 0.000000
# 2 -0.005235 0.008805 -0.004903 0.000000 0.000000 0.000000
# 3 -0.002361 -0.004903 0.026841 0.000000 0.000000 0.000000
# 4 0.000000 0.000000 0.000000 0.047387 0.000000 0.000000
# 5 0.000000 0.000000 0.000000 0.000000 -0.200412 0.000000
# 6 0.000000 0.000000 0.000000 0.000000 0.000000 0.023589
#
#
# Mechanical properties :
#
#
# Convention : Reuss Voigt Hill
#
# Bulk Modulus (GPa) = 40.49568 66.34180 53.41874
# Shear Modulus (GPa) = -107.50261 24.55306 -41.47478
#
# Velocity S-wave (km/s) = -7.09978 3.39303 -4.40989
# Velocity P-wave (km/s) = 6.94414 6.81595 0.93913
#
# Compressibility (1/GPa) = 0.02469399
#
# Stress axis : x y z
#
# Youngs Moduli (GPa) = 71.18234 113.57558 37.25630
#
# Poissons Ratio (x) = 0.59460 0.08798
# Poissons Ratio (y) = 0.37266 0.18268
# Poissons Ratio (z) = 0.16809 0.55690
#
# Static dielectric constant tensor:
#      x y z
#    x 4.166180 0.000000 0.000000 
#    y 0.000000 4.383830 0.000000 
#    z 0.000000 0.000000 3.524440 
# 
# 
# High freq. dielectric constant tensor:
#      x y z
#    x 1.850620 0.000000 0.000000 
#    y 0.000000 1.851330 0.000000 
#    z 0.000000 0.000000 1.789200 
# 
# From -- ./inp_files/25110.got.cif
#   From: 2010.03.12/outbox.cif.g09.slc.cpg/sg21_13_cif.got.tgz:25110.got - 2010.04.14 01:59:26.
