data_PCOD8160137
_publ_section_title
;
Structure prediction by ZEFSAII (Michael W. Deem and Ramdas Pophale) SiO2 
 PCOD8160137
Probable space group: C 2 2 21
;
_chemical_formula_sum "Si O2"
_cell_formula_units_Z 36
_cell_length_a 7.187675
_cell_length_b 17.217519
_cell_length_c 14.023443
_cell_angle_alpha 90.000000
_cell_angle_beta 90.000000
_cell_angle_gamma 90.000000
_cell_volume 1735.456196
_symmetry_space_group_name_H-M "C 2 2 21"
_symmetry_group_IT_number 20
_symmetry_cell_setting 'orthorhombic'
loop_
_space_group_symop_operation_xyz
x,y,z
-x,-y,1/2+z
x,-y,-z
-x,y,1/2-z
1/2+x,1/2+y,z
1/2-x,1/2-y,1/2+z
1/2+x,1/2-y,-z
1/2-x,1/2+y,1/2-z
loop_
_atom_site_type_symbol
_atom_site_label
_atom_site_fract_x
_atom_site_fract_y
_atom_site_fract_z
Si Si1 0.286727 0.941701 0.758017
Si Si2 0.000000 0.076193 0.750000
Si Si3 0.291882 0.157126 0.422664
Si Si4 0.659603 0.085824 0.466199
Si Si5 0.958510 0.820811 0.430295
O O1 0.500000 0.965905 0.750000
O O2 0.219523 0.882255 0.675534
O O3 0.259472 0.900398 0.859892
O O4 0.180184 0.022601 0.754497
O O5 0.028252 0.130580 0.659138
O O6 0.436922 0.098494 0.473723
O O7 0.414761 0.233126 0.398530
O O8 0.117527 0.175406 0.489302
O O9 0.763697 0.146204 0.533110
O O10 0.709559 0.000000 0.500000
#
# Coordination Sequence:
#
# PCOD8160137 Si02
#       5
#     8   4   8   8   8
#     4  10  24  43  69  97 132 172 222 277 334 393
#     4  12  26  42  68 102 128 174 230 282 324 404
#     4  11  26  44  68  97 137 180 219 278 340 398
#     4  11  23  45  70  97 134 177 225 276 332 405
#     4  12  26  43  67  98 136 178 225 274 337 402
#
# _framework density 20.743825000000001
#
# number of rings (size 3 to 8) (size 9 to 14) (size 15 to 20)
#    0.000    0.889    4.444    1.333   10.889    0.000 
#    0.000    0.000    0.000    0.000    0.000    0.000 
#    0.000    0.000    0.000    0.000    0.000    0.000 
#
# Total GULP energy -223236.697844 kJ/mol
# GULP energy per Si atom -12402.038769 kJ/mol
# Density = 2.069661 g / cm^3
# Si number density = 20.743825 Si / 1000 Ang^3
#
#
#
# Elastic Constant Matrix: (Units=GPa)
#
#
# Indices 1 2 3 4 5 6 
#
# 1 52.2530 19.0373 10.4233 0.0000 0.0000 0.0000
# 2 19.0373 98.4299 29.5753 0.0000 0.0000 0.0000
# 3 10.4233 29.5753 74.3494 0.0000 0.0000 0.0000
# 4 0.0000 0.0000 0.0000 28.5890 0.0000 0.0000
# 5 0.0000 0.0000 0.0000 0.0000 28.0598 0.0000
# 6 0.0000 0.0000 0.0000 0.0000 0.0000 -15.2905
#
#
#
# Elastic Compliance Matrix: (Units=1/GPa)
#
#
# Indices 1 2 3 4 5 6 
#
# 1 0.020733 -0.003562 -0.001490 0.000000 0.000000 0.000000
# 2 -0.003562 0.012151 -0.004334 0.000000 0.000000 0.000000
# 3 -0.001490 -0.004334 0.015383 0.000000 0.000000 0.000000
# 4 0.000000 0.000000 0.000000 0.034979 0.000000 0.000000
# 5 0.000000 0.000000 0.000000 0.000000 0.035638 0.000000
# 6 0.000000 0.000000 0.000000 0.000000 0.000000 -0.065400
#
#
# Mechanical properties :
#
#
# Convention : Reuss Voigt Hill
#
# Bulk Modulus (GPa) = 33.90461 38.12266 36.01364
# Shear Modulus (GPa) = 60.91153 19.33807 40.12480
#
# Velocity S-wave (km/s) = 5.42471 3.05656 4.40284
# Velocity P-wave (km/s) = 7.45765 5.55648 6.57613
#
# Compressibility (1/GPa) = 0.02949451
#
# Stress axis : x y z
#
# Youngs Moduli (GPa) = 48.23311 82.29950 65.00745
#
# Poissons Ratio (x) = 0.29318 0.09683
# Poissons Ratio (y) = 0.17182 0.28174
# Poissons Ratio (z) = 0.07184 0.35669
#
# Static dielectric constant tensor:
#      x y z
#    x 3.723090 0.000000 0.000000 
#    y 0.000000 3.794030 0.000000 
#    z 0.000000 0.000000 4.111710 
# 
# 
# High freq. dielectric constant tensor:
#      x y z
#    x 1.818100 0.000000 0.000000 
#    y 0.000000 1.817980 0.000000 
#    z 0.000000 0.000000 1.817920 
# 
# From -- ./inp_files/18436.got.cif
#   From: 2010.03.12/outbox.cif.g09.slc.cpg/sg20_10_cif.got.tgz:18436.got - 2010.04.14 01:38:04.
