data_PCOD8160538
_publ_section_title
;
Structure prediction by ZEFSAII (Michael W. Deem and Ramdas Pophale) SiO2 
 PCOD8160538
Probable space group: C 2 2 21
;
_chemical_formula_sum "Si O2"
_cell_formula_units_Z 24
_cell_length_a 25.106851
_cell_length_b 8.504406
_cell_length_c 4.825810
_cell_angle_alpha 90.000000
_cell_angle_beta 90.000000
_cell_angle_gamma 90.000000
_cell_volume 1030.401422
_symmetry_space_group_name_H-M "C 2 2 21"
_symmetry_group_IT_number 20
_symmetry_cell_setting 'orthorhombic'
loop_
_space_group_symop_operation_xyz
x,y,z
-x,-y,1/2+z
x,-y,-z
-x,y,1/2-z
1/2+x,1/2+y,z
1/2-x,1/2-y,1/2+z
1/2+x,1/2-y,-z
1/2-x,1/2+y,1/2-z
loop_
_atom_site_type_symbol
_atom_site_label
_atom_site_fract_x
_atom_site_fract_y
_atom_site_fract_z
Si Si1 0.395184 0.167361 0.616853
Si Si2 0.272392 0.166238 0.623305
Si Si3 0.441498 0.329540 0.124938
O O1 0.334043 0.162624 0.712137
O O2 0.401038 0.298323 0.376849
O O3 0.414367 0.000000 0.500000
O O4 0.432248 0.204311 0.880353
O O5 0.238376 0.198142 0.898315
O O6 0.253519 0.000000 0.500000
O O7 0.500000 0.312998 0.250000
O O8 0.430389 0.500000 0.000000
#
# Coordination Sequence:
#
# PCOD8160538 Si02
#       3
#     8   8   8
#     4  11  25  44  67  97 132 171 217 267 320 384
#     4  11  24  42  66  98 134 171 216 266 318 382
#     4  12  25  44  67  95 130 170 217 269 324 384
#
# _framework density 23.291893000000002
#
# number of rings (size 3 to 8) (size 9 to 14) (size 15 to 20)
#    0.000    0.667    0.000    8.000    0.000   16.000 
#    0.000    1.667    0.000    0.000    0.000    0.000 
#    0.000    0.000    0.000    0.000    0.000    0.000 
#
# Total GULP energy -148883.046902 kJ/mol
# GULP energy per Si atom -12406.920575 kJ/mol
# Density = 2.323888 g / cm^3
# Si number density = 23.291893 Si / 1000 Ang^3
#
#
#
# Elastic Constant Matrix: (Units=GPa)
#
#
# Indices 1 2 3 4 5 6 
#
# 1 35.3385 31.9973 6.9215 0.0000 0.0000 0.0000
# 2 31.9973 73.9860 14.0385 0.0000 0.0000 0.0000
# 3 6.9215 14.0385 117.2771 0.0000 0.0000 0.0000
# 4 0.0000 0.0000 0.0000 49.7569 0.0000 0.0000
# 5 0.0000 0.0000 0.0000 0.0000 40.0345 0.0000
# 6 0.0000 0.0000 0.0000 0.0000 0.0000 19.3376
#
#
#
# Elastic Compliance Matrix: (Units=1/GPa)
#
#
# Indices 1 2 3 4 5 6 
#
# 1 0.046525 -0.020055 -0.000345 0.000000 0.000000 0.000000
# 2 -0.020055 0.022475 -0.001507 0.000000 0.000000 0.000000
# 3 -0.000345 -0.001507 0.008728 0.000000 0.000000 0.000000
# 4 0.000000 0.000000 0.000000 0.020098 0.000000 0.000000
# 5 0.000000 0.000000 0.000000 0.000000 0.024978 0.000000
# 6 0.000000 0.000000 0.000000 0.000000 0.000000 0.051713
#
#
# Mechanical properties :
#
#
# Convention : Reuss Voigt Hill
#
# Bulk Modulus (GPa) = 29.48710 36.94624 33.21667
# Shear Modulus (GPa) = 21.77367 33.40210 27.58789
#
# Velocity S-wave (km/s) = 3.06080 3.79101 3.44531
# Velocity P-wave (km/s) = 5.01783 5.92107 5.48806
#
# Compressibility (1/GPa) = 0.03391313
#
# Stress axis : x y z
#
# Youngs Moduli (GPa) = 21.49405 44.49299 114.57974
#
# Poissons Ratio (x) = 0.89232 0.03954
# Poissons Ratio (y) = 0.43107 0.17265
# Poissons Ratio (z) = 0.00742 0.06704
#
# Static dielectric constant tensor:
#      x y z
#    x 3.985870 0.000000 0.000000 
#    y 0.000000 4.304380 0.000000 
#    z 0.000000 0.000000 5.006940 
# 
# 
# High freq. dielectric constant tensor:
#      x y z
#    x 1.912590 0.000000 0.000000 
#    y 0.000000 1.927720 0.000000 
#    z 0.000000 0.000000 1.943910 
# 
# From -- ./inp_files/308.got.cif
#   From: 2010.03.12/outbox.cif.g09.slc.cpg/sg20_1_cif.got.tgz:308.got - 2010.04.14 01:38:04.
