data_PCOD8160765
_publ_section_title
;
Structure prediction by ZEFSAII (Michael W. Deem and Ramdas Pophale) SiO2 
 PCOD8160765
Probable space group: C 2 2 2
;
_chemical_formula_sum "Si O2"
_cell_formula_units_Z 38
_cell_length_a 17.022081
_cell_length_b 13.368154
_cell_length_c 9.237408
_cell_angle_alpha 90.000000
_cell_angle_beta 90.000000
_cell_angle_gamma 90.000000
_cell_volume 2102.007294
_symmetry_space_group_name_H-M "C 2 2 2"
_symmetry_group_IT_number 21
_symmetry_cell_setting 'orthorhombic'
loop_
_space_group_symop_operation_xyz
x,y,z
-x,-y,z
x,-y,-z
-x,y,-z
1/2+x,1/2+y,z
1/2-x,1/2-y,z
1/2+x,1/2-y,-z
1/2-x,1/2+y,-z
loop_
_atom_site_type_symbol
_atom_site_label
_atom_site_fract_x
_atom_site_fract_y
_atom_site_fract_z
Si Si1 0.278524 0.354465 0.112311
Si Si2 0.209399 0.024947 0.661352
Si Si3 0.115095 0.591592 0.278202
Si Si4 0.500000 0.000000 0.500000
Si Si5 0.848315 0.500000 0.000000
Si Si6 0.163389 0.206163 0.827188
O O1 0.250000 0.250000 0.183365
O O2 0.305365 0.427037 0.240208
O O3 0.207077 0.402940 0.020087
O O4 0.348003 0.331340 0.994611
O O5 0.299115 0.062320 0.662201
O O6 0.152770 0.111990 0.720460
O O7 0.182598 0.000000 0.500000
O O8 0.052329 0.572929 0.402741
O O9 0.104778 0.706770 0.226610
O O10 0.097676 0.520077 0.139892
O O11 0.250000 0.250000 0.816083
#
# Coordination Sequence:
#
# PCOD8160765 Si02
#       6
#     8   8   8   2   4   8
#     4  10  15  26  49  76 104 138 164 214 278 329
#     4  10  18  29  46  78 113 135 162 222 282 338
#     4  10  20  33  51  69 107 148 186 213 266 316
#     4  12  24  38  48  72 114 162 184 222 252 318
#     4  10  16  31  50  74 104 140 175 224 262 326
#     4   9  15  30  49  71 100 139 171 219 271 321
#
# _framework density 18.077957999999999
#
# number of rings (size 3 to 8) (size 9 to 14) (size 15 to 20)
#    0.000    2.105    9.474    0.000    0.000    2.947 
#    0.000    0.000    0.000    0.000    0.000    0.737 
#    0.000    0.000    1.263    0.000    0.000    0.000 
#
# Total GULP energy -235465.207490 kJ/mol
# GULP energy per Si atom -12392.905657 kJ/mol
# Density = 1.803681 g / cm^3
# Si number density = 18.077958 Si / 1000 Ang^3
#
#
#
# Elastic Constant Matrix: (Units=GPa)
#
#
# Indices 1 2 3 4 5 6 
#
# 1 30.3996 25.5507 26.3416 0.0000 0.0000 0.0000
# 2 25.5507 147.5860 72.0635 0.0000 0.0000 0.0000
# 3 26.3416 72.0635 153.7615 0.0000 0.0000 0.0000
# 4 0.0000 0.0000 0.0000 31.3662 0.0000 0.0000
# 5 0.0000 0.0000 0.0000 0.0000 20.2157 0.0000
# 6 0.0000 0.0000 0.0000 0.0000 0.0000 9.0767
#
#
#
# Elastic Compliance Matrix: (Units=1/GPa)
#
#
# Indices 1 2 3 4 5 6 
#
# 1 0.041060 -0.004764 -0.004801 0.000000 0.000000 0.000000
# 2 -0.004764 0.009339 -0.003561 0.000000 0.000000 0.000000
# 3 -0.004801 -0.003561 0.008995 0.000000 0.000000 0.000000
# 4 0.000000 0.000000 0.000000 0.031881 0.000000 0.000000
# 5 0.000000 0.000000 0.000000 0.000000 0.049467 0.000000
# 6 0.000000 0.000000 0.000000 0.000000 0.000000 0.110172
#
#
# Mechanical properties :
#
#
# Convention : Reuss Voigt Hill
#
# Bulk Modulus (GPa) = 30.17372 64.40652 47.29012
# Shear Modulus (GPa) = 17.34826 25.98448 21.66637
#
# Velocity S-wave (km/s) = 3.10116 3.79536 3.46569
# Velocity P-wave (km/s) = 5.43600 7.41018 6.49849
#
# Compressibility (1/GPa) = 0.03314142
#
# Stress axis : x y z
#
# Youngs Moduli (GPa) = 24.35476 107.07582 111.17303
#
# Poissons Ratio (x) = 0.51011 0.53378
# Poissons Ratio (y) = 0.11603 0.39587
# Poissons Ratio (z) = 0.11694 0.38128
#
# Static dielectric constant tensor:
#      x y z
#    x 2.638610 0.000000 0.000000 
#    y 0.000000 3.723910 0.000000 
#    z 0.000000 0.000000 3.499460 
# 
# 
# High freq. dielectric constant tensor:
#      x y z
#    x 1.611190 0.000000 0.000000 
#    y 0.000000 1.720760 0.000000 
#    z 0.000000 0.000000 1.711860 
# 
# From -- ./inp_files/16309.got.cif
#   From: 2010.03.12/outbox.cif.g09.slc.cpg/sg21_9_cif.got.tgz:16309.got - 2010.04.14 01:59:26.
