data_PCOD8160377
_publ_section_title
;
Structure prediction by ZEFSAII (Michael W. Deem and Ramdas Pophale) SiO2 
 PCOD8160377
Probable space group: C 2 2 21
;
_chemical_formula_sum "Si O2"
_cell_formula_units_Z 48
_cell_length_a 9.322159
_cell_length_b 17.377478
_cell_length_c 14.981985
_cell_angle_alpha 90.000000
_cell_angle_beta 90.000000
_cell_angle_gamma 90.000000
_cell_volume 2427.015843
_symmetry_space_group_name_H-M "C 2 2 21"
_symmetry_group_IT_number 20
_symmetry_cell_setting 'orthorhombic'
loop_
_space_group_symop_operation_xyz
x,y,z
-x,-y,1/2+z
x,-y,-z
-x,y,1/2-z
1/2+x,1/2+y,z
1/2-x,1/2-y,1/2+z
1/2+x,1/2-y,-z
1/2-x,1/2+y,1/2-z
loop_
_atom_site_type_symbol
_atom_site_label
_atom_site_fract_x
_atom_site_fract_y
_atom_site_fract_z
Si Si1 0.252980 0.058498 0.918553
Si Si2 0.932977 0.546365 0.589367
Si Si3 0.870317 0.605037 0.312330
Si Si4 0.062508 0.170660 0.020015
Si Si5 0.871483 0.069579 0.309695
Si Si6 0.723378 0.174409 0.001011
O O1 0.413268 0.088811 0.893988
O O2 0.201926 0.010446 0.834223
O O3 0.142136 0.127689 0.937905
O O4 0.258339 0.000000 0.000000
O O5 0.954609 0.500000 0.500000
O O6 0.890851 0.486073 0.666763
O O7 0.808723 0.609240 0.573614
O O8 0.733257 0.620366 0.250955
O O9 0.848403 0.653210 0.403379
O O10 0.000000 0.635507 0.250000
O O11 0.074716 0.119389 0.107699
O O12 0.894515 0.185059 0.002377
O O13 0.146477 0.249571 0.034675
O O14 0.000000 0.041865 0.250000
#
# Coordination Sequence:
#
# PCOD8160377 Si02
#       6
#     8   8   8   8   8   8
#     4   9  19  36  60  85 115 152 192 237 291 353
#     4   9  19  36  60  86 114 151 195 235 289 357
#     4  11  22  39  65  91 117 155 200 254 304 349
#     4  11  24  40  61  86 123 166 199 243 298 365
#     4  11  22  39  63  91 119 151 202 256 302 345
#     4  11  24  40  61  87 122 163 204 239 298 369
#
# _framework density 19.777373999999998
#
# number of rings (size 3 to 8) (size 9 to 14) (size 15 to 20)
#    0.000    1.667    3.333    1.000    7.000    2.000 
#    0.000    3.333    0.000    0.000    0.000    0.000 
#    0.000    0.000    0.000    0.000    0.000    0.000 
#
# Total GULP energy -297446.260223 kJ/mol
# GULP energy per Si atom -12393.594176 kJ/mol
# Density = 1.973236 g / cm^3
# Si number density = 19.777374 Si / 1000 Ang^3
#
#
#
# Elastic Constant Matrix: (Units=GPa)
#
#
# Indices 1 2 3 4 5 6 
#
# 1 145.5928 25.4412 13.9305 0.0000 0.0000 0.0000
# 2 25.4412 65.3442 3.5872 0.0000 0.0000 0.0000
# 3 13.9305 3.5872 46.2867 0.0000 0.0000 0.0000
# 4 0.0000 0.0000 0.0000 37.2228 0.0000 0.0000
# 5 0.0000 0.0000 0.0000 0.0000 28.2979 0.0000
# 6 0.0000 0.0000 0.0000 0.0000 0.0000 37.0996
#
#
#
# Elastic Compliance Matrix: (Units=1/GPa)
#
#
# Indices 1 2 3 4 5 6 
#
# 1 0.007560 -0.002830 -0.002056 0.000000 0.000000 0.000000
# 2 -0.002830 0.016429 -0.000421 0.000000 0.000000 0.000000
# 3 -0.002056 -0.000421 0.022256 0.000000 0.000000 0.000000
# 4 0.000000 0.000000 0.000000 0.026865 0.000000 0.000000
# 5 0.000000 0.000000 0.000000 0.000000 0.035338 0.000000
# 6 0.000000 0.000000 0.000000 0.000000 0.000000 0.026954
#
#
# Mechanical properties :
#
#
# Convention : Reuss Voigt Hill
#
# Bulk Modulus (GPa) = 28.06700 38.12684 33.09692
# Shear Modulus (GPa) = 31.66679 34.80838 33.23758
#
# Velocity S-wave (km/s) = 4.00579 4.19980 4.10394
# Velocity P-wave (km/s) = 5.96804 6.54504 6.26319
#
# Compressibility (1/GPa) = 0.03562903
#
# Stress axis : x y z
#
# Youngs Moduli (GPa) = 132.27900 60.86900 44.93195
#
# Poissons Ratio (x) = 0.17229 0.09237
# Poissons Ratio (y) = 0.37441 0.01893
# Poissons Ratio (z) = 0.27194 0.02565
#
# Static dielectric constant tensor:
#      x y z
#    x 3.872420 0.000000 0.000000 
#    y 0.000000 3.478960 0.000000 
#    z 0.000000 0.000000 3.614760 
# 
# 
# High freq. dielectric constant tensor:
#      x y z
#    x 1.791860 0.000000 0.000000 
#    y 0.000000 1.745990 0.000000 
#    z 0.000000 0.000000 1.763730 
# 
# From -- ./inp_files/18839.got.cif
#   From: 2010.03.12/outbox.cif.g09.slc.cpg/sg20_10_cif.got.tgz:18839.got - 2010.04.14 01:38:04.
