data_PCOD8160230
_publ_section_title
;
Structure prediction by ZEFSAII (Michael W. Deem and Ramdas Pophale) SiO2 
 PCOD8160230
Probable space group: C 2 2 21
;
_chemical_formula_sum "Si O2"
_cell_formula_units_Z 32
_cell_length_a 21.600773
_cell_length_b 9.188715
_cell_length_c 6.748570
_cell_angle_alpha 90.000000
_cell_angle_beta 90.000000
_cell_angle_gamma 90.000000
_cell_volume 1339.478760
_symmetry_space_group_name_H-M "C 2 2 21"
_symmetry_group_IT_number 20
_symmetry_cell_setting 'orthorhombic'
loop_
_space_group_symop_operation_xyz
x,y,z
-x,-y,1/2+z
x,-y,-z
-x,y,1/2-z
1/2+x,1/2+y,z
1/2-x,1/2-y,1/2+z
1/2+x,1/2-y,-z
1/2-x,1/2+y,1/2-z
loop_
_atom_site_type_symbol
_atom_site_label
_atom_site_fract_x
_atom_site_fract_y
_atom_site_fract_z
Si Si1 0.162407 0.841531 0.303177
Si Si2 0.612730 0.843904 0.036281
Si Si3 0.793665 0.365677 0.131576
Si Si4 0.930033 0.063483 0.293785
O O1 0.185740 0.780285 0.514908
O O2 0.220300 0.878781 0.162456
O O3 0.118718 0.982473 0.352465
O O4 0.121977 0.723633 0.181480
O O5 0.677359 0.872783 0.149406
O O6 0.574160 0.739163 0.187549
O O7 0.578992 0.000000 0.000000
O O8 0.816577 0.500000 0.000000
O O9 0.000000 0.015250 0.250000
O O10 0.907450 0.000000 0.500000
#
# Coordination Sequence:
#
# PCOD8160230 Si02
#       4
#     8   8   8   8
#     4  11  24  42  67 103 142 184 236 296 355 428
#     4  11  23  43  65  98 141 176 236 294 352 429
#     4  12  23  39  68 101 142 186 227 296 377 417
#     4  10  25  47  70 100 138 185 244 292 344 425
#
# _framework density 23.889890000000001
#
# number of rings (size 3 to 8) (size 9 to 14) (size 15 to 20)
#    0.000    1.000    5.000    2.250    3.500    0.000 
#    0.000    6.250    0.000    0.000    0.000    0.000 
#    0.000    0.000    0.000    0.000    0.000    0.000 
#
# Total GULP energy -198278.270438 kJ/mol
# GULP energy per Si atom -12392.391902 kJ/mol
# Density = 2.383552 g / cm^3
# Si number density = 23.889890 Si / 1000 Ang^3
#
#
#
# Elastic Constant Matrix: (Units=GPa)
#
#
# Indices 1 2 3 4 5 6 
#
# 1 121.3507 54.8252 12.1817 0.0000 0.0000 0.0000
# 2 54.8252 171.2218 29.1261 0.0000 0.0000 0.0000
# 3 12.1817 29.1261 80.4238 0.0000 0.0000 0.0000
# 4 0.0000 0.0000 0.0000 31.9251 0.0000 0.0000
# 5 0.0000 0.0000 0.0000 0.0000 25.8270 0.0000
# 6 0.0000 0.0000 0.0000 0.0000 0.0000 19.2581
#
#
#
# Elastic Compliance Matrix: (Units=1/GPa)
#
#
# Indices 1 2 3 4 5 6 
#
# 1 0.009644 -0.003026 -0.000365 0.000000 0.000000 0.000000
# 2 -0.003026 0.007173 -0.002140 0.000000 0.000000 0.000000
# 3 -0.000365 -0.002140 0.013264 0.000000 0.000000 0.000000
# 4 0.000000 0.000000 0.000000 0.031323 0.000000 0.000000
# 5 0.000000 0.000000 0.000000 0.000000 0.038719 0.000000
# 6 0.000000 0.000000 0.000000 0.000000 0.000000 0.051926
#
#
# Mechanical properties :
#
#
# Convention : Reuss Voigt Hill
#
# Bulk Modulus (GPa) = 52.57366 62.80693 57.69029
# Shear Modulus (GPa) = 29.50693 33.85960 31.68326
#
# Velocity S-wave (km/s) = 3.51824 3.76881 3.64568
# Velocity P-wave (km/s) = 6.20955 6.72948 6.47473
#
# Compressibility (1/GPa) = 0.01902093
#
# Stress axis : x y z
#
# Youngs Moduli (GPa) = 103.68769 139.40659 75.39065
#
# Poissons Ratio (x) = 0.42185 0.02751
# Poissons Ratio (y) = 0.31376 0.16130
# Poissons Ratio (z) = 0.03784 0.29826
#
# Static dielectric constant tensor:
#      x y z
#    x 3.793770 0.000000 0.000000 
#    y 0.000000 4.666490 0.000000 
#    z 0.000000 0.000000 4.302790 
# 
# 
# High freq. dielectric constant tensor:
#      x y z
#    x 1.908050 0.000000 0.000000 
#    y 0.000000 1.954460 0.000000 
#    z 0.000000 0.000000 1.965710 
# 
# From -- ./inp_files/5813.got.cif
#   From: 2010.03.12/outbox.cif.g09.slc.cpg/sg20_3_cif.got.tgz:5813.got - 2010.04.14 01:38:04.
