data_PCOD8160080
_publ_section_title
;
Structure prediction by ZEFSAII (Michael W. Deem and Ramdas Pophale) SiO2 
 PCOD8160080
Probable space group: C 2 2 21
;
_chemical_formula_sum "Si O2"
_cell_formula_units_Z 40
_cell_length_a 17.675507
_cell_length_b 11.784071
_cell_length_c 8.300824
_cell_angle_alpha 90.000000
_cell_angle_beta 90.000000
_cell_angle_gamma 90.000000
_cell_volume 1728.973895
_symmetry_space_group_name_H-M "C 2 2 21"
_symmetry_group_IT_number 20
_symmetry_cell_setting 'orthorhombic'
loop_
_space_group_symop_operation_xyz
x,y,z
-x,-y,1/2+z
x,-y,-z
-x,y,1/2-z
1/2+x,1/2+y,z
1/2-x,1/2-y,1/2+z
1/2+x,1/2-y,-z
1/2-x,1/2+y,1/2-z
loop_
_atom_site_type_symbol
_atom_site_label
_atom_site_fract_x
_atom_site_fract_y
_atom_site_fract_z
Si Si1 0.340857 0.453592 0.737396
Si Si2 0.966197 0.811330 0.582217
Si Si3 0.175256 0.414833 0.633401
Si Si4 0.624291 0.338843 0.440098
Si Si5 0.560217 0.098968 0.112490
O O1 0.408628 0.413848 0.619906
O O2 0.264502 0.434005 0.639351
O O3 0.353920 0.585371 0.784459
O O4 0.333869 0.380423 0.899551
O O5 0.922177 0.709785 0.493902
O O6 0.000000 0.763781 0.750000
O O7 0.034240 0.852903 0.467066
O O8 0.141375 0.500000 0.500000
O O9 0.151242 0.288065 0.588350
O O10 0.138101 0.443681 0.806106
O O11 0.500000 0.130331 0.250000
O O12 0.527405 0.000000 0.000000
#
# Coordination Sequence:
#
# PCOD8160080 Si02
#       5
#     8   8   8   8   8
#     4  10  26  47  78 105 148 195 241 318 379 446
#     4  10  23  49  76 109 142 194 250 308 372 451
#     4  12  29  47  74 111 154 195 252 310 382 455
#     4  10  24  51  72 110 149 191 254 306 373 461
#     4  12  26  44  74 107 149 198 249 308 378 449
#
# _framework density 23.135109
#
# number of rings (size 3 to 8) (size 9 to 14) (size 15 to 20)
#    0.000    1.200    2.000    1.200   14.000    0.000 
#   32.400    0.000    0.000    0.000    0.000    0.000 
#    0.000    0.000    0.000    0.000    0.000    0.000 
#
# Total GULP energy -248058.261682 kJ/mol
# GULP energy per Si atom -12402.913084 kJ/mol
# Density = 2.308245 g / cm^3
# Si number density = 23.135109 Si / 1000 Ang^3
#
#
#
# Elastic Constant Matrix: (Units=GPa)
#
#
# Indices 1 2 3 4 5 6 
#
# 1 139.7891 54.4574 47.3159 0.0000 0.0000 0.0000
# 2 54.4574 179.8280 68.6459 0.0000 0.0000 0.0000
# 3 47.3159 68.6459 101.0151 0.0000 0.0000 0.0000
# 4 0.0000 0.0000 0.0000 52.9805 0.0000 0.0000
# 5 0.0000 0.0000 0.0000 0.0000 43.5942 0.0000
# 6 0.0000 0.0000 0.0000 0.0000 0.0000 21.8511
#
#
#
# Elastic Compliance Matrix: (Units=1/GPa)
#
#
# Indices 1 2 3 4 5 6 
#
# 1 0.008780 -0.001470 -0.003113 0.000000 0.000000 0.000000
# 2 -0.001470 0.007755 -0.004581 0.000000 0.000000 0.000000
# 3 -0.003113 -0.004581 0.014471 0.000000 0.000000 0.000000
# 4 0.000000 0.000000 0.000000 0.018875 0.000000 0.000000
# 5 0.000000 0.000000 0.000000 0.000000 0.022939 0.000000
# 6 0.000000 0.000000 0.000000 0.000000 0.000000 0.045764
#
#
# Mechanical properties :
#
#
# Convention : Reuss Voigt Hill
#
# Bulk Modulus (GPa) = 78.88858 84.60783 81.74820
# Shear Modulus (GPa) = 35.42583 40.36605 37.89594
#
# Velocity S-wave (km/s) = 3.91738 4.18161 4.05165
# Velocity P-wave (km/s) = 7.39150 7.74371 7.56965
#
# Compressibility (1/GPa) = 0.01267611
#
# Stress axis : x y z
#
# Youngs Moduli (GPa) = 113.89105 128.95001 69.10333
#
# Poissons Ratio (x) = 0.18961 0.21515
# Poissons Ratio (y) = 0.16747 0.31658
# Poissons Ratio (z) = 0.35460 0.59075
#
# Static dielectric constant tensor:
#      x y z
#    x 4.168030 0.000000 0.000000 
#    y 0.000000 4.134600 0.000000 
#    z 0.000000 0.000000 4.529900 
# 
# 
# High freq. dielectric constant tensor:
#      x y z
#    x 1.907960 0.000000 0.000000 
#    y 0.000000 1.916310 0.000000 
#    z 0.000000 0.000000 1.931060 
# 
# From -- ./inp_files/9110.got.cif
#   From: 2010.03.12/outbox.cif.g09.slc.cpg/sg20_5_cif.got.tgz:9110.got - 2010.04.14 01:38:04.
