data_PCOD8160932
_publ_section_title
;
Structure prediction by ZEFSAII (Michael W. Deem and Ramdas Pophale) SiO2 
 PCOD8160932
Probable space group: C 2 2 2
;
_chemical_formula_sum "Si O2"
_cell_formula_units_Z 64
_cell_length_a 21.907432
_cell_length_b 17.415617
_cell_length_c 8.894153
_cell_angle_alpha 90.000000
_cell_angle_beta 90.000000
_cell_angle_gamma 90.000000
_cell_volume 3393.399048
_symmetry_space_group_name_H-M "C 2 2 2"
_symmetry_group_IT_number 21
_symmetry_cell_setting 'orthorhombic'
loop_
_space_group_symop_operation_xyz
x,y,z
-x,-y,z
x,-y,-z
-x,y,-z
1/2+x,1/2+y,z
1/2-x,1/2-y,z
1/2+x,1/2-y,-z
1/2-x,1/2+y,-z
loop_
_atom_site_type_symbol
_atom_site_label
_atom_site_fract_x
_atom_site_fract_y
_atom_site_fract_z
Si Si1 0.027054 0.576743 0.666413
Si Si2 0.996768 0.254522 0.678233
Si Si3 0.125617 0.218279 0.184257
Si Si4 0.210394 0.914328 0.168860
Si Si5 0.297201 0.183706 0.647923
Si Si6 0.839268 0.370914 0.666918
Si Si7 0.117136 0.213891 0.833997
Si Si8 0.719710 0.413386 0.826562
O O1 0.101011 0.574601 0.673686
O O2 0.000000 0.500000 0.749933
O O3 0.000000 0.574836 0.500000
O O4 0.005711 0.657350 0.741199
O O5 0.052606 0.210234 0.751811
O O6 0.000000 0.255099 0.500000
O O7 0.936098 0.207901 0.721353
O O8 0.157873 0.297642 0.225132
O O9 0.170794 0.149010 0.229615
O O10 0.107940 0.221722 0.010627
O O11 0.263382 0.889967 0.283364
O O12 0.149856 0.866091 0.203098
O O13 0.190906 0.002266 0.191147
O O14 0.235617 0.897262 0.000798
O O15 0.250000 0.250000 0.599971
O O16 0.334925 0.156903 0.504306
O O17 0.343597 0.214878 0.773199
O O18 0.779758 0.415758 0.722693
#
# Coordination Sequence:
#
# PCOD8160932 Si02
#       8
#     8   8   8   8   8   8   8   8
#     4   9  19  34  50  74 107 138 171 211 256 308
#     4  10  20  35  56  79 105 139 179 225 272 321
#     4  10  20  35  56  79 103 140 182 224 271 324
#     4   9  21  36  53  79 108 140 177 227 281 320
#     4  10  19  32  52  80 109 138 176 222 268 322
#     4  11  21  33  55  81 106 144 181 217 272 326
#     4  10  19  35  57  77 105 142 182 220 268 332
#     4  10  20  37  55  77 109 138 178 230 274 327
#
# _framework density 18.860146
#
# number of rings (size 3 to 8) (size 9 to 14) (size 15 to 20)
#    0.000    2.125    0.000    4.500    0.000    6.500 
#    0.000    0.625    0.000    9.000    0.000    0.875 
#    0.000    0.000    0.000    0.000    0.000    0.000 
#
# Total GULP energy -396776.508401 kJ/mol
# GULP energy per Si atom -12399.265888 kJ/mol
# Density = 1.881722 g / cm^3
# Si number density = 18.860146 Si / 1000 Ang^3
#
#
#
# Elastic Constant Matrix: (Units=GPa)
#
#
# Indices 1 2 3 4 5 6 
#
# 1 134.0289 61.3246 43.5401 0.0000 0.0000 0.0000
# 2 61.3246 104.4800 32.0269 0.0000 0.0000 0.0000
# 3 43.5401 32.0269 68.2187 0.0000 0.0000 0.0000
# 4 0.0000 0.0000 0.0000 19.2166 0.0000 0.0000
# 5 0.0000 0.0000 0.0000 0.0000 36.8752 0.0000
# 6 0.0000 0.0000 0.0000 0.0000 0.0000 26.8252
#
#
#
# Elastic Compliance Matrix: (Units=1/GPa)
#
#
# Indices 1 2 3 4 5 6 
#
# 1 0.011422 -0.005221 -0.004839 0.000000 0.000000 0.000000
# 2 -0.005221 0.013566 -0.003037 0.000000 0.000000 0.000000
# 3 -0.004839 -0.003037 0.019173 0.000000 0.000000 0.000000
# 4 0.000000 0.000000 0.000000 0.052038 0.000000 0.000000
# 5 0.000000 0.000000 0.000000 0.000000 0.027119 0.000000
# 6 0.000000 0.000000 0.000000 0.000000 0.000000 0.037278
#
#
# Mechanical properties :
#
#
# Convention : Reuss Voigt Hill
#
# Bulk Modulus (GPa) = 55.65473 64.50121 60.07797
# Shear Modulus (GPa) = 25.93646 27.90580 26.92113
#
# Velocity S-wave (km/s) = 3.71239 3.85075 3.78220
# Velocity P-wave (km/s) = 6.92452 7.35153 7.14122
#
# Compressibility (1/GPa) = 0.01796793
#
# Stress axis : x y z
#
# Youngs Moduli (GPa) = 87.55245 73.71119 52.15697
#
# Poissons Ratio (x) = 0.38482 0.25238
# Poissons Ratio (y) = 0.45709 0.15840
# Poissons Ratio (z) = 0.42365 0.22386
#
# Static dielectric constant tensor:
#      x y z
#    x 3.488490 0.000000 0.000000 
#    y 0.000000 3.610670 0.000000 
#    z 0.000000 0.000000 3.359950 
# 
# 
# High freq. dielectric constant tensor:
#      x y z
#    x 1.735080 0.000000 0.000000 
#    y 0.000000 1.727820 0.000000 
#    z 0.000000 0.000000 1.726270 
# 
# From -- ./inp_files/16839.got.cif
#   From: 2010.03.12/outbox.cif.g09.slc.cpg/sg21_9_cif.got.tgz:16839.got - 2010.04.14 01:59:26.
