data_PCOD8160488
_publ_section_title
;
Structure prediction by ZEFSAII (Michael W. Deem and Ramdas Pophale) SiO2 
 PCOD8160488
Probable space group: C 2 2 21
;
_chemical_formula_sum "Si O2"
_cell_formula_units_Z 48
_cell_length_a 14.271116
_cell_length_b 27.938733
_cell_length_c 5.176202
_cell_angle_alpha 90.000000
_cell_angle_beta 90.000000
_cell_angle_gamma 90.000000
_cell_volume 2063.839213
_symmetry_space_group_name_H-M "C 2 2 21"
_symmetry_group_IT_number 20
_symmetry_cell_setting 'orthorhombic'
loop_
_space_group_symop_operation_xyz
x,y,z
-x,-y,1/2+z
x,-y,-z
-x,y,1/2-z
1/2+x,1/2+y,z
1/2-x,1/2-y,1/2+z
1/2+x,1/2-y,-z
1/2-x,1/2+y,1/2-z
loop_
_atom_site_type_symbol
_atom_site_label
_atom_site_fract_x
_atom_site_fract_y
_atom_site_fract_z
Si Si1 0.500000 0.472824 0.250000
Si Si2 0.648796 0.340676 0.659364
Si Si3 0.500000 0.738434 0.250000
Si Si4 0.000000 0.299481 0.750000
Si Si5 0.350483 0.864479 0.626621
Si Si6 0.330367 0.944165 0.006598
Si Si7 0.500000 0.902123 0.250000
Si Si8 0.150025 0.899154 0.177291
O O1 0.541660 0.500000 0.500000
O O2 0.584742 0.443931 0.119105
O O3 0.590251 0.292100 0.661082
O O4 0.757187 0.333318 0.568207
O O5 0.608488 0.375978 0.439302
O O6 0.641351 0.362159 0.943819
O O7 0.470981 0.768794 0.500132
O O8 0.088817 0.333266 0.667188
O O9 0.318665 0.916972 0.731377
O O10 0.423558 0.868946 0.391014
O O11 0.439500 0.938092 0.074146
O O12 0.258369 0.917473 0.205311
O O13 0.304145 0.000000 0.000000
#
# Coordination Sequence:
#
# PCOD8160488 Si02
#       8
#     4   8   4   4   8   8   4   8
#     4  12  24  40  64  96 137 187 238 296 364 424
#     4  11  24  46  71 100 134 182 233 288 366 426
#     4  12  27  45  74 107 132 175 240 301 344 441
#     4  12  26  44  72 103 142 177 230 295 361 424
#     4  11  25  44  69  97 144 188 225 287 366 427
#     4  11  25  40  66 103 138 186 239 284 338 423
#     4  12  21  43  64  98 135 193 230 284 351 417
#     4  11  23  44  68  97 139 183 229 295 353 424
#
# _framework density 23.257625000000001
#
# number of rings (size 3 to 8) (size 9 to 14) (size 15 to 20)
#    0.000    0.667    3.333    4.000    2.333    2.667 
#    0.000    0.000    0.000    0.000    0.000    0.000 
#    0.000    0.000    0.000    0.000    0.000    0.000 
#
# Total GULP energy -297473.959337 kJ/mol
# GULP energy per Si atom -12394.748306 kJ/mol
# Density = 2.320469 g / cm^3
# Si number density = 23.257625 Si / 1000 Ang^3
#
#
#
# Elastic Constant Matrix: (Units=GPa)
#
#
# Indices 1 2 3 4 5 6 
#
# 1 112.5105 39.5108 22.3077 0.0000 0.0000 0.0000
# 2 39.5108 118.1175 33.8317 0.0000 0.0000 0.0000
# 3 22.3077 33.8317 97.2949 0.0000 0.0000 0.0000
# 4 0.0000 0.0000 0.0000 26.8521 0.0000 0.0000
# 5 0.0000 0.0000 0.0000 0.0000 33.4571 0.0000
# 6 0.0000 0.0000 0.0000 0.0000 0.0000 27.5763
#
#
#
# Elastic Compliance Matrix: (Units=1/GPa)
#
#
# Indices 1 2 3 4 5 6 
#
# 1 0.010213 -0.003049 -0.001281 0.000000 0.000000 0.000000
# 2 -0.003049 0.010313 -0.002887 0.000000 0.000000 0.000000
# 3 -0.001281 -0.002887 0.011576 0.000000 0.000000 0.000000
# 4 0.000000 0.000000 0.000000 0.037241 0.000000 0.000000
# 5 0.000000 0.000000 0.000000 0.000000 0.029889 0.000000
# 6 0.000000 0.000000 0.000000 0.000000 0.000000 0.036263
#
#
# Mechanical properties :
#
#
# Convention : Reuss Voigt Hill
#
# Bulk Modulus (GPa) = 56.60409 57.69150 57.14780
# Shear Modulus (GPa) = 32.08859 33.06194 32.57527
#
# Velocity S-wave (km/s) = 3.71846 3.77444 3.74656
# Velocity P-wave (km/s) = 6.54421 6.62227 6.58335
#
# Compressibility (1/GPa) = 0.01766657
#
# Stress axis : x y z
#
# Youngs Moduli (GPa) = 97.91504 96.96471 86.38811
#
# Poissons Ratio (x) = 0.29567 0.11069
# Poissons Ratio (y) = 0.29857 0.24940
# Poissons Ratio (z) = 0.12546 0.27993
#
# Static dielectric constant tensor:
#      x y z
#    x 4.460550 0.000000 0.000000 
#    y 0.000000 4.135450 0.000000 
#    z 0.000000 0.000000 4.075730 
# 
# 
# High freq. dielectric constant tensor:
#      x y z
#    x 1.937380 0.000000 0.000000 
#    y 0.000000 1.905270 0.000000 
#    z 0.000000 0.000000 1.921350 
# 
# From -- ./inp_files/2113.got.cif
#   From: 2010.03.12/outbox.cif.g09.slc.cpg/sg20_2_cif.got.tgz:2113.got - 2010.04.14 01:38:04.
