data_PCOD8160095
_publ_section_title
;
Structure prediction by ZEFSAII (Michael W. Deem and Ramdas Pophale) SiO2 
 PCOD8160095
Probable space group: C 2 2 21
;
_chemical_formula_sum "Si O2"
_cell_formula_units_Z 60
_cell_length_a 6.515050
_cell_length_b 18.249717
_cell_length_c 24.112440
_cell_angle_alpha 90.000000
_cell_angle_beta 90.000000
_cell_angle_gamma 90.000000
_cell_volume 2866.916521
_symmetry_space_group_name_H-M "C 2 2 21"
_symmetry_group_IT_number 20
_symmetry_cell_setting 'orthorhombic'
loop_
_space_group_symop_operation_xyz
x,y,z
-x,-y,1/2+z
x,-y,-z
-x,y,1/2-z
1/2+x,1/2+y,z
1/2-x,1/2-y,1/2+z
1/2+x,1/2-y,-z
1/2-x,1/2+y,1/2-z
loop_
_atom_site_type_symbol
_atom_site_label
_atom_site_fract_x
_atom_site_fract_y
_atom_site_fract_z
Si Si1 0.457513 0.670414 0.422686
Si Si2 0.755261 0.428752 0.122773
Si Si3 0.986250 0.825114 0.184879
Si Si4 0.552903 0.423872 0.473451
Si Si5 0.500000 0.366225 0.750000
Si Si6 0.699444 0.819322 0.838397
Si Si7 0.311849 0.085034 0.162245
Si Si8 0.641846 0.166495 0.898659
O O1 0.469545 0.635040 0.482937
O O2 0.680725 0.659433 0.394441
O O3 0.281010 0.629508 0.388824
O O4 0.392672 0.755141 0.427672
O O5 0.596621 0.400846 0.169524
O O6 0.635469 0.445084 0.066123
O O7 0.859933 0.502311 0.144769
O O8 0.922506 0.367003 0.113447
O O9 0.754986 0.825410 0.160991
O O10 0.000000 0.810956 0.250000
O O11 0.098389 0.759272 0.152874
O O12 0.633817 0.500000 0.500000
O O13 0.736626 0.386738 0.439795
O O14 0.365244 0.313650 0.788948
O O15 0.346838 0.416284 0.713665
O O16 0.530103 0.879733 0.822039
#
# Coordination Sequence:
#
# PCOD8160095 Si02
#       8
#     8   8   8   8   4   8   8   8
#     4  11  24  44  68  99 133 173 222 278 328 391
#     4  11  26  45  64  99 136 174 223 273 340 397
#     4  11  24  43  69  97 138 174 223 274 324 396
#     4  11  26  46  68  97 134 173 223 280 332 397
#     4  10  24  40  68 100 130 174 228 270 330 396
#     4  11  23  41  70  99 132 177 225 270 329 401
#     4  11  23  43  68  94 135 171 224 274 332 395
#     4  11  26  44  68 100 132 175 226 270 333 398
#
# _framework density 20.928408000000001
#
# number of rings (size 3 to 8) (size 9 to 14) (size 15 to 20)
#    0.000    1.067    4.000    1.200    6.533    3.200 
#    2.400    0.000    0.000    0.000    0.000    0.000 
#    0.000    0.000    0.000    0.000    0.000    0.000 
#
# Total GULP energy -372119.520689 kJ/mol
# GULP energy per Si atom -12403.984023 kJ/mol
# Density = 2.088077 g / cm^3
# Si number density = 20.928408 Si / 1000 Ang^3
#
#
#
# Elastic Constant Matrix: (Units=GPa)
#
#
# Indices 1 2 3 4 5 6 
#
# 1 92.5640 27.2591 23.3037 0.0000 0.0000 0.0000
# 2 27.2591 124.5956 16.4857 0.0000 0.0000 0.0000
# 3 23.3037 16.4857 78.0659 0.0000 0.0000 0.0000
# 4 0.0000 0.0000 0.0000 27.2869 0.0000 0.0000
# 5 0.0000 0.0000 0.0000 0.0000 18.8150 0.0000
# 6 0.0000 0.0000 0.0000 0.0000 0.0000 27.9465
#
#
#
# Elastic Compliance Matrix: (Units=1/GPa)
#
#
# Indices 1 2 3 4 5 6 
#
# 1 0.012272 -0.002263 -0.003185 0.000000 0.000000 0.000000
# 2 -0.002263 0.008674 -0.001156 0.000000 0.000000 0.000000
# 3 -0.003185 -0.001156 0.014005 0.000000 0.000000 0.000000
# 4 0.000000 0.000000 0.000000 0.036648 0.000000 0.000000
# 5 0.000000 0.000000 0.000000 0.000000 0.053149 0.000000
# 6 0.000000 0.000000 0.000000 0.000000 0.000000 0.035783
#
#
# Mechanical properties :
#
#
# Convention : Reuss Voigt Hill
#
# Bulk Modulus (GPa) = 45.99610 47.70251 46.84931
# Shear Modulus (GPa) = 27.62633 30.02146 28.82389
#
# Velocity S-wave (km/s) = 3.63718 3.79157 3.71517
# Velocity P-wave (km/s) = 6.29796 6.48156 6.39042
#
# Compressibility (1/GPa) = 0.02174097
#
# Stress axis : x y z
#
# Youngs Moduli (GPa) = 81.48760 115.28546 71.40462
#
# Poissons Ratio (x) = 0.26093 0.22745
# Poissons Ratio (y) = 0.18444 0.08255
# Poissons Ratio (z) = 0.25956 0.13329
#
# Static dielectric constant tensor:
#      x y z
#    x 3.886670 0.000000 0.000000 
#    y 0.000000 3.740750 0.000000 
#    z 0.000000 0.000000 3.783020 
# 
# 
# High freq. dielectric constant tensor:
#      x y z
#    x 1.827610 0.000000 0.000000 
#    y 0.000000 1.826140 0.000000 
#    z 0.000000 0.000000 1.818190 
# 
# From -- ./inp_files/29944.got.cif
#   From: 2010.03.12/outbox.cif.g09.slc.cpg/sg20_15_cif.got.tgz:29944.got - 2010.04.14 01:38:04.
