data_PCOD8160565
_publ_section_title
;
Structure prediction by ZEFSAII (Michael W. Deem and Ramdas Pophale) SiO2 
 PCOD8160565
Probable space group: C 2 2 21
;
_chemical_formula_sum "Si O2"
_cell_formula_units_Z 44
_cell_length_a 21.058001
_cell_length_b 10.944665
_cell_length_c 8.810962
_cell_angle_alpha 90.000000
_cell_angle_beta 90.000000
_cell_angle_gamma 90.000000
_cell_volume 2030.686788
_symmetry_space_group_name_H-M "C 2 2 21"
_symmetry_group_IT_number 20
_symmetry_cell_setting 'orthorhombic'
loop_
_space_group_symop_operation_xyz
x,y,z
-x,-y,1/2+z
x,-y,-z
-x,y,1/2-z
1/2+x,1/2+y,z
1/2-x,1/2-y,1/2+z
1/2+x,1/2-y,-z
1/2-x,1/2+y,1/2-z
loop_
_atom_site_type_symbol
_atom_site_label
_atom_site_fract_x
_atom_site_fract_y
_atom_site_fract_z
Si Si1 0.837492 0.078061 0.346448
Si Si2 0.079296 0.676600 0.432844
Si Si3 0.300768 0.961081 0.831901
Si Si4 0.615849 0.158856 0.785097
Si Si5 0.025288 0.500000 0.000000
Si Si6 0.060750 0.054310 0.659023
O O1 0.766233 0.095294 0.276423
O O2 0.867585 0.213116 0.367109
O O3 0.841556 0.000000 0.500000
O O4 0.874584 0.000568 0.222337
O O5 0.140963 0.632710 0.339409
O O6 0.089647 0.684294 0.615061
O O7 0.021021 0.585503 0.399390
O O8 0.063512 0.801420 0.352595
O O9 0.320546 0.076389 0.727451
O O10 0.284321 0.000000 0.000000
O O11 0.566047 0.086159 0.889035
O O12 0.000000 0.010246 0.750000
O O13 0.046341 0.000000 0.500000
#
# Coordination Sequence:
#
# PCOD8160565 Si02
#       6
#     8   8   8   8   4   8
#     4  11  26  49  72 104 148 186 237 299 354 436
#     4  11  24  45  72 101 144 179 238 297 358 424
#     4   9  22  46  70 100 135 188 233 293 357 411
#     4  11  24  46  70 106 141 185 239 296 355 426
#     4  12  26  42  72 102 138 188 238 302 354 412
#     4  12  28  45  72 105 142 191 234 288 366 433
#
# _framework density 21.667546000000002
#
# number of rings (size 3 to 8) (size 9 to 14) (size 15 to 20)
#    0.000    1.091    4.545    1.091   10.182    0.000 
#    8.182    0.000    0.000    0.000    0.000    0.000 
#    0.000    0.000    0.000    0.000    0.000    0.000 
#
# Total GULP energy -272689.573863 kJ/mol
# GULP energy per Si atom -12394.980630 kJ/mol
# Density = 2.161823 g / cm^3
# Si number density = 21.667546 Si / 1000 Ang^3
#
#
#
# Elastic Constant Matrix: (Units=GPa)
#
#
# Indices 1 2 3 4 5 6 
#
# 1 178.3985 80.5626 55.2363 0.0000 0.0000 0.0000
# 2 80.5626 159.5927 44.3199 0.0000 0.0000 0.0000
# 3 55.2363 44.3199 81.4680 0.0000 0.0000 0.0000
# 4 0.0000 0.0000 0.0000 38.9261 0.0000 0.0000
# 5 0.0000 0.0000 0.0000 0.0000 -103.4069 0.0000
# 6 0.0000 0.0000 0.0000 0.0000 0.0000 25.6786
#
#
#
# Elastic Compliance Matrix: (Units=1/GPa)
#
#
# Indices 1 2 3 4 5 6 
#
# 1 0.008189 -0.003053 -0.003891 0.000000 0.000000 0.000000
# 2 -0.003053 0.008519 -0.002565 0.000000 0.000000 0.000000
# 3 -0.003891 -0.002565 0.016308 0.000000 0.000000 0.000000
# 4 0.000000 0.000000 0.000000 0.025690 0.000000 0.000000
# 5 0.000000 0.000000 0.000000 0.000000 -0.009671 0.000000
# 6 0.000000 0.000000 0.000000 0.000000 0.000000 0.038943
#
#
# Mechanical properties :
#
#
# Convention : Reuss Voigt Hill
#
# Bulk Modulus (GPa) = 71.43576 86.63297 79.03436
# Shear Modulus (GPa) = 44.77752 8.19558 26.48655
#
# Velocity S-wave (km/s) = 4.55089 1.94696 3.50009
# Velocity P-wave (km/s) = 7.78811 6.71743 7.27250
#
# Compressibility (1/GPa) = 0.01399859
#
# Stress axis : x y z
#
# Youngs Moduli (GPa) = 122.11415 117.37890 61.31854
#
# Poissons Ratio (x) = 0.35838 0.23861
# Poissons Ratio (y) = 0.37284 0.15726
# Poissons Ratio (z) = 0.47518 0.30103
#
# Static dielectric constant tensor:
#      x y z
#    x 4.429340 0.000000 0.000000 
#    y 0.000000 4.092120 0.000000 
#    z 0.000000 0.000000 3.769470 
# 
# 
# High freq. dielectric constant tensor:
#      x y z
#    x 1.866630 0.000000 0.000000 
#    y 0.000000 1.860300 0.000000 
#    z 0.000000 0.000000 1.841550 
# 
# From -- ./inp_files/10585.got.cif
#   From: 2010.03.12/outbox.cif.g09.slc.cpg/sg20_6_cif.got.tgz:10585.got - 2010.04.14 01:38:04.
