data_PCOD8160522
_publ_section_title
;
Structure prediction by ZEFSAII (Michael W. Deem and Ramdas Pophale) SiO2 
 PCOD8160522
Probable space group: C 2 2 21
;
_chemical_formula_sum "Si O2"
_cell_formula_units_Z 48
_cell_length_a 15.860930
_cell_length_b 8.912625
_cell_length_c 13.804552
_cell_angle_alpha 90.000000
_cell_angle_beta 90.000000
_cell_angle_gamma 90.000000
_cell_volume 1951.446275
_symmetry_space_group_name_H-M "C 2 2 21"
_symmetry_group_IT_number 20
_symmetry_cell_setting 'orthorhombic'
loop_
_space_group_symop_operation_xyz
x,y,z
-x,-y,1/2+z
x,-y,-z
-x,y,1/2-z
1/2+x,1/2+y,z
1/2-x,1/2-y,1/2+z
1/2+x,1/2-y,-z
1/2-x,1/2+y,1/2-z
loop_
_atom_site_type_symbol
_atom_site_label
_atom_site_fract_x
_atom_site_fract_y
_atom_site_fract_z
Si Si1 0.020085 0.000000 0.000000
Si Si2 0.793693 0.071116 0.742397
Si Si3 0.463665 0.962629 0.145563
Si Si4 0.827425 0.194197 0.533724
Si Si5 0.391874 0.000000 0.500000
Si Si6 0.307256 0.141795 0.129423
Si Si7 0.570279 0.636175 0.328425
O O1 0.080409 0.855121 0.996433
O O2 0.958368 0.015660 0.091373
O O3 0.826925 0.145168 0.644654
O O4 0.789281 0.192774 0.827818
O O5 0.707812 0.986197 0.712403
O O6 0.848874 0.930254 0.776269
O O7 0.500000 0.003349 0.250000
O O8 0.549193 0.946694 0.086206
O O9 0.411174 0.805303 0.133314
O O10 0.405160 0.102053 0.104872
O O11 0.825477 0.372579 0.530919
O O12 0.753360 0.125216 0.465010
O O13 0.500000 0.660676 0.250000
#
# Coordination Sequence:
#
# PCOD8160522 Si02
#       7
#     4   8   8   8   4   8   8
#     4  12  22  47  77 110 148 200 250 324 390 466
#     4  12  27  47  76 102 158 198 262 316 396 471
#     4  11  27  48  77 111 153 190 256 320 387 460
#     4  12  26  51  76 106 157 205 254 318 395 469
#     4  12  28  47  79 114 150 202 252 320 382 468
#     4  12  28  48  75 112 150 208 253 323 391 469
#     4  11  23  46  78 111 147 199 253 319 396 464
#
# _framework density 24.597142000000002
#
# number of rings (size 3 to 8) (size 9 to 14) (size 15 to 20)
#    0.000    0.333    5.000    2.000   11.667    0.667 
#    3.000    0.000    0.000    0.000    0.000    0.000 
#    0.000    0.000    0.000    0.000    0.000    0.000 
#
# Total GULP energy -297470.361288 kJ/mol
# GULP energy per Si atom -12394.598387 kJ/mol
# Density = 2.454116 g / cm^3
# Si number density = 24.597142 Si / 1000 Ang^3
#
#
#
# Elastic Constant Matrix: (Units=GPa)
#
#
# Indices 1 2 3 4 5 6 
#
# 1 69.8822 13.1061 20.3078 0.0000 0.0000 0.0000
# 2 13.1061 123.1730 15.5868 0.0000 0.0000 0.0000
# 3 20.3078 15.5868 105.9161 0.0000 0.0000 0.0000
# 4 0.0000 0.0000 0.0000 46.2525 0.0000 0.0000
# 5 0.0000 0.0000 0.0000 0.0000 22.1851 0.0000
# 6 0.0000 0.0000 0.0000 0.0000 0.0000 39.8012
#
#
#
# Elastic Compliance Matrix: (Units=1/GPa)
#
#
# Indices 1 2 3 4 5 6 
#
# 1 0.015351 -0.001285 -0.002754 0.000000 0.000000 0.000000
# 2 -0.001285 0.008380 -0.000987 0.000000 0.000000 0.000000
# 3 -0.002754 -0.000987 0.010115 0.000000 0.000000 0.000000
# 4 0.000000 0.000000 0.000000 0.021620 0.000000 0.000000
# 5 0.000000 0.000000 0.000000 0.000000 0.045075 0.000000
# 6 0.000000 0.000000 0.000000 0.000000 0.000000 0.025125
#
#
# Mechanical properties :
#
#
# Convention : Reuss Voigt Hill
#
# Bulk Modulus (GPa) = 42.02729 44.10810 43.06769
# Shear Modulus (GPa) = 34.80674 38.31246 36.55960
#
# Velocity S-wave (km/s) = 3.76583 3.95092 3.85948
# Velocity P-wave (km/s) = 6.00266 6.22770 6.11621
#
# Compressibility (1/GPa) = 0.02379407
#
# Stress axis : x y z
#
# Youngs Moduli (GPa) = 65.14168 119.32800 98.86541
#
# Poissons Ratio (x) = 0.15332 0.27230
# Poissons Ratio (y) = 0.08370 0.09757
# Poissons Ratio (z) = 0.17942 0.11776
#
# Static dielectric constant tensor:
#      x y z
#    x 4.102500 0.000000 0.000000 
#    y 0.000000 4.753110 0.000000 
#    z 0.000000 0.000000 4.891640 
# 
# 
# High freq. dielectric constant tensor:
#      x y z
#    x 1.969720 0.000000 0.000000 
#    y 0.000000 1.992100 0.000000 
#    z 0.000000 0.000000 1.986370 
# 
# From -- ./inp_files/21319.got.cif
#   From: 2010.03.12/outbox.cif.g09.slc.cpg/sg20_11_cif.got.tgz:21319.got - 2010.04.14 01:38:04.
