data_PCOD8160687
_publ_section_title
;
Structure prediction by ZEFSAII (Michael W. Deem and Ramdas Pophale) SiO2 
 PCOD8160687
Probable space group: C 2 2 21
;
_chemical_formula_sum "Si O2"
_cell_formula_units_Z 48
_cell_length_a 9.216418
_cell_length_b 28.089440
_cell_length_c 8.305650
_cell_angle_alpha 90.000000
_cell_angle_beta 90.000000
_cell_angle_gamma 90.000000
_cell_volume 2150.200064
_symmetry_space_group_name_H-M "C 2 2 21"
_symmetry_group_IT_number 20
_symmetry_cell_setting 'orthorhombic'
loop_
_space_group_symop_operation_xyz
x,y,z
-x,-y,1/2+z
x,-y,-z
-x,y,1/2-z
1/2+x,1/2+y,z
1/2-x,1/2-y,1/2+z
1/2+x,1/2-y,-z
1/2-x,1/2+y,1/2-z
loop_
_atom_site_type_symbol
_atom_site_label
_atom_site_fract_x
_atom_site_fract_y
_atom_site_fract_z
Si Si1 0.239447 0.798159 0.069462
Si Si2 0.246474 0.860179 0.389074
Si Si3 0.045058 0.706427 0.078310
Si Si4 0.950072 0.129635 0.427279
Si Si5 0.651470 0.967543 0.160851
Si Si6 0.895160 0.960188 0.388232
O O1 0.240327 0.834478 0.217741
O O2 0.144332 0.752258 0.109235
O O3 0.401250 0.781186 0.025171
O O4 0.161406 0.825906 0.921853
O O5 0.367292 0.834908 0.494179
O O6 0.296765 0.914537 0.379982
O O7 0.088984 0.856338 0.467270
O O8 0.000000 0.685602 0.250000
O O9 0.860344 0.085530 0.502617
O O10 0.000000 0.115640 0.250000
O O11 0.500000 0.968146 0.250000
O O12 0.758876 0.985818 0.301832
O O13 0.653840 0.000000 0.000000
O O14 0.000000 0.941107 0.250000
O O15 0.971577 0.000000 0.500000
#
# Coordination Sequence:
#
# PCOD8160687 Si02
#       6
#     8   8   8   8   8   8
#     4  12  24  47  72 103 148 194 238 301 367 435
#     4  12  26  48  73 103 148 196 242 300 374 434
#     4  12  26  43  72 106 142 189 244 298 358 438
#     4  12  25  43  71 106 142 184 240 302 359 438
#     4  12  27  49  73 106 149 198 244 303 367 435
#     4  12  24  44  73 105 140 187 237 296 359 432
#
# _framework density 22.323504
#
# number of rings (size 3 to 8) (size 9 to 14) (size 15 to 20)
#    0.000    0.000    3.333    7.500    2.333    2.000 
#    0.000    0.000    0.000    0.000    0.000    0.000 
#    0.000    0.000    0.000    0.000    0.000    0.000 
#
# Total GULP energy -297596.109883 kJ/mol
# GULP energy per Si atom -12399.837912 kJ/mol
# Density = 2.227270 g / cm^3
# Si number density = 22.323504 Si / 1000 Ang^3
#
#
#
# Elastic Constant Matrix: (Units=GPa)
#
#
# Indices 1 2 3 4 5 6 
#
# 1 121.9196 33.6998 29.1764 0.0000 0.0000 0.0000
# 2 33.6998 111.2678 39.0816 0.0000 0.0000 0.0000
# 3 29.1764 39.0816 99.1033 0.0000 0.0000 0.0000
# 4 0.0000 0.0000 0.0000 28.8373 0.0000 0.0000
# 5 0.0000 0.0000 0.0000 0.0000 34.6664 0.0000
# 6 0.0000 0.0000 0.0000 0.0000 0.0000 24.3810
#
#
#
# Elastic Compliance Matrix: (Units=1/GPa)
#
#
# Indices 1 2 3 4 5 6 
#
# 1 0.009243 -0.002140 -0.001877 0.000000 0.000000 0.000000
# 2 -0.002140 0.010928 -0.003679 0.000000 0.000000 0.000000
# 3 -0.001877 -0.003679 0.012094 0.000000 0.000000 0.000000
# 4 0.000000 0.000000 0.000000 0.034677 0.000000 0.000000
# 5 0.000000 0.000000 0.000000 0.000000 0.028846 0.000000
# 6 0.000000 0.000000 0.000000 0.000000 0.000000 0.041016
#
#
# Mechanical properties :
#
#
# Convention : Reuss Voigt Hill
#
# Bulk Modulus (GPa) = 59.27137 59.57848 59.42493
# Shear Modulus (GPa) = 31.68143 32.93247 32.30695
#
# Velocity S-wave (km/s) = 3.77131 3.84505 3.80836
# Velocity P-wave (km/s) = 6.75074 6.81609 6.78349
#
# Compressibility (1/GPa) = 0.01687155
#
# Stress axis : x y z
#
# Youngs Moduli (GPa) = 108.19128 91.50945 82.68486
#
# Poissons Ratio (x) = 0.19584 0.15522
# Poissons Ratio (y) = 0.23154 0.30423
# Poissons Ratio (z) = 0.20310 0.33670
#
# Static dielectric constant tensor:
#      x y z
#    x 4.759080 0.000000 0.000000 
#    y 0.000000 4.038130 0.000000 
#    z 0.000000 0.000000 4.600050 
# 
# 
# High freq. dielectric constant tensor:
#      x y z
#    x 1.892870 0.000000 0.000000 
#    y 0.000000 1.885540 0.000000 
#    z 0.000000 0.000000 1.894540 
# 
# From -- ./inp_files/6471.got.cif
#   From: 2010.03.12/outbox.cif.g09.slc.cpg/sg20_4_cif.got.tgz:6471.got - 2010.04.14 01:38:04.
