data_PCOD8160236
_publ_section_title
;
Structure prediction by ZEFSAII (Michael W. Deem and Ramdas Pophale) SiO2 
 PCOD8160236
Probable space group: C 2 2 21
;
_chemical_formula_sum "Si O2"
_cell_formula_units_Z 32
_cell_length_a 7.495619
_cell_length_b 10.503994
_cell_length_c 17.630997
_cell_angle_alpha 90.000000
_cell_angle_beta 90.000000
_cell_angle_gamma 90.000000
_cell_volume 1388.157807
_symmetry_space_group_name_H-M "C 2 2 21"
_symmetry_group_IT_number 20
_symmetry_cell_setting 'orthorhombic'
loop_
_space_group_symop_operation_xyz
x,y,z
-x,-y,1/2+z
x,-y,-z
-x,y,1/2-z
1/2+x,1/2+y,z
1/2-x,1/2-y,1/2+z
1/2+x,1/2-y,-z
1/2-x,1/2+y,1/2-z
loop_
_atom_site_type_symbol
_atom_site_label
_atom_site_fract_x
_atom_site_fract_y
_atom_site_fract_z
Si Si1 0.308284 0.871710 0.280447
Si Si2 0.514904 0.877934 0.548305
Si Si3 0.888935 0.786723 0.582911
Si Si4 0.272399 0.635005 0.176611
O O1 0.500000 0.907722 0.250000
O O2 0.314734 0.832683 0.369007
O O3 0.230803 0.755372 0.230719
O O4 0.199875 0.004664 0.274975
O O5 0.724559 0.882621 0.569007
O O6 0.469568 0.754184 0.497954
O O7 0.400222 0.876092 0.624244
O O8 0.463560 0.000000 0.500000
O O9 0.044789 0.853048 0.630516
#
# Coordination Sequence:
#
# PCOD8160236 Si02
#       4
#     8   8   8   8
#     4  10  25  48  72 108 147 191 246 300 369 437
#     4  12  25  44  74 105 147 192 248 304 363 436
#     4  11  25  46  71 109 140 194 246 298 368 437
#     4  11  25  50  75 107 152 192 244 308 364 436
#
# _framework density 23.052133999999999
#
# number of rings (size 3 to 8) (size 9 to 14) (size 15 to 20)
#    0.000    1.000    5.000    0.000    3.500    3.000 
#   13.500    0.000    0.000    0.000    0.000    0.000 
#    0.000    0.000    0.000    0.000    0.000    0.000 
#
# Total GULP energy -198401.649145 kJ/mol
# GULP energy per Si atom -12400.103072 kJ/mol
# Density = 2.299967 g / cm^3
# Si number density = 23.052134 Si / 1000 Ang^3
#
#
#
# Elastic Constant Matrix: (Units=GPa)
#
#
# Indices 1 2 3 4 5 6 
#
# 1 111.3084 45.2287 34.7440 0.0000 0.0000 0.0000
# 2 45.2287 170.9303 57.5755 0.0000 0.0000 0.0000
# 3 34.7440 57.5755 105.0351 0.0000 0.0000 0.0000
# 4 0.0000 0.0000 0.0000 8.7637 0.0000 0.0000
# 5 0.0000 0.0000 0.0000 0.0000 35.5293 0.0000
# 6 0.0000 0.0000 0.0000 0.0000 0.0000 1.3385
#
#
#
# Elastic Compliance Matrix: (Units=1/GPa)
#
#
# Indices 1 2 3 4 5 6 
#
# 1 0.010538 -0.001980 -0.002401 0.000000 0.000000 0.000000
# 2 -0.001980 0.007547 -0.003482 0.000000 0.000000 0.000000
# 3 -0.002401 -0.003482 0.012223 0.000000 0.000000 0.000000
# 4 0.000000 0.000000 0.000000 0.114107 0.000000 0.000000
# 5 0.000000 0.000000 0.000000 0.000000 0.028146 0.000000
# 6 0.000000 0.000000 0.000000 0.000000 0.000000 0.747094
#
#
# Mechanical properties :
#
#
# Convention : Reuss Voigt Hill
#
# Bulk Modulus (GPa) = 68.57047 73.59667 71.08357
# Shear Modulus (GPa) = 5.31778 25.77468 15.54623
#
# Velocity S-wave (km/s) = 1.52048 3.34743 2.59973
# Velocity P-wave (km/s) = 5.73523 6.85098 6.31778
#
# Compressibility (1/GPa) = 0.01458354
#
# Stress axis : x y z
#
# Youngs Moduli (GPa) = 94.89654 132.50154 81.81022
#
# Poissons Ratio (x) = 0.26232 0.19639
# Poissons Ratio (y) = 0.18787 0.28487
# Poissons Ratio (z) = 0.22780 0.46138
#
# Static dielectric constant tensor:
#      x y z
#    x 4.145180 0.000000 0.000000 
#    y 0.000000 4.210350 0.000000 
#    z 0.000000 0.000000 4.419530 
# 
# 
# High freq. dielectric constant tensor:
#      x y z
#    x 1.911130 0.000000 0.000000 
#    y 0.000000 1.908620 0.000000 
#    z 0.000000 0.000000 1.923460 
# 
# From -- ./inp_files/18173.got.cif
#   From: 2010.03.12/outbox.cif.g09.slc.cpg/sg20_10_cif.got.tgz:18173.got - 2010.04.14 01:38:04.
