data_PCOD8160570
_publ_section_title
;
Structure prediction by ZEFSAII (Michael W. Deem and Ramdas Pophale) SiO2 
 PCOD8160570
Probable space group: C 2 2 21
;
_chemical_formula_sum "Si O2"
_cell_formula_units_Z 40
_cell_length_a 20.170297
_cell_length_b 5.054160
_cell_length_c 15.839798
_cell_angle_alpha 90.000000
_cell_angle_beta 90.000000
_cell_angle_gamma 90.000000
_cell_volume 1614.770915
_symmetry_space_group_name_H-M "C 2 2 21"
_symmetry_group_IT_number 20
_symmetry_cell_setting 'orthorhombic'
loop_
_space_group_symop_operation_xyz
x,y,z
-x,-y,1/2+z
x,-y,-z
-x,y,1/2-z
1/2+x,1/2+y,z
1/2-x,1/2-y,1/2+z
1/2+x,1/2-y,-z
1/2-x,1/2+y,1/2-z
loop_
_atom_site_type_symbol
_atom_site_label
_atom_site_fract_x
_atom_site_fract_y
_atom_site_fract_z
Si Si1 0.810656 0.313483 0.431040
Si Si2 0.022602 0.199008 0.651353
Si Si3 0.291855 0.987242 0.743305
Si Si4 0.605539 0.194721 0.625235
Si Si5 0.929138 0.000000 0.500000
Si Si6 0.201491 0.500000 0.500000
O O1 0.776766 0.500000 0.500000
O O2 0.824402 0.476450 0.347790
O O3 0.882076 0.226130 0.463644
O O4 0.751531 0.093330 0.423649
O O5 0.082894 0.989218 0.648194
O O6 0.000000 0.209433 0.750000
O O7 0.043886 0.490186 0.618548
O O8 0.970117 0.103692 0.580848
O O9 0.228377 0.180982 0.749403
O O10 0.350725 0.062632 0.803351
O O11 0.651061 0.214038 0.541100
#
# Coordination Sequence:
#
# PCOD8160570 Si02
#       6
#     8   8   8   8   4   4
#     4  11  26  43  77 103 154 189 242 303 367 446
#     4  12  28  49  74 103 145 196 252 299 359 432
#     4  12  25  46  72 112 150 188 237 299 374 449
#     4  12  26  45  77 102 147 184 242 302 362 426
#     4  11  28  48  70 108 144 201 252 300 362 431
#     4  11  24  46  66 116 138 187 232 298 378 435
#
# _framework density 24.771318000000001
#
# number of rings (size 3 to 8) (size 9 to 14) (size 15 to 20)
#    0.000    0.400    2.000    5.400   11.200    0.000 
#    0.000    0.000    0.000    0.000    0.000    0.000 
#    0.000    0.000    0.000    0.000    0.000    0.000 
#
# Total GULP energy -247836.059870 kJ/mol
# GULP energy per Si atom -12391.802993 kJ/mol
# Density = 2.471494 g / cm^3
# Si number density = 24.771318 Si / 1000 Ang^3
#
#
#
# Elastic Constant Matrix: (Units=GPa)
#
#
# Indices 1 2 3 4 5 6 
#
# 1 100.3803 -2.2362 29.9164 0.0000 0.0000 0.0000
# 2 -2.2362 52.0385 -19.5372 0.0000 0.0000 0.0000
# 3 29.9164 -19.5372 116.0054 0.0000 0.0000 0.0000
# 4 0.0000 0.0000 0.0000 32.5097 0.0000 0.0000
# 5 0.0000 0.0000 0.0000 0.0000 51.9938 0.0000
# 6 0.0000 0.0000 0.0000 0.0000 0.0000 24.5533
#
#
#
# Elastic Compliance Matrix: (Units=1/GPa)
#
#
# Indices 1 2 3 4 5 6 
#
# 1 0.010810 -0.000621 -0.002893 0.000000 0.000000 0.000000
# 2 -0.000621 0.020549 0.003621 0.000000 0.000000 0.000000
# 3 -0.002893 0.003621 0.009976 0.000000 0.000000 0.000000
# 4 0.000000 0.000000 0.000000 0.030760 0.000000 0.000000
# 5 0.000000 0.000000 0.000000 0.000000 0.019233 0.000000
# 6 0.000000 0.000000 0.000000 0.000000 0.000000 0.040728
#
#
# Mechanical properties :
#
#
# Convention : Reuss Voigt Hill
#
# Bulk Modulus (GPa) = 24.06734 31.63447 27.85091
# Shear Modulus (GPa) = 34.31891 39.16344 36.74118
#
# Velocity S-wave (km/s) = 3.72617 3.98049 3.85543
# Velocity P-wave (km/s) = 5.31502 5.82444 5.57555
#
# Compressibility (1/GPa) = 0.04155008
#
# Stress axis : x y z
#
# Youngs Moduli (GPa) = 92.50417 48.66340 100.23977
#
# Poissons Ratio (x) = 0.03024 0.28994
# Poissons Ratio (y) = 0.05748 -0.36298
# Poissons Ratio (z) = 0.26757 -0.17621
#
# Static dielectric constant tensor:
#      x y z
#    x 4.488000 0.000000 0.000000 
#    y 0.000000 4.474960 0.000000 
#    z 0.000000 0.000000 4.446500 
# 
# 
# High freq. dielectric constant tensor:
#      x y z
#    x 1.993960 0.000000 0.000000 
#    y 0.000000 1.984820 0.000000 
#    z 0.000000 0.000000 2.007270 
# 
# From -- ./inp_files/22647.got.cif
#   From: 2010.03.12/outbox.cif.g09.slc.cpg/sg20_12_cif.got.tgz:22647.got - 2010.04.14 01:38:04.
