data_PCOD8160181
_publ_section_title
;
Structure prediction by ZEFSAII (Michael W. Deem and Ramdas Pophale) SiO2 
 PCOD8160181
Probable space group: C 2 2 21
;
_chemical_formula_sum "Si O2"
_cell_formula_units_Z 24
_cell_length_a 7.840799
_cell_length_b 16.251798
_cell_length_c 8.353350
_cell_angle_alpha 90.000000
_cell_angle_beta 90.000000
_cell_angle_gamma 90.000000
_cell_volume 1064.443011
_symmetry_space_group_name_H-M "C 2 2 21"
_symmetry_group_IT_number 20
_symmetry_cell_setting 'orthorhombic'
loop_
_space_group_symop_operation_xyz
x,y,z
-x,-y,1/2+z
x,-y,-z
-x,y,1/2-z
1/2+x,1/2+y,z
1/2-x,1/2-y,1/2+z
1/2+x,1/2-y,-z
1/2-x,1/2+y,1/2-z
loop_
_atom_site_type_symbol
_atom_site_label
_atom_site_fract_x
_atom_site_fract_y
_atom_site_fract_z
Si Si1 0.680731 0.862736 0.828197
Si Si2 0.000000 0.118268 0.750000
Si Si3 0.380175 0.500000 0.000000
Si Si4 0.672993 0.217163 0.831436
O O1 0.500000 0.882111 0.750000
O O2 0.800849 0.815003 0.699728
O O3 0.761337 0.950191 0.875496
O O4 0.662908 0.802355 0.981214
O O5 0.002734 0.062298 0.907818
O O6 0.831656 0.173038 0.746338
O O7 0.500000 0.185383 0.750000
#
# Coordination Sequence:
#
# PCOD8160181 Si02
#       4
#     8   4   4   8
#     4  11  24  46  71 109 144 187 244 293 356 429
#     4  10  24  46  64 108 142 188 238 288 358 422
#     4  10  26  42  72 104 148 190 230 294 368 414
#     4  11  24  42  73 103 139 190 241 292 352 420
#
# _framework density 22.547004999999999
#
# number of rings (size 3 to 8) (size 9 to 14) (size 15 to 20)
#    0.000    1.333    1.667    2.000    7.000    8.000 
#    0.000    1.667    0.000    0.000    0.000    0.000 
#    0.000    0.000    0.000    0.000    0.000    0.000 
#
# Total GULP energy -148830.253667 kJ/mol
# GULP energy per Si atom -12402.521139 kJ/mol
# Density = 2.249569 g / cm^3
# Si number density = 22.547005 Si / 1000 Ang^3
#
#
#
# Elastic Constant Matrix: (Units=GPa)
#
#
# Indices 1 2 3 4 5 6 
#
# 1 153.2236 40.1759 36.8091 0.0000 0.0000 0.0000
# 2 40.1759 111.1708 32.1001 0.0000 0.0000 0.0000
# 3 36.8091 32.1001 74.9047 0.0000 0.0000 0.0000
# 4 0.0000 0.0000 0.0000 47.2667 0.0000 0.0000
# 5 0.0000 0.0000 0.0000 0.0000 50.2148 0.0000
# 6 0.0000 0.0000 0.0000 0.0000 0.0000 3.5584
#
#
#
# Elastic Compliance Matrix: (Units=1/GPa)
#
#
# Indices 1 2 3 4 5 6 
#
# 1 0.007751 -0.001941 -0.002977 0.000000 0.000000 0.000000
# 2 -0.001941 0.010752 -0.003654 0.000000 0.000000 0.000000
# 3 -0.002977 -0.003654 0.016379 0.000000 0.000000 0.000000
# 4 0.000000 0.000000 0.000000 0.021157 0.000000 0.000000
# 5 0.000000 0.000000 0.000000 0.000000 0.019914 0.000000
# 6 0.000000 0.000000 0.000000 0.000000 0.000000 0.281023
#
#
# Mechanical properties :
#
#
# Convention : Reuss Voigt Hill
#
# Bulk Modulus (GPa) = 56.37726 61.94103 59.15914
# Shear Modulus (GPa) = 13.15682 35.55558 24.35620
#
# Velocity S-wave (km/s) = 2.41825 3.97540 3.29027
# Velocity P-wave (km/s) = 5.73200 6.97161 6.38197
#
# Compressibility (1/GPa) = 0.01773765
#
# Stress axis : x y z
#
# Youngs Moduli (GPa) = 129.02280 93.00815 61.05446
#
# Poissons Ratio (x) = 0.18057 0.18174
# Poissons Ratio (y) = 0.25049 0.22307
# Poissons Ratio (z) = 0.38406 0.33981
#
# Static dielectric constant tensor:
#      x y z
#    x 4.020130 0.000000 0.000000 
#    y 0.000000 4.204460 0.000000 
#    z 0.000000 0.000000 4.386320 
# 
# 
# High freq. dielectric constant tensor:
#      x y z
#    x 1.892770 0.000000 0.000000 
#    y 0.000000 1.892830 0.000000 
#    z 0.000000 0.000000 1.897000 
# 
# From -- ./inp_files/5543.got.cif
#   From: 2010.03.12/outbox.cif.g09.slc.cpg/sg20_3_cif.got.tgz:5543.got - 2010.04.14 01:38:04.
