data_PCOD8160212
_publ_section_title
;
Structure prediction by ZEFSAII (Michael W. Deem and Ramdas Pophale) SiO2 
 PCOD8160212
Probable space group: C 2 2 21
;
_chemical_formula_sum "Si O2"
_cell_formula_units_Z 44
_cell_length_a 10.520903
_cell_length_b 16.588707
_cell_length_c 11.967502
_cell_angle_alpha 90.000000
_cell_angle_beta 90.000000
_cell_angle_gamma 90.000000
_cell_volume 2088.666310
_symmetry_space_group_name_H-M "C 2 2 21"
_symmetry_group_IT_number 20
_symmetry_cell_setting 'orthorhombic'
loop_
_space_group_symop_operation_xyz
x,y,z
-x,-y,1/2+z
x,-y,-z
-x,y,1/2-z
1/2+x,1/2+y,z
1/2-x,1/2-y,1/2+z
1/2+x,1/2-y,-z
1/2-x,1/2+y,1/2-z
loop_
_atom_site_type_symbol
_atom_site_label
_atom_site_fract_x
_atom_site_fract_y
_atom_site_fract_z
Si Si1 0.867927 0.626163 0.810446
Si Si2 0.500000 0.538690 0.750000
Si Si3 0.749687 0.542734 0.203351
Si Si4 0.340272 0.916284 0.557591
Si Si5 0.604952 0.165541 0.438530
Si Si6 0.329323 0.660480 0.869694
O O1 0.845239 0.530672 0.822496
O O2 0.757324 0.668721 0.740259
O O3 0.000000 0.641727 0.750000
O O4 0.869725 0.668159 0.930101
O O5 0.396424 0.483712 0.686022
O O6 0.435719 0.592908 0.846693
O O7 0.760261 0.569344 0.331497
O O8 0.782293 0.615215 0.120047
O O9 0.468966 0.871389 0.591186
O O10 0.256360 0.863030 0.474911
O O11 0.378702 0.000000 0.500000
O O12 0.602301 0.255502 0.391543
#
# Coordination Sequence:
#
# PCOD8160212 Si02
#       6
#     8   4   8   8   8   8
#     4  11  21  47  71 100 143 181 239 287 350 422
#     4  10  24  50  66 100 154 184 232 282 358 436
#     4  11  24  44  74 107 133 189 242 283 347 437
#     4  12  22  48  75  99 139 190 237 289 353 428
#     4  12  26  42  75 106 140 182 240 302 351 420
#     4  11  27  45  70 105 145 187 225 299 363 420
#
# _framework density 21.066074
#
# number of rings (size 3 to 8) (size 9 to 14) (size 15 to 20)
#    0.000    0.727    5.455    3.273    5.091    1.455 
#   18.000    0.000    0.000    0.000    0.000    0.000 
#    0.000    0.000    0.000    0.000    0.000    0.000 
#
# Total GULP energy -272959.499519 kJ/mol
# GULP energy per Si atom -12407.249978 kJ/mol
# Density = 2.101813 g / cm^3
# Si number density = 21.066074 Si / 1000 Ang^3
#
#
#
# Elastic Constant Matrix: (Units=GPa)
#
#
# Indices 1 2 3 4 5 6 
#
# 1 140.5903 55.1555 37.2370 0.0000 0.0000 0.0000
# 2 55.1555 101.3690 13.9364 0.0000 0.0000 0.0000
# 3 37.2370 13.9364 76.9663 0.0000 0.0000 0.0000
# 4 0.0000 0.0000 0.0000 31.1404 0.0000 0.0000
# 5 0.0000 0.0000 0.0000 0.0000 29.2863 0.0000
# 6 0.0000 0.0000 0.0000 0.0000 0.0000 -58.3085
#
#
#
# Elastic Compliance Matrix: (Units=1/GPa)
#
#
# Indices 1 2 3 4 5 6 
#
# 1 0.010115 -0.004954 -0.003997 0.000000 0.000000 0.000000
# 2 -0.004954 0.012543 0.000126 0.000000 0.000000 0.000000
# 3 -0.003997 0.000126 0.014904 0.000000 0.000000 0.000000
# 4 0.000000 0.000000 0.000000 0.032113 0.000000 0.000000
# 5 0.000000 0.000000 0.000000 0.000000 0.034146 0.000000
# 6 0.000000 0.000000 0.000000 0.000000 0.000000 -0.017150
#
#
# Mechanical properties :
#
#
# Convention : Reuss Voigt Hill
#
# Bulk Modulus (GPa) = 50.22237 59.06484 54.64360
# Shear Modulus (GPa) = 45.06228 14.59675 29.82951
#
# Velocity S-wave (km/s) = 4.63005 2.63516 3.76706
# Velocity P-wave (km/s) = 7.24398 6.11208 6.70197
#
# Compressibility (1/GPa) = 0.01991145
#
# Stress axis : x y z
#
# Youngs Moduli (GPa) = 98.86288 79.72403 67.09800
#
# Poissons Ratio (x) = 0.39497 0.26817
# Poissons Ratio (y) = 0.48978 -0.00843
# Poissons Ratio (z) = 0.39512 -0.01002
#
# Static dielectric constant tensor:
#      x y z
#    x 3.960780 0.000000 0.000000 
#    y 0.000000 3.826260 0.000000 
#    z 0.000000 0.000000 4.567320 
# 
# 
# High freq. dielectric constant tensor:
#      x y z
#    x 1.832510 0.000000 0.000000 
#    y 0.000000 1.820490 0.000000 
#    z 0.000000 0.000000 1.835020 
# 
# From -- ./inp_files/14056.got.cif
#   From: 2010.03.12/outbox.cif.g09.slc.cpg/sg20_8_cif.got.tgz:14056.got - 2010.04.14 01:38:04.
