data_PCOD8160564
_publ_section_title
;
Structure prediction by ZEFSAII (Michael W. Deem and Ramdas Pophale) SiO2 
 PCOD8160564
Probable space group: C 2 2 21
;
_chemical_formula_sum "Si O2"
_cell_formula_units_Z 36
_cell_length_a 19.063820
_cell_length_b 5.192290
_cell_length_c 16.224996
_cell_angle_alpha 90.000000
_cell_angle_beta 90.000000
_cell_angle_gamma 90.000000
_cell_volume 1606.029314
_symmetry_space_group_name_H-M "C 2 2 21"
_symmetry_group_IT_number 20
_symmetry_cell_setting 'orthorhombic'
loop_
_space_group_symop_operation_xyz
x,y,z
-x,-y,1/2+z
x,-y,-z
-x,y,1/2-z
1/2+x,1/2+y,z
1/2-x,1/2-y,1/2+z
1/2+x,1/2-y,-z
1/2-x,1/2+y,1/2-z
loop_
_atom_site_type_symbol
_atom_site_label
_atom_site_fract_x
_atom_site_fract_y
_atom_site_fract_z
Si Si1 0.578144 0.636372 0.243465
Si Si2 0.982820 0.500000 0.500000
Si Si3 0.887062 0.361416 0.647102
Si Si4 0.893026 0.196764 0.074197
Si Si5 0.258978 0.735904 0.549955
O O1 0.500000 0.742308 0.250000
O O2 0.578832 0.357489 0.202559
O O3 0.607564 0.579054 0.334645
O O4 0.617396 0.860160 0.191753
O O5 0.034242 0.654545 0.560965
O O6 0.931462 0.349591 0.561863
O O7 0.806541 0.282448 0.630288
O O8 0.820208 0.357543 0.072800
O O9 0.888402 0.000000 0.000000
O O10 0.293798 0.500000 0.500000
O O11 0.258728 0.000000 0.500000
#
# Coordination Sequence:
#
# PCOD8160564 Si02
#       5
#     8   4   8   8   8
#     4  12  26  45  68 108 142 182 239 302 346 418
#     4  12  24  46  74 104 134 198 236 284 362 432
#     4  12  27  43  74 103 145 183 239 291 358 420
#     4  11  26  45  74 101 144 190 242 290 364 427
#     4  11  24  45  71 105 142 189 237 291 349 429
#
# _framework density 22.415531999999999
#
# number of rings (size 3 to 8) (size 9 to 14) (size 15 to 20)
#    0.000    0.444    4.444    3.333    3.111    1.778 
#    0.000    0.000    0.000    0.000    0.000    0.000 
#    0.000    0.000    0.000    0.000    0.000    0.000 
#
# Total GULP energy -223062.264114 kJ/mol
# GULP energy per Si atom -12392.348006 kJ/mol
# Density = 2.236451 g / cm^3
# Si number density = 22.415532 Si / 1000 Ang^3
#
#
#
# Elastic Constant Matrix: (Units=GPa)
#
#
# Indices 1 2 3 4 5 6 
#
# 1 111.3017 14.9865 47.7012 0.0000 0.0000 0.0000
# 2 14.9865 113.2744 50.8748 0.0000 0.0000 0.0000
# 3 47.7012 50.8748 160.7384 0.0000 0.0000 0.0000
# 4 0.0000 0.0000 0.0000 48.8825 0.0000 0.0000
# 5 0.0000 0.0000 0.0000 0.0000 331.1306 0.0000
# 6 0.0000 0.0000 0.0000 0.0000 0.0000 34.4097
#
#
#
# Elastic Compliance Matrix: (Units=1/GPa)
#
#
# Indices 1 2 3 4 5 6 
#
# 1 0.010294 0.000012 -0.003059 0.000000 0.000000 0.000000
# 2 0.000012 0.010291 -0.003261 0.000000 0.000000 0.000000
# 3 -0.003059 -0.003261 0.008161 0.000000 0.000000 0.000000
# 4 0.000000 0.000000 0.000000 0.020457 0.000000 0.000000
# 5 0.000000 0.000000 0.000000 0.000000 0.003020 0.000000
# 6 0.000000 0.000000 0.000000 0.000000 0.000000 0.029062
#
#
# Mechanical properties :
#
#
# Convention : Reuss Voigt Hill
#
# Bulk Modulus (GPa) = 61.99269 68.04885 65.02077
# Shear Modulus (GPa) = 50.36440 101.00136 75.68288
#
# Velocity S-wave (km/s) = 4.74524 6.71986 5.81695
# Velocity P-wave (km/s) = 7.59863 9.52011 8.61312
#
# Compressibility (1/GPa) = 0.01613093
#
# Stress axis : x y z
#
# Youngs Moduli (GPa) = 97.14557 97.17207 122.53427
#
# Poissons Ratio (x) = -0.00115 0.37478
# Poissons Ratio (y) = -0.00115 0.39954
# Poissons Ratio (z) = 0.29713 0.31685
#
# Static dielectric constant tensor:
#      x y z
#    x 4.705550 0.000000 0.000000 
#    y 0.000000 0.254310 0.000000 
#    z 0.000000 0.000000 4.134640 
# 
# 
# High freq. dielectric constant tensor:
#      x y z
#    x 1.899880 0.000000 0.000000 
#    y 0.000000 1.873610 0.000000 
#    z 0.000000 0.000000 1.892290 
# 
# From -- ./inp_files/21593.got.cif
#   From: 2010.03.12/outbox.cif.g09.slc.cpg/sg20_11_cif.got.tgz:21593.got - 2010.04.14 01:38:04.
