data_PCOD8160025
_publ_section_title
;
Structure prediction by ZEFSAII (Michael W. Deem and Ramdas Pophale) SiO2 
 PCOD8160025
Probable space group: C 2 2 21
;
_chemical_formula_sum "Si O2"
_cell_formula_units_Z 40
_cell_length_a 23.639302
_cell_length_b 7.574332
_cell_length_c 10.180998
_cell_angle_alpha 90.000000
_cell_angle_beta 90.000000
_cell_angle_gamma 90.000000
_cell_volume 1822.927256
_symmetry_space_group_name_H-M "C 2 2 21"
_symmetry_group_IT_number 20
_symmetry_cell_setting 'orthorhombic'
loop_
_space_group_symop_operation_xyz
x,y,z
-x,-y,1/2+z
x,-y,-z
-x,y,1/2-z
1/2+x,1/2+y,z
1/2-x,1/2-y,1/2+z
1/2+x,1/2-y,-z
1/2-x,1/2+y,1/2-z
loop_
_atom_site_type_symbol
_atom_site_label
_atom_site_fract_x
_atom_site_fract_y
_atom_site_fract_z
Si Si1 0.981874 0.657616 0.398565
Si Si2 0.131366 0.308321 0.783590
Si Si3 0.906812 0.201925 0.992549
Si Si4 0.212643 0.990234 0.145244
Si Si5 0.671033 0.843064 0.285505
O O1 0.974804 0.500000 0.500000
O O2 0.920780 0.751766 0.377069
O O3 0.000000 0.596910 0.250000
O O4 0.025050 0.790032 0.472934
O O5 0.116791 0.309572 0.629861
O O6 0.147970 0.511899 0.819572
O O7 0.183042 0.175509 0.788702
O O8 0.882054 0.293840 0.122238
O O9 0.887213 0.000000 0.000000
O O10 0.197289 0.171561 0.217629
O O11 0.279225 0.948327 0.139475
O O12 0.188338 0.000000 0.000000
#
# Coordination Sequence:
#
# PCOD8160025 Si02
#       5
#     8   8   8   8   8
#     4  10  23  44  69 103 139 189 245 301 358 432
#     4  11  24  46  68 104 144 181 243 297 356 427
#     4  11  22  44  75 101 140 191 241 289 357 439
#     4  12  27  43  70 110 141 186 240 299 358 431
#     4  12  25  47  75 102 145 193 235 294 369 435
#
# _framework density 21.942729
#
# number of rings (size 3 to 8) (size 9 to 14) (size 15 to 20)
#    0.000    0.800    4.000    4.200    2.800    0.800 
#    0.000    1.000    0.000    0.000    0.000    0.000 
#    0.000    0.000    0.000    0.000    0.000    0.000 
#
# Total GULP energy -247803.020591 kJ/mol
# GULP energy per Si atom -12390.151030 kJ/mol
# Density = 2.189279 g / cm^3
# Si number density = 21.942729 Si / 1000 Ang^3
#
#
#
# Elastic Constant Matrix: (Units=GPa)
#
#
# Indices 1 2 3 4 5 6 
#
# 1 125.2814 48.1813 22.6286 0.0000 0.0000 0.0000
# 2 48.1813 147.0703 34.3229 0.0000 0.0000 0.0000
# 3 22.6286 34.3229 66.6238 0.0000 0.0000 0.0000
# 4 0.0000 0.0000 0.0000 23.1024 0.0000 0.0000
# 5 0.0000 0.0000 0.0000 0.0000 10.1552 0.0000
# 6 0.0000 0.0000 0.0000 0.0000 0.0000 27.2951
#
#
#
# Elastic Compliance Matrix: (Units=1/GPa)
#
#
# Indices 1 2 3 4 5 6 
#
# 1 0.009321 -0.002631 -0.001810 0.000000 0.000000 0.000000
# 2 -0.002631 0.008471 -0.003471 0.000000 0.000000 0.000000
# 3 -0.001810 -0.003471 0.017412 0.000000 0.000000 0.000000
# 4 0.000000 0.000000 0.000000 0.043286 0.000000 0.000000
# 5 0.000000 0.000000 0.000000 0.000000 0.098472 0.000000
# 6 0.000000 0.000000 0.000000 0.000000 0.000000 0.036637
#
#
# Mechanical properties :
#
#
# Convention : Reuss Voigt Hill
#
# Bulk Modulus (GPa) = 51.59773 61.02679 56.31226
# Shear Modulus (GPa) = 21.19691 27.70004 24.44848
#
# Velocity S-wave (km/s) = 3.11144 3.55685 3.34158
# Velocity P-wave (km/s) = 6.03936 6.68883 6.37238
#
# Compressibility (1/GPa) = 0.01938070
#
# Stress axis : x y z
#
# Youngs Moduli (GPa) = 107.28574 118.04429 57.43005
#
# Poissons Ratio (x) = 0.31059 0.10397
# Poissons Ratio (y) = 0.28228 0.19932
# Poissons Ratio (z) = 0.19422 0.40968
#
# Static dielectric constant tensor:
#      x y z
#    x 4.322200 0.000000 0.000000 
#    y 0.000000 3.898340 0.000000 
#    z 0.000000 0.000000 3.775820 
# 
# 
# High freq. dielectric constant tensor:
#      x y z
#    x 1.880090 0.000000 0.000000 
#    y 0.000000 1.863670 0.000000 
#    z 0.000000 0.000000 1.850020 
# 
# From -- ./inp_files/10515.got.cif
#   From: 2010.03.12/outbox.cif.g09.slc.cpg/sg20_6_cif.got.tgz:10515.got - 2010.04.14 01:38:04.
