data_PCOD8160836
_publ_section_title
;
Structure prediction by ZEFSAII (Michael W. Deem and Ramdas Pophale) SiO2 
 PCOD8160836
Probable space group: C 2 2 2
;
_chemical_formula_sum "Si O2"
_cell_formula_units_Z 56
_cell_length_a 10.389892
_cell_length_b 17.989231
_cell_length_c 16.964393
_cell_angle_alpha 90.000000
_cell_angle_beta 90.000000
_cell_angle_gamma 90.000000
_cell_volume 3170.749675
_symmetry_space_group_name_H-M "C 2 2 2"
_symmetry_group_IT_number 21
_symmetry_cell_setting 'orthorhombic'
loop_
_space_group_symop_operation_xyz
x,y,z
-x,-y,z
x,-y,-z
-x,y,-z
1/2+x,1/2+y,z
1/2-x,1/2-y,z
1/2+x,1/2-y,-z
1/2-x,1/2+y,-z
loop_
_atom_site_type_symbol
_atom_site_label
_atom_site_fract_x
_atom_site_fract_y
_atom_site_fract_z
Si Si1 0.499999 0.160327 0.910957
Si Si2 0.147202 0.088733 0.329857
Si Si3 0.251134 0.661737 0.181156
Si Si4 0.251133 0.338263 0.181156
Si Si5 0.152162 0.918912 0.500000
Si Si6 0.500000 0.662979 0.912062
Si Si7 0.352798 0.588733 0.329857
O O1 0.374674 0.132205 0.864163
O O2 0.625325 0.132205 0.864163
O O3 0.499998 0.248609 0.915275
O O4 0.500000 0.127797 0.000000
O O5 0.243711 0.125427 0.267458
O O6 0.189848 0.120370 0.416891
O O7 0.000000 0.112577 0.311084
O O8 0.159722 1.000000 0.327975
O O9 0.250000 0.750000 0.190521
O O10 0.373694 0.633489 0.131906
O O11 0.256289 0.625427 0.267458
O O12 0.250000 0.250000 0.190522
O O13 0.373692 0.366511 0.131905
O O14 0.189848 0.879630 0.416891
O O15 0.000000 0.929536 0.500000
O O16 0.217828 0.000000 0.500000
O O17 0.500000 0.629929 0.000000
#
# Coordination Sequence:
#
# PCOD8160836 Si02
#       7
#     8   8   8   8   8   8   8
#     4   9  18  30  45  66  93 128 162 191 227 277
#     4   9  16  29  50  73  95 120 156 197 235 274
#     4  10  18  29  47  72  97 122 156 196 237 276
#     4  10  18  29  47  72  97 122 156 196 237 276
#     4   7  12  24  45  71  93 117 152 193 230 272
#     4   9  16  28  47  68  91 120 160 203 233 267
#     4   9  16  29  50  73  95 120 156 197 235 274
#
# _framework density 17.661439000000001
#
# number of rings (size 3 to 8) (size 9 to 14) (size 15 to 20)
#    0.000    3.000    1.429    2.571    0.000    3.429 
#    0.000    1.429    0.000    6.000    0.000    3.000 
#    0.000    0.000    0.000    0.000    0.000    0.000 
#
# Total GULP energy -346953.096521 kJ/mol
# GULP energy per Si atom -12391.182019 kJ/mol
# Density = 1.762124 g / cm^3
# Si number density = 17.661439 Si / 1000 Ang^3
#
#
#
# Elastic Constant Matrix: (Units=GPa)
#
#
# Indices 1 2 3 4 5 6 
#
# 1 118.6918 15.7412 79.7545 0.0000 0.0000 0.0000
# 2 15.7412 15.7954 26.9597 0.0000 0.0000 0.0000
# 3 79.7545 26.9597 202.3998 0.0000 0.0000 0.0000
# 4 0.0000 0.0000 0.0000 13.1735 0.0000 0.0000
# 5 0.0000 0.0000 0.0000 0.0000 30.9207 0.0000
# 6 0.0000 0.0000 0.0000 0.0000 0.0000 8.9463
#
#
#
# Elastic Compliance Matrix: (Units=1/GPa)
#
#
# Indices 1 2 3 4 5 6 
#
# 1 0.011748 -0.004927 -0.003973 0.000000 0.000000 0.000000
# 2 -0.004927 0.084004 -0.009248 0.000000 0.000000 0.000000
# 3 -0.003973 -0.009248 0.007738 0.000000 0.000000 0.000000
# 4 0.000000 0.000000 0.000000 0.075910 0.000000 0.000000
# 5 0.000000 0.000000 0.000000 0.000000 0.032341 0.000000
# 6 0.000000 0.000000 0.000000 0.000000 0.000000 0.111778
#
#
# Mechanical properties :
#
#
# Convention : Reuss Voigt Hill
#
# Bulk Modulus (GPa) = 14.88210 64.64422 39.76316
# Shear Modulus (GPa) = 13.08173 24.90356 18.99264
#
# Velocity S-wave (km/s) = 2.72452 3.75914 3.28285
# Velocity P-wave (km/s) = 4.28275 7.45137 6.07721
#
# Compressibility (1/GPa) = 0.06719480
#
# Stress axis : x y z
#
# Youngs Moduli (GPa) = 85.11875 11.90419 129.23002
#
# Poissons Ratio (x) = 0.05865 0.51345
# Poissons Ratio (y) = 0.41935 1.19512
# Poissons Ratio (z) = 0.33819 0.11009
#
# Static dielectric constant tensor:
#      x y z
#    x 3.154900 0.000000 0.000000 
#    y 0.000000 2.681510 0.000000 
#    z 0.000000 0.000000 3.729340 
# 
# 
# High freq. dielectric constant tensor:
#      x y z
#    x 1.659600 0.000000 0.000000 
#    y 0.000000 1.624000 0.000000 
#    z 0.000000 0.000000 1.709470 
# 
# From -- ./inp_files/35866.got.cif
#   From: 2010.03.12/outbox.cif.g09.slc.cpg/sg21_18_cif.got.tgz:35866.got - 2010.04.14 01:59:26.
