data_PCOD8160173
_publ_section_title
;
Structure prediction by ZEFSAII (Michael W. Deem and Ramdas Pophale) SiO2 
 PCOD8160173
Probable space group: C 2 2 21
;
_chemical_formula_sum "Si O2"
_cell_formula_units_Z 32
_cell_length_a 4.882386
_cell_length_b 23.783256
_cell_length_c 11.143786
_cell_angle_alpha 90.000000
_cell_angle_beta 90.000000
_cell_angle_gamma 90.000000
_cell_volume 1294.005689
_symmetry_space_group_name_H-M "C 2 2 21"
_symmetry_group_IT_number 20
_symmetry_cell_setting 'orthorhombic'
loop_
_space_group_symop_operation_xyz
x,y,z
-x,-y,1/2+z
x,-y,-z
-x,y,1/2-z
1/2+x,1/2+y,z
1/2-x,1/2-y,1/2+z
1/2+x,1/2-y,-z
1/2-x,1/2+y,1/2-z
loop_
_atom_site_type_symbol
_atom_site_label
_atom_site_fract_x
_atom_site_fract_y
_atom_site_fract_z
Si Si1 0.500000 0.838326 0.750000
Si Si2 0.280926 0.714195 0.473281
Si Si3 0.500000 0.030204 0.750000
Si Si4 0.326300 0.407776 0.443826
Si Si5 0.672910 0.932922 0.905750
O O1 0.330461 0.799591 0.840790
O O2 0.718301 0.878688 0.820058
O O3 0.574016 0.743896 0.458529
O O4 0.316330 0.659729 0.557525
O O5 0.279180 0.069652 0.816593
O O6 0.692534 0.991584 0.835096
O O7 0.628890 0.429937 0.478736
O O8 0.138737 0.431612 0.549770
#
# Coordination Sequence:
#
# PCOD8160173 Si02
#       5
#     4   8   4   8   8
#     4   9  22  44  70  94 136 188 232 283 350 418
#     4  11  24  43  69 100 134 179 234 288 342 410
#     4  11  26  44  74 106 146 184 224 303 360 394
#     4  11  25  45  68 105 141 179 238 285 344 428
#     4  10  24  45  69  98 137 188 232 275 348 441
#
# _framework density 24.729410999999999
#
# number of rings (size 3 to 8) (size 9 to 14) (size 15 to 20)
#    0.000    1.500    0.000    3.750    0.000   23.000 
#    0.000    5.000    0.000    0.000    0.000    0.000 
#    0.000    0.000    0.000    0.000    0.000    0.000 
#
# Total GULP energy -198448.580066 kJ/mol
# GULP energy per Si atom -12403.036254 kJ/mol
# Density = 2.467313 g / cm^3
# Si number density = 24.729411 Si / 1000 Ang^3
#
#
#
# Elastic Constant Matrix: (Units=GPa)
#
#
# Indices 1 2 3 4 5 6 
#
# 1 81.1202 26.8605 2.6103 0.0000 0.0000 0.0000
# 2 26.8605 149.2523 41.5059 0.0000 0.0000 0.0000
# 3 2.6103 41.5059 50.8793 0.0000 0.0000 0.0000
# 4 0.0000 0.0000 0.0000 39.3794 0.0000 0.0000
# 5 0.0000 0.0000 0.0000 0.0000 48.0681 0.0000
# 6 0.0000 0.0000 0.0000 0.0000 0.0000 29.5654
#
#
#
# Elastic Compliance Matrix: (Units=1/GPa)
#
#
# Indices 1 2 3 4 5 6 
#
# 1 0.013213 -0.002832 0.001632 0.000000 0.000000 0.000000
# 2 -0.002832 0.009273 -0.007419 0.000000 0.000000 0.000000
# 3 0.001632 -0.007419 0.025623 0.000000 0.000000 0.000000
# 4 0.000000 0.000000 0.000000 0.025394 0.000000 0.000000
# 5 0.000000 0.000000 0.000000 0.000000 0.020804 0.000000
# 6 0.000000 0.000000 0.000000 0.000000 0.000000 0.033823
#
#
# Mechanical properties :
#
#
# Convention : Reuss Voigt Hill
#
# Bulk Modulus (GPa) = 32.39304 47.02281 39.70793
# Shear Modulus (GPa) = 32.12178 37.42093 34.77136
#
# Velocity S-wave (km/s) = 3.60798 3.89423 3.75383
# Velocity P-wave (km/s) = 5.52124 6.26707 5.90594
#
# Compressibility (1/GPa) = 0.03087083
#
# Stress axis : x y z
#
# Youngs Moduli (GPa) = 75.68587 107.84058 39.02725
#
# Poissons Ratio (x) = 0.30537 -0.06370
# Poissons Ratio (y) = 0.21432 0.28956
# Poissons Ratio (z) = -0.12353 0.80011
#
# Static dielectric constant tensor:
#      x y z
#    x 4.286410 0.000000 0.000000 
#    y 0.000000 4.698140 0.000000 
#    z 0.000000 0.000000 4.396220 
# 
# 
# High freq. dielectric constant tensor:
#      x y z
#    x 1.982870 0.000000 0.000000 
#    y 0.000000 1.997540 0.000000 
#    z 0.000000 0.000000 1.979480 
# 
# From -- ./inp_files/12023.got.cif
#   From: 2010.03.12/outbox.cif.g09.slc.cpg/sg20_7_cif.got.tgz:12023.got - 2010.04.14 01:38:04.
