data_PCOD8160801
_publ_section_title
;
Structure prediction by ZEFSAII (Michael W. Deem and Ramdas Pophale) SiO2 
 PCOD8160801
Probable space group: C 2 2 2
;
_chemical_formula_sum "Si O2"
_cell_formula_units_Z 52
_cell_length_a 9.400251
_cell_length_b 27.890415
_cell_length_c 11.325029
_cell_angle_alpha 90.000000
_cell_angle_beta 90.000000
_cell_angle_gamma 90.000000
_cell_volume 2969.161013
_symmetry_space_group_name_H-M "C 2 2 2"
_symmetry_group_IT_number 21
_symmetry_cell_setting 'orthorhombic'
loop_
_space_group_symop_operation_xyz
x,y,z
-x,-y,z
x,-y,-z
-x,y,-z
1/2+x,1/2+y,z
1/2-x,1/2-y,z
1/2+x,1/2-y,-z
1/2-x,1/2+y,-z
loop_
_atom_site_type_symbol
_atom_site_label
_atom_site_fract_x
_atom_site_fract_y
_atom_site_fract_z
Si Si1 0.603195 0.351314 0.741930
Si Si2 0.500000 0.688825 0.500000
Si Si3 0.503594 0.446846 0.307228
Si Si4 0.250000 0.750000 0.520616
Si Si5 0.081975 0.243921 0.121182
Si Si6 0.000000 0.619143 0.500000
Si Si7 0.232865 0.947604 0.491830
Si Si8 0.399072 0.179024 0.302625
O O1 0.555722 0.344248 0.605321
O O2 0.533063 0.402519 0.782048
O O3 0.545372 0.307610 0.821436
O O4 0.775193 0.354709 0.753907
O O5 0.373656 0.723184 0.446781
O O6 0.500000 0.500000 0.245794
O O7 0.658758 0.438762 0.364959
O O8 0.383947 0.444775 0.407040
O O9 0.317489 0.788275 0.606051
O O10 0.250000 0.250000 0.101654
O O11 0.026107 0.287537 0.204311
O O12 0.000000 0.248578 0.000000
O O13 0.855951 0.590188 0.487702
O O14 0.015559 0.649705 0.378387
O O15 0.304058 0.000000 0.500000
#
# Coordination Sequence:
#
# PCOD8160801 Si02
#       8
#     8   4   8   4   8   4   8   8
#     4  10  18  33  52  71 101 139 165 205 253 304
#     4  10  17  28  49  69 101 132 163 193 250 302
#     4   9  17  32  49  70 100 143 175 198 247 305
#     4  10  18  32  42  68 102 134 158 198 246 296
#     4  10  21  41  54  70  98 135 174 215 264 305
#     4  12  20  28  48  81 109 136 169 205 254 304
#     4   9  18  30  45  70 111 144 169 203 243 303
#     4  10  19  32  51  70 104 140 166 202 258 303
#
# _framework density 17.513366000000001
#
# number of rings (size 3 to 8) (size 9 to 14) (size 15 to 20)
#    0.000    2.154    5.385    2.538    2.154    0.000 
#    4.154    0.000    0.000    0.462    0.000    0.000 
#    0.000    2.462    0.000    0.000    0.000    0.000 
#
# Total GULP energy -322102.267235 kJ/mol
# GULP energy per Si atom -12388.548740 kJ/mol
# Density = 1.747350 g / cm^3
# Si number density = 17.513366 Si / 1000 Ang^3
#
#
#
# Elastic Constant Matrix: (Units=GPa)
#
#
# Indices 1 2 3 4 5 6 
#
# 1 44.8643 35.6941 20.7721 0.0000 0.0000 0.0000
# 2 35.6941 138.6662 41.4501 0.0000 0.0000 0.0000
# 3 20.7721 41.4501 65.2268 0.0000 0.0000 0.0000
# 4 0.0000 0.0000 0.0000 8.2732 0.0000 0.0000
# 5 0.0000 0.0000 0.0000 0.0000 23.8470 0.0000
# 6 0.0000 0.0000 0.0000 0.0000 0.0000 22.4548
#
#
#
# Elastic Compliance Matrix: (Units=1/GPa)
#
#
# Indices 1 2 3 4 5 6 
#
# 1 0.029634 -0.005934 -0.005666 0.000000 0.000000 0.000000
# 2 -0.005934 0.010091 -0.004523 0.000000 0.000000 0.000000
# 3 -0.005666 -0.004523 0.020010 0.000000 0.000000 0.000000
# 4 0.000000 0.000000 0.000000 0.120873 0.000000 0.000000
# 5 0.000000 0.000000 0.000000 0.000000 0.041934 0.000000
# 6 0.000000 0.000000 0.000000 0.000000 0.000000 0.044534
#
#
# Mechanical properties :
#
#
# Convention : Reuss Voigt Hill
#
# Bulk Modulus (GPa) = 36.37901 49.39888 42.88895
# Shear Modulus (GPa) = 16.20823 20.97105 18.58964
#
# Velocity S-wave (km/s) = 3.04547 3.46415 3.26153
# Velocity P-wave (km/s) = 5.76053 6.65342 6.22301
#
# Compressibility (1/GPa) = 0.02748838
#
# Stress axis : x y z
#
# Youngs Moduli (GPa) = 33.74463 99.09713 49.97580
#
# Poissons Ratio (x) = 0.58809 0.28317
# Poissons Ratio (y) = 0.20026 0.22603
# Poissons Ratio (z) = 0.19120 0.44819
#
# Static dielectric constant tensor:
#      x y z
#    x 3.308580 0.000000 0.000000 
#    y 0.000000 3.941580 0.000000 
#    z 0.000000 0.000000 2.821520 
# 
# 
# High freq. dielectric constant tensor:
#      x y z
#    x 1.669500 0.000000 0.000000 
#    y 0.000000 1.695930 0.000000 
#    z 0.000000 0.000000 1.609830 
# 
# From -- ./inp_files/23063.got.cif
#   From: 2010.03.12/outbox.cif.g09.slc.cpg/sg21_12_cif.got.tgz:23063.got - 2010.04.14 01:59:26.
