data_PCOD8160583
_publ_section_title
;
Structure prediction by ZEFSAII (Michael W. Deem and Ramdas Pophale) SiO2 
 PCOD8160583
Probable space group: C 2 2 21
;
_chemical_formula_sum "Si O2"
_cell_formula_units_Z 44
_cell_length_a 14.394054
_cell_length_b 17.125552
_cell_length_c 8.094717
_cell_angle_alpha 90.000000
_cell_angle_beta 90.000000
_cell_angle_gamma 90.000000
_cell_volume 1995.397282
_symmetry_space_group_name_H-M "C 2 2 21"
_symmetry_group_IT_number 20
_symmetry_cell_setting 'orthorhombic'
loop_
_space_group_symop_operation_xyz
x,y,z
-x,-y,1/2+z
x,-y,-z
-x,y,1/2-z
1/2+x,1/2+y,z
1/2-x,1/2-y,1/2+z
1/2+x,1/2-y,-z
1/2-x,1/2+y,1/2-z
loop_
_atom_site_type_symbol
_atom_site_label
_atom_site_fract_x
_atom_site_fract_y
_atom_site_fract_z
Si Si1 0.917824 0.058956 0.868662
Si Si2 0.728684 0.019666 0.188031
Si Si3 0.498621 0.852169 0.062658
Si Si4 0.681829 0.810869 0.875616
Si Si5 0.639604 0.273006 0.449674
Si Si6 0.392345 0.000000 0.000000
O O1 0.881456 0.135526 0.960779
O O2 0.000000 0.084647 0.750000
O O3 0.831313 0.015202 0.782046
O O4 0.962708 0.000000 0.000000
O O5 0.728179 0.113230 0.209488
O O6 0.666702 0.982287 0.333816
O O7 0.693787 0.000000 0.000000
O O8 0.500000 0.880159 0.250000
O O9 0.602089 0.836105 0.001826
O O10 0.437073 0.774204 0.051270
O O11 0.454422 0.923781 0.959162
O O12 0.637218 0.755265 0.738726
O O13 0.758674 0.760129 0.972286
#
# Coordination Sequence:
#
# PCOD8160583 Si02
#       6
#     8   8   8   8   8   4
#     4  11  25  46  71 101 140 191 247 300 359 426
#     4  11  24  48  71 106 145 190 242 301 358 428
#     4  12  28  45  72 109 142 191 241 297 370 442
#     4  12  25  48  72 101 149 186 240 303 361 432
#     4  12  26  48  71 105 142 193 235 304 366 426
#     4  12  28  44  76 110 146 192 240 294 380 438
#
# _framework density 22.050746
#
# number of rings (size 3 to 8) (size 9 to 14) (size 15 to 20)
#    0.000    0.364    5.455    3.818    7.636    0.727 
#    3.273    0.000    0.000    0.000    0.000    0.000 
#    0.000    0.000    0.000    0.000    0.000    0.000 
#
# Total GULP energy -272897.603841 kJ/mol
# GULP energy per Si atom -12404.436538 kJ/mol
# Density = 2.200056 g / cm^3
# Si number density = 22.050746 Si / 1000 Ang^3
#
#
#
# Elastic Constant Matrix: (Units=GPa)
#
#
# Indices 1 2 3 4 5 6 
#
# 1 119.7057 31.3407 18.1258 0.0000 0.0000 0.0000
# 2 31.3407 108.1744 4.2425 0.0000 0.0000 0.0000
# 3 18.1258 4.2425 88.8255 0.0000 0.0000 0.0000
# 4 0.0000 0.0000 0.0000 26.3604 0.0000 0.0000
# 5 0.0000 0.0000 0.0000 0.0000 38.4382 0.0000
# 6 0.0000 0.0000 0.0000 0.0000 0.0000 33.6763
#
#
#
# Elastic Compliance Matrix: (Units=1/GPa)
#
#
# Indices 1 2 3 4 5 6 
#
# 1 0.009311 -0.002628 -0.001774 0.000000 0.000000 0.000000
# 2 -0.002628 0.010003 0.000058 0.000000 0.000000 0.000000
# 3 -0.001774 0.000058 0.011617 0.000000 0.000000 0.000000
# 4 0.000000 0.000000 0.000000 0.037936 0.000000 0.000000
# 5 0.000000 0.000000 0.000000 0.000000 0.026016 0.000000
# 6 0.000000 0.000000 0.000000 0.000000 0.000000 0.029694
#
#
# Mechanical properties :
#
#
# Convention : Reuss Voigt Hill
#
# Bulk Modulus (GPa) = 44.95677 47.12485 46.04081
# Shear Modulus (GPa) = 35.54181 37.22809 36.38495
#
# Velocity S-wave (km/s) = 4.01910 4.11334 4.06649
# Velocity P-wave (km/s) = 6.47840 6.63151 6.55540
#
# Compressibility (1/GPa) = 0.02224359
#
# Stress axis : x y z
#
# Youngs Moduli (GPa) = 107.40538 99.96597 86.07841
#
# Poissons Ratio (x) = 0.26270 0.15274
# Poissons Ratio (y) = 0.28225 -0.00503
# Poissons Ratio (z) = 0.19058 -0.00584
#
# Static dielectric constant tensor:
#      x y z
#    x 3.968870 0.000000 0.000000 
#    y 0.000000 4.100720 0.000000 
#    z 0.000000 0.000000 3.832950 
# 
# 
# High freq. dielectric constant tensor:
#      x y z
#    x 1.875040 0.000000 0.000000 
#    y 0.000000 1.878480 0.000000 
#    z 0.000000 0.000000 1.861690 
# 
# From -- ./inp_files/8315.got.cif
#   From: 2010.03.12/outbox.cif.g09.slc.cpg/sg20_5_cif.got.tgz:8315.got - 2010.04.14 01:38:04.
