data_PCOD8160716
_publ_section_title
;
Structure prediction by ZEFSAII (Michael W. Deem and Ramdas Pophale) SiO2 
 PCOD8160716
Probable space group: C 2 2 21
;
_chemical_formula_sum "Si O2"
_cell_formula_units_Z 48
_cell_length_a 5.629354
_cell_length_b 13.413819
_cell_length_c 26.404250
_cell_angle_alpha 90.000000
_cell_angle_beta 90.000000
_cell_angle_gamma 90.000000
_cell_volume 1993.814903
_symmetry_space_group_name_H-M "C 2 2 21"
_symmetry_group_IT_number 20
_symmetry_cell_setting 'orthorhombic'
loop_
_space_group_symop_operation_xyz
x,y,z
-x,-y,1/2+z
x,-y,-z
-x,y,1/2-z
1/2+x,1/2+y,z
1/2-x,1/2-y,1/2+z
1/2+x,1/2-y,-z
1/2-x,1/2+y,1/2-z
loop_
_atom_site_type_symbol
_atom_site_label
_atom_site_fract_x
_atom_site_fract_y
_atom_site_fract_z
Si Si1 0.135338 0.659452 0.151190
Si Si2 0.073034 0.842215 0.551088
Si Si3 0.129243 0.366299 0.042315
Si Si4 0.943291 0.131535 0.863496
Si Si5 0.801378 0.476432 0.907755
Si Si6 0.252111 0.006054 0.721257
O O1 0.332267 0.654518 0.107892
O O2 0.061982 0.772710 0.163223
O O3 0.240316 0.608602 0.201864
O O4 0.907228 0.596557 0.134326
O O5 0.251459 0.892220 0.511257
O O6 0.042541 0.727874 0.534218
O O7 0.836953 0.909814 0.550587
O O8 0.323102 0.333654 0.084175
O O9 0.997813 0.464810 0.060662
O O10 0.141783 0.050949 0.875710
O O11 0.748999 0.082311 0.826329
O O12 0.500000 0.030670 0.750000
O O13 0.000000 0.022007 0.750000
#
# Coordination Sequence:
#
# PCOD8160716 Si02
#       6
#     8   8   8   8   8   8
#     4  12  26  50  80 113 153 209 259 333 405 479
#     4  12  27  47  74 115 160 209 267 322 391 482
#     4  12  27  47  74 115 160 209 267 322 391 482
#     4  12  26  50  80 113 153 209 259 333 405 479
#     4  12  25  49  75 106 158 211 262 321 395 470
#     4  12  29  54  84 122 161 207 276 345 416 490
#
# _framework density 24.074452000000001
#
# number of rings (size 3 to 8) (size 9 to 14) (size 15 to 20)
#    0.000    0.000    6.667    2.000    0.000    4.667 
#    0.000    5.000    0.000    0.000    0.000    0.000 
#    0.000    0.000    0.000    0.000    0.000    0.000 
#
# Total GULP energy -297734.981145 kJ/mol
# GULP energy per Si atom -12405.624214 kJ/mol
# Density = 2.401966 g / cm^3
# Si number density = 24.074452 Si / 1000 Ang^3
#
#
#
# Elastic Constant Matrix: (Units=GPa)
#
#
# Indices 1 2 3 4 5 6 
#
# 1 105.3064 23.2300 26.0254 0.0000 0.0000 0.0000
# 2 23.2300 130.0450 20.2022 0.0000 0.0000 0.0000
# 3 26.0254 20.2022 54.4896 0.0000 0.0000 0.0000
# 4 0.0000 0.0000 0.0000 25.1193 0.0000 0.0000
# 5 0.0000 0.0000 0.0000 0.0000 45.9220 0.0000
# 6 0.0000 0.0000 0.0000 0.0000 0.0000 41.6983
#
#
#
# Elastic Compliance Matrix: (Units=1/GPa)
#
#
# Indices 1 2 3 4 5 6 
#
# 1 0.010944 -0.001213 -0.004778 0.000000 0.000000 0.000000
# 2 -0.001213 0.008294 -0.002496 0.000000 0.000000 0.000000
# 3 -0.004778 -0.002496 0.021559 0.000000 0.000000 0.000000
# 4 0.000000 0.000000 0.000000 0.039810 0.000000 0.000000
# 5 0.000000 0.000000 0.000000 0.000000 0.021776 0.000000
# 6 0.000000 0.000000 0.000000 0.000000 0.000000 0.023982
#
#
# Mechanical properties :
#
#
# Convention : Reuss Voigt Hill
#
# Bulk Modulus (GPa) = 41.97213 47.63956 44.80585
# Shear Modulus (GPa) = 33.05134 37.24014 35.14574
#
# Velocity S-wave (km/s) = 3.70926 3.93730 3.82498
# Velocity P-wave (km/s) = 5.98473 6.36405 6.17730
#
# Compressibility (1/GPa) = 0.02382533
#
# Stress axis : x y z
#
# Youngs Moduli (GPa) = 91.37115 120.56904 46.38363
#
# Poissons Ratio (x) = 0.14623 0.22160
# Poissons Ratio (y) = 0.11082 0.11576
# Poissons Ratio (z) = 0.43654 0.30091
#
# Static dielectric constant tensor:
#      x y z
#    x 4.432400 0.000000 0.000000 
#    y 0.000000 4.545780 0.000000 
#    z 0.000000 0.000000 4.318120 
# 
# 
# High freq. dielectric constant tensor:
#      x y z
#    x 1.964560 0.000000 0.000000 
#    y 0.000000 1.971400 0.000000 
#    z 0.000000 0.000000 1.947310 
# 
# From -- ./inp_files/29824.got.cif
#   From: 2010.03.12/outbox.cif.g09.slc.cpg/sg20_15_cif.got.tgz:29824.got - 2010.04.14 01:38:04.
