data_PCOD8160697
_publ_section_title
;
Structure prediction by ZEFSAII (Michael W. Deem and Ramdas Pophale) SiO2 
 PCOD8160697
Probable space group: C 2 2 21
;
_chemical_formula_sum "Si O2"
_cell_formula_units_Z 32
_cell_length_a 13.078943
_cell_length_b 8.596444
_cell_length_c 10.965562
_cell_angle_alpha 90.000000
_cell_angle_beta 90.000000
_cell_angle_gamma 90.000000
_cell_volume 1232.884465
_symmetry_space_group_name_H-M "C 2 2 21"
_symmetry_group_IT_number 20
_symmetry_cell_setting 'orthorhombic'
loop_
_space_group_symop_operation_xyz
x,y,z
-x,-y,1/2+z
x,-y,-z
-x,y,1/2-z
1/2+x,1/2+y,z
1/2-x,1/2-y,1/2+z
1/2+x,1/2-y,-z
1/2-x,1/2+y,1/2-z
loop_
_atom_site_type_symbol
_atom_site_label
_atom_site_fract_x
_atom_site_fract_y
_atom_site_fract_z
Si Si1 0.789682 0.742483 0.635887
Si Si2 0.000000 0.662607 0.250000
Si Si3 0.148341 0.000000 0.500000
Si Si4 0.987919 0.742251 0.977498
Si Si5 0.162950 0.539781 0.657363
O O1 0.716060 0.613966 0.579694
O O2 0.789605 0.694665 0.779426
O O3 0.901695 0.726750 0.580692
O O4 0.749170 0.917644 0.608556
O O5 0.005391 0.762133 0.374820
O O6 0.100486 0.554471 0.239192
O O7 0.070614 0.108105 0.421304
O O8 0.916488 0.592801 0.947909
#
# Coordination Sequence:
#
# PCOD8160697 Si02
#       5
#     8   4   4   8   8
#     4  12  27  49  82 116 157 203 262 321 398 462
#     4  12  24  50  78 106 164 200 252 324 388 452
#     4  12  28  46  76 118 154 200 268 308 392 470
#     4  12  28  53  75 114 159 203 254 330 381 468
#     4  12  26  50  82 113 155 205 258 320 395 462
#
# _framework density 25.955390999999999
#
# number of rings (size 3 to 8) (size 9 to 14) (size 15 to 20)
#    0.000    0.000    5.000    3.750    0.000    4.000 
#    4.500    0.000    0.000    0.000    0.000    0.000 
#    0.000    0.000    0.000    0.000    0.000    0.000 
#
# Total GULP energy -198228.372064 kJ/mol
# GULP energy per Si atom -12389.273254 kJ/mol
# Density = 2.589632 g / cm^3
# Si number density = 25.955391 Si / 1000 Ang^3
#
#
#
# Elastic Constant Matrix: (Units=GPa)
#
#
# Indices 1 2 3 4 5 6 
#
# 1 154.9244 95.7780 51.5103 0.0000 0.0000 0.0000
# 2 95.7780 156.0730 55.5263 0.0000 0.0000 0.0000
# 3 51.5103 55.5263 124.2440 0.0000 0.0000 0.0000
# 4 0.0000 0.0000 0.0000 30.1686 0.0000 0.0000
# 5 0.0000 0.0000 0.0000 0.0000 26.2542 0.0000
# 6 0.0000 0.0000 0.0000 0.0000 0.0000 35.2876
#
#
#
# Elastic Compliance Matrix: (Units=1/GPa)
#
#
# Indices 1 2 3 4 5 6 
#
# 1 0.010725 -0.005945 -0.001790 0.000000 0.000000 0.000000
# 2 -0.005945 0.010914 -0.002413 0.000000 0.000000 0.000000
# 3 -0.001790 -0.002413 0.009869 0.000000 0.000000 0.000000
# 4 0.000000 0.000000 0.000000 0.033147 0.000000 0.000000
# 5 0.000000 0.000000 0.000000 0.000000 0.038089 0.000000
# 6 0.000000 0.000000 0.000000 0.000000 0.000000 0.028339
#
#
# Mechanical properties :
#
#
# Convention : Reuss Voigt Hill
#
# Bulk Modulus (GPa) = 89.18155 93.43007 91.30581
# Shear Modulus (GPa) = 32.23400 33.83720 33.03560
#
# Velocity S-wave (km/s) = 3.52788 3.61455 3.57148
# Velocity P-wave (km/s) = 7.14344 7.31399 7.22922
#
# Compressibility (1/GPa) = 0.01121308
#
# Stress axis : x y z
#
# Youngs Moduli (GPa) = 93.23863 91.62525 101.32767
#
# Poissons Ratio (x) = 0.54472 0.18134
# Poissons Ratio (y) = 0.55431 0.24449
# Poissons Ratio (z) = 0.16686 0.22108
#
# Static dielectric constant tensor:
#      x y z
#    x 5.108470 0.000000 0.000000 
#    y 0.000000 4.889910 0.000000 
#    z 0.000000 0.000000 4.529080 
# 
# 
# High freq. dielectric constant tensor:
#      x y z
#    x 2.056610 0.000000 0.000000 
#    y 0.000000 2.053720 0.000000 
#    z 0.000000 0.000000 2.026480 
# 
# From -- ./inp_files/14684.got.cif
#   From: 2010.03.12/outbox.cif.g09.slc.cpg/sg20_8_cif.got.tgz:14684.got - 2010.04.14 01:38:04.
