data_PCOD8160124
_publ_section_title
;
Structure prediction by ZEFSAII (Michael W. Deem and Ramdas Pophale) SiO2 
 PCOD8160124
Probable space group: C 2 2 21
;
_chemical_formula_sum "Si O2"
_cell_formula_units_Z 32
_cell_length_a 7.499357
_cell_length_b 22.058480
_cell_length_c 8.002319
_cell_angle_alpha 90.000000
_cell_angle_beta 90.000000
_cell_angle_gamma 90.000000
_cell_volume 1323.778950
_symmetry_space_group_name_H-M "C 2 2 21"
_symmetry_group_IT_number 20
_symmetry_cell_setting 'orthorhombic'
loop_
_space_group_symop_operation_xyz
x,y,z
-x,-y,1/2+z
x,-y,-z
-x,y,1/2-z
1/2+x,1/2+y,z
1/2-x,1/2-y,1/2+z
1/2+x,1/2-y,-z
1/2-x,1/2+y,1/2-z
loop_
_atom_site_type_symbol
_atom_site_label
_atom_site_fract_x
_atom_site_fract_y
_atom_site_fract_z
Si Si1 0.930729 0.128324 0.564885
Si Si2 0.176046 0.233482 0.144586
Si Si3 0.436166 0.933083 0.061394
Si Si4 0.781661 0.344736 0.569886
O O1 0.857578 0.196016 0.526824
O O2 0.773363 0.079775 0.536090
O O3 0.000000 0.121186 0.750000
O O4 0.096937 0.116058 0.435870
O O5 0.247732 0.298808 0.088168
O O6 0.307994 0.192946 0.258660
O O7 0.000000 0.245896 0.250000
O O8 0.500000 0.924118 0.250000
O O9 0.547056 0.886858 0.946524
O O10 0.479838 0.000000 0.000000
#
# Coordination Sequence:
#
# PCOD8160124 Si02
#       4
#     8   8   8   8
#     4  11  24  46  70 103 143 192 245 312 375 443
#     4  10  24  42  73 114 151 193 246 311 398 450
#     4  12  29  50  74 105 147 204 260 309 373 451
#     4  11  24  47  73 110 153 193 248 316 379 458
#
# _framework density 24.173220000000001
#
# number of rings (size 3 to 8) (size 9 to 14) (size 15 to 20)
#    0.000    1.000    2.500    2.250   10.500    1.000 
#    0.000    0.000    0.000    0.000    0.000    0.000 
#    0.000    0.000    0.000    0.000    0.000    0.000 
#
# Total GULP energy -198376.855117 kJ/mol
# GULP energy per Si atom -12398.553445 kJ/mol
# Density = 2.411820 g / cm^3
# Si number density = 24.173220 Si / 1000 Ang^3
#
#
#
# Elastic Constant Matrix: (Units=GPa)
#
#
# Indices 1 2 3 4 5 6 
#
# 1 128.4045 56.3847 40.8539 0.0000 0.0000 0.0000
# 2 56.3847 117.0532 44.1842 0.0000 0.0000 0.0000
# 3 40.8539 44.1842 65.4566 0.0000 0.0000 0.0000
# 4 0.0000 0.0000 0.0000 33.4371 0.0000 0.0000
# 5 0.0000 0.0000 0.0000 0.0000 32.0070 0.0000
# 6 0.0000 0.0000 0.0000 0.0000 0.0000 33.2998
#
#
#
# Elastic Compliance Matrix: (Units=1/GPa)
#
#
# Indices 1 2 3 4 5 6 
#
# 1 0.010708 -0.003536 -0.004296 0.000000 0.000000 0.000000
# 2 -0.003536 0.012632 -0.006320 0.000000 0.000000 0.000000
# 3 -0.004296 -0.006320 0.022224 0.000000 0.000000 0.000000
# 4 0.000000 0.000000 0.000000 0.029907 0.000000 0.000000
# 5 0.000000 0.000000 0.000000 0.000000 0.031243 0.000000
# 6 0.000000 0.000000 0.000000 0.000000 0.000000 0.030030
#
#
# Mechanical properties :
#
#
# Convention : Reuss Voigt Hill
#
# Bulk Modulus (GPa) = 57.93666 65.97330 61.95498
# Shear Modulus (GPa) = 29.27372 31.04820 30.16096
#
# Velocity S-wave (km/s) = 3.48371 3.58775 3.53611
# Velocity P-wave (km/s) = 6.34043 6.67186 6.50825
#
# Compressibility (1/GPa) = 0.01726023
#
# Stress axis : x y z
#
# Youngs Moduli (GPa) = 93.39211 79.16372 44.99541
#
# Poissons Ratio (x) = 0.27994 0.19330
# Poissons Ratio (y) = 0.33026 0.28436
# Poissons Ratio (z) = 0.40121 0.50029
#
# Static dielectric constant tensor:
#      x y z
#    x 4.590400 0.000000 0.000000 
#    y 0.000000 4.090470 0.000000 
#    z 0.000000 0.000000 4.488510 
# 
# 
# High freq. dielectric constant tensor:
#      x y z
#    x 1.975450 0.000000 0.000000 
#    y 0.000000 1.927610 0.000000 
#    z 0.000000 0.000000 1.969780 
# 
# From -- ./inp_files/5800.got.cif
#   From: 2010.03.12/outbox.cif.g09.slc.cpg/sg20_3_cif.got.tgz:5800.got - 2010.04.14 01:38:04.
