data_PCOD8160206
_publ_section_title
;
Structure prediction by ZEFSAII (Michael W. Deem and Ramdas Pophale) SiO2 
 PCOD8160206
Probable space group: C 2 2 21
;
_chemical_formula_sum "Si O2"
_cell_formula_units_Z 48
_cell_length_a 27.225780
_cell_length_b 9.861511
_cell_length_c 7.758767
_cell_angle_alpha 90.000000
_cell_angle_beta 90.000000
_cell_angle_gamma 90.000000
_cell_volume 2083.130628
_symmetry_space_group_name_H-M "C 2 2 21"
_symmetry_group_IT_number 20
_symmetry_cell_setting 'orthorhombic'
loop_
_space_group_symop_operation_xyz
x,y,z
-x,-y,1/2+z
x,-y,-z
-x,y,1/2-z
1/2+x,1/2+y,z
1/2-x,1/2-y,1/2+z
1/2+x,1/2-y,-z
1/2-x,1/2+y,1/2-z
loop_
_atom_site_type_symbol
_atom_site_label
_atom_site_fract_x
_atom_site_fract_y
_atom_site_fract_z
Si Si1 0.429798 0.500000 0.500000
Si Si2 0.938078 0.607011 0.860402
Si Si3 0.197172 0.000000 0.500000
Si Si4 0.000000 0.158563 0.250000
Si Si5 0.837448 0.738458 0.851098
Si Si6 0.642532 0.268137 0.040955
Si Si7 0.733954 0.401013 0.155223
Si Si8 0.086612 0.500000 0.000000
O O1 0.463103 0.564421 0.353011
O O2 0.396895 0.616111 0.590218
O O3 0.881245 0.637615 0.902779
O O4 0.945624 0.552894 0.662493
O O5 0.968819 0.745508 0.879181
O O6 0.957863 0.500000 0.000000
O O7 0.162021 0.870729 0.527744
O O8 0.233115 0.979524 0.336671
O O9 0.843863 0.789003 0.657682
O O10 0.786598 0.661734 0.878025
O O11 0.691668 0.284680 0.155757
O O12 0.620738 0.119487 0.075618
O O13 0.720041 0.500000 0.000000
#
# Coordination Sequence:
#
# PCOD8160206 Si02
#       8
#     4   8   4   4   8   8   8   4
#     4  12  24  51  76 109 161 200 259 326 394 476
#     4  11  27  49  74 112 148 187 257 319 379 463
#     4  12  26  40  70 100 144 194 253 296 371 446
#     4  12  28  48  78 114 146 208 266 314 410 466
#     4  11  24  46  70 106 146 196 249 304 381 463
#     4  11  23  49  73 108 155 202 246 317 386 456
#     4  12  25  43  69 106 150 197 248 309 373 463
#     4  10  24  47  78 103 149 200 236 312 395 438
#
# _framework density 23.042242999999999
#
# number of rings (size 3 to 8) (size 9 to 14) (size 15 to 20)
#    0.000    0.667    5.833    1.500    3.500    8.000 
#    0.000    0.000    0.000    0.000    0.000    0.000 
#    0.000    0.000    0.000    0.000    0.000    0.000 
#
# Total GULP energy -297720.518106 kJ/mol
# GULP energy per Si atom -12405.021588 kJ/mol
# Density = 2.298980 g / cm^3
# Si number density = 23.042243 Si / 1000 Ang^3
#
#
#
# Elastic Constant Matrix: (Units=GPa)
#
#
# Indices 1 2 3 4 5 6 
#
# 1 92.8215 31.8090 5.0250 0.0000 0.0000 0.0000
# 2 31.8090 126.8030 26.0419 0.0000 0.0000 0.0000
# 3 5.0250 26.0419 86.5272 0.0000 0.0000 0.0000
# 4 0.0000 0.0000 0.0000 48.8012 0.0000 0.0000
# 5 0.0000 0.0000 0.0000 0.0000 29.3902 0.0000
# 6 0.0000 0.0000 0.0000 0.0000 0.0000 29.3509
#
#
#
# Elastic Compliance Matrix: (Units=1/GPa)
#
#
# Indices 1 2 3 4 5 6 
#
# 1 0.011790 -0.003003 0.000219 0.000000 0.000000 0.000000
# 2 -0.003003 0.009171 -0.002586 0.000000 0.000000 0.000000
# 3 0.000219 -0.002586 0.012323 0.000000 0.000000 0.000000
# 4 0.000000 0.000000 0.000000 0.020491 0.000000 0.000000
# 5 0.000000 0.000000 0.000000 0.000000 0.034025 0.000000
# 6 0.000000 0.000000 0.000000 0.000000 0.000000 0.034071
#
#
# Mechanical properties :
#
#
# Convention : Reuss Voigt Hill
#
# Bulk Modulus (GPa) = 44.35598 47.98929 46.17264
# Shear Modulus (GPa) = 35.68270 37.72684 36.70477
#
# Velocity S-wave (km/s) = 3.93947 4.05073 3.99549
# Velocity P-wave (km/s) = 6.32330 6.53833 6.43172
#
# Compressibility (1/GPa) = 0.02254487
#
# Stress axis : x y z
#
# Youngs Moduli (GPa) = 84.81407 109.04526 81.15207
#
# Poissons Ratio (x) = 0.32743 -0.01777
# Poissons Ratio (y) = 0.25467 0.20983
# Poissons Ratio (z) = -0.01857 0.28195
#
# Static dielectric constant tensor:
#      x y z
#    x 4.267050 0.000000 0.000000 
#    y 0.000000 4.392480 0.000000 
#    z 0.000000 0.000000 4.048490 
# 
# 
# High freq. dielectric constant tensor:
#      x y z
#    x 1.918220 0.000000 0.000000 
#    y 0.000000 1.923260 0.000000 
#    z 0.000000 0.000000 1.898570 
# 
# From -- ./inp_files/11540.got.cif
#   From: 2010.03.12/outbox.cif.g09.slc.cpg/sg20_6_cif.got.tgz:11540.got - 2010.04.14 01:38:04.
