data_PCOD8160411
_publ_section_title
;
Structure prediction by ZEFSAII (Michael W. Deem and Ramdas Pophale) SiO2 
 PCOD8160411
Probable space group: C 2 2 21
;
_chemical_formula_sum "Si O2"
_cell_formula_units_Z 64
_cell_length_a 12.156689
_cell_length_b 8.461940
_cell_length_c 27.410691
_cell_angle_alpha 90.000000
_cell_angle_beta 90.000000
_cell_angle_gamma 90.000000
_cell_volume 2819.715112
_symmetry_space_group_name_H-M "C 2 2 21"
_symmetry_group_IT_number 20
_symmetry_cell_setting 'orthorhombic'
loop_
_space_group_symop_operation_xyz
x,y,z
-x,-y,1/2+z
x,-y,-z
-x,y,1/2-z
1/2+x,1/2+y,z
1/2-x,1/2-y,1/2+z
1/2+x,1/2-y,-z
1/2-x,1/2+y,1/2-z
loop_
_atom_site_type_symbol
_atom_site_label
_atom_site_fract_x
_atom_site_fract_y
_atom_site_fract_z
Si Si1 0.451960 0.667200 0.201650
Si Si2 0.339473 0.868518 0.881345
Si Si3 0.382848 0.198198 0.627900
Si Si4 0.243223 0.802515 0.094437
Si Si5 0.889091 0.476986 0.774815
Si Si6 0.991537 0.176890 0.556153
Si Si7 0.225489 0.411456 0.820960
Si Si8 0.457431 0.320140 0.945223
O O1 0.500000 0.584458 0.250000
O O2 0.555471 0.688758 0.166231
O O3 0.393468 0.834477 0.215962
O O4 0.358428 0.556576 0.176566
O O5 0.233871 0.760590 0.888849
O O6 0.443304 0.790532 0.907435
O O7 0.306873 0.032476 0.906179
O O8 0.368983 0.885464 0.824773
O O9 0.465723 0.188661 0.581845
O O10 0.358752 0.029770 0.652218
O O11 0.208725 0.754389 0.150053
O O12 0.330986 0.681824 0.071636
O O13 0.138390 0.792050 0.059493
O O14 0.796175 0.417949 0.736889
O O15 0.000000 0.415831 0.750000
O O16 0.034738 0.214152 0.502327
O O17 0.002641 0.993679 0.569692
#
# Coordination Sequence:
#
# PCOD8160411 Si02
#       8
#     8   8   8   8   8   8   8   8
#     4  11  22  44  66 101 147 195 242 301 361 431
#     4  12  26  45  75 110 146 194 250 302 376 442
#     4  12  24  45  73 103 147 193 242 309 368 433
#     4  12  26  48  73 108 151 191 245 312 370 444
#     4  11  22  42  67 102 148 189 241 300 357 436
#     4  11  28  50  75 110 145 193 252 309 373 451
#     4  12  24  42  75 104 146 198 243 301 373 434
#     4  11  26  51  74 106 148 192 248 311 376 444
#
# _framework density 22.697329
#
# number of rings (size 3 to 8) (size 9 to 14) (size 15 to 20)
#    0.000    0.500    6.250    2.250    3.500    0.500 
#    0.000    0.625    0.000    0.000    0.000    0.000 
#    0.000    0.000    0.000    0.000    0.000    0.000 
#
# Total GULP energy -396680.094363 kJ/mol
# GULP energy per Si atom -12396.252949 kJ/mol
# Density = 2.264567 g / cm^3
# Si number density = 22.697329 Si / 1000 Ang^3
#
#
#
# Elastic Constant Matrix: (Units=GPa)
#
#
# Indices 1 2 3 4 5 6 
#
# 1 154.8748 34.9618 45.4672 0.0000 0.0000 0.0000
# 2 34.9618 38.0689 40.1286 0.0000 0.0000 0.0000
# 3 45.4672 40.1286 131.2773 0.0000 0.0000 0.0000
# 4 0.0000 0.0000 0.0000 31.1758 0.0000 0.0000
# 5 0.0000 0.0000 0.0000 0.0000 44.5197 0.0000
# 6 0.0000 0.0000 0.0000 0.0000 0.0000 42.7610
#
#
#
# Elastic Compliance Matrix: (Units=1/GPa)
#
#
# Indices 1 2 3 4 5 6 
#
# 1 0.008201 -0.006695 -0.000794 0.000000 0.000000 0.000000
# 2 -0.006695 0.044221 -0.011199 0.000000 0.000000 0.000000
# 3 -0.000794 -0.011199 0.011316 0.000000 0.000000 0.000000
# 4 0.000000 0.000000 0.000000 0.032076 0.000000 0.000000
# 5 0.000000 0.000000 0.000000 0.000000 0.022462 0.000000
# 6 0.000000 0.000000 0.000000 0.000000 0.000000 0.023386
#
#
# Mechanical properties :
#
#
# Convention : Reuss Voigt Hill
#
# Bulk Modulus (GPa) = 37.93202 62.81512 50.37357
# Shear Modulus (GPa) = 26.62049 37.26884 31.94466
#
# Velocity S-wave (km/s) = 3.42840 4.05655 3.75563
# Velocity P-wave (km/s) = 5.69388 7.04812 6.40688
#
# Compressibility (1/GPa) = 0.02636295
#
# Stress axis : x y z
#
# Youngs Moduli (GPa) = 121.93252 22.61350 88.37321
#
# Poissons Ratio (x) = 0.15140 0.07016
# Poissons Ratio (y) = 0.81634 0.98967
# Poissons Ratio (z) = 0.09681 0.25324
#
# Static dielectric constant tensor:
#      x y z
#    x 4.437090 0.000000 0.000000 
#    y 0.000000 3.950290 0.000000 
#    z 0.000000 0.000000 4.244280 
# 
# 
# High freq. dielectric constant tensor:
#      x y z
#    x 1.917750 0.000000 0.000000 
#    y 0.000000 1.870120 0.000000 
#    z 0.000000 0.000000 1.902430 
# 
# From -- ./inp_files/31198.got.cif
#   From: 2010.03.12/outbox.cif.g09.slc.cpg/sg20_16_cif.got.tgz:31198.got - 2010.04.14 01:38:04.
