data_PCOD8160732
_publ_section_title
;
Structure prediction by ZEFSAII (Michael W. Deem and Ramdas Pophale) SiO2 
 PCOD8160732
Probable space group: C 2 2 21
;
_chemical_formula_sum "Si O2"
_cell_formula_units_Z 32
_cell_length_a 19.928050
_cell_length_b 4.883153
_cell_length_c 13.717721
_cell_angle_alpha 90.000000
_cell_angle_beta 90.000000
_cell_angle_gamma 90.000000
_cell_volume 1334.894986
_symmetry_space_group_name_H-M "C 2 2 21"
_symmetry_group_IT_number 20
_symmetry_cell_setting 'orthorhombic'
loop_
_space_group_symop_operation_xyz
x,y,z
-x,-y,1/2+z
x,-y,-z
-x,y,1/2-z
1/2+x,1/2+y,z
1/2-x,1/2-y,1/2+z
1/2+x,1/2-y,-z
1/2-x,1/2+y,1/2-z
loop_
_atom_site_type_symbol
_atom_site_label
_atom_site_fract_x
_atom_site_fract_y
_atom_site_fract_z
Si Si1 0.768853 0.310700 0.190752
Si Si2 0.012097 0.579939 0.358380
Si Si3 0.900373 0.092377 0.103620
Si Si4 0.692676 0.500000 0.000000
Si Si5 0.102803 0.500000 0.000000
O O1 0.777083 0.581553 0.257061
O O2 0.841970 0.177413 0.177610
O O3 0.738767 0.393628 0.087260
O O4 0.051875 0.349346 0.418888
O O5 0.000000 0.467603 0.250000
O O6 0.941338 0.624868 0.412162
O O7 0.054950 0.855821 0.348815
O O8 0.869257 0.000000 0.000000
O O9 0.648111 0.750982 0.039833
#
# Coordination Sequence:
#
# PCOD8160732 Si02
#       5
#     8   8   8   4   4
#     4  12  30  50  77 114 150 204 255 310 382 448
#     4  12  27  47  76 110 145 200 247 308 375 440
#     4  12  26  50  76 105 152 196 256 308 362 448
#     4  12  30  49  76 111 158 198 246 318 380 452
#     4  12  26  49  74 111 156 194 244 306 384 450
#
# _framework density 23.971926
#
# number of rings (size 3 to 8) (size 9 to 14) (size 15 to 20)
#    0.000    0.000    2.500    5.250   19.250    0.000 
#    0.000    0.000    0.000    0.000    0.000    0.000 
#    0.000    0.000    0.000    0.000    0.000    0.000 
#
# Total GULP energy -198550.139021 kJ/mol
# GULP energy per Si atom -12409.383689 kJ/mol
# Density = 2.391736 g / cm^3
# Si number density = 23.971926 Si / 1000 Ang^3
#
#
#
# Elastic Constant Matrix: (Units=GPa)
#
#
# Indices 1 2 3 4 5 6 
#
# 1 106.4791 60.7371 37.3347 0.0000 0.0000 0.0000
# 2 60.7371 176.2276 45.6601 0.0000 0.0000 0.0000
# 3 37.3347 45.6601 127.2938 0.0000 0.0000 0.0000
# 4 0.0000 0.0000 0.0000 48.6263 0.0000 0.0000
# 5 0.0000 0.0000 0.0000 0.0000 7.6441 0.0000
# 6 0.0000 0.0000 0.0000 0.0000 0.0000 -65.9019
#
#
#
# Elastic Compliance Matrix: (Units=1/GPa)
#
#
# Indices 1 2 3 4 5 6 
#
# 1 0.012269 -0.003634 -0.002295 0.000000 0.000000 0.000000
# 2 -0.003634 0.007332 -0.001564 0.000000 0.000000 0.000000
# 3 -0.002295 -0.001564 0.009090 0.000000 0.000000 0.000000
# 4 0.000000 0.000000 0.000000 0.020565 0.000000 0.000000
# 5 0.000000 0.000000 0.000000 0.000000 0.130820 0.000000
# 6 0.000000 0.000000 0.000000 0.000000 0.000000 -0.015174
#
#
# Mechanical properties :
#
#
# Convention : Reuss Voigt Hill
#
# Bulk Modulus (GPa) = 72.96600 77.49607 75.23104
# Shear Modulus (GPa) = 27.10659 15.82494 21.46577
#
# Velocity S-wave (km/s) = 3.36633 2.57212 2.99566
# Velocity P-wave (km/s) = 6.75380 6.42021 6.58911
#
# Compressibility (1/GPa) = 0.01370501
#
# Stress axis : x y z
#
# Youngs Moduli (GPa) = 81.50595 136.38457 110.01055
#
# Poissons Ratio (x) = 0.49561 0.25247
# Poissons Ratio (y) = 0.29619 0.17208
# Poissons Ratio (z) = 0.18705 0.21334
#
# Static dielectric constant tensor:
#      x y z
#    x 4.194720 0.000000 0.000000 
#    y 0.000000 4.573150 0.000000 
#    z 0.000000 0.000000 4.360040 
# 
# 
# High freq. dielectric constant tensor:
#      x y z
#    x 1.950340 0.000000 0.000000 
#    y 0.000000 1.971070 0.000000 
#    z 0.000000 0.000000 1.957030 
# 
# From -- ./inp_files/17499.got.cif
#   From: 2010.03.12/outbox.cif.g09.slc.cpg/sg20_9_cif.got.tgz:17499.got - 2010.04.14 01:38:04.
