data_PCOD8160395
_publ_section_title
;
Structure prediction by ZEFSAII (Michael W. Deem and Ramdas Pophale) SiO2 
 PCOD8160395
Probable space group: C 2 2 21
;
_chemical_formula_sum "Si O2"
_cell_formula_units_Z 40
_cell_length_a 26.644689
_cell_length_b 4.950165
_cell_length_c 12.966019
_cell_angle_alpha 90.000000
_cell_angle_beta 90.000000
_cell_angle_gamma 90.000000
_cell_volume 1710.160945
_symmetry_space_group_name_H-M "C 2 2 21"
_symmetry_group_IT_number 20
_symmetry_cell_setting 'orthorhombic'
loop_
_space_group_symop_operation_xyz
x,y,z
-x,-y,1/2+z
x,-y,-z
-x,y,1/2-z
1/2+x,1/2+y,z
1/2-x,1/2-y,1/2+z
1/2+x,1/2-y,-z
1/2-x,1/2+y,1/2-z
loop_
_atom_site_type_symbol
_atom_site_label
_atom_site_fract_x
_atom_site_fract_y
_atom_site_fract_z
Si Si1 0.612463 0.616699 0.787506
Si Si2 0.724833 0.782100 0.792897
Si Si3 0.330167 0.000000 0.000000
Si Si4 0.586990 0.108066 0.665720
Si Si5 0.067041 0.000000 0.000000
Si Si6 0.762496 0.000000 0.000000
Si Si7 0.995883 0.500000 0.000000
O O1 0.671736 0.645012 0.770391
O O2 0.587980 0.414446 0.704656
O O3 0.587252 0.907237 0.764481
O O4 0.602928 0.495634 0.900651
O O5 0.765298 0.539164 0.782017
O O6 0.726839 0.901313 0.908058
O O7 0.363723 0.930771 0.097933
O O8 0.297151 0.253565 0.036704
O O9 0.537141 0.055109 0.600847
O O10 0.031421 0.749687 0.017488
#
# Coordination Sequence:
#
# PCOD8160395 Si02
#       7
#     8   8   4   8   4   4   4
#     4  12  26  45  67  98 137 182 216 275 336 394
#     4  12  26  44  67  99 137 181 234 275 328 404
#     4  11  22  41  66 101 130 171 226 285 334 381
#     4  11  24  44  72  97 132 169 224 280 338 394
#     4  12  28  46  68  99 140 171 220 266 334 416
#     4  12  24  40  66  95 136 181 224 280 332 388
#     4  11  26  47  72 105 126 167 222 281 336 411
#
# _framework density 23.389612
#
# number of rings (size 3 to 8) (size 9 to 14) (size 15 to 20)
#    0.000    0.400    0.000    9.600    0.000   12.800 
#    0.000    0.000    0.000    0.000    0.000    0.000 
#    0.000    0.000    0.000    0.000    0.000    0.000 
#
# Total GULP energy -248094.530352 kJ/mol
# GULP energy per Si atom -12404.726518 kJ/mol
# Density = 2.333638 g / cm^3
# Si number density = 23.389612 Si / 1000 Ang^3
#
#
#
# Elastic Constant Matrix: (Units=GPa)
#
#
# Indices 1 2 3 4 5 6 
#
# 1 86.3823 44.9133 32.5237 0.0000 0.0000 0.0000
# 2 44.9133 152.2873 31.2072 0.0000 0.0000 0.0000
# 3 32.5237 31.2072 116.8065 0.0000 0.0000 0.0000
# 4 0.0000 0.0000 0.0000 48.2822 0.0000 0.0000
# 5 0.0000 0.0000 0.0000 0.0000 27.0265 0.0000
# 6 0.0000 0.0000 0.0000 0.0000 0.0000 39.6747
#
#
#
# Elastic Compliance Matrix: (Units=1/GPa)
#
#
# Indices 1 2 3 4 5 6 
#
# 1 0.014660 -0.003689 -0.003096 0.000000 0.000000 0.000000
# 2 -0.003689 0.007875 -0.001077 0.000000 0.000000 0.000000
# 3 -0.003096 -0.001077 0.009711 0.000000 0.000000 0.000000
# 4 0.000000 0.000000 0.000000 0.020712 0.000000 0.000000
# 5 0.000000 0.000000 0.000000 0.000000 0.037001 0.000000
# 6 0.000000 0.000000 0.000000 0.000000 0.000000 0.025205
#
#
# Mechanical properties :
#
#
# Convention : Reuss Voigt Hill
#
# Bulk Modulus (GPa) = 60.52594 63.64052 62.08323
# Shear Modulus (GPa) = 36.65794 39.45213 38.05504
#
# Velocity S-wave (km/s) = 3.96318 4.11145 4.03799
# Velocity P-wave (km/s) = 6.84659 7.05738 6.95278
#
# Compressibility (1/GPa) = 0.01652184
#
# Stress axis : x y z
#
# Youngs Moduli (GPa) = 68.21085 126.98036 102.97572
#
# Poissons Ratio (x) = 0.46846 0.31886
# Poissons Ratio (y) = 0.25164 0.11088
# Poissons Ratio (z) = 0.21121 0.13673
#
# Static dielectric constant tensor:
#      x y z
#    x 4.111690 0.000000 0.000000 
#    y 0.000000 4.444160 0.000000 
#    z 0.000000 0.000000 4.275490 
# 
# 
# High freq. dielectric constant tensor:
#      x y z
#    x 1.921160 0.000000 0.000000 
#    y 0.000000 1.945960 0.000000 
#    z 0.000000 0.000000 1.937810 
# 
# From -- ./inp_files/16935.got.cif
#   From: 2010.03.12/outbox.cif.g09.slc.cpg/sg20_9_cif.got.tgz:16935.got - 2010.04.14 01:38:04.
