data_PCOD8160062
_publ_section_title
;
Structure prediction by ZEFSAII (Michael W. Deem and Ramdas Pophale) SiO2 
 PCOD8160062
Probable space group: C 2 2 21
;
_chemical_formula_sum "Si O2"
_cell_formula_units_Z 40
_cell_length_a 13.406598
_cell_length_b 16.694676
_cell_length_c 7.889807
_cell_angle_alpha 90.000000
_cell_angle_beta 90.000000
_cell_angle_gamma 90.000000
_cell_volume 1765.887213
_symmetry_space_group_name_H-M "C 2 2 21"
_symmetry_group_IT_number 20
_symmetry_cell_setting 'orthorhombic'
loop_
_space_group_symop_operation_xyz
x,y,z
-x,-y,1/2+z
x,-y,-z
-x,y,1/2-z
1/2+x,1/2+y,z
1/2-x,1/2-y,1/2+z
1/2+x,1/2-y,-z
1/2-x,1/2+y,1/2-z
loop_
_atom_site_type_symbol
_atom_site_label
_atom_site_fract_x
_atom_site_fract_y
_atom_site_fract_z
Si Si1 0.500000 0.670229 0.250000
Si Si2 0.255094 0.333539 0.289305
Si Si3 0.341415 0.575988 0.412380
Si Si4 0.817231 0.499945 0.682612
Si Si5 0.000000 0.606744 0.250000
Si Si6 0.604662 0.758449 0.523950
O O1 0.405437 0.612478 0.262561
O O2 0.510873 0.716556 0.430196
O O3 0.323762 0.357843 0.445910
O O4 0.183976 0.406149 0.228444
O O5 0.331330 0.296276 0.152589
O O6 0.176104 0.270600 0.361156
O O7 0.395654 0.500000 0.500000
O O8 0.238356 0.548198 0.329073
O O9 0.763134 0.500000 0.500000
O O10 0.923710 0.455063 0.659666
O O11 0.939860 0.662855 0.116529
#
# Coordination Sequence:
#
# PCOD8160062 Si02
#       6
#     4   8   8   8   4   8
#     4  12  26  43  71 108 138 196 246 304 380 465
#     4  11  25  47  70 100 149 198 237 308 382 456
#     4  10  23  46  69 101 141 188 250 305 370 446
#     4  11  26  44  75 103 148 192 247 307 377 438
#     4  12  28  45  75 114 148 196 256 312 364 463
#     4  12  27  44  74 104 154 191 252 304 388 453
#
# _framework density 22.651502000000001
#
# number of rings (size 3 to 8) (size 9 to 14) (size 15 to 20)
#    0.000    0.800    2.000    3.600    8.400    4.000 
#    0.000    0.000    0.000    0.000    0.000    0.000 
#    0.000    0.000    0.000    0.000    0.000    0.000 
#
# Total GULP energy -247773.141151 kJ/mol
# GULP energy per Si atom -12388.657058 kJ/mol
# Density = 2.259995 g / cm^3
# Si number density = 22.651502 Si / 1000 Ang^3
#
#
#
# Elastic Constant Matrix: (Units=GPa)
#
#
# Indices 1 2 3 4 5 6 
#
# 1 80.3817 62.8183 44.0585 0.0000 0.0000 0.0000
# 2 62.8183 115.3377 51.7015 0.0000 0.0000 0.0000
# 3 44.0585 51.7015 139.4615 0.0000 0.0000 0.0000
# 4 0.0000 0.0000 0.0000 36.3287 0.0000 0.0000
# 5 0.0000 0.0000 0.0000 0.0000 109.3986 0.0000
# 6 0.0000 0.0000 0.0000 0.0000 0.0000 90.1111
#
#
#
# Elastic Compliance Matrix: (Units=1/GPa)
#
#
# Indices 1 2 3 4 5 6 
#
# 1 0.022730 -0.010987 -0.003108 0.000000 0.000000 0.000000
# 2 -0.010987 0.015709 -0.002353 0.000000 0.000000 0.000000
# 3 -0.003108 -0.002353 0.009024 0.000000 0.000000 0.000000
# 4 0.000000 0.000000 0.000000 0.027526 0.000000 0.000000
# 5 0.000000 0.000000 0.000000 0.000000 0.009141 0.000000
# 6 0.000000 0.000000 0.000000 0.000000 0.000000 0.011097
#
#
# Mechanical properties :
#
#
# Convention : Reuss Voigt Hill
#
# Bulk Modulus (GPa) = 68.63978 72.48195 70.56086
# Shear Modulus (GPa) = 37.59985 58.94117 48.27051
#
# Velocity S-wave (km/s) = 4.07864 5.10660 4.62129
# Velocity P-wave (km/s) = 7.24905 8.17545 7.72615
#
# Compressibility (1/GPa) = 0.01456881
#
# Stress axis : x y z
#
# Youngs Moduli (GPa) = 43.99408 63.65884 110.81020
#
# Poissons Ratio (x) = 0.69941 0.34438
# Poissons Ratio (y) = 0.48336 0.26069
# Poissons Ratio (z) = 0.13673 0.14977
#
# Static dielectric constant tensor:
#      x y z
#    x 3.881100 0.000000 0.000000 
#    y 0.000000 4.150590 0.000000 
#    z 0.000000 0.000000 4.156090 
# 
# 
# High freq. dielectric constant tensor:
#      x y z
#    x 1.882630 0.000000 0.000000 
#    y 0.000000 1.906010 0.000000 
#    z 0.000000 0.000000 1.910330 
# 
# From -- ./inp_files/7135.got.cif
#   From: 2010.03.12/outbox.cif.g09.slc.cpg/sg20_4_cif.got.tgz:7135.got - 2010.04.14 01:38:04.
