data_PCOD8160662
_publ_section_title
;
Structure prediction by ZEFSAII (Michael W. Deem and Ramdas Pophale) SiO2 
 PCOD8160662
Probable space group: C 2 2 21
;
_chemical_formula_sum "Si O2"
_cell_formula_units_Z 32
_cell_length_a 23.036724
_cell_length_b 11.629482
_cell_length_c 4.947549
_cell_angle_alpha 90.000000
_cell_angle_beta 90.000000
_cell_angle_gamma 90.000000
_cell_volume 1325.473942
_symmetry_space_group_name_H-M "C 2 2 21"
_symmetry_group_IT_number 20
_symmetry_cell_setting 'orthorhombic'
loop_
_space_group_symop_operation_xyz
x,y,z
-x,-y,1/2+z
x,-y,-z
-x,y,1/2-z
1/2+x,1/2+y,z
1/2-x,1/2-y,1/2+z
1/2+x,1/2-y,-z
1/2-x,1/2+y,1/2-z
loop_
_atom_site_type_symbol
_atom_site_label
_atom_site_fract_x
_atom_site_fract_y
_atom_site_fract_z
Si Si1 0.121673 0.422898 0.739892
Si Si2 0.664198 0.500000 0.000000
Si Si3 0.285793 0.266383 0.387399
Si Si4 0.000000 0.177074 0.250000
Si Si5 0.087732 0.000000 0.500000
Si Si6 0.000000 0.322710 0.750000
O O1 0.149463 0.500000 0.500000
O O2 0.158903 0.308390 0.794609
O O3 0.055627 0.393885 0.649529
O O4 0.119679 0.500000 0.000000
O O5 0.700954 0.384974 0.948364
O O6 0.626641 0.457773 0.254454
O O7 0.249264 0.198491 0.616174
O O8 0.974516 0.251320 0.495566
O O9 0.050151 0.103560 0.386203
#
# Coordination Sequence:
#
# PCOD8160662 Si02
#       6
#     8   4   8   4   4   4
#     4  12  26  47  76 110 154 201 257 316 381 460
#     4  12  27  48  74 104 148 186 259 306 386 456
#     4  12  28  48  77 109 148 201 254 325 391 452
#     4  12  23  39  70 104 154 192 249 301 374 446
#     4  12  23  42  68 108 142 200 239 314 370 446
#     4  12  25  45  72 108 154 204 253 307 382 464
#
# _framework density 24.142306000000001
#
# number of rings (size 3 to 8) (size 9 to 14) (size 15 to 20)
#    0.000    0.000    0.000   11.250    5.250    0.000 
#    0.000    0.000    0.000    0.000    0.000    0.000 
#    0.000    0.000    0.000    0.000    0.000    0.000 
#
# Total GULP energy -198421.044634 kJ/mol
# GULP energy per Si atom -12401.315290 kJ/mol
# Density = 2.408736 g / cm^3
# Si number density = 24.142306 Si / 1000 Ang^3
#
#
#
# Elastic Constant Matrix: (Units=GPa)
#
#
# Indices 1 2 3 4 5 6 
#
# 1 114.1143 47.6450 38.4342 0.0000 0.0000 0.0000
# 2 47.6450 144.7674 47.8226 0.0000 0.0000 0.0000
# 3 38.4342 47.8226 178.6275 0.0000 0.0000 0.0000
# 4 0.0000 0.0000 0.0000 50.9474 0.0000 0.0000
# 5 0.0000 0.0000 0.0000 0.0000 56.8512 0.0000
# 6 0.0000 0.0000 0.0000 0.0000 0.0000 13.5874
#
#
#
# Elastic Compliance Matrix: (Units=1/GPa)
#
#
# Indices 1 2 3 4 5 6 
#
# 1 0.010496 -0.002971 -0.001463 0.000000 0.000000 0.000000
# 2 -0.002971 0.008419 -0.001615 0.000000 0.000000 0.000000
# 3 -0.001463 -0.001615 0.006345 0.000000 0.000000 0.000000
# 4 0.000000 0.000000 0.000000 0.019628 0.000000 0.000000
# 5 0.000000 0.000000 0.000000 0.000000 0.017590 0.000000
# 6 0.000000 0.000000 0.000000 0.000000 0.000000 0.073598
#
#
# Mechanical properties :
#
#
# Convention : Reuss Voigt Hill
#
# Bulk Modulus (GPa) = 75.97101 78.36810 77.16955
# Shear Modulus (GPa) = 32.77368 44.51769 38.64568
#
# Velocity S-wave (km/s) = 3.68845 4.29881 4.00527
# Velocity P-wave (km/s) = 7.04811 7.56115 7.30913
#
# Compressibility (1/GPa) = 0.01316292
#
# Stress axis : x y z
#
# Youngs Moduli (GPa) = 95.27046 118.78057 157.59707
#
# Poissons Ratio (x) = 0.35293 0.23056
# Poissons Ratio (y) = 0.28307 0.25446
# Poissons Ratio (z) = 0.13938 0.19179
#
# Static dielectric constant tensor:
#      x y z
#    x 4.459200 0.000000 0.000000 
#    y 0.000000 4.130170 0.000000 
#    z 0.000000 0.000000 4.667620 
# 
# 
# High freq. dielectric constant tensor:
#      x y z
#    x 1.958080 0.000000 0.000000 
#    y 0.000000 1.963800 0.000000 
#    z 0.000000 0.000000 1.981480 
# 
# From -- ./inp_files/1087.got.cif
#   From: 2010.03.12/outbox.cif.g09.slc.cpg/sg20_1_cif.got.tgz:1087.got - 2010.04.14 01:38:04.
