data_PCOD8160657
_publ_section_title
;
Structure prediction by ZEFSAII (Michael W. Deem and Ramdas Pophale) SiO2 
 PCOD8160657
Probable space group: C 2 2 21
;
_chemical_formula_sum "Si O2"
_cell_formula_units_Z 40
_cell_length_a 16.455961
_cell_length_b 16.859679
_cell_length_c 5.472172
_cell_angle_alpha 90.000000
_cell_angle_beta 90.000000
_cell_angle_gamma 90.000000
_cell_volume 1518.211548
_symmetry_space_group_name_H-M "C 2 2 21"
_symmetry_group_IT_number 20
_symmetry_cell_setting 'orthorhombic'
loop_
_space_group_symop_operation_xyz
x,y,z
-x,-y,1/2+z
x,-y,-z
-x,y,1/2-z
1/2+x,1/2+y,z
1/2-x,1/2-y,1/2+z
1/2+x,1/2-y,-z
1/2-x,1/2+y,1/2-z
loop_
_atom_site_type_symbol
_atom_site_label
_atom_site_fract_x
_atom_site_fract_y
_atom_site_fract_z
Si Si1 0.565659 0.810257 0.416931
Si Si2 0.694277 0.818274 0.023767
Si Si3 0.636974 0.319761 0.259553
Si Si4 0.500000 0.938285 0.750000
Si Si5 0.000000 0.051107 0.750000
Si Si6 0.327556 0.032056 0.254289
O O1 0.500000 0.764117 0.250000
O O2 0.644838 0.842065 0.267407
O O3 0.581295 0.747155 0.625667
O O4 0.515398 0.885200 0.512934
O O5 0.788638 0.839925 0.060858
O O6 0.677510 0.724314 0.977695
O O7 0.670006 0.871168 0.781353
O O8 0.581709 0.396569 0.204475
O O9 0.578480 0.995893 0.771017
O O10 0.011209 0.000000 0.500000
O O11 0.281426 0.000000 0.500000
O O12 0.286911 0.000000 0.000000
#
# Coordination Sequence:
#
# PCOD8160657 Si02
#       6
#     8   8   8   4   4   8
#     4  12  22  43  79 114 154 203 272 347 416 491
#     4  12  26  46  83 124 156 218 284 360 429 497
#     4  12  27  52  84 118 159 215 290 370 421 506
#     4  12  23  40  66 105 150 206 254 308 387 488
#     4  12  33  60  88 123 172 240 296 356 447 530
#     4  12  27  45  69 109 166 213 256 314 411 504
#
# _framework density 26.346789999999999
#
# number of rings (size 3 to 8) (size 9 to 14) (size 15 to 20)
#    0.000    0.000    6.000    3.600    4.200    0.800 
#    0.000    4.000    0.000    0.000    0.000    0.000 
#    0.000    0.000    0.000    0.000    0.000    0.000 
#
# Total GULP energy -247787.867698 kJ/mol
# GULP energy per Si atom -12389.393385 kJ/mol
# Density = 2.628682 g / cm^3
# Si number density = 26.346790 Si / 1000 Ang^3
#
#
#
# Elastic Constant Matrix: (Units=GPa)
#
#
# Indices 1 2 3 4 5 6 
#
# 1 111.7480 31.7691 21.4323 0.0000 0.0000 0.0000
# 2 31.7691 122.0682 61.9262 0.0000 0.0000 0.0000
# 3 21.4323 61.9262 151.2865 0.0000 0.0000 0.0000
# 4 0.0000 0.0000 0.0000 46.6597 0.0000 0.0000
# 5 0.0000 0.0000 0.0000 0.0000 32.1414 0.0000
# 6 0.0000 0.0000 0.0000 0.0000 0.0000 30.1059
#
#
#
# Elastic Compliance Matrix: (Units=1/GPa)
#
#
# Indices 1 2 3 4 5 6 
#
# 1 0.009686 -0.002303 -0.000430 0.000000 0.000000 0.000000
# 2 -0.002303 0.010887 -0.004130 0.000000 0.000000 0.000000
# 3 -0.000430 -0.004130 0.008361 0.000000 0.000000 0.000000
# 4 0.000000 0.000000 0.000000 0.021432 0.000000 0.000000
# 5 0.000000 0.000000 0.000000 0.000000 0.031113 0.000000
# 6 0.000000 0.000000 0.000000 0.000000 0.000000 0.033216
#
#
# Mechanical properties :
#
#
# Convention : Reuss Voigt Hill
#
# Bulk Modulus (GPa) = 65.75061 68.37312 67.06187
# Shear Modulus (GPa) = 37.45636 39.77973 38.61805
#
# Velocity S-wave (km/s) = 3.77459 3.88990 3.83268
# Velocity P-wave (km/s) = 6.63376 6.79578 6.71526
#
# Compressibility (1/GPa) = 0.01520898
#
# Stress axis : x y z
#
# Youngs Moduli (GPa) = 103.24416 91.85541 119.59781
#
# Poissons Ratio (x) = 0.21153 0.05137
# Poissons Ratio (y) = 0.23776 0.49394
# Poissons Ratio (z) = 0.04434 0.37936
#
# Static dielectric constant tensor:
#      x y z
#    x 4.893970 0.000000 0.000000 
#    y 0.000000 4.812470 0.000000 
#    z 0.000000 0.000000 5.114100 
# 
# 
# High freq. dielectric constant tensor:
#      x y z
#    x 2.045870 0.000000 0.000000 
#    y 0.000000 2.049480 0.000000 
#    z 0.000000 0.000000 2.072940 
# 
# From -- ./inp_files/2525.got.cif
#   From: 2010.03.12/outbox.cif.g09.slc.cpg/sg20_2_cif.got.tgz:2525.got - 2010.04.14 01:38:04.
