data_PCOD8160414
_publ_section_title
;
Structure prediction by ZEFSAII (Michael W. Deem and Ramdas Pophale) SiO2 
 PCOD8160414
Probable space group: C 2 2 21
;
_chemical_formula_sum "Si O2"
_cell_formula_units_Z 48
_cell_length_a 11.225245
_cell_length_b 9.091802
_cell_length_c 21.031330
_cell_angle_alpha 90.000000
_cell_angle_beta 90.000000
_cell_angle_gamma 90.000000
_cell_volume 2146.409272
_symmetry_space_group_name_H-M "C 2 2 21"
_symmetry_group_IT_number 20
_symmetry_cell_setting 'orthorhombic'
loop_
_space_group_symop_operation_xyz
x,y,z
-x,-y,1/2+z
x,-y,-z
-x,y,1/2-z
1/2+x,1/2+y,z
1/2-x,1/2-y,1/2+z
1/2+x,1/2-y,-z
1/2-x,1/2+y,1/2-z
loop_
_atom_site_type_symbol
_atom_site_label
_atom_site_fract_x
_atom_site_fract_y
_atom_site_fract_z
Si Si1 0.741132 0.156461 0.325218
Si Si2 0.384328 0.273149 0.466731
Si Si3 0.085373 0.555013 0.434751
Si Si4 0.560485 0.571540 0.090689
Si Si5 0.143097 0.386716 0.257427
Si Si6 0.349583 0.760200 0.114123
O O1 0.659258 0.165994 0.389137
O O2 0.860813 0.070126 0.345612
O O3 0.781788 0.319473 0.302147
O O4 0.678043 0.057307 0.270263
O O5 0.460677 0.126200 0.455089
O O6 0.377860 0.313570 0.541213
O O7 0.452025 0.407133 0.433706
O O8 0.255250 0.249277 0.436924
O O9 0.153844 0.500000 0.500000
O O10 0.065803 0.403978 0.396167
O O11 0.425870 0.614434 0.106154
O O12 0.192168 0.279756 0.313560
O O13 0.000000 0.373271 0.250000
#
# Coordination Sequence:
#
# PCOD8160414 Si02
#       6
#     8   8   8   8   8   8
#     4  11  25  45  72  96 138 182 229 285 340 405
#     4  11  24  41  69 101 136 174 220 277 351 410
#     4  11  22  45  68 100 139 177 221 288 345 412
#     4  11  22  42  68 100 135 175 218 281 341 401
#     4  11  24  45  67  97 134 184 229 282 336 405
#     4  11  23  44  67  95 140 175 224 281 340 399
#
# _framework density 22.362931
#
# number of rings (size 3 to 8) (size 9 to 14) (size 15 to 20)
#    0.000    1.000    6.667    1.000    0.000    4.000 
#    6.000    0.000    0.000    0.000    0.000    0.000 
#    0.000    0.000    0.000    0.000    0.000    0.000 
#
# Total GULP energy -297372.498282 kJ/mol
# GULP energy per Si atom -12390.520762 kJ/mol
# Density = 2.231203 g / cm^3
# Si number density = 22.362931 Si / 1000 Ang^3
#
#
#
# Elastic Constant Matrix: (Units=GPa)
#
#
# Indices 1 2 3 4 5 6 
#
# 1 95.2391 40.7007 20.7269 0.0000 0.0000 0.0000
# 2 40.7007 63.6399 14.4457 0.0000 0.0000 0.0000
# 3 20.7269 14.4457 75.9448 0.0000 0.0000 0.0000
# 4 0.0000 0.0000 0.0000 31.0292 0.0000 0.0000
# 5 0.0000 0.0000 0.0000 0.0000 29.0574 0.0000
# 6 0.0000 0.0000 0.0000 0.0000 0.0000 35.2636
#
#
#
# Elastic Compliance Matrix: (Units=1/GPa)
#
#
# Indices 1 2 3 4 5 6 
#
# 1 0.014838 -0.008957 -0.002346 0.000000 0.000000 0.000000
# 2 -0.008957 0.021830 -0.001708 0.000000 0.000000 0.000000
# 3 -0.002346 -0.001708 0.014133 0.000000 0.000000 0.000000
# 4 0.000000 0.000000 0.000000 0.032228 0.000000 0.000000
# 5 0.000000 0.000000 0.000000 0.000000 0.034415 0.000000
# 6 0.000000 0.000000 0.000000 0.000000 0.000000 0.028358
#
#
# Mechanical properties :
#
#
# Convention : Reuss Voigt Hill
#
# Bulk Modulus (GPa) = 40.35706 42.95225 41.65466
# Shear Modulus (GPa) = 27.76512 29.66675 28.71593
#
# Velocity S-wave (km/s) = 3.52741 3.64621 3.58730
# Velocity P-wave (km/s) = 5.88861 6.08071 5.98543
#
# Compressibility (1/GPa) = 0.02477881
#
# Stress axis : x y z
#
# Youngs Moduli (GPa) = 67.39287 45.80924 70.75874
#
# Poissons Ratio (x) = 0.41033 0.16599
# Poissons Ratio (y) = 0.60366 0.12083
# Poissons Ratio (z) = 0.15810 0.07823
#
# Static dielectric constant tensor:
#      x y z
#    x 3.776970 0.000000 0.000000 
#    y 0.000000 3.847380 0.000000 
#    z 0.000000 0.000000 4.452700 
# 
# 
# High freq. dielectric constant tensor:
#      x y z
#    x 1.868230 0.000000 0.000000 
#    y 0.000000 1.865240 0.000000 
#    z 0.000000 0.000000 1.890210 
# 
# From -- ./inp_files/28733.got.cif
#   From: 2010.03.12/outbox.cif.g09.slc.cpg/sg20_15_cif.got.tgz:28733.got - 2010.04.14 01:38:04.
