data_PCOD8160184
_publ_section_title
;
Structure prediction by ZEFSAII (Michael W. Deem and Ramdas Pophale) SiO2 
 PCOD8160184
Probable space group: C 2 2 21
;
_chemical_formula_sum "Si O2"
_cell_formula_units_Z 28
_cell_length_a 15.889702
_cell_length_b 8.911596
_cell_length_c 7.545935
_cell_angle_alpha 90.000000
_cell_angle_beta 90.000000
_cell_angle_gamma 90.000000
_cell_volume 1068.524052
_symmetry_space_group_name_H-M "C 2 2 21"
_symmetry_group_IT_number 20
_symmetry_cell_setting 'orthorhombic'
loop_
_space_group_symop_operation_xyz
x,y,z
-x,-y,1/2+z
x,-y,-z
-x,y,1/2-z
1/2+x,1/2+y,z
1/2-x,1/2-y,1/2+z
1/2+x,1/2-y,-z
1/2-x,1/2+y,1/2-z
loop_
_atom_site_type_symbol
_atom_site_label
_atom_site_fract_x
_atom_site_fract_y
_atom_site_fract_z
Si Si1 0.969888 0.836292 0.555860
Si Si2 0.500000 0.117841 0.250000
Si Si3 0.717661 0.754552 0.052934
Si Si4 0.315563 0.029160 0.240416
O O1 0.012526 0.717755 0.423980
O O2 0.869842 0.832801 0.542304
O O3 0.000000 0.794063 0.750000
O O4 0.002913 0.000000 0.500000
O O5 0.416503 0.015817 0.265229
O O6 0.789248 0.621769 0.061369
O O7 0.721914 0.862216 0.231000
O O8 0.727968 0.864841 0.888204
#
# Coordination Sequence:
#
# PCOD8160184 Si02
#       4
#     8   4   8   8
#     4  11  24  43  69 103 137 179 230 283 346 409
#     4  10  24  46  70  98 140 178 224 288 340 406
#     4  10  25  43  68  99 136 175 235 276 348 410
#     4  10  24  46  68  99 137 179 226 285 342 409
#
# _framework density 26.204370999999998
#
# number of rings (size 3 to 8) (size 9 to 14) (size 15 to 20)
#    0.000    1.714    1.429    0.000   14.000    0.000 
#    0.000    0.000    0.000    0.000    0.000    0.000 
#    0.000    0.000    0.000    0.000    0.000    0.000 
#
# Total GULP energy -173606.283899 kJ/mol
# GULP energy per Si atom -12400.448850 kJ/mol
# Density = 2.614473 g / cm^3
# Si number density = 26.204371 Si / 1000 Ang^3
#
#
#
# Elastic Constant Matrix: (Units=GPa)
#
#
# Indices 1 2 3 4 5 6 
#
# 1 73.8178 33.3282 -28.1981 0.0000 0.0000 0.0000
# 2 33.3282 125.1177 -10.6283 0.0000 0.0000 0.0000
# 3 -28.1981 -10.6283 70.7125 0.0000 0.0000 0.0000
# 4 0.0000 0.0000 0.0000 19.9838 0.0000 0.0000
# 5 0.0000 0.0000 0.0000 0.0000 37.6186 0.0000
# 6 0.0000 0.0000 0.0000 0.0000 0.0000 77.4235
#
#
#
# Elastic Compliance Matrix: (Units=1/GPa)
#
#
# Indices 1 2 3 4 5 6 
#
# 1 0.017946 -0.004226 0.006521 0.000000 0.000000 0.000000
# 2 -0.004226 0.009091 -0.000319 0.000000 0.000000 0.000000
# 3 0.006521 -0.000319 0.016694 0.000000 0.000000 0.000000
# 4 0.000000 0.000000 0.000000 0.050041 0.000000 0.000000
# 5 0.000000 0.000000 0.000000 0.000000 0.026583 0.000000
# 6 0.000000 0.000000 0.000000 0.000000 0.000000 0.012916
#
#
# Mechanical properties :
#
#
# Convention : Reuss Voigt Hill
#
# Bulk Modulus (GPa) = 20.97177 28.73908 24.85542
# Shear Modulus (GPa) = 34.43200 45.34824 39.89012
#
# Velocity S-wave (km/s) = 3.62882 4.16451 3.90586
# Velocity P-wave (km/s) = 5.05750 5.84083 5.46322
#
# Compressibility (1/GPa) = 0.04768314
#
# Stress axis : x y z
#
# Youngs Moduli (GPa) = 55.72222 109.99647 59.90073
#
# Poissons Ratio (x) = 0.46490 -0.39062
# Poissons Ratio (y) = 0.23551 0.01911
# Poissons Ratio (z) = -0.36337 0.03508
#
# Static dielectric constant tensor:
#      x y z
#    x 4.308280 0.000000 0.000000 
#    y 0.000000 4.847070 0.000000 
#    z 0.000000 0.000000 4.969610 
# 
# 
# High freq. dielectric constant tensor:
#      x y z
#    x 2.018740 0.000000 0.000000 
#    y 0.000000 2.077370 0.000000 
#    z 0.000000 0.000000 2.077790 
# 
# From -- ./inp_files/5661.got.cif
#   From: 2010.03.12/outbox.cif.g09.slc.cpg/sg20_3_cif.got.tgz:5661.got - 2010.04.14 01:38:04.
