data_PCOD8160096
_publ_section_title
;
Structure prediction by ZEFSAII (Michael W. Deem and Ramdas Pophale) SiO2 
 PCOD8160096
Probable space group: C 2 2 21
;
_chemical_formula_sum "Si O2"
_cell_formula_units_Z 40
_cell_length_a 12.428747
_cell_length_b 19.175904
_cell_length_c 8.196747
_cell_angle_alpha 90.000000
_cell_angle_beta 90.000000
_cell_angle_gamma 90.000000
_cell_volume 1953.550871
_symmetry_space_group_name_H-M "C 2 2 21"
_symmetry_group_IT_number 20
_symmetry_cell_setting 'orthorhombic'
loop_
_space_group_symop_operation_xyz
x,y,z
-x,-y,1/2+z
x,-y,-z
-x,y,1/2-z
1/2+x,1/2+y,z
1/2-x,1/2-y,1/2+z
1/2+x,1/2-y,-z
1/2-x,1/2+y,1/2-z
loop_
_atom_site_type_symbol
_atom_site_label
_atom_site_fract_x
_atom_site_fract_y
_atom_site_fract_z
Si Si1 0.204776 0.051881 0.347999
Si Si2 0.802695 0.694469 0.392298
Si Si3 0.153845 0.000000 0.000000
Si Si4 0.992118 0.123136 0.467076
Si Si5 0.500000 0.276247 0.250000
Si Si6 0.886598 0.751688 0.706076
O O1 0.293815 0.112700 0.353263
O O2 0.085306 0.084789 0.363638
O O3 0.225820 0.000000 0.500000
O O4 0.219047 0.015801 0.168559
O O5 0.824191 0.702393 0.582856
O O6 0.691848 0.736584 0.359060
O O7 0.900518 0.726890 0.291569
O O8 0.081334 0.065436 0.947624
O O9 0.040947 0.174453 0.603307
O O10 0.913609 0.170497 0.356838
O O11 0.000000 0.714322 0.750000
#
# Coordination Sequence:
#
# PCOD8160096 Si02
#       6
#     8   8   4   8   4   8
#     4  12  24  40  65  98 137 177 221 279 347 407
#     4  11  24  42  65  96 137 175 229 280 333 406
#     4  12  22  36  64 100 138 172 206 282 354 414
#     4  11  20  38  61  99 134 166 220 282 348 405
#     4  10  24  40  68  92 128 188 228 272 344 398
#     4  11  22  41  66  97 135 172 221 282 338 404
#
# _framework density 20.475536000000002
#
# number of rings (size 3 to 8) (size 9 to 14) (size 15 to 20)
#    0.000    0.800    5.000    3.000    2.800    1.600 
#    0.000    0.000    4.400    0.000    0.000    0.000 
#    0.000    0.000    0.000    0.000    0.000    0.000 
#
# Total GULP energy -247856.568682 kJ/mol
# GULP energy per Si atom -12392.828434 kJ/mol
# Density = 2.042893 g / cm^3
# Si number density = 20.475536 Si / 1000 Ang^3
#
#
#
# Elastic Constant Matrix: (Units=GPa)
#
#
# Indices 1 2 3 4 5 6 
#
# 1 87.5480 27.0720 46.1740 0.0000 0.0000 0.0000
# 2 27.0720 94.6018 52.8046 0.0000 0.0000 0.0000
# 3 46.1740 52.8046 147.9822 0.0000 0.0000 0.0000
# 4 0.0000 0.0000 0.0000 44.1550 0.0000 0.0000
# 5 0.0000 0.0000 0.0000 0.0000 37.3716 0.0000
# 6 0.0000 0.0000 0.0000 0.0000 0.0000 41.4396
#
#
#
# Elastic Compliance Matrix: (Units=1/GPa)
#
#
# Indices 1 2 3 4 5 6 
#
# 1 0.013955 -0.001952 -0.003658 0.000000 0.000000 0.000000
# 2 -0.001952 0.013473 -0.004198 0.000000 0.000000 0.000000
# 3 -0.003658 -0.004198 0.009397 0.000000 0.000000 0.000000
# 4 0.000000 0.000000 0.000000 0.022648 0.000000 0.000000
# 5 0.000000 0.000000 0.000000 0.000000 0.026758 0.000000
# 6 0.000000 0.000000 0.000000 0.000000 0.000000 0.024132
#
#
# Mechanical properties :
#
#
# Convention : Reuss Voigt Hill
#
# Bulk Modulus (GPa) = 58.11054 64.69258 61.40156
# Shear Modulus (GPa) = 36.84208 38.19866 37.52037
#
# Velocity S-wave (km/s) = 4.24644 4.32392 4.28536
# Velocity P-wave (km/s) = 7.24466 7.52276 7.38502
#
# Compressibility (1/GPa) = 0.01720858
#
# Stress axis : x y z
#
# Youngs Moduli (GPa) = 71.65867 74.22453 106.41634
#
# Poissons Ratio (x) = 0.14487 0.38926
# Poissons Ratio (y) = 0.13986 0.44678
# Poissons Ratio (z) = 0.26212 0.31163
#
# Static dielectric constant tensor:
#      x y z
#    x 3.546960 0.000000 0.000000 
#    y 0.000000 3.833230 0.000000 
#    z 0.000000 0.000000 4.035160 
# 
# 
# High freq. dielectric constant tensor:
#      x y z
#    x 1.773920 0.000000 0.000000 
#    y 0.000000 1.795600 0.000000 
#    z 0.000000 0.000000 1.821370 
# 
# From -- ./inp_files/7256.got.cif
#   From: 2010.03.12/outbox.cif.g09.slc.cpg/sg20_4_cif.got.tgz:7256.got - 2010.04.14 01:38:04.
