data_PCOD8160647
_publ_section_title
;
Structure prediction by ZEFSAII (Michael W. Deem and Ramdas Pophale) SiO2 
 PCOD8160647
Probable space group: C 2 2 21
;
_chemical_formula_sum "Si O2"
_cell_formula_units_Z 48
_cell_length_a 6.738809
_cell_length_b 13.661984
_cell_length_c 22.265830
_cell_angle_alpha 90.000000
_cell_angle_beta 90.000000
_cell_angle_gamma 90.000000
_cell_volume 2049.914788
_symmetry_space_group_name_H-M "C 2 2 21"
_symmetry_group_IT_number 20
_symmetry_cell_setting 'orthorhombic'
loop_
_space_group_symop_operation_xyz
x,y,z
-x,-y,1/2+z
x,-y,-z
-x,y,1/2-z
1/2+x,1/2+y,z
1/2-x,1/2-y,1/2+z
1/2+x,1/2-y,-z
1/2-x,1/2+y,1/2-z
loop_
_atom_site_type_symbol
_atom_site_label
_atom_site_fract_x
_atom_site_fract_y
_atom_site_fract_z
Si Si1 0.888345 0.814748 0.065796
Si Si2 0.559161 0.937512 0.108185
Si Si3 0.333617 0.000000 0.000000
Si Si4 0.068943 0.148683 0.060508
Si Si5 0.712505 0.319242 0.161058
Si Si6 0.000000 0.966136 0.250000
Si Si7 0.266629 0.395911 0.834540
O O1 0.099810 0.800059 0.097866
O O2 0.788997 0.907884 0.098835
O O3 0.726541 0.731408 0.076777
O O4 0.926338 0.824914 0.995102
O O5 0.433154 0.862231 0.149071
O O6 0.575596 0.047730 0.135869
O O7 0.468459 0.931060 0.041149
O O8 0.194653 0.947101 0.952572
O O9 0.937309 0.125096 0.117516
O O10 0.603428 0.396869 0.202050
O O11 0.713713 0.211637 0.192218
O O12 0.162650 0.035315 0.280500
#
# Coordination Sequence:
#
# PCOD8160647 Si02
#       7
#     8   8   4   8   8   4   8
#     4  12  23  46  73 113 159 199 245 313 384 470
#     4  12  24  47  74 109 156 199 251 312 377 464
#     4  12  22  38  70 112 158 200 244 294 376 464
#     4  12  23  42  75 115 157 199 248 303 387 467
#     4  12  27  52  76 109 151 201 254 321 384 449
#     4  12  30  52  76 108 146 196 270 322 368 452
#     4  12  27  49  78 111 148 202 258 311 390 448
#
# _framework density 23.415610000000001
#
# number of rings (size 3 to 8) (size 9 to 14) (size 15 to 20)
#    0.000    0.000    5.000    6.000    0.000    4.667 
#    0.000    0.000    0.000    0.000    0.000    0.000 
#    0.000    0.000    0.000    0.000    0.000    0.000 
#
# Total GULP energy -297572.597284 kJ/mol
# GULP energy per Si atom -12398.858220 kJ/mol
# Density = 2.336231 g / cm^3
# Si number density = 23.415610 Si / 1000 Ang^3
#
#
#
# Elastic Constant Matrix: (Units=GPa)
#
#
# Indices 1 2 3 4 5 6 
#
# 1 89.0424 30.6645 10.4182 0.0000 0.0000 0.0000
# 2 30.6645 140.0196 18.7406 0.0000 0.0000 0.0000
# 3 10.4182 18.7406 65.2054 0.0000 0.0000 0.0000
# 4 0.0000 0.0000 0.0000 34.4963 0.0000 0.0000
# 5 0.0000 0.0000 0.0000 0.0000 -178.4861 0.0000
# 6 0.0000 0.0000 0.0000 0.0000 0.0000 49.2702
#
#
#
# Elastic Compliance Matrix: (Units=1/GPa)
#
#
# Indices 1 2 3 4 5 6 
#
# 1 0.012241 -0.002516 -0.001233 0.000000 0.000000 0.000000
# 2 -0.002516 0.007945 -0.001881 0.000000 0.000000 0.000000
# 3 -0.001233 -0.001881 0.016074 0.000000 0.000000 0.000000
# 4 0.000000 0.000000 0.000000 0.028989 0.000000 0.000000
# 5 0.000000 0.000000 0.000000 0.000000 -0.005603 0.000000
# 6 0.000000 0.000000 0.000000 0.000000 0.000000 0.020296
#
#
# Mechanical properties :
#
#
# Convention : Reuss Voigt Hill
#
# Bulk Modulus (GPa) = 40.00045 45.99045 42.99545
# Shear Modulus (GPa) = 50.23349 -3.31430 23.45960
#
# Velocity S-wave (km/s) = 4.63676 -1.19101 3.16868
# Velocity P-wave (km/s) = 6.76653 4.21809 5.63818
#
# Compressibility (1/GPa) = 0.02499972
#
# Stress axis : x y z
#
# Youngs Moduli (GPa) = 81.69096 125.87100 62.21284
#
# Poissons Ratio (x) = 0.31667 0.07669
# Poissons Ratio (y) = 0.20552 0.11705
# Poissons Ratio (z) = 0.10071 0.23681
#
# Static dielectric constant tensor:
#      x y z
#    x 4.335150 0.000000 0.000000 
#    y 0.000000 25.134520 0.000000 
#    z 0.000000 0.000000 3.166900 
# 
# 
# High freq. dielectric constant tensor:
#      x y z
#    x 1.935530 0.000000 0.000000 
#    y 0.000000 1.947050 0.000000 
#    z 0.000000 0.000000 1.912460 
# 
# From -- ./inp_files/29859.got.cif
#   From: 2010.03.12/outbox.cif.g09.slc.cpg/sg20_15_cif.got.tgz:29859.got - 2010.04.14 01:38:04.
