data_PCOD8160937
_publ_section_title
;
Structure prediction by ZEFSAII (Michael W. Deem and Ramdas Pophale) SiO2 
 PCOD8160937
Probable space group: C 2 2 2
;
_chemical_formula_sum "Si O2"
_cell_formula_units_Z 64
_cell_length_a 13.112975
_cell_length_b 28.631867
_cell_length_c 9.373428
_cell_angle_alpha 90.000000
_cell_angle_beta 90.000000
_cell_angle_gamma 90.000000
_cell_volume 3519.243758
_symmetry_space_group_name_H-M "C 2 2 2"
_symmetry_group_IT_number 21
_symmetry_cell_setting 'orthorhombic'
loop_
_space_group_symop_operation_xyz
x,y,z
-x,-y,z
x,-y,-z
-x,y,-z
1/2+x,1/2+y,z
1/2-x,1/2-y,z
1/2+x,1/2-y,-z
1/2-x,1/2+y,-z
loop_
_atom_site_type_symbol
_atom_site_label
_atom_site_fract_x
_atom_site_fract_y
_atom_site_fract_z
Si Si1 0.325525 0.708136 0.847092
Si Si2 0.383745 0.944949 0.662941
Si Si3 1.000000 0.900584 0.336712
Si Si4 0.825525 0.791864 0.847092
Si Si5 0.500000 0.710126 0.654273
Si Si6 0.296026 0.603242 0.168686
Si Si7 0.296026 0.396758 0.168686
Si Si8 0.616255 0.055051 0.337059
O O1 0.250000 0.750000 0.867004
O O2 0.401327 0.728978 0.731975
O O3 0.278387 0.658395 0.800332
O O4 0.380433 0.699112 0.000000
O O5 0.304521 0.921142 0.770119
O O6 0.359552 0.929944 0.500000
O O7 0.500000 0.930168 0.702384
O O8 0.371634 1.000000 0.679632
O O9 1.000000 0.845313 0.345473
O O10 0.102067 0.915881 0.250171
O O11 0.000000 0.921116 0.500000
O O12 0.897933 0.915881 0.250171
O O13 0.750000 0.750000 0.867004
O O14 0.901327 0.771022 0.731975
O O15 0.778387 0.841605 0.800332
O O16 0.500000 0.732828 0.500000
O O17 0.195479 0.578858 0.229881
O O18 0.306253 0.592208 1.000000
#
# Coordination Sequence:
#
# PCOD8160937 Si02
#       8
#     8   8   8   8   8   8   8   8
#     4   9  18  33  50  69  98 138 173 203 248 308
#     4   9  19  37  58  77 102 140 178 210 257 320
#     4   9  17  31  52  74 101 137 169 203 253 312
#     4   9  18  33  50  69  98 138 173 203 248 308
#     4   9  17  29  47  70  94 125 166 210 252 292
#     4  10  19  32  53  80 105 132 173 220 262 304
#     4  10  19  32  53  80 105 132 173 220 262 304
#     4   9  19  37  58  77 102 140 178 210 257 320
#
# _framework density 18.185724
#
# number of rings (size 3 to 8) (size 9 to 14) (size 15 to 20)
#    0.000    2.750    0.000    2.250    0.000    5.500 
#    2.250    1.875    0.000    3.750    0.000    0.000 
#    0.000    0.000    0.000    0.000    0.000    0.000 
#
# Total GULP energy -396446.694417 kJ/mol
# GULP energy per Si atom -12388.959201 kJ/mol
# Density = 1.814433 g / cm^3
# Si number density = 18.185724 Si / 1000 Ang^3
#
#
#
# Elastic Constant Matrix: (Units=GPa)
#
#
# Indices 1 2 3 4 5 6 
#
# 1 132.1034 38.9142 84.3220 0.0000 0.0000 0.0000
# 2 38.9142 43.2848 32.8938 0.0000 0.0000 0.0000
# 3 84.3220 32.8938 148.2387 0.0000 0.0000 0.0000
# 4 0.0000 0.0000 0.0000 21.9537 0.0000 0.0000
# 5 0.0000 0.0000 0.0000 0.0000 39.2379 0.0000
# 6 0.0000 0.0000 0.0000 0.0000 0.0000 21.1977
#
#
#
# Elastic Compliance Matrix: (Units=1/GPa)
#
#
# Indices 1 2 3 4 5 6 
#
# 1 0.013737 -0.007712 -0.006103 0.000000 0.000000 0.000000
# 2 -0.007712 0.032119 -0.002740 0.000000 0.000000 0.000000
# 3 -0.006103 -0.002740 0.010825 0.000000 0.000000 0.000000
# 4 0.000000 0.000000 0.000000 0.045550 0.000000 0.000000
# 5 0.000000 0.000000 0.000000 0.000000 0.025486 0.000000
# 6 0.000000 0.000000 0.000000 0.000000 0.000000 0.047175
#
#
# Mechanical properties :
#
#
# Convention : Reuss Voigt Hill
#
# Bulk Modulus (GPa) = 42.42526 70.65410 56.53968
# Shear Modulus (GPa) = 23.16330 27.64433 25.40381
#
# Velocity S-wave (km/s) = 3.57278 3.90309 3.74158
# Velocity P-wave (km/s) = 6.35603 7.69727 7.05858
#
# Compressibility (1/GPa) = 0.02357087
#
# Stress axis : x y z
#
# Youngs Moduli (GPa) = 72.79617 31.13450 92.37683
#
# Poissons Ratio (x) = 0.24012 0.56374
# Poissons Ratio (y) = 0.56143 0.25312
# Poissons Ratio (z) = 0.44425 0.08531
#
# Static dielectric constant tensor:
#      x y z
#    x 3.397890 0.000000 0.000000 
#    y 0.000000 3.016220 0.000000 
#    z 0.000000 0.000000 3.796880 
# 
# 
# High freq. dielectric constant tensor:
#      x y z
#    x 1.703530 0.000000 0.000000 
#    y 0.000000 1.674830 0.000000 
#    z 0.000000 0.000000 1.720960 
# 
# From -- ./inp_files/13664.got.cif
#   From: 2010.03.12/outbox.cif.g09.slc.cpg/sg21_7_cif.got.tgz:13664.got - 2010.04.14 01:59:26.
