data_PCOD8160723
_publ_section_title
;
Structure prediction by ZEFSAII (Michael W. Deem and Ramdas Pophale) SiO2 
 PCOD8160723
Probable space group: C 2 2 21
;
_chemical_formula_sum "Si O2"
_cell_formula_units_Z 32
_cell_length_a 10.079660
_cell_length_b 7.282563
_cell_length_c 17.987567
_cell_angle_alpha 90.000000
_cell_angle_beta 90.000000
_cell_angle_gamma 90.000000
_cell_volume 1320.391008
_symmetry_space_group_name_H-M "C 2 2 21"
_symmetry_group_IT_number 20
_symmetry_cell_setting 'orthorhombic'
loop_
_space_group_symop_operation_xyz
x,y,z
-x,-y,1/2+z
x,-y,-z
-x,y,1/2-z
1/2+x,1/2+y,z
1/2-x,1/2-y,1/2+z
1/2+x,1/2-y,-z
1/2-x,1/2+y,1/2-z
loop_
_atom_site_type_symbol
_atom_site_label
_atom_site_fract_x
_atom_site_fract_y
_atom_site_fract_z
Si Si1 0.869407 0.548197 0.710436
Si Si2 0.643382 0.319095 0.922788
Si Si3 0.197446 0.169046 0.840887
Si Si4 0.360048 0.297680 0.973704
O O1 0.833455 0.668958 0.639794
O O2 0.894544 0.337439 0.685372
O O3 0.750481 0.558506 0.769484
O O4 0.000000 0.625346 0.750000
O O5 0.613726 0.520976 0.888536
O O6 0.519196 0.266010 0.976251
O O7 0.778946 0.335689 0.970655
O O8 0.316891 0.257926 0.888898
O O9 0.319420 0.500000 0.000000
#
# Coordination Sequence:
#
# PCOD8160723 Si02
#       4
#     8   8   8   8
#     4  12  26  47  78 111 151 201 262 315 383 453
#     4  12  28  50  79 115 154 203 256 320 381 458
#     4  12  26  48  78 111 148 203 258 317 381 459
#     4  12  26  49  78 113 155 203 255 315 383 462
#
# _framework density 24.235244000000002
#
# number of rings (size 3 to 8) (size 9 to 14) (size 15 to 20)
#    0.000    0.000    7.500    2.250    0.000    9.000 
#    4.500    0.000    0.000    0.000    0.000    0.000 
#    0.000    0.000    0.000    0.000    0.000    0.000 
#
# Total GULP energy -198453.106426 kJ/mol
# GULP energy per Si atom -12403.319152 kJ/mol
# Density = 2.418008 g / cm^3
# Si number density = 24.235244 Si / 1000 Ang^3
#
#
#
# Elastic Constant Matrix: (Units=GPa)
#
#
# Indices 1 2 3 4 5 6 
#
# 1 117.8727 17.1488 58.2291 0.0000 0.0000 0.0000
# 2 17.1488 130.2600 51.6334 0.0000 0.0000 0.0000
# 3 58.2291 51.6334 137.2981 0.0000 0.0000 0.0000
# 4 0.0000 0.0000 0.0000 51.9662 0.0000 0.0000
# 5 0.0000 0.0000 0.0000 0.0000 36.5853 0.0000
# 6 0.0000 0.0000 0.0000 0.0000 0.0000 27.6937
#
#
#
# Elastic Compliance Matrix: (Units=1/GPa)
#
#
# Indices 1 2 3 4 5 6 
#
# 1 0.010756 0.000461 -0.004735 0.000000 0.000000 0.000000
# 2 0.000461 0.009042 -0.003596 0.000000 0.000000 0.000000
# 3 -0.004735 -0.003596 0.010644 0.000000 0.000000 0.000000
# 4 0.000000 0.000000 0.000000 0.019243 0.000000 0.000000
# 5 0.000000 0.000000 0.000000 0.000000 0.027333 0.000000
# 6 0.000000 0.000000 0.000000 0.000000 0.000000 0.036109
#
#
# Mechanical properties :
#
#
# Convention : Reuss Voigt Hill
#
# Bulk Modulus (GPa) = 68.01994 71.05038 69.53516
# Shear Modulus (GPa) = 37.37847 40.47703 38.92775
#
# Velocity S-wave (km/s) = 3.93150 4.09121 4.01215
# Velocity P-wave (km/s) = 6.98114 7.19013 7.08641
#
# Compressibility (1/GPa) = 0.01470157
#
# Stress axis : x y z
#
# Youngs Moduli (GPa) = 92.97386 110.60034 93.95201
#
# Poissons Ratio (x) = -0.05097 0.44485
# Poissons Ratio (y) = -0.04285 0.33782
# Poissons Ratio (z) = 0.44022 0.39768
#
# Static dielectric constant tensor:
#      x y z
#    x 3.914170 0.000000 0.000000 
#    y 0.000000 4.363030 0.000000 
#    z 0.000000 0.000000 4.543790 
# 
# 
# High freq. dielectric constant tensor:
#      x y z
#    x 1.935960 0.000000 0.000000 
#    y 0.000000 1.974210 0.000000 
#    z 0.000000 0.000000 1.981560 
# 
# From -- ./inp_files/19518.got.cif
#   From: 2010.03.12/outbox.cif.g09.slc.cpg/sg20_10_cif.got.tgz:19518.got - 2010.04.14 01:38:04.
