data_PCOD8160941
_publ_section_title
;
Structure prediction by ZEFSAII (Michael W. Deem and Ramdas Pophale) SiO2 
 PCOD8160941
Probable space group: C 2 2 2
;
_chemical_formula_sum "Si O2"
_cell_formula_units_Z 58
_cell_length_a 10.686527
_cell_length_b 10.686528
_cell_length_c 25.232528
_cell_angle_alpha 90.000000
_cell_angle_beta 90.000000
_cell_angle_gamma 90.000000
_cell_volume 2881.601883
_symmetry_space_group_name_H-M "C 2 2 2"
_symmetry_group_IT_number 21
_symmetry_cell_setting 'orthorhombic'
loop_
_space_group_symop_operation_xyz
x,y,z
-x,-y,z
x,-y,-z
-x,y,-z
1/2+x,1/2+y,z
1/2-x,1/2-y,z
1/2+x,1/2-y,-z
1/2-x,1/2+y,-z
loop_
_atom_site_type_symbol
_atom_site_label
_atom_site_fract_x
_atom_site_fract_y
_atom_site_fract_z
Si Si1 0.049710 0.256975 0.941030
Si Si2 0.895940 0.895940 0.250713
Si Si3 0.256975 0.950290 0.058970
Si Si4 0.251046 0.953788 0.330831
Si Si5 0.000000 0.500000 0.500000
Si Si6 0.893883 0.893883 0.132624
Si Si7 0.546212 0.751046 0.669169
Si Si8 0.147225 0.647225 0.586585
O O1 0.158104 0.158104 0.932267
O O2 0.103658 0.396342 0.931527
O O3 0.941542 0.229612 0.898236
O O4 0.000000 0.243443 0.000000
O O5 0.777668 0.952716 0.282214
O O6 0.854008 0.854008 0.192051
O O7 0.952716 0.777668 0.282214
O O8 0.000000 0.000000 0.244352
O O9 0.229612 0.058458 0.101764
O O10 0.243443 0.000000 0.000000
O O11 0.287497 0.035185 0.381437
O O12 0.365951 0.865951 0.313366
O O13 0.129262 0.870738 0.345520
O O14 0.910701 0.410701 0.533947
O O15 0.000000 0.000000 0.132493
O O16 0.464815 0.787497 0.618563
O O17 0.250000 0.750000 0.570686
#
# Coordination Sequence:
#
# PCOD8160941 Si02
#       8
#     8   8   8   8   2   8   8   8
#     4  10  19  32  55  80 106 153 200 243 310 378
#     4   9  18  33  57  95 124 161 209 258 304 369
#     4  10  19  32  55  80 106 153 200 243 310 378
#     4  10  20  37  65  94 125 167 214 252 310 378
#     4  12  28  44  60 104 132 164 220 268 302 364
#     4   9  18  32  54  86 126 152 200 258 303 364
#     4  10  20  37  65  94 125 167 214 252 310 378
#     4  12  24  42  68  94 130 174 214 260 313 366
#
# _framework density 20.127693000000001
#
# number of rings (size 3 to 8) (size 9 to 14) (size 15 to 20)
#    0.000    1.931    4.138    0.000    0.000    2.483 
#    0.000    5.517    6.069    0.000    0.000    0.000 
#    0.000    0.000    0.000    0.000    0.000    0.000 
#
# Total GULP energy -359541.722881 kJ/mol
# GULP energy per Si atom -12397.990444 kJ/mol
# Density = 2.008188 g / cm^3
# Si number density = 20.127693 Si / 1000 Ang^3
#
#
#
# Elastic Constant Matrix: (Units=GPa)
#
#
# Indices 1 2 3 4 5 6 
#
# 1 77.8947 49.2355 59.0498 0.0000 0.0000 0.0000
# 2 49.2355 77.8947 59.0498 0.0000 0.0000 0.0000
# 3 59.0498 59.0498 176.5279 0.0000 0.0000 0.0000
# 4 0.0000 0.0000 0.0000 -9.5613 0.0000 0.0000
# 5 0.0000 0.0000 0.0000 0.0000 -9.5612 0.0000
# 6 0.0000 0.0000 0.0000 0.0000 0.0000 29.2806
#
#
#
# Elastic Compliance Matrix: (Units=1/GPa)
#
#
# Indices 1 2 3 4 5 6 
#
# 1 0.023153 -0.011740 -0.003817 0.000000 0.000000 0.000000
# 2 -0.011740 0.023153 -0.003817 0.000000 0.000000 0.000000
# 3 -0.003817 -0.003817 0.008219 0.000000 0.000000 0.000000
# 4 0.000000 0.000000 0.000000 -0.104589 0.000000 0.000000
# 5 0.000000 0.000000 0.000000 0.000000 -0.104589 0.000000
# 6 0.000000 0.000000 0.000000 0.000000 0.000000 0.034152
#
#
# Mechanical properties :
#
#
# Convention : Reuss Voigt Hill
#
# Bulk Modulus (GPa) = 63.39794 74.10973 68.75384
# Shear Modulus (GPa) = -65.36507 13.03042 -26.16732
#
# Velocity S-wave (km/s) = -5.70488 2.54714 -3.60955
# Velocity P-wave (km/s) = 3.43919 6.74910 4.10623
#
# Compressibility (1/GPa) = 0.01577338
#
# Stress axis : x y z
#
# Youngs Moduli (GPa) = 43.19180 43.19181 121.67253
#
# Poissons Ratio (x) = 0.50708 0.46448
# Poissons Ratio (y) = 0.50708 0.46448
# Poissons Ratio (z) = 0.16488 0.16488
#
# Static dielectric constant tensor:
#      x y z
#    x 3.935480 0.000000 0.000000 
#    y 0.000000 3.935480 0.000000 
#    z 0.000000 0.000000 3.657110 
# 
# 
# High freq. dielectric constant tensor:
#      x y z
#    x 1.790030 0.000000 0.000000 
#    y 0.000000 1.790030 0.000000 
#    z 0.000000 0.000000 1.770310 
# 
# From -- ./inp_files/39264.got.cif
#   From: 2010.03.12/outbox.cif.g09.slc.cpg/sg21_20_cif.got.tgz:39264.got - 2010.04.14 01:59:26.
