data_PCOD8160409
_publ_section_title
;
Structure prediction by ZEFSAII (Michael W. Deem and Ramdas Pophale) SiO2 
 PCOD8160409
Probable space group: C 2 2 21
;
_chemical_formula_sum "Si O2"
_cell_formula_units_Z 56
_cell_length_a 7.500475
_cell_length_b 15.648294
_cell_length_c 21.345024
_cell_angle_alpha 90.000000
_cell_angle_beta 90.000000
_cell_angle_gamma 90.000000
_cell_volume 2505.257739
_symmetry_space_group_name_H-M "C 2 2 21"
_symmetry_group_IT_number 20
_symmetry_cell_setting 'orthorhombic'
loop_
_space_group_symop_operation_xyz
x,y,z
-x,-y,1/2+z
x,-y,-z
-x,y,1/2-z
1/2+x,1/2+y,z
1/2-x,1/2-y,1/2+z
1/2+x,1/2-y,-z
1/2-x,1/2+y,1/2-z
loop_
_atom_site_type_symbol
_atom_site_label
_atom_site_fract_x
_atom_site_fract_y
_atom_site_fract_z
Si Si1 0.407150 0.313767 0.189969
Si Si2 0.258444 0.972995 0.568860
Si Si3 0.641818 0.521696 0.069214
Si Si4 0.781064 0.707570 0.081896
Si Si5 0.085080 0.567367 0.813157
Si Si6 0.731953 0.861709 0.375063
Si Si7 0.678696 0.788473 0.961170
O O1 0.500000 0.269720 0.250000
O O2 0.292883 0.244671 0.151753
O O3 0.273247 0.390943 0.207461
O O4 0.575530 0.348427 0.153519
O O5 0.222133 0.871393 0.565595
O O6 0.061321 0.010662 0.579341
O O7 0.337403 0.000000 0.500000
O O8 0.380983 0.002459 0.627884
O O9 0.670629 0.620478 0.085728
O O10 0.773263 0.462334 0.108773
O O11 0.701545 0.500000 0.000000
O O12 0.976800 0.693358 0.055852
O O13 0.687304 0.777521 0.036520
O O14 0.000000 0.522737 0.750000
O O15 0.946515 0.644240 0.832624
O O16 0.724130 0.795049 0.432475
#
# Coordination Sequence:
#
# PCOD8160409 Si02
#       7
#     8   8   8   8   8   8   8
#     4  11  24  47  68 101 142 184 237 295 349 426
#     4  11  25  42  68 107 146 186 236 299 360 428
#     4  11  22  42  66 106 149 181 228 296 363 426
#     4  11  24  39  70 103 146 187 229 302 362 423
#     4  12  25  44  78 100 137 195 240 285 364 427
#     4  11  24  43  69 102 140 182 234 286 352 422
#     4  11  24  40  65 106 142 178 236 288 360 426
#
# _framework density 22.352988
#
# number of rings (size 3 to 8) (size 9 to 14) (size 15 to 20)
#    0.000    0.857    4.286    2.571   10.000    1.143 
#    0.000    6.429    0.000    1.714    0.000    0.000 
#    0.000    0.000    0.000    0.000    0.000    0.000 
#
# Total GULP energy -346913.316151 kJ/mol
# GULP energy per Si atom -12389.761291 kJ/mol
# Density = 2.230211 g / cm^3
# Si number density = 22.352988 Si / 1000 Ang^3
#
#
#
# Elastic Constant Matrix: (Units=GPa)
#
#
# Indices 1 2 3 4 5 6 
#
# 1 64.2094 22.8140 28.9097 0.0000 0.0000 0.0000
# 2 22.8140 106.8018 57.7924 0.0000 0.0000 0.0000
# 3 28.9097 57.7924 157.5363 0.0000 0.0000 0.0000
# 4 0.0000 0.0000 0.0000 25.1337 0.0000 0.0000
# 5 0.0000 0.0000 0.0000 0.0000 -52.9951 0.0000
# 6 0.0000 0.0000 0.0000 0.0000 0.0000 23.9908
#
#
#
# Elastic Compliance Matrix: (Units=1/GPa)
#
#
# Indices 1 2 3 4 5 6 
#
# 1 0.017494 -0.002495 -0.002295 0.000000 0.000000 0.000000
# 2 -0.002495 0.012038 -0.003958 0.000000 0.000000 0.000000
# 3 -0.002295 -0.003958 0.008221 0.000000 0.000000 0.000000
# 4 0.000000 0.000000 0.000000 0.039787 0.000000 0.000000
# 5 0.000000 0.000000 0.000000 0.000000 -0.018870 0.000000
# 6 0.000000 0.000000 0.000000 0.000000 0.000000 0.041683
#
#
# Mechanical properties :
#
#
# Convention : Reuss Voigt Hill
#
# Bulk Modulus (GPa) = 49.36754 60.84219 55.10487
# Shear Modulus (GPa) = 40.12783 13.82796 26.97789
#
# Velocity S-wave (km/s) = 4.24156 2.48990 3.47782
# Velocity P-wave (km/s) = 6.79126 5.96188 6.39004
#
# Compressibility (1/GPa) = 0.02025622
#
# Stress axis : x y z
#
# Youngs Moduli (GPa) = 57.16301 83.07024 121.63947
#
# Poissons Ratio (x) = 0.20726 0.27917
# Poissons Ratio (y) = 0.14262 0.48149
# Poissons Ratio (z) = 0.13119 0.32882
#
# Static dielectric constant tensor:
#      x y z
#    x 4.112710 0.000000 0.000000 
#    y 0.000000 4.713780 0.000000 
#    z 0.000000 0.000000 4.556840 
# 
# 
# High freq. dielectric constant tensor:
#      x y z
#    x 1.905920 0.000000 0.000000 
#    y 0.000000 1.856580 0.000000 
#    z 0.000000 0.000000 1.873380 
# 
# From -- ./inp_files/26732.got.cif
#   From: 2010.03.12/outbox.cif.g09.slc.cpg/sg20_14_cif.got.tgz:26732.got - 2010.04.14 01:38:04.
