data_PCOD8160348
_publ_section_title
;
Structure prediction by ZEFSAII (Michael W. Deem and Ramdas Pophale) SiO2 
 PCOD8160348
Probable space group: C 2 2 21
;
_chemical_formula_sum "Si O2"
_cell_formula_units_Z 60
_cell_length_a 8.288531
_cell_length_b 14.359705
_cell_length_c 21.185017
_cell_angle_alpha 90.000000
_cell_angle_beta 90.000000
_cell_angle_gamma 90.000000
_cell_volume 2521.458943
_symmetry_space_group_name_H-M "C 2 2 21"
_symmetry_group_IT_number 20
_symmetry_cell_setting 'orthorhombic'
loop_
_space_group_symop_operation_xyz
x,y,z
-x,-y,1/2+z
x,-y,-z
-x,y,1/2-z
1/2+x,1/2+y,z
1/2-x,1/2-y,1/2+z
1/2+x,1/2-y,-z
1/2-x,1/2+y,1/2-z
loop_
_atom_site_type_symbol
_atom_site_label
_atom_site_fract_x
_atom_site_fract_y
_atom_site_fract_z
Si Si1 0.599436 0.318725 0.097986
Si Si2 0.222535 0.504153 0.427494
Si Si3 0.770049 0.345647 0.534641
Si Si4 0.500000 0.330739 0.750000
Si Si5 0.158964 0.707700 0.214718
Si Si6 0.049715 0.839370 0.887367
Si Si7 0.404660 0.971542 0.638400
Si Si8 0.763018 0.344660 0.390968
O O1 0.644289 0.424736 0.084924
O O2 0.641798 0.255806 0.036811
O O3 0.701211 0.270167 0.153928
O O4 0.415908 0.307149 0.120889
O O5 0.160534 0.500000 0.500000
O O6 0.302617 0.603549 0.415498
O O7 0.086262 0.491722 0.373936
O O8 0.589434 0.341954 0.561043
O O9 0.870153 0.420651 0.572861
O O10 0.770320 0.378696 0.463147
O O11 0.676547 0.280010 0.756022
O O12 0.488879 0.382268 0.818812
O O13 0.119392 0.599707 0.196413
O O14 0.000000 0.746712 0.250000
O O15 0.104407 0.733265 0.875772
O O16 0.296175 0.063151 0.651026
#
# Coordination Sequence:
#
# PCOD8160348 Si02
#       8
#     8   8   8   4   8   8   8   8
#     4  11  24  41  65 103 137 176 242 281 352 429
#     4  12  24  42  68 105 145 186 233 300 371 441
#     4  11  21  42  65 100 140 179 231 287 361 430
#     4  12  24  50  76  92 146 190 242 296 354 442
#     4  11  25  51  73  99 139 191 245 305 356 427
#     4  12  25  44  70 100 139 194 236 291 369 424
#     4  11  24  42  66 105 140 180 236 285 365 431
#     4  12  23  39  68 102 140 181 225 298 358 430
#
# _framework density 23.795749000000001
#
# number of rings (size 3 to 8) (size 9 to 14) (size 15 to 20)
#    0.000    0.533    2.667    8.400    0.000    0.000 
#    2.400    2.667    0.000    0.000    0.000    0.000 
#    0.000    0.000    0.000    0.000    0.000    0.000 
#
# Total GULP energy -371866.721204 kJ/mol
# GULP energy per Si atom -12395.557373 kJ/mol
# Density = 2.374159 g / cm^3
# Si number density = 23.795749 Si / 1000 Ang^3
#
#
#
# Elastic Constant Matrix: (Units=GPa)
#
#
# Indices 1 2 3 4 5 6 
#
# 1 117.3398 -3.7739 -1.5136 0.0000 0.0000 0.0000
# 2 -3.7739 91.0878 3.7255 0.0000 0.0000 0.0000
# 3 -1.5136 3.7255 60.7743 0.0000 0.0000 0.0000
# 4 0.0000 0.0000 0.0000 19.6777 0.0000 0.0000
# 5 0.0000 0.0000 0.0000 0.0000 38.9797 0.0000
# 6 0.0000 0.0000 0.0000 0.0000 0.0000 34.8363
#
#
#
# Elastic Compliance Matrix: (Units=1/GPa)
#
#
# Indices 1 2 3 4 5 6 
#
# 1 0.008536 0.000346 0.000191 0.000000 0.000000 0.000000
# 2 0.000346 0.011020 -0.000667 0.000000 0.000000 0.000000
# 3 0.000191 -0.000667 0.016500 0.000000 0.000000 0.000000
# 4 0.000000 0.000000 0.000000 0.050819 0.000000 0.000000
# 5 0.000000 0.000000 0.000000 0.000000 0.025654 0.000000
# 6 0.000000 0.000000 0.000000 0.000000 0.000000 0.028706
#
#
# Mechanical properties :
#
#
# Convention : Reuss Voigt Hill
#
# Bulk Modulus (GPa) = 27.93575 29.56422 28.74998
# Shear Modulus (GPa) = 32.58890 36.74966 34.66928
#
# Velocity S-wave (km/s) = 3.70473 3.93412 3.82115
# Velocity P-wave (km/s) = 5.48318 5.75218 5.61929
#
# Compressibility (1/GPa) = 0.03579642
#
# Stress axis : x y z
#
# Youngs Moduli (GPa) = 117.15293 90.74388 60.60619
#
# Poissons Ratio (x) = -0.03138 -0.01160
# Poissons Ratio (y) = -0.04051 0.04042
# Poissons Ratio (z) = -0.02242 0.06052
#
# Static dielectric constant tensor:
#      x y z
#    x 4.388550 0.000000 0.000000 
#    y 0.000000 4.001300 0.000000 
#    z 0.000000 0.000000 4.228170 
# 
# 
# High freq. dielectric constant tensor:
#      x y z
#    x 1.960760 0.000000 0.000000 
#    y 0.000000 1.924020 0.000000 
#    z 0.000000 0.000000 1.940730 
# 
# From -- ./inp_files/28850.got.cif
#   From: 2010.03.12/outbox.cif.g09.slc.cpg/sg20_15_cif.got.tgz:28850.got - 2010.04.14 01:38:04.
