data_PCOD8160474
_publ_section_title
;
Structure prediction by ZEFSAII (Michael W. Deem and Ramdas Pophale) SiO2 
 PCOD8160474
Probable space group: C 2 2 21
;
_chemical_formula_sum "Si O2"
_cell_formula_units_Z 40
_cell_length_a 13.298128
_cell_length_b 5.006649
_cell_length_c 24.779954
_cell_angle_alpha 90.000000
_cell_angle_beta 90.000000
_cell_angle_gamma 90.000000
_cell_volume 1649.826026
_symmetry_space_group_name_H-M "C 2 2 21"
_symmetry_group_IT_number 20
_symmetry_cell_setting 'orthorhombic'
loop_
_space_group_symop_operation_xyz
x,y,z
-x,-y,1/2+z
x,-y,-z
-x,y,1/2-z
1/2+x,1/2+y,z
1/2-x,1/2-y,1/2+z
1/2+x,1/2-y,-z
1/2-x,1/2+y,1/2-z
loop_
_atom_site_type_symbol
_atom_site_label
_atom_site_fract_x
_atom_site_fract_y
_atom_site_fract_z
Si Si1 0.996574 0.239450 0.964123
Si Si2 0.908884 0.731565 0.658551
Si Si3 0.386879 0.030950 0.874797
Si Si4 0.823264 0.773760 0.392827
Si Si5 0.186050 0.471204 0.259039
O O1 0.925803 0.287186 0.911774
O O2 0.109750 0.161717 0.945642
O O3 0.999434 0.500000 0.000000
O O4 0.951616 0.000000 0.000000
O O5 0.840169 0.533076 0.622929
O O6 0.904443 0.630494 0.720399
O O7 0.021889 0.739236 0.635269
O O8 0.860314 0.024782 0.654719
O O9 0.294746 0.180473 0.904561
O O10 0.354900 0.918809 0.816106
O O11 0.242987 0.714641 0.229763
#
# Coordination Sequence:
#
# PCOD8160474 Si02
#       5
#     8   8   8   8   8
#     4  11  26  49  71 102 137 181 245 308 357 415
#     4  11  23  43  67 107 145 184 225 282 335 433
#     4  11  25  45  76 102 142 191 236 284 359 425
#     4  11  24  45  71  98 140 179 232 290 351 416
#     4  12  23  42  69 107 151 189 227 279 353 428
#
# _framework density 24.244980999999999
#
# number of rings (size 3 to 8) (size 9 to 14) (size 15 to 20)
#    0.000    0.800    4.000    3.000    0.000   10.400 
#    0.000   12.000    0.000    0.000    0.000    0.000 
#    0.000    0.000    0.000    0.000    0.000    0.000 
#
# Total GULP energy -248016.109111 kJ/mol
# GULP energy per Si atom -12400.805456 kJ/mol
# Density = 2.418980 g / cm^3
# Si number density = 24.244981 Si / 1000 Ang^3
#
#
#
# Elastic Constant Matrix: (Units=GPa)
#
#
# Indices 1 2 3 4 5 6 
#
# 1 161.9220 42.1055 36.0968 0.0000 0.0000 0.0000
# 2 42.1055 111.9734 42.0289 0.0000 0.0000 0.0000
# 3 36.0968 42.0289 124.3884 0.0000 0.0000 0.0000
# 4 0.0000 0.0000 0.0000 33.9122 0.0000 0.0000
# 5 0.0000 0.0000 0.0000 0.0000 75.7648 0.0000
# 6 0.0000 0.0000 0.0000 0.0000 0.0000 23.0407
#
#
#
# Elastic Compliance Matrix: (Units=1/GPa)
#
#
# Indices 1 2 3 4 5 6 
#
# 1 0.007028 -0.002150 -0.001313 0.000000 0.000000 0.000000
# 2 -0.002150 0.010885 -0.003054 0.000000 0.000000 0.000000
# 3 -0.001313 -0.003054 0.009452 0.000000 0.000000 0.000000
# 4 0.000000 0.000000 0.000000 0.029488 0.000000 0.000000
# 5 0.000000 0.000000 0.000000 0.000000 0.013199 0.000000
# 6 0.000000 0.000000 0.000000 0.000000 0.000000 0.043401
#
#
# Mechanical properties :
#
#
# Convention : Reuss Voigt Hill
#
# Bulk Modulus (GPa) = 69.77652 70.97181 70.37416
# Shear Modulus (GPa) = 38.09109 45.08039 41.58574
#
# Velocity S-wave (km/s) = 3.96800 4.31672 4.14603
# Velocity P-wave (km/s) = 7.05944 7.36083 7.21170
#
# Compressibility (1/GPa) = 0.01433147
#
# Stress axis : x y z
#
# Youngs Moduli (GPa) = 142.29768 91.86584 105.79421
#
# Poissons Ratio (x) = 0.19749 0.13891
# Poissons Ratio (y) = 0.30590 0.32311
# Poissons Ratio (z) = 0.18683 0.28057
#
# Static dielectric constant tensor:
#      x y z
#    x 4.546380 0.000000 0.000000 
#    y 0.000000 3.698950 0.000000 
#    z 0.000000 0.000000 4.272820 
# 
# 
# High freq. dielectric constant tensor:
#      x y z
#    x 1.959750 0.000000 0.000000 
#    y 0.000000 1.957380 0.000000 
#    z 0.000000 0.000000 1.963160 
# 
# From -- ./inp_files/30216.got.cif
#   From: 2010.03.12/outbox.cif.g09.slc.cpg/sg20_16_cif.got.tgz:30216.got - 2010.04.14 01:38:04.
