data_PCOD8160744
_publ_section_title
;
Structure prediction by ZEFSAII (Michael W. Deem and Ramdas Pophale) SiO2 
 PCOD8160744
Probable space group: C 2 2 21
;
_chemical_formula_sum "Si O2"
_cell_formula_units_Z 32
_cell_length_a 8.646292
_cell_length_b 28.064215
_cell_length_c 5.176561
_cell_angle_alpha 90.000000
_cell_angle_beta 90.000000
_cell_angle_gamma 90.000000
_cell_volume 1256.099762
_symmetry_space_group_name_H-M "C 2 2 21"
_symmetry_group_IT_number 20
_symmetry_cell_setting 'orthorhombic'
loop_
_space_group_symop_operation_xyz
x,y,z
-x,-y,1/2+z
x,-y,-z
-x,y,1/2-z
1/2+x,1/2+y,z
1/2-x,1/2-y,1/2+z
1/2+x,1/2-y,-z
1/2-x,1/2+y,1/2-z
loop_
_atom_site_type_symbol
_atom_site_label
_atom_site_fract_x
_atom_site_fract_y
_atom_site_fract_z
Si Si1 0.500000 0.154205 0.250000
Si Si2 0.755501 0.409493 0.462311
Si Si3 0.250019 0.781062 0.972999
Si Si4 0.000000 0.841261 0.250000
Si Si5 0.000000 0.532303 0.750000
Si Si6 0.910031 0.000000 0.000000
O O1 0.376280 0.119969 0.375207
O O2 0.594687 0.186667 0.455506
O O3 0.619982 0.373789 0.398112
O O4 0.686668 0.455250 0.614896
O O5 0.848960 0.433342 0.221907
O O6 0.218159 0.758160 0.692787
O O7 0.094952 0.809711 0.045549
O O8 0.986671 0.500000 0.500000
O O9 0.000000 0.979891 0.250000
#
# Coordination Sequence:
#
# PCOD8160744 Si02
#       6
#     4   8   8   4   4   4
#     4  12  30  52  82 126 160 212 270 340 397 489
#     4  12  28  49  82 116 170 207 276 324 399 467
#     4  12  30  57  86 120 163 212 266 336 420 492
#     4  12  29  50  84 121 162 210 271 338 399 482
#     4  12  27  48  76 113 158 218 267 320 390 463
#     4  12  30  50  78 116 164 220 264 330 396 466
#
# _framework density 25.475684000000001
#
# number of rings (size 3 to 8) (size 9 to 14) (size 15 to 20)
#    0.000    0.000    2.500    4.500    5.250   12.000 
#    0.000    0.000    0.000    0.000    0.000    0.000 
#    0.000    0.000    0.000    0.000    0.000    0.000 
#
# Total GULP energy -198337.367878 kJ/mol
# GULP energy per Si atom -12396.085492 kJ/mol
# Density = 2.541770 g / cm^3
# Si number density = 25.475684 Si / 1000 Ang^3
#
#
#
# Elastic Constant Matrix: (Units=GPa)
#
#
# Indices 1 2 3 4 5 6 
#
# 1 198.8782 96.4601 54.6058 0.0000 0.0000 0.0000
# 2 96.4601 180.4042 49.3600 0.0000 0.0000 0.0000
# 3 54.6058 49.3600 106.4816 0.0000 0.0000 0.0000
# 4 0.0000 0.0000 0.0000 20.3730 0.0000 0.0000
# 5 0.0000 0.0000 0.0000 0.0000 47.3655 0.0000
# 6 0.0000 0.0000 0.0000 0.0000 0.0000 54.5126
#
#
#
# Elastic Compliance Matrix: (Units=1/GPa)
#
#
# Indices 1 2 3 4 5 6 
#
# 1 0.007208 -0.003255 -0.002187 0.000000 0.000000 0.000000
# 2 -0.003255 0.007819 -0.001955 0.000000 0.000000 0.000000
# 3 -0.002187 -0.001955 0.011419 0.000000 0.000000 0.000000
# 4 0.000000 0.000000 0.000000 0.049085 0.000000 0.000000
# 5 0.000000 0.000000 0.000000 0.000000 0.021112 0.000000
# 6 0.000000 0.000000 0.000000 0.000000 0.000000 0.018344
#
#
# Mechanical properties :
#
#
# Convention : Reuss Voigt Hill
#
# Bulk Modulus (GPa) = 85.83390 98.51287 92.17339
# Shear Modulus (GPa) = 37.40684 43.47274 40.43979
#
# Velocity S-wave (km/s) = 3.83604 4.13539 3.98853
# Velocity P-wave (km/s) = 7.30657 7.84572 7.58094
#
# Compressibility (1/GPa) = 0.01165041
#
# Stress axis : x y z
#
# Youngs Moduli (GPa) = 138.74062 127.89951 87.57241
#
# Poissons Ratio (x) = 0.41637 0.19154
# Poissons Ratio (y) = 0.45166 0.17120
# Poissons Ratio (z) = 0.30345 0.25003
#
# Static dielectric constant tensor:
#      x y z
#    x 5.118650 0.000000 0.000000 
#    y 0.000000 5.351180 0.000000 
#    z 0.000000 0.000000 4.121780 
# 
# 
# High freq. dielectric constant tensor:
#      x y z
#    x 2.049650 0.000000 0.000000 
#    y 0.000000 2.051700 0.000000 
#    z 0.000000 0.000000 1.990950 
# 
# From -- ./inp_files/634.got.cif
#   From: 2010.03.12/outbox.cif.g09.slc.cpg/sg20_1_cif.got.tgz:634.got - 2010.04.14 01:38:04.
