data_PCOD8160953
_publ_section_title
;
Structure prediction by ZEFSAII (Michael W. Deem and Ramdas Pophale) SiO2 
 PCOD8160953
Probable space group: C 2 2 2
;
_chemical_formula_sum "Si O2"
_cell_formula_units_Z 48
_cell_length_a 15.677078
_cell_length_b 18.073124
_cell_length_c 8.712752
_cell_angle_alpha 90.000000
_cell_angle_beta 90.000000
_cell_angle_gamma 90.000000
_cell_volume 2468.616912
_symmetry_space_group_name_H-M "C 2 2 2"
_symmetry_group_IT_number 21
_symmetry_cell_setting 'orthorhombic'
loop_
_space_group_symop_operation_xyz
x,y,z
-x,-y,z
x,-y,-z
-x,y,-z
1/2+x,1/2+y,z
1/2-x,1/2-y,z
1/2+x,1/2-y,-z
1/2-x,1/2+y,-z
loop_
_atom_site_type_symbol
_atom_site_label
_atom_site_fract_x
_atom_site_fract_y
_atom_site_fract_z
Si Si1 0.758587 0.920789 0.440530
Si Si2 0.907972 0.339546 0.542704
Si Si3 0.336138 0.292450 0.635268
Si Si4 0.593824 0.657589 0.951584
Si Si5 0.754804 0.925162 0.076922
Si Si6 0.162962 0.711728 0.854929
O O1 0.661612 0.903025 0.492385
O O2 0.817566 0.856089 0.509457
O O3 0.766795 0.925972 0.258729
O O4 0.788253 0.000000 0.500000
O O5 0.897985 0.267049 0.439712
O O6 0.898497 0.314591 0.719082
O O7 0.000000 0.373597 0.500000
O O8 0.250000 0.250000 0.691276
O O9 0.389651 0.329221 0.772148
O O10 0.500000 0.631573 0.000000
O O11 0.654134 0.590496 0.001437
O O12 0.611328 0.733709 0.038724
O O13 0.689033 0.858648 0.039060
O O14 0.718263 0.000000 0.000000
O O15 0.250000 0.750000 0.787990
#
# Coordination Sequence:
#
# PCOD8160953 Si02
#       6
#     8   8   8   8   8   8
#     4  10  21  36  55  77 104 141 182 217 258 317
#     4  10  19  33  55  81 108 134 168 221 271 313
#     4  10  19  33  54  80 107 139 179 217 259 317
#     4  11  21  33  54  81 107 135 172 222 269 313
#     4  10  20  36  56  75 104 142 180 216 259 319
#     4   9  18  35  54  76 105 141 178 211 260 321
#
# _framework density 19.444085000000001
#
# number of rings (size 3 to 8) (size 9 to 14) (size 15 to 20)
#    0.000    2.000    0.000    7.000    0.000    2.000 
#    0.000    0.000    0.000    6.000    0.000    0.000 
#    0.000    0.000    0.000    0.000    0.000    0.000 
#
# Total GULP energy -297546.026294 kJ/mol
# GULP energy per Si atom -12397.751096 kJ/mol
# Density = 1.939983 g / cm^3
# Si number density = 19.444085 Si / 1000 Ang^3
#
#
#
# Elastic Constant Matrix: (Units=GPa)
#
#
# Indices 1 2 3 4 5 6 
#
# 1 71.3507 3.4093 18.8087 0.0000 0.0000 0.0000
# 2 3.4093 77.4725 10.4089 0.0000 0.0000 0.0000
# 3 18.8087 10.4089 80.4703 0.0000 0.0000 0.0000
# 4 0.0000 0.0000 0.0000 24.2602 0.0000 0.0000
# 5 0.0000 0.0000 0.0000 0.0000 16.0410 0.0000
# 6 0.0000 0.0000 0.0000 0.0000 0.0000 17.6905
#
#
#
# Elastic Compliance Matrix: (Units=1/GPa)
#
#
# Indices 1 2 3 4 5 6 
#
# 1 0.014938 -0.000192 -0.003467 0.000000 0.000000 0.000000
# 2 -0.000192 0.013139 -0.001655 0.000000 0.000000 0.000000
# 3 -0.003467 -0.001655 0.013451 0.000000 0.000000 0.000000
# 4 0.000000 0.000000 0.000000 0.041220 0.000000 0.000000
# 5 0.000000 0.000000 0.000000 0.000000 0.062340 0.000000
# 6 0.000000 0.000000 0.000000 0.000000 0.000000 0.056528
#
#
# Mechanical properties :
#
#
# Convention : Reuss Voigt Hill
#
# Bulk Modulus (GPa) = 32.36042 32.72748 32.54395
# Shear Modulus (GPa) = 22.46761 24.70945 23.58853
#
# Velocity S-wave (km/s) = 3.40295 3.56869 3.48680
# Velocity P-wave (km/s) = 5.66737 5.81798 5.74316
#
# Compressibility (1/GPa) = 0.03090194
#
# Stress axis : x y z
#
# Youngs Moduli (GPa) = 66.94189 76.11190 74.34229
#
# Poissons Ratio (x) = 0.01458 0.25773
# Poissons Ratio (y) = 0.01283 0.12301
# Poissons Ratio (z) = 0.23208 0.12594
#
# Static dielectric constant tensor:
#      x y z
#    x 3.379580 0.000000 0.000000 
#    y 0.000000 3.727720 0.000000 
#    z 0.000000 0.000000 3.495560 
# 
# 
# High freq. dielectric constant tensor:
#      x y z
#    x 1.734700 0.000000 0.000000 
#    y 0.000000 1.758100 0.000000 
#    z 0.000000 0.000000 1.761940 
# 
# From -- ./inp_files/14936.got.cif
#   From: 2010.03.12/outbox.cif.g09.slc.cpg/sg21_8_cif.got.tgz:14936.got - 2010.04.14 01:59:26.
