data_PCOD8160198
_publ_section_title
;
Structure prediction by ZEFSAII (Michael W. Deem and Ramdas Pophale) SiO2 
 PCOD8160198
Probable space group: C 2 2 21
;
_chemical_formula_sum "Si O2"
_cell_formula_units_Z 64
_cell_length_a 8.502233
_cell_length_b 23.247121
_cell_length_c 14.620521
_cell_angle_alpha 90.000000
_cell_angle_beta 90.000000
_cell_angle_gamma 90.000000
_cell_volume 2889.781640
_symmetry_space_group_name_H-M "C 2 2 21"
_symmetry_group_IT_number 20
_symmetry_cell_setting 'orthorhombic'
loop_
_space_group_symop_operation_xyz
x,y,z
-x,-y,1/2+z
x,-y,-z
-x,y,1/2-z
1/2+x,1/2+y,z
1/2-x,1/2-y,1/2+z
1/2+x,1/2-y,-z
1/2-x,1/2+y,1/2-z
loop_
_atom_site_type_symbol
_atom_site_label
_atom_site_fract_x
_atom_site_fract_y
_atom_site_fract_z
Si Si1 0.251295 0.793980 0.898968
Si Si2 0.315984 0.921460 0.936008
Si Si3 0.165875 0.557700 0.790581
Si Si4 0.071863 0.786508 0.524823
Si Si5 0.323154 0.462295 0.387119
Si Si6 0.639947 0.409932 0.453879
Si Si7 0.675925 0.674487 0.287519
Si Si8 0.833005 0.432122 0.629361
O O1 0.232591 0.861602 0.916117
O O2 0.263796 0.785944 0.788748
O O3 0.095684 0.765453 0.939766
O O4 0.390716 0.764067 0.953549
O O5 0.496504 0.915691 0.908190
O O6 0.214444 0.969574 0.882365
O O7 0.305119 0.934588 0.044192
O O8 0.298238 0.564695 0.712510
O O9 0.223437 0.594993 0.877041
O O10 0.150296 0.491650 0.818880
O O11 0.000000 0.580114 0.750000
O O12 0.071627 0.846646 0.470957
O O13 0.181369 0.792092 0.615390
O O14 0.500899 0.451698 0.419867
O O15 0.711308 0.437444 0.545639
O O16 0.500000 0.661321 0.250000
O O17 0.772235 0.615062 0.298146
#
# Coordination Sequence:
#
# PCOD8160198 Si02
#       8
#     8   8   8   8   8   8   8   8
#     4  11  23  45  73  97 138 179 232 292 344 407
#     4  11  24  42  70  97 139 178 229 291 348 404
#     4  12  24  41  61 101 143 176 225 276 344 428
#     4  10  24  47  66 104 131 182 234 284 347 413
#     4  11  24  43  67 100 138 181 224 281 349 420
#     4  11  25  45  68  96 140 186 228 280 351 425
#     4   9  22  43  70  99 134 177 235 291 347 405
#     4  11  24  41  70 101 133 178 235 291 345 408
#
# _framework density 22.147000999999999
#
# number of rings (size 3 to 8) (size 9 to 14) (size 15 to 20)
#    0.000    1.250    2.500    2.250    8.750    1.000 
#    2.250    0.625    0.000    0.000    0.000    0.000 
#    0.000    0.000    0.000    0.000    0.000    0.000 
#
# Total GULP energy -396788.179346 kJ/mol
# GULP energy per Si atom -12399.630605 kJ/mol
# Density = 2.209659 g / cm^3
# Si number density = 22.147001 Si / 1000 Ang^3
#
#
#
# Elastic Constant Matrix: (Units=GPa)
#
#
# Indices 1 2 3 4 5 6 
#
# 1 99.1975 25.1710 44.9195 0.0000 0.0000 0.0000
# 2 25.1710 49.9902 26.9806 0.0000 0.0000 0.0000
# 3 44.9195 26.9806 125.1798 0.0000 0.0000 0.0000
# 4 0.0000 0.0000 0.0000 29.2157 0.0000 0.0000
# 5 0.0000 0.0000 0.0000 0.0000 41.9994 0.0000
# 6 0.0000 0.0000 0.0000 0.0000 0.0000 31.6815
#
#
#
# Elastic Compliance Matrix: (Units=1/GPa)
#
#
# Indices 1 2 3 4 5 6 
#
# 1 0.012879 -0.004516 -0.003648 0.000000 0.000000 0.000000
# 2 -0.004516 0.024221 -0.003600 0.000000 0.000000 0.000000
# 3 -0.003648 -0.003600 0.010074 0.000000 0.000000 0.000000
# 4 0.000000 0.000000 0.000000 0.034228 0.000000 0.000000
# 5 0.000000 0.000000 0.000000 0.000000 0.023810 0.000000
# 6 0.000000 0.000000 0.000000 0.000000 0.000000 0.031564
#
#
# Mechanical properties :
#
#
# Convention : Reuss Voigt Hill
#
# Bulk Modulus (GPa) = 42.29173 52.05662 47.17418
# Shear Modulus (GPa) = 29.72927 32.39908 31.06417
#
# Velocity S-wave (km/s) = 3.66780 3.82895 3.74924
# Velocity P-wave (km/s) = 6.08887 6.56536 6.33160
#
# Compressibility (1/GPa) = 0.02364528
#
# Stress axis : x y z
#
# Youngs Moduli (GPa) = 77.64756 41.28709 99.27025
#
# Poissons Ratio (x) = 0.18644 0.36215
# Poissons Ratio (y) = 0.35063 0.35737
# Poissons Ratio (z) = 0.28327 0.14863
#
# Static dielectric constant tensor:
#      x y z
#    x 3.967730 0.000000 0.000000 
#    y 0.000000 3.664620 0.000000 
#    z 0.000000 0.000000 4.403170 
# 
# 
# High freq. dielectric constant tensor:
#      x y z
#    x 1.874910 0.000000 0.000000 
#    y 0.000000 1.840100 0.000000 
#    z 0.000000 0.000000 1.894150 
# 
# From -- ./inp_files/19347.got.cif
#   From: 2010.03.12/outbox.cif.g09.slc.cpg/sg20_10_cif.got.tgz:19347.got - 2010.04.14 01:38:04.
