data_PCOD8160846
_publ_section_title
;
Structure prediction by ZEFSAII (Michael W. Deem and Ramdas Pophale) SiO2 
 PCOD8160846
Probable space group: C 2 2 2
;
_chemical_formula_sum "Si O2"
_cell_formula_units_Z 46
_cell_length_a 10.344585
_cell_length_b 18.541165
_cell_length_c 12.455660
_cell_angle_alpha 90.000000
_cell_angle_beta 90.000000
_cell_angle_gamma 90.000000
_cell_volume 2389.003776
_symmetry_space_group_name_H-M "C 2 2 2"
_symmetry_group_IT_number 21
_symmetry_cell_setting 'orthorhombic'
loop_
_space_group_symop_operation_xyz
x,y,z
-x,-y,z
x,-y,-z
-x,y,-z
1/2+x,1/2+y,z
1/2-x,1/2-y,z
1/2+x,1/2-y,-z
1/2-x,1/2+y,-z
loop_
_atom_site_type_symbol
_atom_site_label
_atom_site_fract_x
_atom_site_fract_y
_atom_site_fract_z
Si Si1 0.000000 0.000000 0.500000
Si Si2 0.369886 0.839471 0.454388
Si Si3 0.334392 0.579673 0.328135
Si Si4 0.864610 0.958298 0.902043
Si Si5 0.027207 0.776161 0.296596
Si Si6 0.250000 0.750000 0.628520
Si Si7 0.880670 0.213121 0.070966
O O1 0.101239 0.960955 0.425040
O O2 0.500000 0.877271 0.500000
O O3 0.303646 0.891309 0.368397
O O4 0.409240 0.764649 0.396680
O O5 0.276130 0.819836 0.553434
O O6 0.304929 0.534110 0.218645
O O7 0.439869 0.640131 0.302472
O O8 0.872107 0.873683 0.929926
O O9 0.000000 0.000000 0.896354
O O10 0.787158 0.000000 0.000000
O O11 0.090467 0.749615 0.185952
O O12 0.872225 0.766903 0.295982
O O13 0.750000 0.250000 0.026490
O O14 0.000000 0.238284 0.000000
#
# Coordination Sequence:
#
# PCOD8160846 Si02
#       7
#     2   8   8   8   8   4   8
#     4  12  24  28  52  88 108 156 192 250 296 352
#     4  10  19  34  57  87 119 159 190 246 321 379
#     4  11  20  35  54  85 120 151 211 253 301 370
#     4  10  19  39  62  91 118 172 216 262 311 387
#     4  10  20  34  57  85 121 157 193 252 309 369
#     4  10  18  30  54  88 126 160 194 232 316 396
#     4  11  23  38  64  94 126 159 213 277 328 378
#
# _framework density 19.254888000000001
#
# number of rings (size 3 to 8) (size 9 to 14) (size 15 to 20)
#    0.000    1.565    4.348    3.130    2.435    0.000 
#    0.000    0.435    0.000    0.522    9.043    0.000 
#    0.000    0.000    0.000    0.000    0.000    0.000 
#
# Total GULP energy -284964.859971 kJ/mol
# GULP energy per Si atom -12389.776520 kJ/mol
# Density = 1.921106 g / cm^3
# Si number density = 19.254888 Si / 1000 Ang^3
#
#
#
# Elastic Constant Matrix: (Units=GPa)
#
#
# Indices 1 2 3 4 5 6 
#
# 1 115.6815 41.0504 46.3456 0.0000 0.0000 0.0000
# 2 41.0504 68.8133 40.7368 0.0000 0.0000 0.0000
# 3 46.3456 40.7368 130.6734 0.0000 0.0000 0.0000
# 4 0.0000 0.0000 0.0000 33.5691 0.0000 0.0000
# 5 0.0000 0.0000 0.0000 0.0000 24.9401 0.0000
# 6 0.0000 0.0000 0.0000 0.0000 0.0000 24.6944
#
#
#
# Elastic Compliance Matrix: (Units=1/GPa)
#
#
# Indices 1 2 3 4 5 6 
#
# 1 0.011543 -0.005472 -0.002388 0.000000 0.000000 0.000000
# 2 -0.005472 0.020415 -0.004423 0.000000 0.000000 0.000000
# 3 -0.002388 -0.004423 0.009879 0.000000 0.000000 0.000000
# 4 0.000000 0.000000 0.000000 0.029789 0.000000 0.000000
# 5 0.000000 0.000000 0.000000 0.000000 0.040096 0.000000
# 6 0.000000 0.000000 0.000000 0.000000 0.000000 0.040495
#
#
# Mechanical properties :
#
#
# Convention : Reuss Voigt Hill
#
# Bulk Modulus (GPa) = 57.90621 63.49265 60.69943
# Shear Modulus (GPa) = 27.39109 29.10976 28.25043
#
# Velocity S-wave (km/s) = 3.77577 3.89242 3.83454
# Velocity P-wave (km/s) = 7.01052 7.29710 7.15524
#
# Compressibility (1/GPa) = 0.01726931
#
# Stress axis : x y z
#
# Youngs Moduli (GPa) = 86.63264 48.98311 101.22892
#
# Poissons Ratio (x) = 0.26805 0.24173
# Poissons Ratio (y) = 0.47408 0.44779
# Poissons Ratio (z) = 0.20688 0.21668
#
# Static dielectric constant tensor:
#      x y z
#    x 3.410730 0.000000 0.000000 
#    y 0.000000 3.443350 0.000000 
#    z 0.000000 0.000000 3.630830 
# 
# 
# High freq. dielectric constant tensor:
#      x y z
#    x 1.734460 0.000000 0.000000 
#    y 0.000000 1.720910 0.000000 
#    z 0.000000 0.000000 1.769060 
# 
# From -- ./inp_files/24103.got.cif
#   From: 2010.03.12/outbox.cif.g09.slc.cpg/sg21_13_cif.got.tgz:24103.got - 2010.04.14 01:59:26.
