data_PCOD8160473
_publ_section_title
;
Structure prediction by ZEFSAII (Michael W. Deem and Ramdas Pophale) SiO2 
 PCOD8160473
Probable space group: C 2 2 21
;
_chemical_formula_sum "Si O2"
_cell_formula_units_Z 48
_cell_length_a 27.469562
_cell_length_b 8.900534
_cell_length_c 9.141919
_cell_angle_alpha 90.000000
_cell_angle_beta 90.000000
_cell_angle_gamma 90.000000
_cell_volume 2235.142246
_symmetry_space_group_name_H-M "C 2 2 21"
_symmetry_group_IT_number 20
_symmetry_cell_setting 'orthorhombic'
loop_
_space_group_symop_operation_xyz
x,y,z
-x,-y,1/2+z
x,-y,-z
-x,y,1/2-z
1/2+x,1/2+y,z
1/2-x,1/2-y,1/2+z
1/2+x,1/2-y,-z
1/2-x,1/2+y,1/2-z
loop_
_atom_site_type_symbol
_atom_site_label
_atom_site_fract_x
_atom_site_fract_y
_atom_site_fract_z
Si Si1 0.898981 0.830509 0.463461
Si Si2 0.293352 0.657450 0.925154
Si Si3 0.444682 0.832434 0.786361
Si Si4 0.443213 0.825629 0.278151
Si Si5 0.787848 0.846883 0.425917
Si Si6 0.895844 0.823630 0.974073
O O1 0.911043 0.788771 0.297239
O O2 0.930479 0.709283 0.554032
O O3 0.841419 0.809903 0.485146
O O4 0.915282 0.000000 0.500000
O O5 0.284923 0.647341 0.750663
O O6 0.343922 0.740704 0.966641
O O7 0.302453 0.500000 0.000000
O O8 0.247246 0.722135 0.009071
O O9 0.500000 0.805710 0.750000
O O10 0.437006 0.783564 0.953538
O O11 0.429051 0.003309 0.757299
O O12 0.500000 0.792318 0.250000
O O13 0.405988 0.711837 0.195718
O O14 0.769504 0.000000 0.500000
O O15 0.904056 0.000000 0.000000
#
# Coordination Sequence:
#
# PCOD8160473 Si02
#       6
#     8   8   8   8   8   8
#     4  11  24  42  67  96 132 172 224 273 334 396
#     4  11  25  45  70 100 135 175 222 279 340 404
#     4  11  23  43  64  93 134 173 220 277 332 399
#     4  11  25  41  64  97 134 179 222 277 336 397
#     4  11  25  45  70 100 135 175 222 279 340 404
#     4  11  24  42  67  96 132 172 224 273 334 396
#
# _framework density 21.475142999999999
#
# number of rings (size 3 to 8) (size 9 to 14) (size 15 to 20)
#    0.000    1.000    1.667    4.000    9.333    9.333 
#    0.000    0.000    0.000    0.000    0.000    0.000 
#    0.000    0.000    0.000    0.000    0.000    0.000 
#
# Total GULP energy -297578.991918 kJ/mol
# GULP energy per Si atom -12399.124663 kJ/mol
# Density = 2.142626 g / cm^3
# Si number density = 21.475143 Si / 1000 Ang^3
#
#
#
# Elastic Constant Matrix: (Units=GPa)
#
#
# Indices 1 2 3 4 5 6 
#
# 1 86.2767 38.4038 28.6134 0.0000 0.0000 0.0000
# 2 38.4038 87.3372 18.0686 0.0000 0.0000 0.0000
# 3 28.6134 18.0686 100.9307 0.0000 0.0000 0.0000
# 4 0.0000 0.0000 0.0000 44.1187 0.0000 0.0000
# 5 0.0000 0.0000 0.0000 0.0000 52.4684 0.0000
# 6 0.0000 0.0000 0.0000 0.0000 0.0000 160.9714
#
#
#
# Elastic Compliance Matrix: (Units=1/GPa)
#
#
# Indices 1 2 3 4 5 6 
#
# 1 0.015386 -0.006089 -0.003272 0.000000 0.000000 0.000000
# 2 -0.006089 0.014300 -0.000834 0.000000 0.000000 0.000000
# 3 -0.003272 -0.000834 0.010985 0.000000 0.000000 0.000000
# 4 0.000000 0.000000 0.000000 0.022666 0.000000 0.000000
# 5 0.000000 0.000000 0.000000 0.000000 0.019059 0.000000
# 6 0.000000 0.000000 0.000000 0.000000 0.000000 0.006212
#
#
# Mechanical properties :
#
#
# Convention : Reuss Voigt Hill
#
# Bulk Modulus (GPa) = 49.30573 49.41292 49.35932
# Shear Modulus (GPa) = 43.19405 64.14229 53.66817
#
# Velocity S-wave (km/s) = 4.48967 5.47111 5.00451
# Velocity P-wave (km/s) = 7.06297 7.93536 7.51184
#
# Compressibility (1/GPa) = 0.02028162
#
# Stress axis : x y z
#
# Youngs Moduli (GPa) = 64.99465 69.93187 91.03638
#
# Poissons Ratio (x) = 0.42578 0.29786
# Poissons Ratio (y) = 0.39572 0.07591
# Poissons Ratio (z) = 0.21265 0.05831
#
# Static dielectric constant tensor:
#      x y z
#    x 3.896690 0.000000 0.000000 
#    y 0.000000 3.676880 0.000000 
#    z 0.000000 0.000000 3.949030 
# 
# 
# High freq. dielectric constant tensor:
#      x y z
#    x 1.850410 0.000000 0.000000 
#    y 0.000000 1.840700 0.000000 
#    z 0.000000 0.000000 1.862790 
# 
# From -- ./inp_files/6490.got.cif
#   From: 2010.03.12/outbox.cif.g09.slc.cpg/sg20_4_cif.got.tgz:6490.got - 2010.04.14 01:38:04.
