data_PCOD8160217
_publ_section_title
;
Structure prediction by ZEFSAII (Michael W. Deem and Ramdas Pophale) SiO2 
 PCOD8160217
Probable space group: C 2 2 21
;
_chemical_formula_sum "Si O2"
_cell_formula_units_Z 40
_cell_length_a 12.954127
_cell_length_b 8.756176
_cell_length_c 16.080270
_cell_angle_alpha 90.000000
_cell_angle_beta 90.000000
_cell_angle_gamma 90.000000
_cell_volume 1823.962770
_symmetry_space_group_name_H-M "C 2 2 21"
_symmetry_group_IT_number 20
_symmetry_cell_setting 'orthorhombic'
loop_
_space_group_symop_operation_xyz
x,y,z
-x,-y,1/2+z
x,-y,-z
-x,y,1/2-z
1/2+x,1/2+y,z
1/2-x,1/2-y,1/2+z
1/2+x,1/2-y,-z
1/2-x,1/2+y,1/2-z
loop_
_atom_site_type_symbol
_atom_site_label
_atom_site_fract_x
_atom_site_fract_y
_atom_site_fract_z
Si Si1 0.882345 0.617566 0.931837
Si Si2 0.745565 0.785168 0.805804
Si Si3 0.886876 0.953617 0.211072
Si Si4 0.029304 0.862881 0.451834
Si Si5 0.543435 0.904743 0.842425
O O1 0.790480 0.659178 0.869318
O O2 0.982999 0.543423 0.886123
O O3 0.838092 0.500000 0.000000
O O4 0.913845 0.772317 0.975764
O O5 0.680932 0.690582 0.738980
O O6 0.668125 0.919421 0.841187
O O7 0.838035 0.881951 0.764159
O O8 0.889351 0.942821 0.110802
O O9 0.000000 0.948543 0.250000
O O10 0.961246 0.752272 0.395361
O O11 0.967697 0.000000 0.500000
O O12 0.500000 0.880846 0.750000
#
# Coordination Sequence:
#
# PCOD8160217 Si02
#       5
#     8   8   8   8   8
#     4  10  25  43  69 102 140 177 227 293 348 409
#     4  12  24  44  74 101 131 189 236 277 349 420
#     4  12  26  47  70 102 140 183 236 287 341 424
#     4  11  21  47  66  99 152 174 223 308 340 400
#     4  11  22  46  71  96 139 184 229 286 345 416
#
# _framework density 21.930271999999999
#
# number of rings (size 3 to 8) (size 9 to 14) (size 15 to 20)
#    0.000    0.800    6.000    1.200    2.800    3.200 
#   10.800    0.000    0.000    0.000    0.000    0.000 
#    0.000    0.000    0.000    0.000    0.000    0.000 
#
# Total GULP energy -247761.690072 kJ/mol
# GULP energy per Si atom -12388.084504 kJ/mol
# Density = 2.188036 g / cm^3
# Si number density = 21.930272 Si / 1000 Ang^3
#
#
#
# Elastic Constant Matrix: (Units=GPa)
#
#
# Indices 1 2 3 4 5 6 
#
# 1 91.5016 60.8557 36.4806 0.0000 0.0000 0.0000
# 2 60.8557 121.4124 58.7863 0.0000 0.0000 0.0000
# 3 36.4806 58.7863 111.7487 0.0000 0.0000 0.0000
# 4 0.0000 0.0000 0.0000 25.4251 0.0000 0.0000
# 5 0.0000 0.0000 0.0000 0.0000 19.2796 0.0000
# 6 0.0000 0.0000 0.0000 0.0000 0.0000 45.4581
#
#
#
# Elastic Compliance Matrix: (Units=1/GPa)
#
#
# Indices 1 2 3 4 5 6 
#
# 1 0.016554 -0.007622 -0.001394 0.000000 0.000000 0.000000
# 2 -0.007622 0.014561 -0.005172 0.000000 0.000000 0.000000
# 3 -0.001394 -0.005172 0.012124 0.000000 0.000000 0.000000
# 4 0.000000 0.000000 0.000000 0.039331 0.000000 0.000000
# 5 0.000000 0.000000 0.000000 0.000000 0.051868 0.000000
# 6 0.000000 0.000000 0.000000 0.000000 0.000000 0.021998
#
#
# Mechanical properties :
#
#
# Convention : Reuss Voigt Hill
#
# Bulk Modulus (GPa) = 67.28133 70.76755 69.02444
# Shear Modulus (GPa) = 26.34796 29.26857 27.80827
#
# Velocity S-wave (km/s) = 3.46994 3.65721 3.56481
# Velocity P-wave (km/s) = 6.84107 7.08329 6.96323
#
# Compressibility (1/GPa) = 0.01486296
#
# Stress axis : x y z
#
# Youngs Moduli (GPa) = 60.40792 68.67679 82.47841
#
# Poissons Ratio (x) = 0.52348 0.11500
# Poissons Ratio (y) = 0.46045 0.42654
# Poissons Ratio (z) = 0.08423 0.35517
#
# Static dielectric constant tensor:
#      x y z
#    x 3.942930 0.000000 0.000000 
#    y 0.000000 4.108400 0.000000 
#    z 0.000000 0.000000 4.319780 
# 
# 
# High freq. dielectric constant tensor:
#      x y z
#    x 1.843930 0.000000 0.000000 
#    y 0.000000 1.879220 0.000000 
#    z 0.000000 0.000000 1.869620 
# 
# From -- ./inp_files/18507.got.cif
#   From: 2010.03.12/outbox.cif.g09.slc.cpg/sg20_10_cif.got.tgz:18507.got - 2010.04.14 01:38:04.
