data_PCOD8160862
_publ_section_title
;
Structure prediction by ZEFSAII (Michael W. Deem and Ramdas Pophale) SiO2 
 PCOD8160862
Probable space group: C 2 2 2
;
_chemical_formula_sum "Si O2"
_cell_formula_units_Z 52
_cell_length_a 18.248462
_cell_length_b 8.298792
_cell_length_c 16.556893
_cell_angle_alpha 90.000000
_cell_angle_beta 90.000000
_cell_angle_gamma 90.000000
_cell_volume 2507.379029
_symmetry_space_group_name_H-M "C 2 2 2"
_symmetry_group_IT_number 21
_symmetry_cell_setting 'orthorhombic'
loop_
_space_group_symop_operation_xyz
x,y,z
-x,-y,z
x,-y,-z
-x,y,-z
1/2+x,1/2+y,z
1/2-x,1/2-y,z
1/2+x,1/2-y,-z
1/2-x,1/2+y,-z
loop_
_atom_site_type_symbol
_atom_site_label
_atom_site_fract_x
_atom_site_fract_y
_atom_site_fract_z
Si Si1 0.392592 0.180975 0.214469
Si Si2 0.323213 0.468872 0.788514
Si Si3 0.541315 0.167206 0.425046
Si Si4 0.328356 0.000000 0.500000
Si Si5 0.534845 0.674409 0.743746
Si Si6 0.285310 0.076779 0.084622
Si Si7 0.782008 0.580771 0.332180
O O1 0.364446 0.362512 0.217782
O O2 0.481667 0.191175 0.214734
O O3 0.360709 0.092314 0.135457
O O4 0.364888 0.080376 0.294308
O O5 0.384918 0.327225 0.786996
O O6 0.273753 0.462338 0.869393
O O7 0.269176 0.446600 0.710893
O O8 0.500000 0.253684 0.500000
O O9 0.623981 0.135640 0.455058
O O10 0.544043 0.286816 0.350380
O O11 0.500000 0.000000 0.404438
O O12 0.278082 0.928112 0.571059
O O13 0.500000 0.500000 0.751280
O O14 0.250000 0.250000 0.070401
O O15 0.306987 0.000000 0.000000
O O16 0.750000 0.750000 0.302415
#
# Coordination Sequence:
#
# PCOD8160862 Si02
#       7
#     8   8   8   4   8   8   8
#     4   8  15  31  54  74 102 141 171 208 270 329
#     4   8  17  31  51  79 104 131 174 223 269 314
#     4   9  19  33  46  67 103 146 182 216 270 327
#     4  10  19  30  46  66 101 144 178 216 270 322
#     4  10  18  32  55  79 102 136 183 227 266 317
#     4   9  17  33  56  82 109 138 173 213 265 331
#     4   9  17  31  47  68  99 139 179 215 264 320
#
# _framework density 20.738786999999999
#
# number of rings (size 3 to 8) (size 9 to 14) (size 15 to 20)
#    0.000    3.231    0.000    3.692    0.000    1.538 
#    0.000    4.615    0.000   11.538    0.000    9.692 
#    0.000    0.000    0.000    0.000    0.000    0.000 
#
# Total GULP energy -322114.391738 kJ/mol
# GULP energy per Si atom -12389.015067 kJ/mol
# Density = 2.069158 g / cm^3
# Si number density = 20.738787 Si / 1000 Ang^3
#
#
#
# Elastic Constant Matrix: (Units=GPa)
#
#
# Indices 1 2 3 4 5 6 
#
# 1 142.6834 32.6037 64.1481 0.0000 0.0000 0.0000
# 2 32.6037 24.4168 30.4663 0.0000 0.0000 0.0000
# 3 64.1481 30.4663 146.6598 0.0000 0.0000 0.0000
# 4 0.0000 0.0000 0.0000 33.2096 0.0000 0.0000
# 5 0.0000 0.0000 0.0000 0.0000 20.3088 0.0000
# 6 0.0000 0.0000 0.0000 0.0000 0.0000 20.5350
#
#
#
# Elastic Compliance Matrix: (Units=1/GPa)
#
#
# Indices 1 2 3 4 5 6 
#
# 1 0.010629 -0.011329 -0.002296 0.000000 0.000000 0.000000
# 2 -0.011329 0.067359 -0.009038 0.000000 0.000000 0.000000
# 3 -0.002296 -0.009038 0.009700 0.000000 0.000000 0.000000
# 4 0.000000 0.000000 0.000000 0.030112 0.000000 0.000000
# 5 0.000000 0.000000 0.000000 0.000000 0.049240 0.000000
# 6 0.000000 0.000000 0.000000 0.000000 0.000000 0.048697
#
#
# Mechanical properties :
#
#
# Convention : Reuss Voigt Hill
#
# Bulk Modulus (GPa) = 23.60476 63.13290 43.36883
# Shear Modulus (GPa) = 18.16968 27.24681 22.70825
#
# Velocity S-wave (km/s) = 2.96314 3.62858 3.31262
# Velocity P-wave (km/s) = 4.80766 6.93279 5.96562
#
# Compressibility (1/GPa) = 0.04236434
#
# Stress axis : x y z
#
# Youngs Moduli (GPa) = 94.07917 14.84574 103.09115
#
# Poissons Ratio (x) = 0.16818 0.23668
# Poissons Ratio (y) = 1.06579 0.93171
# Poissons Ratio (z) = 0.21599 0.13417
#
# Static dielectric constant tensor:
#      x y z
#    x 4.231220 0.000000 0.000000 
#    y 0.000000 3.408960 0.000000 
#    z 0.000000 0.000000 3.582210 
# 
# 
# High freq. dielectric constant tensor:
#      x y z
#    x 1.813860 0.000000 0.000000 
#    y 0.000000 1.779960 0.000000 
#    z 0.000000 0.000000 1.794920 
# 
# From -- ./inp_files/33225.got.cif
#   From: 2010.03.12/outbox.cif.g09.slc.cpg/sg21_17_cif.got.tgz:33225.got - 2010.04.14 01:59:26.
