data_PCOD8160534
_publ_section_title
;
Structure prediction by ZEFSAII (Michael W. Deem and Ramdas Pophale) SiO2 
 PCOD8160534
Probable space group: C 2 2 21
;
_chemical_formula_sum "Si O2"
_cell_formula_units_Z 56
_cell_length_a 5.055128
_cell_length_b 30.686812
_cell_length_c 17.126585
_cell_angle_alpha 90.000000
_cell_angle_beta 90.000000
_cell_angle_gamma 90.000000
_cell_volume 2656.774558
_symmetry_space_group_name_H-M "C 2 2 21"
_symmetry_group_IT_number 20
_symmetry_cell_setting 'orthorhombic'
loop_
_space_group_symop_operation_xyz
x,y,z
-x,-y,1/2+z
x,-y,-z
-x,y,1/2-z
1/2+x,1/2+y,z
1/2-x,1/2-y,1/2+z
1/2+x,1/2-y,-z
1/2-x,1/2+y,1/2-z
loop_
_atom_site_type_symbol
_atom_site_label
_atom_site_fract_x
_atom_site_fract_y
_atom_site_fract_z
Si Si1 0.557892 0.487328 0.660922
Si Si2 0.494325 0.124303 0.910851
Si Si3 0.555441 0.977566 0.418493
Si Si4 0.025600 0.113670 0.159501
Si Si5 0.490435 0.667024 0.840498
Si Si6 0.006357 0.748870 0.053025
Si Si7 0.025973 0.345906 0.914867
O O1 0.500000 0.498292 0.750000
O O2 0.356403 0.513745 0.606484
O O3 0.530772 0.436513 0.642362
O O4 0.856650 0.502270 0.645055
O O5 0.489977 0.073354 0.927800
O O6 0.744803 0.136006 0.858538
O O7 0.243276 0.138867 0.862048
O O8 0.499256 0.149066 0.992714
O O9 0.490448 0.000000 0.500000
O O10 0.822871 0.142488 0.110113
O O11 0.000000 0.125321 0.250000
O O12 0.322379 0.123903 0.132108
O O13 0.500000 0.679561 0.750000
O O14 0.468693 0.711422 0.888442
O O15 0.967869 0.704715 0.103301
O O16 0.799325 0.751572 0.982539
#
# Coordination Sequence:
#
# PCOD8160534 Si02
#       7
#     8   8   8   8   8   8   8
#     4  11  24  43  64  90 134 178 214 269 339 391
#     4  12  25  43  69  96 132 178 219 277 329 390
#     4  12  25  42  66  99 129 171 234 277 322 385
#     4  11  24  41  64  99 134 169 218 277 329 387
#     4  12  26  45  68 102 137 174 221 275 330 394
#     4  12  23  46  70  97 132 173 219 265 328 399
#     4  12  23  42  71  95 130 173 222 260 336 396
#
# _framework density 21.078188999999998
#
# number of rings (size 3 to 8) (size 9 to 14) (size 15 to 20)
#    0.000    0.286    2.857    6.857    0.000    6.857 
#    0.000    0.000    0.000    0.000    0.000    0.000 
#    0.000    0.000    0.000    0.000    0.000    0.000 
#
# Total GULP energy -347470.718672 kJ/mol
# GULP energy per Si atom -12409.668524 kJ/mol
# Density = 2.103021 g / cm^3
# Si number density = 21.078189 Si / 1000 Ang^3
#
#
#
# Elastic Constant Matrix: (Units=GPa)
#
#
# Indices 1 2 3 4 5 6 
#
# 1 108.9217 21.5072 25.3175 0.0000 0.0000 0.0000
# 2 21.5072 129.4355 33.0332 0.0000 0.0000 0.0000
# 3 25.3175 33.0332 106.0565 0.0000 0.0000 0.0000
# 4 0.0000 0.0000 0.0000 30.6487 0.0000 0.0000
# 5 0.0000 0.0000 0.0000 0.0000 43.8252 0.0000
# 6 0.0000 0.0000 0.0000 0.0000 0.0000 23.8406
#
#
#
# Elastic Compliance Matrix: (Units=1/GPa)
#
#
# Indices 1 2 3 4 5 6 
#
# 1 0.009870 -0.001128 -0.002005 0.000000 0.000000 0.000000
# 2 -0.001128 0.008522 -0.002385 0.000000 0.000000 0.000000
# 3 -0.002005 -0.002385 0.010650 0.000000 0.000000 0.000000
# 4 0.000000 0.000000 0.000000 0.032628 0.000000 0.000000
# 5 0.000000 0.000000 0.000000 0.000000 0.022818 0.000000
# 6 0.000000 0.000000 0.000000 0.000000 0.000000 0.041945
#
#
# Mechanical properties :
#
#
# Convention : Reuss Voigt Hill
#
# Bulk Modulus (GPa) = 55.53675 56.01439 55.77557
# Shear Modulus (GPa) = 34.85024 37.29994 36.07509
#
# Velocity S-wave (km/s) = 4.07059 4.21122 4.14150
# Velocity P-wave (km/s) = 6.96406 7.09071 7.02767
#
# Compressibility (1/GPa) = 0.01800610
#
# Stress axis : x y z
#
# Youngs Moduli (GPa) = 101.32064 117.34314 93.89398
#
# Poissons Ratio (x) = 0.13241 0.18822
# Poissons Ratio (y) = 0.11433 0.22393
# Poissons Ratio (z) = 0.20311 0.27986
#
# Static dielectric constant tensor:
#      x y z
#    x 3.974300 0.000000 0.000000 
#    y 0.000000 3.957400 0.000000 
#    z 0.000000 0.000000 3.799230 
# 
# 
# High freq. dielectric constant tensor:
#      x y z
#    x 1.844490 0.000000 0.000000 
#    y 0.000000 1.842400 0.000000 
#    z 0.000000 0.000000 1.828170 
# 
# From -- ./inp_files/17959.got.cif
#   From: 2010.03.12/outbox.cif.g09.slc.cpg/sg20_9_cif.got.tgz:17959.got - 2010.04.14 01:38:04.
