data_PCOD8160270
_publ_section_title
;
Structure prediction by ZEFSAII (Michael W. Deem and Ramdas Pophale) SiO2 
 PCOD8160270
Probable space group: C 2 2 21
;
_chemical_formula_sum "Si O2"
_cell_formula_units_Z 28
_cell_length_a 16.035849
_cell_length_b 7.347527
_cell_length_c 8.309064
_cell_angle_alpha 90.000000
_cell_angle_beta 90.000000
_cell_angle_gamma 90.000000
_cell_volume 979.005773
_symmetry_space_group_name_H-M "C 2 2 21"
_symmetry_group_IT_number 20
_symmetry_cell_setting 'orthorhombic'
loop_
_space_group_symop_operation_xyz
x,y,z
-x,-y,1/2+z
x,-y,-z
-x,y,1/2-z
1/2+x,1/2+y,z
1/2-x,1/2-y,1/2+z
1/2+x,1/2-y,-z
1/2-x,1/2+y,1/2-z
loop_
_atom_site_type_symbol
_atom_site_label
_atom_site_fract_x
_atom_site_fract_y
_atom_site_fract_z
Si Si1 0.045769 0.791989 0.944389
Si Si2 0.828474 0.682330 0.305355
Si Si3 0.646920 0.435630 0.667364
Si Si4 0.592131 0.000000 0.500000
O O1 0.081565 0.803781 0.761403
O O2 0.107581 0.661178 0.046577
O O3 0.958757 0.681336 0.955955
O O4 0.033303 0.000000 0.000000
O O5 0.734844 0.659425 0.370008
O O6 0.850518 0.553598 0.153878
O O7 0.834789 0.894172 0.275740
O O8 0.605457 0.500000 0.500000
#
# Coordination Sequence:
#
# PCOD8160270 Si02
#       4
#     8   8   8   4
#     4  10  26  53  78 118 171 217 280 341 422 502
#     4  11  27  48  80 124 161 221 279 341 423 500
#     4  11  26  48  86 117 160 220 281 345 411 501
#     4  12  28  50  88 124 168 224 272 350 432 506
#
# _framework density 28.600446999999999
#
# number of rings (size 3 to 8) (size 9 to 14) (size 15 to 20)
#    0.000    1.143    0.000    2.571   16.000    3.429 
#    0.000    5.714    0.000    0.000    0.000    0.000 
#    0.000    0.000    0.000    0.000    0.000    0.000 
#
# Total GULP energy -173492.015905 kJ/mol
# GULP energy per Si atom -12392.286850 kJ/mol
# Density = 2.853535 g / cm^3
# Si number density = 28.600447 Si / 1000 Ang^3
#
#
#
# Elastic Constant Matrix: (Units=GPa)
#
#
# Indices 1 2 3 4 5 6 
#
# 1 144.5915 17.9633 33.0823 0.0000 0.0000 0.0000
# 2 17.9633 127.9828 33.1699 0.0000 0.0000 0.0000
# 3 33.0823 33.1699 195.5360 0.0000 0.0000 0.0000
# 4 0.0000 0.0000 0.0000 65.5965 0.0000 0.0000
# 5 0.0000 0.0000 0.0000 0.0000 14.2572 0.0000
# 6 0.0000 0.0000 0.0000 0.0000 0.0000 55.8785
#
#
#
# Elastic Compliance Matrix: (Units=1/GPa)
#
#
# Indices 1 2 3 4 5 6 
#
# 1 0.007260 -0.000733 -0.001104 0.000000 0.000000 0.000000
# 2 -0.000733 0.008247 -0.001275 0.000000 0.000000 0.000000
# 3 -0.001104 -0.001275 0.005517 0.000000 0.000000 0.000000
# 4 0.000000 0.000000 0.000000 0.015245 0.000000 0.000000
# 5 0.000000 0.000000 0.000000 0.000000 0.070140 0.000000
# 6 0.000000 0.000000 0.000000 0.000000 0.000000 0.017896
#
#
# Mechanical properties :
#
#
# Convention : Reuss Voigt Hill
#
# Bulk Modulus (GPa) = 67.56650 70.72680 69.14665
# Shear Modulus (GPa) = 36.91092 52.73943 44.82517
#
# Velocity S-wave (km/s) = 3.59635 4.29885 3.96320
# Velocity P-wave (km/s) = 6.39692 7.03016 6.72100
#
# Compressibility (1/GPa) = 0.01480023
#
# Stress axis : x y z
#
# Youngs Moduli (GPa) = 137.74759 121.25839 181.25134
#
# Poissons Ratio (x) = 0.08886 0.20009
# Poissons Ratio (y) = 0.10095 0.23109
# Poissons Ratio (z) = 0.15206 0.15460
#
# Static dielectric constant tensor:
#      x y z
#    x 5.835870 0.000000 0.000000 
#    y 0.000000 5.445110 0.000000 
#    z 0.000000 0.000000 5.460140 
# 
# 
# High freq. dielectric constant tensor:
#      x y z
#    x 2.177030 0.000000 0.000000 
#    y 0.000000 2.191560 0.000000 
#    z 0.000000 0.000000 2.175090 
# 
# From -- ./inp_files/9036.got.cif
#   From: 2010.03.12/outbox.cif.g09.slc.cpg/sg20_5_cif.got.tgz:9036.got - 2010.04.14 01:38:04.
