data_PCOD8160775
_publ_section_title
;
Structure prediction by ZEFSAII (Michael W. Deem and Ramdas Pophale) SiO2 
 PCOD8160775
Probable space group: C 2 2 2
;
_chemical_formula_sum "Si O2"
_cell_formula_units_Z 48
_cell_length_a 20.016140
_cell_length_b 35.174658
_cell_length_c 5.254829
_cell_angle_alpha 90.000000
_cell_angle_beta 90.000000
_cell_angle_gamma 90.000000
_cell_volume 3699.719525
_symmetry_space_group_name_H-M "C 2 2 2"
_symmetry_group_IT_number 21
_symmetry_cell_setting 'orthorhombic'
loop_
_space_group_symop_operation_xyz
x,y,z
-x,-y,z
x,-y,-z
-x,y,-z
1/2+x,1/2+y,z
1/2-x,1/2-y,z
1/2+x,1/2-y,-z
1/2-x,1/2+y,-z
loop_
_atom_site_type_symbol
_atom_site_label
_atom_site_fract_x
_atom_site_fract_y
_atom_site_fract_z
Si Si1 0.768198 0.794186 0.035606
Si Si2 0.079353 0.587090 0.999478
Si Si3 0.079203 0.542560 0.499394
Si Si4 0.423439 0.212389 0.523808
Si Si5 0.624966 0.828328 0.023979
Si Si6 0.184456 0.224153 0.535443
O O1 0.750000 0.750000 0.070936
O O2 0.703231 0.819857 0.005095
O O3 0.808021 0.804399 0.295395
O O4 0.817701 0.800601 0.795445
O O5 0.103744 0.564451 0.750556
O O6 0.116275 0.627043 0.004307
O O7 0.103695 0.564085 0.246871
O O8 0.000000 0.593650 0.000000
O O9 0.109392 0.500000 0.500000
O O10 0.000000 0.540217 0.500000
O O11 0.500000 0.224293 0.500000
O O12 0.403827 0.184153 0.296206
O O13 0.381320 0.250812 0.503295
O O14 0.413130 0.192532 0.795275
O O15 0.250000 0.250000 0.570802
#
# Coordination Sequence:
#
# PCOD8160775 Si02
#       6
#     8   8   8   8   8   8
#     4  10  16  29  45  53  66 100 134 150 175 238
#     4  10  19  28  38  57  78  92 114 155 202 234
#     4   9  17  30  44  53  67  96 126 146 177 236
#     4  12  21  28  40  57  76  98 123 159 206 242
#     4  12  20  30  41  57  80  99 120 158 206 244
#     4  10  16  30  42  52  67  95 133 155 176 236
#
# _framework density 12.973955999999999
#
# number of rings (size 3 to 8) (size 9 to 14) (size 15 to 20)
#    0.000    1.500    6.667    3.000    0.000    3.333 
#    0.000    0.000    0.000    0.000    0.000    0.000 
#    0.000    0.000    0.000    0.000    0.000    0.000 
#
# Total GULP energy -297524.034556 kJ/mol
# GULP energy per Si atom -12396.834773 kJ/mol
# Density = 1.294443 g / cm^3
# Si number density = 12.973956 Si / 1000 Ang^3
#
#
#
# Elastic Constant Matrix: (Units=GPa)
#
#
# Indices 1 2 3 4 5 6 
#
# 1 44.5408 33.8706 12.8279 0.0000 0.0000 0.0000
# 2 33.8706 62.8752 20.1689 0.0000 0.0000 0.0000
# 3 12.8279 20.1689 103.7511 0.0000 0.0000 0.0000
# 4 0.0000 0.0000 0.0000 17.5334 0.0000 0.0000
# 5 0.0000 0.0000 0.0000 0.0000 11.1867 0.0000
# 6 0.0000 0.0000 0.0000 0.0000 0.0000 14.4774
#
#
#
# Elastic Compliance Matrix: (Units=1/GPa)
#
#
# Indices 1 2 3 4 5 6 
#
# 1 0.038087 -0.020271 -0.000769 0.000000 0.000000 0.000000
# 2 -0.020271 0.027751 -0.002888 0.000000 0.000000 0.000000
# 3 -0.000769 -0.002888 0.010295 0.000000 0.000000 0.000000
# 4 0.000000 0.000000 0.000000 0.057034 0.000000 0.000000
# 5 0.000000 0.000000 0.000000 0.000000 0.089392 0.000000
# 6 0.000000 0.000000 0.000000 0.000000 0.000000 0.069073
#
#
# Mechanical properties :
#
#
# Convention : Reuss Voigt Hill
#
# Bulk Modulus (GPa) = 35.36377 38.32243 36.84310
# Shear Modulus (GPa) = 14.33017 18.25948 16.29483
#
# Velocity S-wave (km/s) = 3.32706 3.75560 3.54780
# Velocity P-wave (km/s) = 6.48658 6.95759 6.72621
#
# Compressibility (1/GPa) = 0.02827753
#
# Stress axis : x y z
#
# Youngs Moduli (GPa) = 26.25535 36.03486 97.13484
#
# Poissons Ratio (x) = 0.73046 0.07465
# Poissons Ratio (y) = 0.53222 0.28056
# Poissons Ratio (z) = 0.02018 0.10408
#
# Static dielectric constant tensor:
#      x y z
#    x 2.345950 0.000000 0.000000 
#    y 0.000000 2.435440 0.000000 
#    z 0.000000 0.000000 3.703590 
# 
# 
# High freq. dielectric constant tensor:
#      x y z
#    x 1.448310 0.000000 0.000000 
#    y 0.000000 1.457750 0.000000 
#    z 0.000000 0.000000 1.531150 
# 
# From -- ./inp_files/5354.got.cif
#   From: 2010.03.12/outbox.cif.g09.slc.cpg/sg21_3_cif.got.tgz:5354.got - 2010.04.14 01:59:26.
