data_PCOD8160867
_publ_section_title
;
Structure prediction by ZEFSAII (Michael W. Deem and Ramdas Pophale) SiO2 
 PCOD8160867
Probable space group: C 2 2 2
;
_chemical_formula_sum "Si O2"
_cell_formula_units_Z 56
_cell_length_a 22.210194
_cell_length_b 11.703215
_cell_length_c 11.778591
_cell_angle_alpha 90.000000
_cell_angle_beta 90.000000
_cell_angle_gamma 90.000000
_cell_volume 3061.617116
_symmetry_space_group_name_H-M "C 2 2 2"
_symmetry_group_IT_number 21
_symmetry_cell_setting 'orthorhombic'
loop_
_space_group_symop_operation_xyz
x,y,z
-x,-y,z
x,-y,-z
-x,y,-z
1/2+x,1/2+y,z
1/2-x,1/2-y,z
1/2+x,1/2-y,-z
1/2-x,1/2+y,-z
loop_
_atom_site_type_symbol
_atom_site_label
_atom_site_fract_x
_atom_site_fract_y
_atom_site_fract_z
Si Si1 0.734734 0.435754 0.387517
Si Si2 0.509901 0.865462 0.255026
Si Si3 0.590169 0.127862 0.542272
Si Si4 0.880350 0.364251 0.888435
Si Si5 0.110889 0.634706 0.142299
Si Si6 0.661196 0.226617 0.355622
Si Si7 0.706788 0.852181 0.298294
O O1 0.713858 0.500000 0.500000
O O2 0.677948 0.360332 0.345934
O O3 0.788681 0.349463 0.420274
O O4 0.754803 0.530330 0.295431
O O5 0.530389 0.835598 0.385259
O O6 0.561044 0.813547 0.172991
O O7 0.447934 0.813257 0.207008
O O8 0.500000 0.000000 0.243969
O O9 0.600161 0.208203 0.430780
O O10 0.648709 0.132937 0.622127
O O11 0.580204 0.000000 0.500000
O O12 0.887492 0.499942 0.874459
O O13 0.818169 0.325938 0.828314
O O14 0.880296 0.314809 0.016247
O O15 0.162410 0.677446 0.227386
O O16 0.750000 0.750000 0.339203
#
# Coordination Sequence:
#
# PCOD8160867 Si02
#       7
#     8   8   8   8   8   8   8
#     4  11  20  33  50  74 103 142 175 213 260 315
#     4   9  18  28  48  73 104 138 168 210 262 321
#     4  11  18  29  47  76 105 133 172 210 258 321
#     4   9  18  32  49  74 102 138 174 212 259 323
#     4  10  18  33  48  72 108 138 166 212 270 316
#     4  11  20  31  51  74 105 140 171 207 260 318
#     4  11  19  33  51  73 101 138 182 218 256 304
#
# _framework density 18.290986
#
# number of rings (size 3 to 8) (size 9 to 14) (size 15 to 20)
#    0.000    1.714    4.286    3.000    0.000    3.714 
#    2.571    0.000    0.000    0.000    0.000   14.000 
#    0.000    6.857    0.000    0.000    0.000    0.000 
#
# Total GULP energy -346882.593757 kJ/mol
# GULP energy per Si atom -12388.664063 kJ/mol
# Density = 1.824936 g / cm^3
# Si number density = 18.290986 Si / 1000 Ang^3
#
#
#
# Elastic Constant Matrix: (Units=GPa)
#
#
# Indices 1 2 3 4 5 6 
#
# 1 49.9820 24.7191 29.3853 0.0000 0.0000 0.0000
# 2 24.7191 61.1664 22.3050 0.0000 0.0000 0.0000
# 3 29.3853 22.3050 138.2194 0.0000 0.0000 0.0000
# 4 0.0000 0.0000 0.0000 13.7533 0.0000 0.0000
# 5 0.0000 0.0000 0.0000 0.0000 19.5744 0.0000
# 6 0.0000 0.0000 0.0000 0.0000 0.0000 13.6012
#
#
#
# Elastic Compliance Matrix: (Units=1/GPa)
#
#
# Indices 1 2 3 4 5 6 
#
# 1 0.027172 -0.009429 -0.004255 0.000000 0.000000 0.000000
# 2 -0.009429 0.020643 -0.001327 0.000000 0.000000 0.000000
# 3 -0.004255 -0.001327 0.008354 0.000000 0.000000 0.000000
# 4 0.000000 0.000000 0.000000 0.072710 0.000000 0.000000
# 5 0.000000 0.000000 0.000000 0.000000 0.051087 0.000000
# 6 0.000000 0.000000 0.000000 0.000000 0.000000 0.073523
#
#
# Mechanical properties :
#
#
# Convention : Reuss Voigt Hill
#
# Bulk Modulus (GPa) = 38.24552 44.68740 41.46646
# Shear Modulus (GPa) = 17.10999 20.91635 19.01317
#
# Velocity S-wave (km/s) = 3.06180 3.38528 3.22760
# Velocity P-wave (km/s) = 5.78398 6.30592 6.05058
#
# Compressibility (1/GPa) = 0.02614685
#
# Stress axis : x y z
#
# Youngs Moduli (GPa) = 36.80216 48.44184 119.70904
#
# Poissons Ratio (x) = 0.45678 0.50938
# Poissons Ratio (y) = 0.34702 0.15881
# Poissons Ratio (z) = 0.15660 0.06426
#
# Static dielectric constant tensor:
#      x y z
#    x 3.548040 0.000000 0.000000 
#    y 0.000000 2.938990 0.000000 
#    z 0.000000 0.000000 3.724670 
# 
# 
# High freq. dielectric constant tensor:
#      x y z
#    x 1.703840 0.000000 0.000000 
#    y 0.000000 1.642500 0.000000 
#    z 0.000000 0.000000 1.719990 
# 
# From -- ./inp_files/27459.got.cif
#   From: 2010.03.12/outbox.cif.g09.slc.cpg/sg21_14_cif.got.tgz:27459.got - 2010.04.14 01:59:26.
