data_PCOD8160878
_publ_section_title
;
Structure prediction by ZEFSAII (Michael W. Deem and Ramdas Pophale) SiO2 
 PCOD8160878
Probable space group: C 2 2 2
;
_chemical_formula_sum "Si O2"
_cell_formula_units_Z 52
_cell_length_a 13.127939
_cell_length_b 17.783087
_cell_length_c 11.032974
_cell_angle_alpha 90.000000
_cell_angle_beta 90.000000
_cell_angle_gamma 90.000000
_cell_volume 2575.706049
_symmetry_space_group_name_H-M "C 2 2 2"
_symmetry_group_IT_number 21
_symmetry_cell_setting 'orthorhombic'
loop_
_space_group_symop_operation_xyz
x,y,z
-x,-y,z
x,-y,-z
-x,y,-z
1/2+x,1/2+y,z
1/2-x,1/2-y,z
1/2+x,1/2-y,-z
1/2-x,1/2+y,-z
loop_
_atom_site_type_symbol
_atom_site_label
_atom_site_fract_x
_atom_site_fract_y
_atom_site_fract_z
Si Si1 0.636822 0.825282 0.319216
Si Si2 0.000000 0.500000 0.191451
Si Si3 0.188037 0.513725 0.637746
Si Si4 0.750000 0.750000 0.521425
Si Si5 0.594015 0.310613 0.068704
Si Si6 0.443298 0.154765 0.816044
Si Si7 0.250000 0.750000 0.893190
Si Si8 0.719590 0.371089 0.282051
O O1 0.708662 0.898304 0.341825
O O2 0.655593 0.771525 0.433635
O O3 0.515402 0.838991 0.305047
O O4 0.669222 0.792774 0.189541
O O5 0.096333 0.508963 0.276987
O O6 0.011241 0.578558 0.115698
O O7 0.156356 0.500000 0.500000
O O8 0.282230 0.458770 0.675603
O O9 0.706228 0.682028 0.601431
O O10 0.550276 0.227574 0.099697
O O11 0.627043 0.356467 0.188680
O O12 0.500000 0.352279 0.000000
O O13 0.690385 0.308316 0.979021
O O14 0.326253 0.150561 0.778328
#
# Coordination Sequence:
#
# PCOD8160878 Si02
#       8
#     8   4   8   4   8   8   4   8
#     4  10  22  34  57  94 121 157 199 256 311 366
#     4   8  19  28  51  88 128 154 191 223 300 388
#     4  10  18  34  55  84 127 162 190 242 307 373
#     4  11  19  34  54  90 127 151 208 244 302 381
#     4  12  22  38  62  83 117 163 208 266 295 353
#     4  10  18  35  55  86 121 158 194 242 303 371
#     4  11  21  38  60  84 117 153 212 254 302 343
#     4  11  21  36  59  89 121 166 207 240 309 373
#
# _framework density 20.188638999999998
#
# number of rings (size 3 to 8) (size 9 to 14) (size 15 to 20)
#    0.000    1.538    6.154    0.231    0.000    0.615 
#    0.000    1.154    0.000    1.846    0.000    1.077 
#    0.000    0.000    0.000    0.000    0.000    0.000 
#
# Total GULP energy -322095.286098 kJ/mol
# GULP energy per Si atom -12388.280235 kJ/mol
# Density = 2.014269 g / cm^3
# Si number density = 20.188639 Si / 1000 Ang^3
#
#
#
# Elastic Constant Matrix: (Units=GPa)
#
#
# Indices 1 2 3 4 5 6 
#
# 1 79.0284 17.2648 28.8175 0.0000 0.0000 0.0000
# 2 17.2648 93.3176 23.8701 0.0000 0.0000 0.0000
# 3 28.8175 23.8701 96.7584 0.0000 0.0000 0.0000
# 4 0.0000 0.0000 0.0000 -0.6977 0.0000 0.0000
# 5 0.0000 0.0000 0.0000 0.0000 147.0122 0.0000
# 6 0.0000 0.0000 0.0000 0.0000 0.0000 22.3081
#
#
#
# Elastic Compliance Matrix: (Units=1/GPa)
#
#
# Indices 1 2 3 4 5 6 
#
# 1 0.014437 -0.001677 -0.003886 0.000000 0.000000 0.000000
# 2 -0.001677 0.011633 -0.002370 0.000000 0.000000 0.000000
# 3 -0.003886 -0.002370 0.012077 0.000000 0.000000 0.000000
# 4 0.000000 0.000000 0.000000 -1.433266 0.000000 0.000000
# 5 0.000000 0.000000 0.000000 0.000000 0.006802 0.000000
# 6 0.000000 0.000000 0.000000 0.000000 0.000000 0.044827
#
#
# Mechanical properties :
#
#
# Convention : Reuss Voigt Hill
#
# Bulk Modulus (GPa) = 44.88297 45.44548 45.16422
# Shear Modulus (GPa) = -3.78731 47.00132 21.60701
#
# Velocity S-wave (km/s) = -1.37114 4.83028 3.27503
# Velocity P-wave (km/s) = 4.44672 7.32585 6.05976
#
# Compressibility (1/GPa) = 0.02228017
#
# Stress axis : x y z
#
# Youngs Moduli (GPa) = 69.26609 85.96480 82.80100
#
# Poissons Ratio (x) = 0.14416 0.32177
# Poissons Ratio (y) = 0.11616 0.19626
# Poissons Ratio (z) = 0.26917 0.20376
#
# Static dielectric constant tensor:
#      x y z
#    x 3.560020 0.000000 0.000000 
#    y 0.000000 4.040630 0.000000 
#    z 0.000000 0.000000 3.659850 
# 
# 
# High freq. dielectric constant tensor:
#      x y z
#    x 1.762070 0.000000 0.000000 
#    y 0.000000 1.781960 0.000000 
#    z 0.000000 0.000000 1.792720 
# 
# From -- ./inp_files/25425.got.cif
#   From: 2010.03.12/outbox.cif.g09.slc.cpg/sg21_13_cif.got.tgz:25425.got - 2010.04.14 01:59:26.
