data_PCOD8160494
_publ_section_title
;
Structure prediction by ZEFSAII (Michael W. Deem and Ramdas Pophale) SiO2 
 PCOD8160494
Probable space group: C 2 2 21
;
_chemical_formula_sum "Si O2"
_cell_formula_units_Z 64
_cell_length_a 22.430020
_cell_length_b 14.202516
_cell_length_c 9.111904
_cell_angle_alpha 90.000000
_cell_angle_beta 90.000000
_cell_angle_gamma 90.000000
_cell_volume 2902.712904
_symmetry_space_group_name_H-M "C 2 2 21"
_symmetry_group_IT_number 20
_symmetry_cell_setting 'orthorhombic'
loop_
_space_group_symop_operation_xyz
x,y,z
-x,-y,1/2+z
x,-y,-z
-x,y,1/2-z
1/2+x,1/2+y,z
1/2-x,1/2-y,1/2+z
1/2+x,1/2-y,-z
1/2-x,1/2+y,1/2-z
loop_
_atom_site_type_symbol
_atom_site_label
_atom_site_fract_x
_atom_site_fract_y
_atom_site_fract_z
Si Si1 0.481455 0.774783 0.417892
Si Si2 0.861767 0.054937 0.147797
Si Si3 0.130360 0.612947 0.000929
Si Si4 0.387746 0.251714 0.988883
Si Si5 0.695802 0.851818 0.287166
Si Si6 0.757001 0.036143 0.348549
Si Si7 0.696318 0.214719 0.264244
Si Si8 0.547336 0.429278 0.875784
O O1 0.500000 0.796523 0.250000
O O2 0.438822 0.855787 0.482920
O O3 0.542493 0.770857 0.514157
O O4 0.445097 0.676426 0.438411
O O5 0.794133 0.040990 0.196461
O O6 0.895220 0.024594 0.297745
O O7 0.880490 0.161425 0.121165
O O8 0.877882 0.000000 0.000000
O O9 0.168931 0.661141 0.873559
O O10 0.132697 0.500000 0.000000
O O11 0.160511 0.654099 0.146023
O O12 0.353385 0.272120 0.142115
O O13 0.354952 0.167682 0.906264
O O14 0.755808 0.787984 0.303065
O O15 0.706483 0.961379 0.313208
O O16 0.729973 0.140430 0.372099
O O17 0.789430 0.000000 0.500000
O O18 0.500000 0.420380 0.750000
O O19 0.524568 0.500000 0.000000
#
# Coordination Sequence:
#
# PCOD8160494 Si02
#       8
#     8   8   8   8   8   8   8   8
#     4  11  24  48  74  98 140 197 240 295 370 424
#     4  12  25  42  69 105 143 188 238 294 366 446
#     4  12  27  49  74 105 143 193 249 306 361 435
#     4  12  24  47  70  99 144 189 236 298 356 435
#     4  12  24  46  73  98 146 186 230 295 366 438
#     4  12  26  43  67 105 140 189 238 289 366 442
#     4  12  27  43  71 108 140 187 237 300 368 426
#     4  11  23  44  72 103 142 189 239 300 371 439
#
# _framework density 22.048338999999999
#
# number of rings (size 3 to 8) (size 9 to 14) (size 15 to 20)
#    0.000    0.250    7.500    2.250    1.750    2.500 
#    4.500    0.000    0.000    0.000    0.000    0.000 
#    0.000    0.000    0.000    0.000    0.000    0.000 
#
# Total GULP energy -396681.879761 kJ/mol
# GULP energy per Si atom -12396.308743 kJ/mol
# Density = 2.199816 g / cm^3
# Si number density = 22.048339 Si / 1000 Ang^3
#
#
#
# Elastic Constant Matrix: (Units=GPa)
#
#
# Indices 1 2 3 4 5 6 
#
# 1 107.8098 37.6936 31.0748 0.0000 0.0000 0.0000
# 2 37.6936 80.8475 17.7130 0.0000 0.0000 0.0000
# 3 31.0748 17.7130 75.6832 0.0000 0.0000 0.0000
# 4 0.0000 0.0000 0.0000 27.2698 0.0000 0.0000
# 5 0.0000 0.0000 0.0000 0.0000 22.0689 0.0000
# 6 0.0000 0.0000 0.0000 0.0000 0.0000 35.1125
#
#
#
# Elastic Compliance Matrix: (Units=1/GPa)
#
#
# Indices 1 2 3 4 5 6 
#
# 1 0.012050 -0.004779 -0.003829 0.000000 0.000000 0.000000
# 2 -0.004779 0.014933 -0.001533 0.000000 0.000000 0.000000
# 3 -0.003829 -0.001533 0.015144 0.000000 0.000000 0.000000
# 4 0.000000 0.000000 0.000000 0.036671 0.000000 0.000000
# 5 0.000000 0.000000 0.000000 0.000000 0.045313 0.000000
# 6 0.000000 0.000000 0.000000 0.000000 0.000000 0.028480
#
#
# Mechanical properties :
#
#
# Convention : Reuss Voigt Hill
#
# Bulk Modulus (GPa) = 45.77701 48.58925 47.18313
# Shear Modulus (GPa) = 27.75402 28.74752 28.25077
#
# Velocity S-wave (km/s) = 3.55178 3.61479 3.58342
# Velocity P-wave (km/s) = 6.13411 6.28552 6.21028
#
# Compressibility (1/GPa) = 0.02184503
#
# Stress axis : x y z
#
# Youngs Moduli (GPa) = 82.98556 66.96577 66.03324
#
# Poissons Ratio (x) = 0.32005 0.25285
# Poissons Ratio (y) = 0.39661 0.10120
# Poissons Ratio (z) = 0.31777 0.10263
#
# Static dielectric constant tensor:
#      x y z
#    x 4.674500 0.000000 0.000000 
#    y 0.000000 4.115100 0.000000 
#    z 0.000000 0.000000 3.991410 
# 
# 
# High freq. dielectric constant tensor:
#      x y z
#    x 1.868050 0.000000 0.000000 
#    y 0.000000 1.866020 0.000000 
#    z 0.000000 0.000000 1.872350 
# 
# From -- ./inp_files/10827.got.cif
#   From: 2010.03.12/outbox.cif.g09.slc.cpg/sg20_6_cif.got.tgz:10827.got - 2010.04.14 01:38:04.
