data_PCOD8160342
_publ_section_title
;
Structure prediction by ZEFSAII (Michael W. Deem and Ramdas Pophale) SiO2 
 PCOD8160342
Probable space group: C 2 2 21
;
_chemical_formula_sum "Si O2"
_cell_formula_units_Z 40
_cell_length_a 9.194403
_cell_length_b 23.561518
_cell_length_c 8.478467
_cell_angle_alpha 90.000000
_cell_angle_beta 90.000000
_cell_angle_gamma 90.000000
_cell_volume 1836.724998
_symmetry_space_group_name_H-M "C 2 2 21"
_symmetry_group_IT_number 20
_symmetry_cell_setting 'orthorhombic'
loop_
_space_group_symop_operation_xyz
x,y,z
-x,-y,1/2+z
x,-y,-z
-x,y,1/2-z
1/2+x,1/2+y,z
1/2-x,1/2-y,1/2+z
1/2+x,1/2-y,-z
1/2-x,1/2+y,1/2-z
loop_
_atom_site_type_symbol
_atom_site_label
_atom_site_fract_x
_atom_site_fract_y
_atom_site_fract_z
Si Si1 0.091423 0.551417 0.893161
Si Si2 0.906839 0.359564 0.896153
Si Si3 0.154978 0.126738 0.669414
Si Si4 0.841817 0.281169 0.174066
Si Si5 0.341650 0.652197 0.185707
O O1 0.224353 0.579209 0.795018
O O2 0.000000 0.525058 0.750000
O O3 0.147509 0.500000 0.000000
O O4 0.995858 0.595315 0.998781
O O5 0.760879 0.383088 0.807889
O O6 0.000000 0.336073 0.750000
O O7 0.853347 0.306524 0.999046
O O8 0.215974 0.186750 0.728979
O O9 0.148815 0.122263 0.481558
O O10 0.000000 0.112990 0.750000
O O11 0.786625 0.216857 0.163835
O O12 0.000000 0.288630 0.250000
O O13 0.500000 0.653523 0.250000
#
# Coordination Sequence:
#
# PCOD8160342 Si02
#       5
#     8   8   8   8   8
#     4  12  26  49  78 103 127 179 240 298 358 416
#     4  12  21  41  70 100 138 182 234 296 331 409
#     4  12  24  45  67  99 145 179 222 297 352 416
#     4  11  21  41  63 100 144 192 237 269 336 416
#     4  11  25  37  64 104 146 192 231 278 340 412
#
# _framework density 21.777892000000001
#
# number of rings (size 3 to 8) (size 9 to 14) (size 15 to 20)
#    0.000    0.400    6.000    3.000    0.000    6.400 
#    0.000    2.000    0.000    0.000    0.000    0.000 
#    0.000    0.000    0.000    0.000    0.000    0.000 
#
# Total GULP energy -247862.759845 kJ/mol
# GULP energy per Si atom -12393.137992 kJ/mol
# Density = 2.172832 g / cm^3
# Si number density = 21.777892 Si / 1000 Ang^3
#
#
#
# Elastic Constant Matrix: (Units=GPa)
#
#
# Indices 1 2 3 4 5 6 
#
# 1 114.8104 39.5022 29.1397 0.0000 0.0000 0.0000
# 2 39.5022 32.9507 -6.3974 0.0000 0.0000 0.0000
# 3 29.1397 -6.3974 98.8301 0.0000 0.0000 0.0000
# 4 0.0000 0.0000 0.0000 43.5958 0.0000 0.0000
# 5 0.0000 0.0000 0.0000 0.0000 41.7643 0.0000
# 6 0.0000 0.0000 0.0000 0.0000 0.0000 7.2428
#
#
#
# Elastic Compliance Matrix: (Units=1/GPa)
#
#
# Indices 1 2 3 4 5 6 
#
# 1 0.018667 -0.023746 -0.007041 0.000000 0.000000 0.000000
# 2 -0.023746 0.060940 0.010946 0.000000 0.000000 0.000000
# 3 -0.007041 0.010946 0.012903 0.000000 0.000000 0.000000
# 4 0.000000 0.000000 0.000000 0.022938 0.000000 0.000000
# 5 0.000000 0.000000 0.000000 0.000000 0.023944 0.000000
# 6 0.000000 0.000000 0.000000 0.000000 0.000000 0.138068
#
#
# Mechanical properties :
#
#
# Convention : Reuss Voigt Hill
#
# Bulk Modulus (GPa) = 18.92888 41.23114 30.08001
# Shear Modulus (GPa) = 14.93646 30.81036 22.87341
#
# Velocity S-wave (km/s) = 2.62172 3.76540 3.24436
# Velocity P-wave (km/s) = 4.22791 6.15451 5.27983
#
# Compressibility (1/GPa) = 0.05282933
#
# Stress axis : x y z
#
# Youngs Moduli (GPa) = 53.57018 16.40948 77.50162
#
# Poissons Ratio (x) = 0.38965 0.54569
# Poissons Ratio (y) = 1.27206 -0.84834
# Poissons Ratio (z) = 0.37719 -0.17962
#
# Static dielectric constant tensor:
#      x y z
#    x 4.203830 0.000000 0.000000 
#    y 0.000000 3.764570 0.000000 
#    z 0.000000 0.000000 4.224660 
# 
# 
# High freq. dielectric constant tensor:
#      x y z
#    x 1.867630 0.000000 0.000000 
#    y 0.000000 1.818150 0.000000 
#    z 0.000000 0.000000 1.881860 
# 
# From -- ./inp_files/6045.got.cif
#   From: 2010.03.12/outbox.cif.g09.slc.cpg/sg20_4_cif.got.tgz:6045.got - 2010.04.14 01:38:04.
