data_PCOD8160927
_publ_section_title
;
Structure prediction by ZEFSAII (Michael W. Deem and Ramdas Pophale) SiO2 
 PCOD8160927
Probable space group: C 2 2 2
;
_chemical_formula_sum "Si O2"
_cell_formula_units_Z 48
_cell_length_a 19.166319
_cell_length_b 19.221629
_cell_length_c 7.498394
_cell_angle_alpha 90.000000
_cell_angle_beta 90.000000
_cell_angle_gamma 90.000000
_cell_volume 2762.467385
_symmetry_space_group_name_H-M "C 2 2 2"
_symmetry_group_IT_number 21
_symmetry_cell_setting 'orthorhombic'
loop_
_space_group_symop_operation_xyz
x,y,z
-x,-y,z
x,-y,-z
-x,y,-z
1/2+x,1/2+y,z
1/2-x,1/2-y,z
1/2+x,1/2-y,-z
1/2-x,1/2+y,-z
loop_
_atom_site_type_symbol
_atom_site_label
_atom_site_fract_x
_atom_site_fract_y
_atom_site_fract_z
Si Si1 0.646996 0.921997 0.500000
Si Si2 0.919684 0.280616 0.500000
Si Si3 0.824383 0.782675 0.795166
Si Si4 0.259849 0.422833 0.202915
Si Si5 0.824383 0.217325 0.795166
Si Si6 0.240151 0.077167 0.797085
O O1 0.586413 0.864547 0.500000
O O2 0.693138 0.909730 0.324922
O O3 0.693138 0.909730 0.675078
O O4 0.614773 0.000000 0.500000
O O5 0.885016 0.248861 0.324020
O O6 0.885016 0.248861 0.675979
O O7 0.000000 0.259534 0.500000
O O8 0.750000 0.750000 0.741918
O O9 0.819634 0.865803 0.758571
O O10 0.842814 0.766258 0.000000
O O11 0.319634 0.365803 0.241429
O O12 0.291315 0.500000 0.238270
O O13 0.233223 0.414706 1.000000
O O14 0.750000 0.250000 0.741918
#
# Coordination Sequence:
#
# PCOD8160927 Si02
#       6
#     8   8   8   8   8   8
#     4  10  19  32  50  73 104 138 171 205 247 306
#     4  12  24  35  50  75 110 145 173 208 255 307
#     4  10  19  34  57  79 100 133 176 220 259 299
#     4   9  17  30  53  82 104 125 163 216 265 303
#     4  10  19  34  57  79 100 133 176 220 259 299
#     4   9  17  30  53  82 104 125 163 216 265 303
#
# _framework density 17.375771
#
# number of rings (size 3 to 8) (size 9 to 14) (size 15 to 20)
#    0.000    2.000    3.333    1.500    0.000    1.000 
#    0.000    0.000    0.000    2.000    0.000   11.667 
#    0.000    0.000    0.000    0.000    0.000    0.000 
#
# Total GULP energy -297550.802063 kJ/mol
# GULP energy per Si atom -12397.950086 kJ/mol
# Density = 1.733622 g / cm^3
# Si number density = 17.375771 Si / 1000 Ang^3
#
#
#
# Elastic Constant Matrix: (Units=GPa)
#
#
# Indices 1 2 3 4 5 6 
#
# 1 102.1674 53.3587 52.1382 0.0000 0.0000 0.0000
# 2 53.3587 131.3738 44.5634 0.0000 0.0000 0.0000
# 3 52.1382 44.5634 94.7036 0.0000 0.0000 0.0000
# 4 0.0000 0.0000 0.0000 25.8905 0.0000 0.0000
# 5 0.0000 0.0000 0.0000 0.0000 8.4682 0.0000
# 6 0.0000 0.0000 0.0000 0.0000 0.0000 18.2595
#
#
#
# Elastic Compliance Matrix: (Units=1/GPa)
#
#
# Indices 1 2 3 4 5 6 
#
# 1 0.015166 -0.003960 -0.006486 0.000000 0.000000 0.000000
# 2 -0.003960 0.010091 -0.002569 0.000000 0.000000 0.000000
# 3 -0.006486 -0.002569 0.015339 0.000000 0.000000 0.000000
# 4 0.000000 0.000000 0.000000 0.038624 0.000000 0.000000
# 5 0.000000 0.000000 0.000000 0.000000 0.118089 0.000000
# 6 0.000000 0.000000 0.000000 0.000000 0.000000 0.054766
#
#
# Mechanical properties :
#
#
# Convention : Reuss Voigt Hill
#
# Bulk Modulus (GPa) = 68.64720 69.81838 69.23279
# Shear Modulus (GPa) = 17.67030 22.40260 20.03645
#
# Velocity S-wave (km/s) = 3.19243 3.59458 3.39945
# Velocity P-wave (km/s) = 7.29260 7.58266 7.43904
#
# Compressibility (1/GPa) = 0.01456724
#
# Stress axis : x y z
#
# Youngs Moduli (GPa) = 65.93751 99.09433 65.19368
#
# Poissons Ratio (x) = 0.39237 0.42286
# Poissons Ratio (y) = 0.26108 0.16746
# Poissons Ratio (z) = 0.42769 0.25454
#
# Static dielectric constant tensor:
#      x y z
#    x 2.631340 0.000000 0.000000 
#    y 0.000000 3.767250 0.000000 
#    z 0.000000 0.000000 3.411270 
# 
# 
# High freq. dielectric constant tensor:
#      x y z
#    x 1.599190 0.000000 0.000000 
#    y 0.000000 1.699990 0.000000 
#    z 0.000000 0.000000 1.691990 
# 
# From -- ./inp_files/16719.got.cif
#   From: 2010.03.12/outbox.cif.g09.slc.cpg/sg21_9_cif.got.tgz:16719.got - 2010.04.14 01:59:26.
