data_PCOD8160349
_publ_section_title
;
Structure prediction by ZEFSAII (Michael W. Deem and Ramdas Pophale) SiO2 
 PCOD8160349
Probable space group: C 2 2 21
;
_chemical_formula_sum "Si O2"
_cell_formula_units_Z 40
_cell_length_a 22.518720
_cell_length_b 8.419479
_cell_length_c 9.998920
_cell_angle_alpha 90.000000
_cell_angle_beta 90.000000
_cell_angle_gamma 90.000000
_cell_volume 1895.754138
_symmetry_space_group_name_H-M "C 2 2 21"
_symmetry_group_IT_number 20
_symmetry_cell_setting 'orthorhombic'
loop_
_space_group_symop_operation_xyz
x,y,z
-x,-y,1/2+z
x,-y,-z
-x,y,1/2-z
1/2+x,1/2+y,z
1/2-x,1/2-y,1/2+z
1/2+x,1/2-y,-z
1/2-x,1/2+y,1/2-z
loop_
_atom_site_type_symbol
_atom_site_label
_atom_site_fract_x
_atom_site_fract_y
_atom_site_fract_z
Si Si1 0.672758 0.194454 0.762922
Si Si2 0.508357 0.146906 0.097080
Si Si3 0.883163 0.688461 0.009108
Si Si4 0.875253 0.814862 0.473493
Si Si5 0.800821 0.675947 0.245367
O O1 0.637527 0.258140 0.632881
O O2 0.731630 0.298474 0.780523
O O3 0.688155 0.010396 0.755215
O O4 0.629727 0.220823 0.887750
O O5 0.500000 0.085634 0.250000
O O6 0.562886 0.269032 0.095924
O O7 0.449918 0.242234 0.046897
O O8 0.522479 0.000000 0.000000
O O9 0.883553 0.500000 0.000000
O O10 0.837450 0.748904 0.121409
O O11 0.820268 0.765477 0.379796
O O12 0.872295 0.000000 0.500000
#
# Coordination Sequence:
#
# PCOD8160349 Si02
#       5
#     8   8   8   8   8
#     4  11  23  40  68  98 128 172 216 271 331 398
#     4  11  23  44  72  96 123 168 219 275 333 398
#     4   9  21  39  64  93 124 160 211 270 329 390
#     4  12  26  43  62  95 136 177 218 266 322 391
#     4  11  21  42  66  96 131 169 215 270 331 389
#
# _framework density 21.099782999999999
#
# number of rings (size 3 to 8) (size 9 to 14) (size 15 to 20)
#    0.000    1.200    2.000    4.200    5.600    1.600 
#    3.600    3.000    0.000    0.000    0.000    0.000 
#    0.000    0.000    0.000    0.000    0.000    0.000 
#
# Total GULP energy -248097.023385 kJ/mol
# GULP energy per Si atom -12404.851169 kJ/mol
# Density = 2.105176 g / cm^3
# Si number density = 21.099783 Si / 1000 Ang^3
#
#
#
# Elastic Constant Matrix: (Units=GPa)
#
#
# Indices 1 2 3 4 5 6 
#
# 1 110.4947 11.9171 33.7092 0.0000 0.0000 0.0000
# 2 11.9171 67.6724 27.7575 0.0000 0.0000 0.0000
# 3 33.7092 27.7575 154.6469 0.0000 0.0000 0.0000
# 4 0.0000 0.0000 0.0000 22.4079 0.0000 0.0000
# 5 0.0000 0.0000 0.0000 0.0000 41.6054 0.0000
# 6 0.0000 0.0000 0.0000 0.0000 0.0000 36.4450
#
#
#
# Elastic Compliance Matrix: (Units=1/GPa)
#
#
# Indices 1 2 3 4 5 6 
#
# 1 0.009747 -0.000912 -0.001961 0.000000 0.000000 0.000000
# 2 -0.000912 0.016037 -0.002680 0.000000 0.000000 0.000000
# 3 -0.001961 -0.002680 0.007375 0.000000 0.000000 0.000000
# 4 0.000000 0.000000 0.000000 0.044627 0.000000 0.000000
# 5 0.000000 0.000000 0.000000 0.000000 0.024035 0.000000
# 6 0.000000 0.000000 0.000000 0.000000 0.000000 0.027439
#
#
# Mechanical properties :
#
#
# Convention : Reuss Voigt Hill
#
# Bulk Modulus (GPa) = 45.34500 53.28684 49.31592
# Shear Modulus (GPa) = 33.84883 37.38700 35.61792
#
# Velocity S-wave (km/s) = 4.00962 4.21398 4.11307
# Velocity P-wave (km/s) = 6.55542 6.99902 6.78085
#
# Compressibility (1/GPa) = 0.02205315
#
# Stress axis : x y z
#
# Youngs Moduli (GPa) = 102.59793 62.35656 135.59835
#
# Poissons Ratio (x) = 0.05688 0.26589
# Poissons Ratio (y) = 0.09358 0.36335
# Poissons Ratio (z) = 0.20118 0.16709
#
# Static dielectric constant tensor:
#      x y z
#    x 4.079750 0.000000 0.000000 
#    y 0.000000 3.381820 0.000000 
#    z 0.000000 0.000000 4.055240 
# 
# 
# High freq. dielectric constant tensor:
#      x y z
#    x 1.841810 0.000000 0.000000 
#    y 0.000000 1.794650 0.000000 
#    z 0.000000 0.000000 1.848480 
# 
# From -- ./inp_files/6085.got.cif
#   From: 2010.03.12/outbox.cif.g09.slc.cpg/sg20_4_cif.got.tgz:6085.got - 2010.04.14 01:38:04.
