data_PCOD8160566
_publ_section_title
;
Structure prediction by ZEFSAII (Michael W. Deem and Ramdas Pophale) SiO2 
 PCOD8160566
Probable space group: C 2 2 21
;
_chemical_formula_sum "Si O2"
_cell_formula_units_Z 56
_cell_length_a 14.234277
_cell_length_b 11.985908
_cell_length_c 14.292316
_cell_angle_alpha 90.000000
_cell_angle_beta 90.000000
_cell_angle_gamma 90.000000
_cell_volume 2438.422531
_symmetry_space_group_name_H-M "C 2 2 21"
_symmetry_group_IT_number 20
_symmetry_cell_setting 'orthorhombic'
loop_
_space_group_symop_operation_xyz
x,y,z
-x,-y,1/2+z
x,-y,-z
-x,y,1/2-z
1/2+x,1/2+y,z
1/2-x,1/2-y,1/2+z
1/2+x,1/2-y,-z
1/2-x,1/2+y,1/2-z
loop_
_atom_site_type_symbol
_atom_site_label
_atom_site_fract_x
_atom_site_fract_y
_atom_site_fract_z
Si Si1 0.256219 0.043159 0.626963
Si Si2 0.642945 0.454460 0.906300
Si Si3 0.450809 0.933524 0.848219
Si Si4 0.201415 0.407501 0.326880
Si Si5 0.083103 0.500000 0.000000
Si Si6 0.844306 0.812209 0.880159
Si Si7 0.500000 0.605167 0.250000
Si Si8 0.299253 0.776577 0.923396
O O1 0.204631 0.929177 0.593637
O O2 0.281443 0.021715 0.733366
O O3 0.349241 0.071437 0.567442
O O4 0.193088 0.152133 0.617990
O O5 0.722809 0.549651 0.900933
O O6 0.577055 0.461965 0.812615
O O7 0.694585 0.333428 0.918371
O O8 0.587843 0.500000 0.000000
O O9 0.500000 0.912048 0.750000
O O10 0.367698 0.845452 0.857474
O O11 0.405039 0.057534 0.856656
O O12 0.523123 0.918266 0.934039
O O13 0.210156 0.273125 0.309661
O O14 0.946086 0.827159 0.831839
O O15 0.843447 0.732931 0.972195
#
# Coordination Sequence:
#
# PCOD8160566 Si02
#       8
#     8   8   8   8   4   8   4   8
#     4  12  25  46  73 101 149 199 243 302 384 457
#     4  11  24  49  77 109 149 205 251 313 384 458
#     4  11  25  43  71 114 144 185 253 318 365 443
#     4  11  24  45  73 101 147 193 243 303 382 449
#     4  12  24  44  74 108 142 190 254 310 364 442
#     4  12  25  47  72 107 146 199 244 308 381 459
#     4  12  28  46  74 118 154 190 264 320 376 456
#     4  11  25  46  75 104 151 197 245 309 390 453
#
# _framework density 22.965667
#
# number of rings (size 3 to 8) (size 9 to 14) (size 15 to 20)
#    0.000    0.571    5.714    1.714    5.000    4.571 
#    1.286    2.857    0.000    0.000    0.000    0.000 
#    0.000    0.000    0.000    0.000    0.000    0.000 
#
# Total GULP energy -346866.968394 kJ/mol
# GULP energy per Si atom -12388.106014 kJ/mol
# Density = 2.291340 g / cm^3
# Si number density = 22.965667 Si / 1000 Ang^3
#
#
#
# Elastic Constant Matrix: (Units=GPa)
#
#
# Indices 1 2 3 4 5 6 
#
# 1 102.1059 39.4173 48.2132 0.0000 0.0000 0.0000
# 2 39.4173 139.2245 26.2691 0.0000 0.0000 0.0000
# 3 48.2132 26.2691 121.1812 0.0000 0.0000 0.0000
# 4 0.0000 0.0000 0.0000 34.2836 0.0000 0.0000
# 5 0.0000 0.0000 0.0000 0.0000 48.1973 0.0000
# 6 0.0000 0.0000 0.0000 0.0000 0.0000 16.4321
#
#
#
# Elastic Compliance Matrix: (Units=1/GPa)
#
#
# Indices 1 2 3 4 5 6 
#
# 1 0.013048 -0.002830 -0.004578 0.000000 0.000000 0.000000
# 2 -0.002830 0.008103 -0.000630 0.000000 0.000000 0.000000
# 3 -0.004578 -0.000630 0.010210 0.000000 0.000000 0.000000
# 4 0.000000 0.000000 0.000000 0.029168 0.000000 0.000000
# 5 0.000000 0.000000 0.000000 0.000000 0.020748 0.000000
# 6 0.000000 0.000000 0.000000 0.000000 0.000000 0.060857
#
#
# Mechanical properties :
#
#
# Convention : Reuss Voigt Hill
#
# Bulk Modulus (GPa) = 65.42835 65.59009 65.50922
# Shear Modulus (GPa) = 30.61741 36.35672 33.48707
#
# Velocity S-wave (km/s) = 3.65524 3.98312 3.82270
# Velocity P-wave (km/s) = 6.80925 7.05519 6.93331
#
# Compressibility (1/GPa) = 0.01528390
#
# Stress axis : x y z
#
# Youngs Moduli (GPa) = 76.64042 123.41199 97.94280
#
# Poissons Ratio (x) = 0.34931 0.44835
# Poissons Ratio (y) = 0.21692 0.06174
# Poissons Ratio (z) = 0.35084 0.07780
#
# Static dielectric constant tensor:
#      x y z
#    x 4.028680 0.000000 0.000000 
#    y 0.000000 3.939420 0.000000 
#    z 0.000000 0.000000 4.412030 
# 
# 
# High freq. dielectric constant tensor:
#      x y z
#    x 1.889080 0.000000 0.000000 
#    y 0.000000 1.895890 0.000000 
#    z 0.000000 0.000000 1.935930 
# 
# From -- ./inp_files/20782.got.cif
#   From: 2010.03.12/outbox.cif.g09.slc.cpg/sg20_11_cif.got.tgz:20782.got - 2010.04.14 01:38:04.
