data_PCOD8160799
_publ_section_title
;
Structure prediction by ZEFSAII (Michael W. Deem and Ramdas Pophale) SiO2 
 PCOD8160799
Probable space group: C 2 2 2
;
_chemical_formula_sum "Si O2"
_cell_formula_units_Z 48
_cell_length_a 9.104401
_cell_length_b 31.134292
_cell_length_c 8.574023
_cell_angle_alpha 90.000000
_cell_angle_beta 90.000000
_cell_angle_gamma 90.000000
_cell_volume 2430.384665
_symmetry_space_group_name_H-M "C 2 2 2"
_symmetry_group_IT_number 21
_symmetry_cell_setting 'orthorhombic'
loop_
_space_group_symop_operation_xyz
x,y,z
-x,-y,z
x,-y,-z
-x,y,-z
1/2+x,1/2+y,z
1/2-x,1/2-y,z
1/2+x,1/2-y,-z
1/2-x,1/2+y,-z
loop_
_atom_site_type_symbol
_atom_site_label
_atom_site_fract_x
_atom_site_fract_y
_atom_site_fract_z
Si Si1 0.158440 0.707065 0.069739
Si Si2 0.836167 0.957020 0.934360
Si Si3 0.338583 0.369643 0.433148
Si Si4 0.661417 0.369643 0.933148
Si Si5 0.336167 0.457020 0.565640
Si Si6 0.341560 0.792935 0.430261
O O1 0.250000 0.750000 0.047090
O O2 0.148413 0.693496 0.250000
O O3 0.232971 0.669399 0.972408
O O4 0.000000 0.716309 0.000000
O O5 0.835460 0.958374 0.750000
O O6 0.763695 0.912803 0.994945
O O7 0.000000 0.956607 0.000000
O O8 0.755049 0.000000 0.000000
O O9 0.500000 0.360378 0.500000
O O10 0.353212 0.375565 0.250000
O O11 0.263695 0.412803 0.505055
O O12 0.232971 0.330601 0.472408
O O13 0.500000 0.360378 0.000000
O O14 0.255049 0.500000 0.500000
O O15 0.500000 0.456607 0.500000
O O16 0.500000 0.783691 0.500000
O O17 0.250000 0.750000 0.452910
#
# Coordination Sequence:
#
# PCOD8160799 Si02
#       6
#     8   8   8   8   8   8
#     4  11  24  41  61  85 113 146 185 229 279 334
#     4  10  17  28  47  75 110 146 186 230 277 326
#     4  11  21  35  56  83 115 150 189 233 281 331
#     4  11  21  35  56  83 115 150 189 233 281 331
#     4  10  17  28  47  75 110 146 186 230 277 326
#     4  11  24  41  61  85 113 146 185 229 279 334
#
# _framework density 19.749959
#
# number of rings (size 3 to 8) (size 9 to 14) (size 15 to 20)
#    0.000    1.333    0.000   11.000    0.000    5.333 
#    0.000    0.000    0.000    1.000    0.000    7.000 
#    0.000    0.000    0.000    0.000    0.000    0.000 
#
# Total GULP energy -297595.725702 kJ/mol
# GULP energy per Si atom -12399.821904 kJ/mol
# Density = 1.970501 g / cm^3
# Si number density = 19.749959 Si / 1000 Ang^3
#
#
#
# Elastic Constant Matrix: (Units=GPa)
#
#
# Indices 1 2 3 4 5 6 
#
# 1 74.3192 32.0031 34.7715 0.0000 0.0000 0.0000
# 2 32.0031 130.5482 62.8899 0.0000 0.0000 0.0000
# 3 34.7715 62.8899 193.4370 0.0000 0.0000 0.0000
# 4 0.0000 0.0000 0.0000 38.4625 0.0000 0.0000
# 5 0.0000 0.0000 0.0000 0.0000 22.3652 0.0000
# 6 0.0000 0.0000 0.0000 0.0000 0.0000 28.3692
#
#
#
# Elastic Compliance Matrix: (Units=1/GPa)
#
#
# Indices 1 2 3 4 5 6 
#
# 1 0.015582 -0.002929 -0.001849 0.000000 0.000000 0.000000
# 2 -0.002929 0.009633 -0.002605 0.000000 0.000000 0.000000
# 3 -0.001849 -0.002605 0.006349 0.000000 0.000000 0.000000
# 4 0.000000 0.000000 0.000000 0.025999 0.000000 0.000000
# 5 0.000000 0.000000 0.000000 0.000000 0.044712 0.000000
# 6 0.000000 0.000000 0.000000 0.000000 0.000000 0.035249
#
#
# Mechanical properties :
#
#
# Convention : Reuss Voigt Hill
#
# Bulk Modulus (GPa) = 59.53248 73.07037 66.30142
# Shear Modulus (GPa) = 31.66747 35.74869 33.70808
#
# Velocity S-wave (km/s) = 4.00862 4.25910 4.13576
# Velocity P-wave (km/s) = 7.18567 7.82717 7.51327
#
# Compressibility (1/GPa) = 0.01679755
#
# Stress axis : x y z
#
# Youngs Moduli (GPa) = 64.17768 103.80764 157.50534
#
# Poissons Ratio (x) = 0.30408 0.29116
# Poissons Ratio (y) = 0.18799 0.41036
# Poissons Ratio (z) = 0.11864 0.27046
#
# Static dielectric constant tensor:
#      x y z
#    x 3.173150 0.000000 0.000000 
#    y 0.000000 4.723750 0.000000 
#    z 0.000000 0.000000 3.785860 
# 
# 
# High freq. dielectric constant tensor:
#      x y z
#    x 1.718170 0.000000 0.000000 
#    y 0.000000 1.801690 0.000000 
#    z 0.000000 0.000000 1.794580 
# 
# From -- ./inp_files/11483.got.cif
#   From: 2010.03.12/outbox.cif.g09.slc.cpg/sg21_6_cif.got.tgz:11483.got - 2010.04.14 01:59:26.
