data_PCOD8160904
_publ_section_title
;
Structure prediction by ZEFSAII (Michael W. Deem and Ramdas Pophale) SiO2 
 PCOD8160904
Probable space group: C 2 2 2
;
_chemical_formula_sum "Si O2"
_cell_formula_units_Z 38
_cell_length_a 8.582898
_cell_length_b 16.656574
_cell_length_c 11.810422
_cell_angle_alpha 90.000000
_cell_angle_beta 90.000000
_cell_angle_gamma 90.000000
_cell_volume 1688.437720
_symmetry_space_group_name_H-M "C 2 2 2"
_symmetry_group_IT_number 21
_symmetry_cell_setting 'orthorhombic'
loop_
_space_group_symop_operation_xyz
x,y,z
-x,-y,z
x,-y,-z
-x,y,-z
1/2+x,1/2+y,z
1/2-x,1/2-y,z
1/2+x,1/2-y,-z
1/2-x,1/2+y,-z
loop_
_atom_site_type_symbol
_atom_site_label
_atom_site_fract_x
_atom_site_fract_y
_atom_site_fract_z
Si Si1 0.000000 0.159807 0.000000
Si Si2 0.500000 0.500000 0.500000
Si Si3 0.715490 0.934442 0.083016
Si Si4 0.246958 0.513480 0.671924
Si Si5 0.961566 0.372937 0.376166
Si Si6 0.422814 0.781985 0.818977
O O1 0.149860 0.104643 0.007592
O O2 0.983420 0.216606 0.109563
O O3 0.385599 0.546094 0.589169
O O4 0.790131 0.976237 0.195607
O O5 0.588889 0.866616 0.113940
O O6 0.636354 0.000000 0.000000
O O7 0.203098 0.420662 0.638838
O O8 0.096419 0.565583 0.652995
O O9 0.000000 0.339231 0.500000
O O10 0.973643 0.296491 0.292981
O O11 0.250000 0.750000 0.788151
#
# Coordination Sequence:
#
# PCOD8160904 Si02
#       6
#     4   2   8   8   8   8
#     4  10  21  40  57  86 128 174 188 268 331 384
#     4  12  20  34  54  96 140 154 200 266 354 370
#     4  10  22  38  61  92 125 162 221 264 317 386
#     4  10  21  35  61  96 129 164 207 279 328 379
#     4  10  18  40  64  90 126 169 219 268 326 391
#     4   9  21  39  64  85 128 170 212 266 332 387
#
# _framework density 22.506011999999998
#
# number of rings (size 3 to 8) (size 9 to 14) (size 15 to 20)
#    0.000    2.105    2.105    0.947    5.895    0.000 
#    0.000    0.000   25.474    0.000    0.000    0.000 
#    0.000    0.000    0.000    0.000    0.000    0.000 
#
# Total GULP energy -235412.586341 kJ/mol
# GULP energy per Si atom -12390.136123 kJ/mol
# Density = 2.245479 g / cm^3
# Si number density = 22.506012 Si / 1000 Ang^3
#
#
#
# Elastic Constant Matrix: (Units=GPa)
#
#
# Indices 1 2 3 4 5 6 
#
# 1 66.0993 19.8230 37.6236 0.0000 0.0000 0.0000
# 2 19.8230 83.1759 53.0784 0.0000 0.0000 0.0000
# 3 37.6236 53.0784 157.9035 0.0000 0.0000 0.0000
# 4 0.0000 0.0000 0.0000 19.7807 0.0000 0.0000
# 5 0.0000 0.0000 0.0000 0.0000 32.0503 0.0000
# 6 0.0000 0.0000 0.0000 0.0000 0.0000 13.8396
#
#
#
# Elastic Compliance Matrix: (Units=1/GPa)
#
#
# Indices 1 2 3 4 5 6 
#
# 1 0.017747 -0.001949 -0.003573 0.000000 0.000000 0.000000
# 2 -0.001949 0.015520 -0.004753 0.000000 0.000000 0.000000
# 3 -0.003573 -0.004753 0.008782 0.000000 0.000000 0.000000
# 4 0.000000 0.000000 0.000000 0.050554 0.000000 0.000000
# 5 0.000000 0.000000 0.000000 0.000000 0.031201 0.000000
# 6 0.000000 0.000000 0.000000 0.000000 0.000000 0.072256
#
#
# Mechanical properties :
#
#
# Convention : Reuss Voigt Hill
#
# Bulk Modulus (GPa) = 46.51403 58.69209 52.60306
# Shear Modulus (GPa) = 22.34361 26.24437 24.29399
#
# Velocity S-wave (km/s) = 3.15427 3.41853 3.28905
# Velocity P-wave (km/s) = 5.82907 6.45886 6.15203
#
# Compressibility (1/GPa) = 0.02149889
#
# Stress axis : x y z
#
# Youngs Moduli (GPa) = 56.34651 64.43258 113.86987
#
# Poissons Ratio (x) = 0.12560 0.40690
# Poissons Ratio (y) = 0.10984 0.54117
# Poissons Ratio (z) = 0.20135 0.30622
#
# Static dielectric constant tensor:
#      x y z
#    x 3.951070 0.000000 0.000000 
#    y 0.000000 4.190920 0.000000 
#    z 0.000000 0.000000 4.808380 
# 
# 
# High freq. dielectric constant tensor:
#      x y z
#    x 1.865730 0.000000 0.000000 
#    y 0.000000 1.861180 0.000000 
#    z 0.000000 0.000000 1.904080 
# 
# From -- ./inp_files/22330.got.cif
#   From: 2010.03.12/outbox.cif.g09.slc.cpg/sg21_12_cif.got.tgz:22330.got - 2010.04.14 01:59:26.
