data_PCOD8160879
_publ_section_title
;
Structure prediction by ZEFSAII (Michael W. Deem and Ramdas Pophale) SiO2 
 PCOD8160879
Probable space group: C 2 2 2
;
_chemical_formula_sum "Si O2"
_cell_formula_units_Z 64
_cell_length_a 11.965464
_cell_length_b 31.575048
_cell_length_c 8.926676
_cell_angle_alpha 90.000000
_cell_angle_beta 90.000000
_cell_angle_gamma 90.000000
_cell_volume 3372.588353
_symmetry_space_group_name_H-M "C 2 2 2"
_symmetry_group_IT_number 21
_symmetry_cell_setting 'orthorhombic'
loop_
_space_group_symop_operation_xyz
x,y,z
-x,-y,z
x,-y,-z
-x,y,-z
1/2+x,1/2+y,z
1/2-x,1/2-y,z
1/2+x,1/2-y,-z
1/2-x,1/2+y,-z
loop_
_atom_site_type_symbol
_atom_site_label
_atom_site_fract_x
_atom_site_fract_y
_atom_site_fract_z
Si Si1 0.485247 0.715816 0.174658
Si Si2 0.246627 0.577877 0.664080
Si Si3 0.010019 0.605519 0.678677
Si Si4 0.602588 0.654290 0.394939
Si Si5 0.529864 0.800481 0.670449
Si Si6 0.229701 0.418373 0.685230
Si Si7 0.780369 0.177134 0.322970
Si Si8 0.127148 0.002965 0.679367
O O1 0.566108 0.683939 0.260502
O O2 0.516813 0.763432 0.223740
O O3 0.358584 0.703866 0.214079
O O4 0.500000 0.710372 0.000000
O O5 0.124472 0.584674 0.739859
O O6 0.333018 0.616171 0.686094
O O7 0.223319 0.572158 0.489791
O O8 0.301700 0.536805 0.739974
O O9 0.000000 0.605042 0.500000
O O10 0.018568 0.654738 0.726790
O O11 0.899514 0.581834 0.746118
O O12 0.500000 0.637362 0.500000
O O13 0.683410 0.681091 0.503270
O O14 0.500000 0.789710 0.500000
O O15 0.661949 0.801391 0.689653
O O16 0.282959 0.372728 0.721717
O O17 0.310860 0.455357 0.748169
O O18 0.124931 0.000000 0.500000
O O19 0.000000 0.000000 0.740521
#
# Coordination Sequence:
#
# PCOD8160879 Si02
#       8
#     8   8   8   8   8   8   8   8
#     4  11  23  35  48  74 107 137 169 214 269 320
#     4   9  16  26  42  69 100 128 165 210 251 297
#     4   8  15  28  45  65  94 129 169 207 249 302
#     4   9  18  31  52  72  96 137 176 214 258 309
#     4  10  18  34  56  75  96 132 181 222 259 307
#     4   8  15  27  44  68  95 133 167 205 253 299
#     4   9  18  34  55  73  99 136 178 217 257 309
#     4   9  17  22  37  68 103 134 161 199 250 303
#
# _framework density 18.976521999999999
#
# number of rings (size 3 to 8) (size 9 to 14) (size 15 to 20)
#    0.000    2.875    0.000    3.750    7.000    0.500 
#    0.000    9.375    0.000    0.000    0.000    1.750 
#    0.000    0.000    0.000    4.375    0.000   10.000 
#
# Total GULP energy -396554.614817 kJ/mol
# GULP energy per Si atom -12392.331713 kJ/mol
# Density = 1.893333 g / cm^3
# Si number density = 18.976522 Si / 1000 Ang^3
#
#
#
# Elastic Constant Matrix: (Units=GPa)
#
#
# Indices 1 2 3 4 5 6 
#
# 1 125.8333 82.6783 17.2032 0.0000 0.0000 0.0000
# 2 82.6783 124.4352 36.3651 0.0000 0.0000 0.0000
# 3 17.2032 36.3651 48.1143 0.0000 0.0000 0.0000
# 4 0.0000 0.0000 0.0000 1.1756 0.0000 0.0000
# 5 0.0000 0.0000 0.0000 0.0000 6.7369 0.0000
# 6 0.0000 0.0000 0.0000 0.0000 0.0000 22.5608
#
#
#
# Elastic Compliance Matrix: (Units=1/GPa)
#
#
# Indices 1 2 3 4 5 6 
#
# 1 0.014366 -0.010325 0.002667 0.000000 0.000000 0.000000
# 2 -0.010325 0.017735 -0.009712 0.000000 0.000000 0.000000
# 3 0.002667 -0.009712 0.027171 0.000000 0.000000 0.000000
# 4 0.000000 0.000000 0.000000 0.850601 0.000000 0.000000
# 5 0.000000 0.000000 0.000000 0.000000 0.148437 0.000000
# 6 0.000000 0.000000 0.000000 0.000000 0.000000 0.044325
#
#
# Mechanical properties :
#
#
# Convention : Reuss Voigt Hill
#
# Bulk Modulus (GPa) = 40.76408 63.43068 52.09738
# Shear Modulus (GPa) = 4.36471 16.90375 10.63423
#
# Velocity S-wave (km/s) = 1.51824 2.98782 2.36982
# Velocity P-wave (km/s) = 4.95998 6.73804 5.91619
#
# Compressibility (1/GPa) = 0.02453140
#
# Stress axis : x y z
#
# Youngs Moduli (GPa) = 69.60775 56.38669 36.80394
#
# Poissons Ratio (x) = 0.58217 -0.09815
# Poissons Ratio (y) = 0.71868 0.35745
# Poissons Ratio (z) = -0.18563 0.54765
#
# Static dielectric constant tensor:
#      x y z
#    x 3.994060 0.000000 0.000000 
#    y 0.000000 3.641460 0.000000 
#    z 0.000000 0.000000 2.742910 
# 
# 
# High freq. dielectric constant tensor:
#      x y z
#    x 1.755730 0.000000 0.000000 
#    y 0.000000 1.743610 0.000000 
#    z 0.000000 0.000000 1.655960 
# 
# From -- ./inp_files/13694.got.cif
#   From: 2010.03.12/outbox.cif.g09.slc.cpg/sg21_7_cif.got.tgz:13694.got - 2010.04.14 01:59:26.
