data_PCOD8160039
_publ_section_title
;
Structure prediction by ZEFSAII (Michael W. Deem and Ramdas Pophale) SiO2 
 PCOD8160039
Probable space group: C 2 2 21
;
_chemical_formula_sum "Si O2"
_cell_formula_units_Z 40
_cell_length_a 22.104796
_cell_length_b 9.483398
_cell_length_c 8.755231
_cell_angle_alpha 90.000000
_cell_angle_beta 90.000000
_cell_angle_gamma 90.000000
_cell_volume 1835.346626
_symmetry_space_group_name_H-M "C 2 2 21"
_symmetry_group_IT_number 20
_symmetry_cell_setting 'orthorhombic'
loop_
_space_group_symop_operation_xyz
x,y,z
-x,-y,1/2+z
x,-y,-z
-x,y,1/2-z
1/2+x,1/2+y,z
1/2-x,1/2-y,1/2+z
1/2+x,1/2-y,-z
1/2-x,1/2+y,1/2-z
loop_
_atom_site_type_symbol
_atom_site_label
_atom_site_fract_x
_atom_site_fract_y
_atom_site_fract_z
Si Si1 0.844693 0.632344 0.667184
Si Si2 0.624941 0.638915 0.921028
Si Si3 0.790147 0.910798 0.142624
Si Si4 0.068972 0.386324 0.760729
Si Si5 0.658992 0.848557 0.502873
O O1 0.844638 0.754987 0.542282
O O2 0.780061 0.552143 0.666129
O O3 0.894069 0.507196 0.645743
O O4 0.854410 0.707023 0.831840
O O5 0.673188 0.574782 0.800451
O O6 0.572997 0.732705 0.841455
O O7 0.595890 0.500000 0.000000
O O8 0.794880 0.748143 0.094256
O O9 0.817678 0.000000 0.000000
O O10 0.095245 0.367389 0.590780
O O11 0.000000 0.435208 0.750000
O O12 0.691971 0.000000 0.500000
#
# Coordination Sequence:
#
# PCOD8160039 Si02
#       5
#     8   8   8   8   8
#     4  11  22  38  63  94 124 166 217 266 319 379
#     4  11  24  39  61  93 128 165 209 265 323 382
#     4  11  22  38  59  89 132 171 207 257 322 395
#     4  10  23  45  65  88 124 168 218 265 316 385
#     4   9  21  38  59  88 121 164 208 259 324 383
#
# _framework density 21.794249000000001
#
# number of rings (size 3 to 8) (size 9 to 14) (size 15 to 20)
#    0.000    1.600    0.000    4.200    0.000   16.000 
#    0.000    7.000    0.000    0.000    0.000    0.000 
#    0.000    0.000    0.000    0.000    0.000    0.000 
#
# Total GULP energy -247865.324948 kJ/mol
# GULP energy per Si atom -12393.266247 kJ/mol
# Density = 2.174464 g / cm^3
# Si number density = 21.794249 Si / 1000 Ang^3
#
#
#
# Elastic Constant Matrix: (Units=GPa)
#
#
# Indices 1 2 3 4 5 6 
#
# 1 115.9179 36.7965 20.2150 0.0000 0.0000 0.0000
# 2 36.7965 109.4960 36.6431 0.0000 0.0000 0.0000
# 3 20.2150 36.6431 143.8746 0.0000 0.0000 0.0000
# 4 0.0000 0.0000 0.0000 51.7960 0.0000 0.0000
# 5 0.0000 0.0000 0.0000 0.0000 17.5181 0.0000
# 6 0.0000 0.0000 0.0000 0.0000 0.0000 21.2270
#
#
#
# Elastic Compliance Matrix: (Units=1/GPa)
#
#
# Indices 1 2 3 4 5 6 
#
# 1 0.009701 -0.003065 -0.000582 0.000000 0.000000 0.000000
# 2 -0.003065 0.010952 -0.002359 0.000000 0.000000 0.000000
# 3 -0.000582 -0.002359 0.007633 0.000000 0.000000 0.000000
# 4 0.000000 0.000000 0.000000 0.019307 0.000000 0.000000
# 5 0.000000 0.000000 0.000000 0.000000 0.057084 0.000000
# 6 0.000000 0.000000 0.000000 0.000000 0.000000 0.047110
#
#
# Mechanical properties :
#
#
# Convention : Reuss Voigt Hill
#
# Bulk Modulus (GPa) = 61.44817 61.84418 61.64618
# Shear Modulus (GPa) = 29.54660 36.48381 33.01520
#
# Velocity S-wave (km/s) = 3.68599 4.09591 3.89634
# Velocity P-wave (km/s) = 6.80964 7.12787 6.97057
#
# Compressibility (1/GPa) = 0.01627388
#
# Stress axis : x y z
#
# Youngs Moduli (GPa) = 103.07798 91.30583 131.00905
#
# Poissons Ratio (x) = 0.27988 0.07630
# Poissons Ratio (y) = 0.31596 0.30901
# Poissons Ratio (z) = 0.06003 0.21536
#
# Static dielectric constant tensor:
#      x y z
#    x 3.352340 0.000000 0.000000 
#    y 0.000000 4.040100 0.000000 
#    z 0.000000 0.000000 4.430330 
# 
# 
# High freq. dielectric constant tensor:
#      x y z
#    x 1.806900 0.000000 0.000000 
#    y 0.000000 1.861340 0.000000 
#    z 0.000000 0.000000 1.888220 
# 
# From -- ./inp_files/10491.got.cif
#   From: 2010.03.12/outbox.cif.g09.slc.cpg/sg20_6_cif.got.tgz:10491.got - 2010.04.14 01:38:04.
