data_PCOD8160296
_publ_section_title
;
Structure prediction by ZEFSAII (Michael W. Deem and Ramdas Pophale) SiO2 
 PCOD8160296
Probable space group: C 2 2 21
;
_chemical_formula_sum "Si O2"
_cell_formula_units_Z 48
_cell_length_a 16.047646
_cell_length_b 8.593315
_cell_length_c 16.842583
_cell_angle_alpha 90.000000
_cell_angle_beta 90.000000
_cell_angle_gamma 90.000000
_cell_volume 2322.633916
_symmetry_space_group_name_H-M "C 2 2 21"
_symmetry_group_IT_number 20
_symmetry_cell_setting 'orthorhombic'
loop_
_space_group_symop_operation_xyz
x,y,z
-x,-y,1/2+z
x,-y,-z
-x,y,1/2-z
1/2+x,1/2+y,z
1/2-x,1/2-y,1/2+z
1/2+x,1/2-y,-z
1/2-x,1/2+y,1/2-z
loop_
_atom_site_type_symbol
_atom_site_label
_atom_site_fract_x
_atom_site_fract_y
_atom_site_fract_z
Si Si1 0.857218 0.084483 0.922220
Si Si2 0.744923 0.666227 0.335760
Si Si3 0.271913 0.643543 0.446605
Si Si4 0.469316 0.818989 0.840714
Si Si5 0.811617 0.501138 0.191207
Si Si6 0.879154 0.335180 0.539066
O O1 0.790338 0.209253 0.954120
O O2 0.928724 0.158598 0.868256
O O3 0.821567 0.960181 0.861080
O O4 0.895131 0.000000 0.000000
O O5 0.809451 0.585516 0.275646
O O6 0.698037 0.816216 0.299707
O O7 0.800653 0.720018 0.408976
O O8 0.240041 0.500000 0.500000
O O9 0.265876 0.577417 0.357196
O O10 0.366945 0.702912 0.469313
O O11 0.500000 0.804225 0.750000
O O12 0.539116 0.846375 0.907718
O O13 0.401924 0.959384 0.847423
O O14 0.863007 0.500000 0.500000
#
# Coordination Sequence:
#
# PCOD8160296 Si02
#       6
#     8   8   8   8   8   8
#     4  11  22  42  68  97 131 173 222 276 326 397
#     4  12  22  43  73  98 126 177 226 278 321 404
#     4  11  20  38  66  98 126 167 226 267 315 397
#     4  11  26  44  64  96 144 177 216 278 355 403
#     4  11  24  40  71  97 132 173 225 275 334 403
#     4  12  24  43  67  96 138 173 223 280 337 398
#
# _framework density 20.666193
#
# number of rings (size 3 to 8) (size 9 to 14) (size 15 to 20)
#    0.000    0.667    6.667    2.000    0.000    4.667 
#    0.000    0.833    0.000    0.000    0.000    0.000 
#    0.000    0.000    0.000    0.000    0.000    0.000 
#
# Total GULP energy -297382.270746 kJ/mol
# GULP energy per Si atom -12390.927948 kJ/mol
# Density = 2.061916 g / cm^3
# Si number density = 20.666193 Si / 1000 Ang^3
#
#
#
# Elastic Constant Matrix: (Units=GPa)
#
#
# Indices 1 2 3 4 5 6 
#
# 1 82.8252 47.0768 34.2127 0.0000 0.0000 0.0000
# 2 47.0768 147.0802 38.4795 0.0000 0.0000 0.0000
# 3 34.2127 38.4795 79.4424 0.0000 0.0000 0.0000
# 4 0.0000 0.0000 0.0000 34.8953 0.0000 0.0000
# 5 0.0000 0.0000 0.0000 0.0000 41.2308 0.0000
# 6 0.0000 0.0000 0.0000 0.0000 0.0000 20.1299
#
#
#
# Elastic Compliance Matrix: (Units=1/GPa)
#
#
# Indices 1 2 3 4 5 6 
#
# 1 0.016435 -0.003903 -0.005187 0.000000 0.000000 0.000000
# 2 -0.003903 0.008713 -0.002539 0.000000 0.000000 0.000000
# 3 -0.005187 -0.002539 0.016052 0.000000 0.000000 0.000000
# 4 0.000000 0.000000 0.000000 0.028657 0.000000 0.000000
# 5 0.000000 0.000000 0.000000 0.000000 0.024254 0.000000
# 6 0.000000 0.000000 0.000000 0.000000 0.000000 0.049677
#
#
# Mechanical properties :
#
#
# Convention : Reuss Voigt Hill
#
# Bulk Modulus (GPa) = 55.74211 60.98731 58.36471
# Shear Modulus (GPa) = 28.89727 31.88978 30.39353
#
# Velocity S-wave (km/s) = 3.74342 3.93248 3.83912
# Velocity P-wave (km/s) = 6.76132 7.08477 6.92493
#
# Compressibility (1/GPa) = 0.01793976
#
# Stress axis : x y z
#
# Youngs Moduli (GPa) = 60.84613 114.77546 62.29926
#
# Poissons Ratio (x) = 0.44800 0.32316
# Poissons Ratio (y) = 0.23750 0.15819
# Poissons Ratio (z) = 0.31562 0.29143
#
# Static dielectric constant tensor:
#      x y z
#    x 3.630370 0.000000 0.000000 
#    y 0.000000 3.858390 0.000000 
#    z 0.000000 0.000000 4.058060 
# 
# 
# High freq. dielectric constant tensor:
#      x y z
#    x 1.777370 0.000000 0.000000 
#    y 0.000000 1.821030 0.000000 
#    z 0.000000 0.000000 1.827920 
# 
# From -- ./inp_files/21285.got.cif
#   From: 2010.03.12/outbox.cif.g09.slc.cpg/sg20_11_cif.got.tgz:21285.got - 2010.04.14 01:38:04.
