data_PCOD8160343
_publ_section_title
;
Structure prediction by ZEFSAII (Michael W. Deem and Ramdas Pophale) SiO2 
 PCOD8160343
Probable space group: C 2 2 21
;
_chemical_formula_sum "Si O2"
_cell_formula_units_Z 48
_cell_length_a 9.290137
_cell_length_b 27.875030
_cell_length_c 8.766586
_cell_angle_alpha 90.000000
_cell_angle_beta 90.000000
_cell_angle_gamma 90.000000
_cell_volume 2270.220074
_symmetry_space_group_name_H-M "C 2 2 21"
_symmetry_group_IT_number 20
_symmetry_cell_setting 'orthorhombic'
loop_
_space_group_symop_operation_xyz
x,y,z
-x,-y,1/2+z
x,-y,-z
-x,y,1/2-z
1/2+x,1/2+y,z
1/2-x,1/2-y,1/2+z
1/2+x,1/2-y,-z
1/2-x,1/2+y,1/2-z
loop_
_atom_site_type_symbol
_atom_site_label
_atom_site_fract_x
_atom_site_fract_y
_atom_site_fract_z
Si Si1 0.250752 0.947395 0.433656
Si Si2 0.734650 0.048112 0.573297
Si Si3 0.001879 0.394783 0.569346
Si Si4 0.924130 0.783249 0.411318
Si Si5 0.079284 0.701208 0.592728
Si Si6 0.483537 0.386718 0.429029
O O1 0.274741 0.953931 0.254659
O O2 0.344975 0.904209 0.502185
O O3 0.097438 0.926074 0.485016
O O4 0.275579 0.000000 0.500000
O O5 0.582605 0.058245 0.495367
O O6 0.831172 0.092546 0.521447
O O7 0.799289 0.000000 0.500000
O O8 0.000000 0.394861 0.750000
O O9 0.071609 0.345497 0.512994
O O10 0.748555 0.783738 0.391633
O O11 0.985250 0.832168 0.490613
O O12 0.000000 0.773856 0.250000
O O13 0.977517 0.742041 0.523096
O O14 0.000000 0.687788 0.750000
O O15 0.500000 0.381307 0.250000
#
# Coordination Sequence:
#
# PCOD8160343 Si02
#       6
#     8   8   8   8   8   8
#     4  11  23  41  65  99 132 179 224 277 338 402
#     4  11  21  41  67  94 132 174 220 278 335 401
#     4  12  26  43  65  96 133 175 229 279 333 402
#     4  11  24  46  72 103 139 178 229 279 340 415
#     4  12  26  45  73 103 137 183 223 282 348 407
#     4   9  21  40  67  95 132 172 221 272 337 400
#
# _framework density 21.143324
#
# number of rings (size 3 to 8) (size 9 to 14) (size 15 to 20)
#    0.000    1.000    1.667    5.000    7.000    0.000 
#    0.000    2.500    0.000    0.000    0.000    0.000 
#    0.000    0.000    0.000    0.000    0.000    0.000 
#
# Total GULP energy -297410.077994 kJ/mol
# GULP energy per Si atom -12392.086583 kJ/mol
# Density = 2.109520 g / cm^3
# Si number density = 21.143324 Si / 1000 Ang^3
#
#
#
# Elastic Constant Matrix: (Units=GPa)
#
#
# Indices 1 2 3 4 5 6 
#
# 1 111.2019 34.0726 43.9739 0.0000 0.0000 0.0000
# 2 34.0726 127.2265 42.4430 0.0000 0.0000 0.0000
# 3 43.9739 42.4430 121.3972 0.0000 0.0000 0.0000
# 4 0.0000 0.0000 0.0000 -121.9248 0.0000 0.0000
# 5 0.0000 0.0000 0.0000 0.0000 24.4299 0.0000
# 6 0.0000 0.0000 0.0000 0.0000 0.0000 8.7601
#
#
#
# Elastic Compliance Matrix: (Units=1/GPa)
#
#
# Indices 1 2 3 4 5 6 
#
# 1 0.010850 -0.001805 -0.003299 0.000000 0.000000 0.000000
# 2 -0.001805 0.009198 -0.002562 0.000000 0.000000 0.000000
# 3 -0.003299 -0.002562 0.010328 0.000000 0.000000 0.000000
# 4 0.000000 0.000000 0.000000 -0.008202 0.000000 0.000000
# 5 0.000000 0.000000 0.000000 0.000000 0.040933 0.000000
# 6 0.000000 0.000000 0.000000 0.000000 0.000000 0.114154
#
#
# Mechanical properties :
#
#
# Convention : Reuss Voigt Hill
#
# Bulk Modulus (GPa) = 66.47180 66.75607 66.61394
# Shear Modulus (GPa) = 25.30244 -1.79121 11.75562
#
# Velocity S-wave (km/s) = 3.46310 -0.92142 2.36052
# Velocity P-wave (km/s) = 6.89186 5.52355 6.24529
#
# Compressibility (1/GPa) = 0.01504397
#
# Stress axis : x y z
#
# Youngs Moduli (GPa) = 92.16222 108.71771 96.82213
#
# Poissons Ratio (x) = 0.19626 0.31944
# Poissons Ratio (y) = 0.16637 0.24805
# Poissons Ratio (z) = 0.30406 0.27853
#
# Static dielectric constant tensor:
#      x y z
#    x 4.120090 0.000000 0.000000 
#    y 0.000000 4.003290 0.000000 
#    z 0.000000 0.000000 3.876940 
# 
# 
# High freq. dielectric constant tensor:
#      x y z
#    x 1.844580 0.000000 0.000000 
#    y 0.000000 1.849460 0.000000 
#    z 0.000000 0.000000 1.815450 
# 
# From -- ./inp_files/6553.got.cif
#   From: 2010.03.12/outbox.cif.g09.slc.cpg/sg20_4_cif.got.tgz:6553.got - 2010.04.14 01:38:04.
