data_PCOD8160369
_publ_section_title
;
Structure prediction by ZEFSAII (Michael W. Deem and Ramdas Pophale) SiO2 
 PCOD8160369
Probable space group: C 2 2 21
;
_chemical_formula_sum "Si O2"
_cell_formula_units_Z 48
_cell_length_a 8.033735
_cell_length_b 31.594189
_cell_length_c 8.718019
_cell_angle_alpha 90.000000
_cell_angle_beta 90.000000
_cell_angle_gamma 90.000000
_cell_volume 2212.801846
_symmetry_space_group_name_H-M "C 2 2 21"
_symmetry_group_IT_number 20
_symmetry_cell_setting 'orthorhombic'
loop_
_space_group_symop_operation_xyz
x,y,z
-x,-y,1/2+z
x,-y,-z
-x,y,1/2-z
1/2+x,1/2+y,z
1/2-x,1/2-y,1/2+z
1/2+x,1/2-y,-z
1/2-x,1/2+y,1/2-z
loop_
_atom_site_type_symbol
_atom_site_label
_atom_site_fract_x
_atom_site_fract_y
_atom_site_fract_z
Si Si1 0.923479 0.809861 0.087464
Si Si2 0.924013 0.738933 0.587904
Si Si3 0.936493 0.662600 0.077102
Si Si4 0.735406 0.110616 0.038022
Si Si5 0.037066 0.045713 0.572129
Si Si6 0.849008 0.891641 0.646081
O O1 0.760713 0.779930 0.099839
O O2 0.000000 0.823720 0.250000
O O3 0.878102 0.852875 0.994542
O O4 0.069160 0.783126 0.004140
O O5 0.000000 0.750132 0.750000
O O6 0.051770 0.706704 0.507955
O O7 0.746500 0.646413 0.059067
O O8 0.000000 0.670051 0.250000
O O9 0.055785 0.628418 0.990757
O O10 0.723553 0.094400 0.216084
O O11 0.786032 0.069943 0.937993
O O12 0.000000 0.041601 0.750000
O O13 0.898165 0.071324 0.472671
O O14 0.053968 0.000000 0.500000
O O15 0.000000 0.874767 0.750000
#
# Coordination Sequence:
#
# PCOD8160369 Si02
#       6
#     8   8   8   8   8   8
#     4  11  23  40  58  83 117 156 204 249 300 356
#     4  11  24  37  56  84 117 157 201 253 300 351
#     4   9  19  38  60  85 119 156 197 242 294 353
#     4   9  20  38  60  86 114 152 194 242 298 355
#     4  11  22  38  60  87 117 152 196 243 293 353
#     4   9  19  35  60  87 114 151 190 237 291 346
#
# _framework density 21.691956999999999
#
# number of rings (size 3 to 8) (size 9 to 14) (size 15 to 20)
#    0.000    2.000    0.000    3.500    0.000   12.667 
#    0.000    0.833    0.000    2.000    0.000    0.000 
#    0.000    0.000    0.000    0.000    0.000    0.000 
#
# Total GULP energy -297329.855393 kJ/mol
# GULP energy per Si atom -12388.743975 kJ/mol
# Density = 2.164258 g / cm^3
# Si number density = 21.691957 Si / 1000 Ang^3
#
#
#
# Elastic Constant Matrix: (Units=GPa)
#
#
# Indices 1 2 3 4 5 6 
#
# 1 62.4691 45.5410 16.3780 0.0000 0.0000 0.0000
# 2 45.5410 127.4069 61.7295 0.0000 0.0000 0.0000
# 3 16.3780 61.7295 129.7624 0.0000 0.0000 0.0000
# 4 0.0000 0.0000 0.0000 33.5062 0.0000 0.0000
# 5 0.0000 0.0000 0.0000 0.0000 22.6157 0.0000
# 6 0.0000 0.0000 0.0000 0.0000 0.0000 25.4611
#
#
#
# Elastic Compliance Matrix: (Units=1/GPa)
#
#
# Indices 1 2 3 4 5 6 
#
# 1 0.021802 -0.008395 0.001242 0.000000 0.000000 0.000000
# 2 -0.008395 0.013432 -0.005330 0.000000 0.000000 0.000000
# 3 0.001242 -0.005330 0.010085 0.000000 0.000000 0.000000
# 4 0.000000 0.000000 0.000000 0.029845 0.000000 0.000000
# 5 0.000000 0.000000 0.000000 0.000000 0.044217 0.000000
# 6 0.000000 0.000000 0.000000 0.000000 0.000000 0.039276
#
#
# Mechanical properties :
#
#
# Convention : Reuss Voigt Hill
#
# Bulk Modulus (GPa) = 49.13258 62.99282 56.06270
# Shear Modulus (GPa) = 26.25932 29.38258 27.82095
#
# Velocity S-wave (km/s) = 3.48308 3.68440 3.58515
# Velocity P-wave (km/s) = 6.23499 6.87041 6.56039
#
# Compressibility (1/GPa) = 0.02035310
#
# Stress axis : x y z
#
# Youngs Moduli (GPa) = 45.86678 74.44869 99.15389
#
# Poissons Ratio (x) = 0.62498 -0.12312
# Poissons Ratio (y) = 0.38504 0.52851
# Poissons Ratio (z) = -0.05695 0.39683
#
# Static dielectric constant tensor:
#      x y z
#    x 4.387450 0.000000 0.000000 
#    y 0.000000 3.784660 0.000000 
#    z 0.000000 0.000000 4.197260 
# 
# 
# High freq. dielectric constant tensor:
#      x y z
#    x 1.850810 0.000000 0.000000 
#    y 0.000000 1.837350 0.000000 
#    z 0.000000 0.000000 1.859560 
# 
# From -- ./inp_files/6473.got.cif
#   From: 2010.03.12/outbox.cif.g09.slc.cpg/sg20_4_cif.got.tgz:6473.got - 2010.04.14 01:38:04.
