data_PCOD8160889
_publ_section_title
;
Structure prediction by ZEFSAII (Michael W. Deem and Ramdas Pophale) SiO2 
 PCOD8160889
Probable space group: C 2 2 2
;
_chemical_formula_sum "Si O2"
_cell_formula_units_Z 32
_cell_length_a 22.086075
_cell_length_b 7.965618
_cell_length_c 7.426333
_cell_angle_alpha 90.000000
_cell_angle_beta 90.000000
_cell_angle_gamma 90.000000
_cell_volume 1306.509095
_symmetry_space_group_name_H-M "C 2 2 2"
_symmetry_group_IT_number 21
_symmetry_cell_setting 'orthorhombic'
loop_
_space_group_symop_operation_xyz
x,y,z
-x,-y,z
x,-y,-z
-x,y,-z
1/2+x,1/2+y,z
1/2-x,1/2-y,z
1/2+x,1/2-y,-z
1/2-x,1/2+y,-z
loop_
_atom_site_type_symbol
_atom_site_label
_atom_site_fract_x
_atom_site_fract_y
_atom_site_fract_z
Si Si1 0.654389 0.831975 0.736454
Si Si2 0.228749 0.995173 0.209637
Si Si3 0.871646 0.171206 0.600037
Si Si4 0.569760 0.306639 0.967065
O O1 0.698117 0.994913 0.758188
O O2 0.698241 0.672332 0.718643
O O3 0.623050 0.827042 0.539892
O O4 0.607729 0.816079 0.901773
O O5 0.196110 0.148871 0.312791
O O6 0.214940 0.000000 0.000000
O O7 0.916698 0.229157 0.758460
O O8 0.894149 0.000000 0.500000
O O9 0.587530 0.500000 0.000000
O O10 0.500000 0.268742 0.000000
#
# Coordination Sequence:
#
# PCOD8160889 Si02
#       4
#     8   8   8   8
#     4  10  20  35  53  81 115 149 185 223 282 339
#     4  10  18  36  54  78 118 148 181 230 280 341
#     4  10  18  36  50  80 116 145 183 226 280 337
#     4  11  20  35  55  80 115 149 189 231 284 337
#
# _framework density 24.492749
#
# number of rings (size 3 to 8) (size 9 to 14) (size 15 to 20)
#    0.000    1.750    7.500    0.000    0.000    1.000 
#   22.500    0.000    0.000    0.750    0.000    0.000 
#    0.000    0.000    0.000    0.000    0.000    0.000 
#
# Total GULP energy -198307.583411 kJ/mol
# GULP energy per Si atom -12394.223963 kJ/mol
# Density = 2.443700 g / cm^3
# Si number density = 24.492749 Si / 1000 Ang^3
#
#
#
# Elastic Constant Matrix: (Units=GPa)
#
#
# Indices 1 2 3 4 5 6 
#
# 1 152.2371 24.6014 69.6648 0.0000 0.0000 0.0000
# 2 24.6014 36.5424 16.9601 0.0000 0.0000 0.0000
# 3 69.6648 16.9601 220.8819 0.0000 0.0000 0.0000
# 4 0.0000 0.0000 0.0000 -4.9104 0.0000 0.0000
# 5 0.0000 0.0000 0.0000 0.0000 40.5730 0.0000
# 6 0.0000 0.0000 0.0000 0.0000 0.0000 21.2219
#
#
#
# Elastic Compliance Matrix: (Units=1/GPa)
#
#
# Indices 1 2 3 4 5 6 
#
# 1 0.008351 -0.004562 -0.002284 0.000000 0.000000 0.000000
# 2 -0.004562 0.030869 -0.000931 0.000000 0.000000 0.000000
# 3 -0.002284 -0.000931 0.005319 0.000000 0.000000 0.000000
# 4 0.000000 0.000000 0.000000 -0.203651 0.000000 0.000000
# 5 0.000000 0.000000 0.000000 0.000000 0.024647 0.000000
# 6 0.000000 0.000000 0.000000 0.000000 0.000000 0.047121
#
#
# Mechanical properties :
#
#
# Convention : Reuss Voigt Hill
#
# Bulk Modulus (GPa) = 34.50077 70.23491 52.36784
# Shear Modulus (GPa) = -80.47914 31.27258 -24.60328
#
# Velocity S-wave (km/s) = -5.73844 3.57712 -3.17284
# Velocity P-wave (km/s) = 5.45798 6.76751 2.82927
#
# Compressibility (1/GPa) = 0.02898486
#
# Stress axis : x y z
#
# Youngs Moduli (GPa) = 119.74740 32.39483 188.00432
#
# Poissons Ratio (x) = 0.14779 0.42931
# Poissons Ratio (y) = 0.54632 0.17510
# Poissons Ratio (z) = 0.27345 0.03017
#
# Static dielectric constant tensor:
#      x y z
#    x 4.291280 0.000000 0.000000 
#    y 0.000000 3.557330 0.000000 
#    z 0.000000 0.000000 5.215110 
# 
# 
# High freq. dielectric constant tensor:
#      x y z
#    x 1.944450 0.000000 0.000000 
#    y 0.000000 1.936340 0.000000 
#    z 0.000000 0.000000 2.001320 
# 
# From -- ./inp_files/17285.got.cif
#   From: 2010.03.12/outbox.cif.g09.slc.cpg/sg21_9_cif.got.tgz:17285.got - 2010.04.14 01:59:26.
