data_PCOD8160613
_publ_section_title
;
Structure prediction by ZEFSAII (Michael W. Deem and Ramdas Pophale) SiO2 
 PCOD8160613
Probable space group: C 2 2 21
;
_chemical_formula_sum "Si O2"
_cell_formula_units_Z 28
_cell_length_a 17.832521
_cell_length_b 7.593958
_cell_length_c 8.325368
_cell_angle_alpha 90.000000
_cell_angle_beta 90.000000
_cell_angle_gamma 90.000000
_cell_volume 1127.416468
_symmetry_space_group_name_H-M "C 2 2 21"
_symmetry_group_IT_number 20
_symmetry_cell_setting 'orthorhombic'
loop_
_space_group_symop_operation_xyz
x,y,z
-x,-y,1/2+z
x,-y,-z
-x,y,1/2-z
1/2+x,1/2+y,z
1/2-x,1/2-y,1/2+z
1/2+x,1/2-y,-z
1/2-x,1/2+y,1/2-z
loop_
_atom_site_type_symbol
_atom_site_label
_atom_site_fract_x
_atom_site_fract_y
_atom_site_fract_z
Si Si1 0.182870 0.276207 0.975508
Si Si2 0.989681 0.313275 0.440796
Si Si3 0.911148 0.000000 0.000000
Si Si4 0.715186 0.546460 0.250400
O O1 0.214780 0.450044 0.878551
O O2 0.212074 0.117014 0.866320
O O3 0.094685 0.292098 0.995721
O O4 0.220559 0.230101 0.147627
O O5 0.021507 0.500000 0.500000
O O6 0.000000 0.291904 0.250000
O O7 0.036730 0.167505 0.536340
O O8 0.862498 0.048367 0.154037
#
# Coordination Sequence:
#
# PCOD8160613 Si02
#       4
#     8   8   4   8
#     4  11  26  49  77 118 162 213 272 339 416 487
#     4  12  30  52  83 119 164 221 278 346 417 500
#     4  12  26  52  80 118 162 220 278 338 424 488
#     4  11  25  47  80 113 162 213 268 344 408 496
#
# _framework density 24.835540000000002
#
# number of rings (size 3 to 8) (size 9 to 14) (size 15 to 20)
#    0.000    0.571    2.857    3.429   10.000    0.000 
#    5.143    0.000    0.000    0.000    0.000    0.000 
#    0.000    0.000    0.000    0.000    0.000    0.000 
#
# Total GULP energy -173559.768889 kJ/mol
# GULP energy per Si atom -12397.126349 kJ/mol
# Density = 2.477901 g / cm^3
# Si number density = 24.835540 Si / 1000 Ang^3
#
#
#
# Elastic Constant Matrix: (Units=GPa)
#
#
# Indices 1 2 3 4 5 6 
#
# 1 170.3952 39.9484 76.7150 0.0000 0.0000 0.0000
# 2 39.9484 104.4257 74.8051 0.0000 0.0000 0.0000
# 3 76.7150 74.8051 155.7440 0.0000 0.0000 0.0000
# 4 0.0000 0.0000 0.0000 43.8878 0.0000 0.0000
# 5 0.0000 0.0000 0.0000 0.0000 21.6476 0.0000
# 6 0.0000 0.0000 0.0000 0.0000 0.0000 37.6572
#
#
#
# Elastic Compliance Matrix: (Units=1/GPa)
#
#
# Indices 1 2 3 4 5 6 
#
# 1 0.007549 -0.000342 -0.003554 0.000000 0.000000 0.000000
# 2 -0.000342 0.014615 -0.006851 0.000000 0.000000 0.000000
# 3 -0.003554 -0.006851 0.011462 0.000000 0.000000 0.000000
# 4 0.000000 0.000000 0.000000 0.022785 0.000000 0.000000
# 5 0.000000 0.000000 0.000000 0.000000 0.046194 0.000000
# 6 0.000000 0.000000 0.000000 0.000000 0.000000 0.026555
#
#
# Mechanical properties :
#
#
# Convention : Reuss Voigt Hill
#
# Bulk Modulus (GPa) = 82.43050 90.38910 86.40980
# Shear Modulus (GPa) = 32.32067 36.57829 34.44948
#
# Velocity S-wave (km/s) = 3.61139 3.84190 3.72843
# Velocity P-wave (km/s) = 7.11703 7.49362 7.30775
#
# Compressibility (1/GPa) = 0.01213143
#
# Stress axis : x y z
#
# Youngs Moduli (GPa) = 132.46717 68.42368 87.24310
#
# Poissons Ratio (x) = 0.02339 0.31008
# Poissons Ratio (y) = 0.04528 0.59772
# Poissons Ratio (z) = 0.47082 0.46879
#
# Static dielectric constant tensor:
#      x y z
#    x 4.299920 0.000000 0.000000 
#    y 0.000000 5.269120 0.000000 
#    z 0.000000 0.000000 5.066430 
# 
# 
# High freq. dielectric constant tensor:
#      x y z
#    x 1.976050 0.000000 0.000000 
#    y 0.000000 2.028910 0.000000 
#    z 0.000000 0.000000 2.021830 
# 
# From -- ./inp_files/9016.got.cif
#   From: 2010.03.12/outbox.cif.g09.slc.cpg/sg20_5_cif.got.tgz:9016.got - 2010.04.14 01:38:04.
