data_PCOD8160887
_publ_section_title
;
Structure prediction by ZEFSAII (Michael W. Deem and Ramdas Pophale) SiO2 
 PCOD8160887
Probable space group: C 2 2 2
;
_chemical_formula_sum "Si O2"
_cell_formula_units_Z 56
_cell_length_a 16.101193
_cell_length_b 18.931456
_cell_length_c 9.585569
_cell_angle_alpha 90.000000
_cell_angle_beta 90.000000
_cell_angle_gamma 90.000000
_cell_volume 2921.863814
_symmetry_space_group_name_H-M "C 2 2 2"
_symmetry_group_IT_number 21
_symmetry_cell_setting 'orthorhombic'
loop_
_space_group_symop_operation_xyz
x,y,z
-x,-y,z
x,-y,-z
-x,y,-z
1/2+x,1/2+y,z
1/2-x,1/2-y,z
1/2+x,1/2-y,-z
1/2-x,1/2+y,-z
loop_
_atom_site_type_symbol
_atom_site_label
_atom_site_fract_x
_atom_site_fract_y
_atom_site_fract_z
Si Si1 0.015143 0.791931 0.662281
Si Si2 0.230580 0.069111 0.575355
Si Si3 0.953432 0.936024 0.648394
Si Si4 0.677260 0.094451 0.864539
Si Si5 0.844947 0.570425 0.825109
Si Si6 0.705475 0.324328 0.669564
Si Si7 0.995740 0.342147 0.839126
O O1 0.109812 0.809551 0.697980
O O2 0.981163 0.725144 0.746447
O O3 0.000000 0.775716 0.500000
O O4 0.962659 0.859358 0.719048
O O5 0.142611 0.043438 0.637073
O O6 0.289895 0.098184 0.697109
O O7 0.218026 0.135074 0.474742
O O8 0.270301 0.000000 0.500000
O O9 0.000000 0.928923 0.500000
O O10 0.000000 0.000000 0.731369
O O11 0.758880 0.127165 0.794145
O O12 0.597039 0.133696 0.801962
O O13 0.663702 0.013259 0.827847
O O14 0.687703 0.104496 0.030603
O O15 0.940494 0.594147 0.804666
O O16 0.750000 0.250000 0.660424
O O17 0.000000 0.320135 0.000000
#
# Coordination Sequence:
#
# PCOD8160887 Si02
#       7
#     8   8   8   8   8   8   8
#     4  11  22  39  60  88 120 159 206 249 304 372
#     4  12  21  37  61  94 122 154 206 260 311 363
#     4  10  18  35  59  82 111 158 201 236 301 368
#     4  10  21  43  63  89 121 164 212 246 310 372
#     4  10  23  38  66  93 121 160 205 265 301 363
#     4  12  23  38  62  90 125 163 199 252 313 372
#     4  10  22  42  62  85 122 166 205 246 309 374
#
# _framework density 19.165848
#
# number of rings (size 3 to 8) (size 9 to 14) (size 15 to 20)
#    0.000    1.286    7.143    0.429    2.000    1.714 
#    2.571    0.714    0.000    0.429    0.000    0.000 
#    0.000    0.000    0.000    0.000    0.000    0.000 
#
# Total GULP energy -347184.084685 kJ/mol
# GULP energy per Si atom -12399.431596 kJ/mol
# Density = 1.912223 g / cm^3
# Si number density = 19.165848 Si / 1000 Ang^3
#
#
#
# Elastic Constant Matrix: (Units=GPa)
#
#
# Indices 1 2 3 4 5 6 
#
# 1 95.8337 20.6130 46.2947 0.0000 0.0000 0.0000
# 2 20.6130 113.1664 33.9071 0.0000 0.0000 0.0000
# 3 46.2947 33.9071 67.2268 0.0000 0.0000 0.0000
# 4 0.0000 0.0000 0.0000 23.0560 0.0000 0.0000
# 5 0.0000 0.0000 0.0000 0.0000 20.2195 0.0000
# 6 0.0000 0.0000 0.0000 0.0000 0.0000 19.6997
#
#
#
# Elastic Compliance Matrix: (Units=1/GPa)
#
#
# Indices 1 2 3 4 5 6 
#
# 1 0.015655 0.000446 -0.011006 0.000000 0.000000 0.000000
# 2 0.000446 0.010422 -0.005564 0.000000 0.000000 0.000000
# 3 -0.011006 -0.005564 0.025260 0.000000 0.000000 0.000000
# 4 0.000000 0.000000 0.000000 0.043373 0.000000 0.000000
# 5 0.000000 0.000000 0.000000 0.000000 0.049457 0.000000
# 6 0.000000 0.000000 0.000000 0.000000 0.000000 0.050762
#
#
# Mechanical properties :
#
#
# Convention : Reuss Voigt Hill
#
# Bulk Modulus (GPa) = 52.38155 53.09516 52.73836
# Shear Modulus (GPa) = 21.40953 24.28920 22.84936
#
# Velocity S-wave (km/s) = 3.34588 3.56380 3.45656
# Velocity P-wave (km/s) = 6.50512 6.68561 6.59598
#
# Compressibility (1/GPa) = 0.01909069
#
# Stress axis : x y z
#
# Youngs Moduli (GPa) = 63.87552 95.94762 39.58785
#
# Poissons Ratio (x) = -0.04279 0.43570
# Poissons Ratio (y) = -0.02849 0.22026
# Poissons Ratio (z) = 0.70300 0.53384
#
# Static dielectric constant tensor:
#      x y z
#    x 3.590360 0.000000 0.000000 
#    y 0.000000 3.888420 0.000000 
#    z 0.000000 0.000000 3.493850 
# 
# 
# High freq. dielectric constant tensor:
#      x y z
#    x 1.747430 0.000000 0.000000 
#    y 0.000000 1.761530 0.000000 
#    z 0.000000 0.000000 1.719630 
# 
# From -- ./inp_files/15284.got.cif
#   From: 2010.03.12/outbox.cif.g09.slc.cpg/sg21_8_cif.got.tgz:15284.got - 2010.04.14 01:59:26.
