data_PCOD8160241
_publ_section_title
;
Structure prediction by ZEFSAII (Michael W. Deem and Ramdas Pophale) SiO2 
 PCOD8160241
Probable space group: C 2 2 21
;
_chemical_formula_sum "Si O2"
_cell_formula_units_Z 56
_cell_length_a 21.786365
_cell_length_b 6.030204
_cell_length_c 21.211556
_cell_angle_alpha 90.000000
_cell_angle_beta 90.000000
_cell_angle_gamma 90.000000
_cell_volume 2786.694161
_symmetry_space_group_name_H-M "C 2 2 21"
_symmetry_group_IT_number 20
_symmetry_cell_setting 'orthorhombic'
loop_
_space_group_symop_operation_xyz
x,y,z
-x,-y,1/2+z
x,-y,-z
-x,y,1/2-z
1/2+x,1/2+y,z
1/2-x,1/2-y,1/2+z
1/2+x,1/2-y,-z
1/2-x,1/2+y,1/2-z
loop_
_atom_site_type_symbol
_atom_site_label
_atom_site_fract_x
_atom_site_fract_y
_atom_site_fract_z
Si Si1 0.475367 0.203576 0.656024
Si Si2 0.073859 0.652774 0.339407
Si Si3 0.994690 0.090317 0.933439
Si Si4 0.689226 0.779742 0.825562
Si Si5 0.602824 0.524241 0.247610
Si Si6 0.393062 0.906533 0.568663
Si Si7 0.815001 0.401919 0.209003
O O1 0.508134 0.392732 0.616133
O O2 0.443220 0.299698 0.717813
O O3 0.526814 0.036928 0.682486
O O4 0.425627 0.088737 0.611640
O O5 0.143474 0.562423 0.334850
O O6 0.054939 0.725252 0.410422
O O7 0.065281 0.866322 0.294723
O O8 0.062813 0.193409 0.938847
O O9 0.971759 0.000000 0.000000
O O10 0.631963 0.628449 0.805966
O O11 0.671703 0.852839 0.896654
O O12 0.750733 0.632756 0.826659
O O13 0.696001 0.986858 0.777526
O O14 0.655299 0.659619 0.284384
O O15 0.376940 0.000000 0.500000
#
# Coordination Sequence:
#
# PCOD8160241 Si02
#       7
#     8   8   8   8   8   8   8
#     4  11  22  40  62  96 131 165 205 272 327 395
#     4  10  26  38  59  99 129 171 215 264 322 395
#     4  11  22  40  65  92 127 175 212 262 336 393
#     4  11  22  39  66  95 123 174 219 263 333 379
#     4  11  22  40  61  96 131 169 209 264 331 385
#     4  11  22  39  64 101 125 160 221 271 325 390
#     4  11  22  40  62  93 130 171 217 270 317 399
#
# _framework density 20.095495
#
# number of rings (size 3 to 8) (size 9 to 14) (size 15 to 20)
#    0.000    1.143    5.714    0.857    0.000    3.429 
#    0.000    0.000    0.000    5.143    3.714    0.000 
#    0.000    0.000    0.000    0.000    0.000    0.000 
#
# Total GULP energy -347242.365516 kJ/mol
# GULP energy per Si atom -12401.513054 kJ/mol
# Density = 2.004976 g / cm^3
# Si number density = 20.095495 Si / 1000 Ang^3
#
#
#
# Elastic Constant Matrix: (Units=GPa)
#
#
# Indices 1 2 3 4 5 6 
#
# 1 109.7493 45.4079 76.5230 0.0000 0.0000 0.0000
# 2 45.4079 104.1455 48.9616 0.0000 0.0000 0.0000
# 3 76.5230 48.9616 111.6217 0.0000 0.0000 0.0000
# 4 0.0000 0.0000 0.0000 37.5016 0.0000 0.0000
# 5 0.0000 0.0000 0.0000 0.0000 23.4864 0.0000
# 6 0.0000 0.0000 0.0000 0.0000 0.0000 40.9192
#
#
#
# Elastic Compliance Matrix: (Units=1/GPa)
#
#
# Indices 1 2 3 4 5 6 
#
# 1 0.017988 -0.002577 -0.011202 0.000000 0.000000 0.000000
# 2 -0.002577 0.012466 -0.003701 0.000000 0.000000 0.000000
# 3 -0.011202 -0.003701 0.018262 0.000000 0.000000 0.000000
# 4 0.000000 0.000000 0.000000 0.026666 0.000000 0.000000
# 5 0.000000 0.000000 0.000000 0.000000 0.042578 0.000000
# 6 0.000000 0.000000 0.000000 0.000000 0.000000 0.024438
#
#
# Mechanical properties :
#
#
# Convention : Reuss Voigt Hill
#
# Bulk Modulus (GPa) = 72.69581 74.14463 73.42022
# Shear Modulus (GPa) = 27.48128 30.68970 29.08549
#
# Velocity S-wave (km/s) = 3.70203 3.91217 3.80855
# Velocity P-wave (km/s) = 7.38425 7.57516 7.48031
#
# Compressibility (1/GPa) = 0.01375595
#
# Stress axis : x y z
#
# Youngs Moduli (GPa) = 55.59211 80.22124 54.75914
#
# Poissons Ratio (x) = 0.20671 0.61339
# Poissons Ratio (y) = 0.14324 0.20268
# Poissons Ratio (z) = 0.62272 0.29693
#
# Static dielectric constant tensor:
#      x y z
#    x 3.546150 0.000000 0.000000 
#    y 0.000000 3.969060 0.000000 
#    z 0.000000 0.000000 3.548300 
# 
# 
# High freq. dielectric constant tensor:
#      x y z
#    x 1.769940 0.000000 0.000000 
#    y 0.000000 1.808020 0.000000 
#    z 0.000000 0.000000 1.764780 
# 
# From -- ./inp_files/27999.got.cif
#   From: 2010.03.12/outbox.cif.g09.slc.cpg/sg20_14_cif.got.tgz:27999.got - 2010.04.14 01:38:04.
