data_PCOD8160344
_publ_section_title
;
Structure prediction by ZEFSAII (Michael W. Deem and Ramdas Pophale) SiO2 
 PCOD8160344
Probable space group: C 2 2 21
;
_chemical_formula_sum "Si O2"
_cell_formula_units_Z 48
_cell_length_a 14.338329
_cell_length_b 9.292289
_cell_length_c 17.544388
_cell_angle_alpha 90.000000
_cell_angle_beta 90.000000
_cell_angle_gamma 90.000000
_cell_volume 2337.542270
_symmetry_space_group_name_H-M "C 2 2 21"
_symmetry_group_IT_number 20
_symmetry_cell_setting 'orthorhombic'
loop_
_space_group_symop_operation_xyz
x,y,z
-x,-y,1/2+z
x,-y,-z
-x,y,1/2-z
1/2+x,1/2+y,z
1/2-x,1/2-y,1/2+z
1/2+x,1/2-y,-z
1/2-x,1/2+y,1/2-z
loop_
_atom_site_type_symbol
_atom_site_label
_atom_site_fract_x
_atom_site_fract_y
_atom_site_fract_z
Si Si1 0.179880 0.192784 0.105195
Si Si2 0.925018 0.302164 0.685099
Si Si3 0.669885 0.828840 0.495269
Si Si4 0.762815 0.117018 0.649718
Si Si5 0.604646 0.885111 0.233260
Si Si6 0.462292 0.828431 0.511295
O O1 0.161237 0.270375 0.184402
O O2 0.180300 0.023284 0.122987
O O3 0.281461 0.236875 0.071054
O O4 0.104192 0.233628 0.041580
O O5 0.831942 0.210614 0.702392
O O6 0.903810 0.470139 0.685877
O O7 0.957005 0.274796 0.598560
O O8 0.000000 0.259687 0.750000
O O9 0.732608 0.784749 0.422410
O O10 0.564714 0.777708 0.485119
O O11 0.670816 0.000000 0.500000
O O12 0.665520 0.079982 0.691975
O O13 0.500000 0.826607 0.250000
O O14 0.444818 0.000000 0.500000
#
# Coordination Sequence:
#
# PCOD8160344 Si02
#       6
#     8   8   8   8   8   8
#     4  11  22  40  69  95 122 166 213 264 316 373
#     4  11  25  40  63  92 128 171 210 259 320 378
#     4   9  21  36  64  91 119 163 207 255 313 371
#     4  11  23  42  63  93 131 162 204 267 326 374
#     4  11  24  40  66  93 125 168 219 254 312 387
#     4  11  21  41  68  94 125 166 221 259 304 387
#
# _framework density 20.534389000000001
#
# number of rings (size 3 to 8) (size 9 to 14) (size 15 to 20)
#    0.000    1.333    3.333    2.000   14.000    0.667 
#    0.000    1.667    7.333    0.000    0.000    0.000 
#    0.000    0.000    0.000    0.000    0.000    0.000 
#
# Total GULP energy -297491.497602 kJ/mol
# GULP energy per Si atom -12395.479067 kJ/mol
# Density = 2.048765 g / cm^3
# Si number density = 20.534389 Si / 1000 Ang^3
#
#
#
# Elastic Constant Matrix: (Units=GPa)
#
#
# Indices 1 2 3 4 5 6 
#
# 1 137.4071 41.6365 43.3908 0.0000 0.0000 0.0000
# 2 41.6365 30.6960 26.2670 0.0000 0.0000 0.0000
# 3 43.3908 26.2670 105.9837 0.0000 0.0000 0.0000
# 4 0.0000 0.0000 0.0000 31.3507 0.0000 0.0000
# 5 0.0000 0.0000 0.0000 0.0000 42.4244 0.0000
# 6 0.0000 0.0000 0.0000 0.0000 0.0000 24.9144
#
#
#
# Elastic Compliance Matrix: (Units=1/GPa)
#
#
# Indices 1 2 3 4 5 6 
#
# 1 0.012467 -0.015919 -0.001159 0.000000 0.000000 0.000000
# 2 -0.015919 0.061673 -0.008768 0.000000 0.000000 0.000000
# 3 -0.001159 -0.008768 0.012083 0.000000 0.000000 0.000000
# 4 0.000000 0.000000 0.000000 0.031897 0.000000 0.000000
# 5 0.000000 0.000000 0.000000 0.000000 0.023571 0.000000
# 6 0.000000 0.000000 0.000000 0.000000 0.000000 0.040137
#
#
# Mechanical properties :
#
#
# Convention : Reuss Voigt Hill
#
# Bulk Modulus (GPa) = 28.95865 55.18616 42.07240
# Shear Modulus (GPa) = 20.40554 30.59074 25.49814
#
# Velocity S-wave (km/s) = 3.15576 3.86389 3.52764
# Velocity P-wave (km/s) = 5.23561 6.84394 6.09307
#
# Compressibility (1/GPa) = 0.03453200
#
# Stress axis : x y z
#
# Youngs Moduli (GPa) = 80.20933 16.21450 82.76215
#
# Poissons Ratio (x) = 0.25812 0.09591
# Poissons Ratio (y) = 1.27687 0.72562
# Poissons Ratio (z) = 0.09295 0.14216
#
# Static dielectric constant tensor:
#      x y z
#    x 4.028860 0.000000 0.000000 
#    y 0.000000 3.392250 0.000000 
#    z 0.000000 0.000000 3.887970 
# 
# 
# High freq. dielectric constant tensor:
#      x y z
#    x 1.817740 0.000000 0.000000 
#    y 0.000000 1.768920 0.000000 
#    z 0.000000 0.000000 1.819370 
# 
# From -- ./inp_files/23434.got.cif
#   From: 2010.03.12/outbox.cif.g09.slc.cpg/sg20_12_cif.got.tgz:23434.got - 2010.04.14 01:38:04.
