data_PCOD8160447
_publ_section_title
;
Structure prediction by ZEFSAII (Michael W. Deem and Ramdas Pophale) SiO2 
 PCOD8160447
Probable space group: C 2 2 21
;
_chemical_formula_sum "Si O2"
_cell_formula_units_Z 64
_cell_length_a 11.013816
_cell_length_b 9.178172
_cell_length_c 28.978480
_cell_angle_alpha 90.000000
_cell_angle_beta 90.000000
_cell_angle_gamma 90.000000
_cell_volume 2929.338845
_symmetry_space_group_name_H-M "C 2 2 21"
_symmetry_group_IT_number 20
_symmetry_cell_setting 'orthorhombic'
loop_
_space_group_symop_operation_xyz
x,y,z
-x,-y,1/2+z
x,-y,-z
-x,y,1/2-z
1/2+x,1/2+y,z
1/2-x,1/2-y,1/2+z
1/2+x,1/2-y,-z
1/2-x,1/2+y,1/2-z
loop_
_atom_site_type_symbol
_atom_site_label
_atom_site_fract_x
_atom_site_fract_y
_atom_site_fract_z
Si Si1 0.483201 0.623474 0.674403
Si Si2 0.706362 0.926357 0.543788
Si Si3 0.180593 0.571729 0.113852
Si Si4 0.724257 0.893728 0.284166
Si Si5 0.814796 0.083680 0.206970
Si Si6 0.679817 0.608920 0.541091
Si Si7 0.425393 0.931328 0.858580
Si Si8 0.085411 0.871392 0.075716
O O1 0.363463 0.648428 0.704657
O O2 0.563363 0.508843 0.702254
O O3 0.557300 0.773319 0.665332
O O4 0.445296 0.556409 0.625156
O O5 0.744493 0.762248 0.529856
O O6 0.630891 0.917857 0.590645
O O7 0.634618 0.000000 0.500000
O O8 0.826941 0.021452 0.548820
O O9 0.257926 0.621562 0.157584
O O10 0.261031 0.455047 0.087225
O O11 0.146782 0.712841 0.083187
O O12 0.057343 0.496108 0.132950
O O13 0.655911 0.742743 0.271272
O O14 0.719717 0.998778 0.239824
O O15 0.658860 0.969271 0.327295
O O16 0.707094 0.500000 0.500000
O O17 0.537171 0.641707 0.546223
#
# Coordination Sequence:
#
# PCOD8160447 Si02
#       8
#     8   8   8   8   8   8   8   8
#     4  11  22  47  72  95 136 182 228 283 348 405
#     4  12  24  44  69 101 135 174 228 280 339 413
#     4  11  23  47  71  98 138 181 230 281 345 413
#     4  12  26  45  69 102 141 180 232 292 344 415
#     4  12  24  44  71 101 137 184 230 288 349 411
#     4  12  26  45  70 101 137 179 226 283 345 411
#     4  11  23  47  73  94 138 187 223 284 352 406
#     4  11  22  47  73  96 136 181 225 283 347 404
#
# _framework density 21.847933000000001
#
# number of rings (size 3 to 8) (size 9 to 14) (size 15 to 20)
#    0.000    0.500    7.500    2.250    0.000    2.000 
#   13.500    0.000    0.000    0.000    0.000    0.000 
#    0.000    0.000    0.000    0.000    0.000    0.000 
#
# Total GULP energy -396759.221512 kJ/mol
# GULP energy per Si atom -12398.725672 kJ/mol
# Density = 2.179821 g / cm^3
# Si number density = 21.847933 Si / 1000 Ang^3
#
#
#
# Elastic Constant Matrix: (Units=GPa)
#
#
# Indices 1 2 3 4 5 6 
#
# 1 96.8720 51.5587 12.1566 0.0000 0.0000 0.0000
# 2 51.5587 158.6611 55.2961 0.0000 0.0000 0.0000
# 3 12.1566 55.2961 81.4371 0.0000 0.0000 0.0000
# 4 0.0000 0.0000 0.0000 36.5322 0.0000 0.0000
# 5 0.0000 0.0000 0.0000 0.0000 28.9106 0.0000
# 6 0.0000 0.0000 0.0000 0.0000 0.0000 26.7640
#
#
#
# Elastic Compliance Matrix: (Units=1/GPa)
#
#
# Indices 1 2 3 4 5 6 
#
# 1 0.012567 -0.004493 0.001175 0.000000 0.000000 0.000000
# 2 -0.004493 0.009863 -0.006026 0.000000 0.000000 0.000000
# 3 0.001175 -0.006026 0.016196 0.000000 0.000000 0.000000
# 4 0.000000 0.000000 0.000000 0.027373 0.000000 0.000000
# 5 0.000000 0.000000 0.000000 0.000000 0.034589 0.000000
# 6 0.000000 0.000000 0.000000 0.000000 0.000000 0.037364
#
#
# Mechanical properties :
#
#
# Convention : Reuss Voigt Hill
#
# Bulk Modulus (GPa) = 50.15866 63.88811 57.02338
# Shear Modulus (GPa) = 30.62091 32.97195 31.79643
#
# Velocity S-wave (km/s) = 3.74779 3.88900 3.81905
# Velocity P-wave (km/s) = 6.46032 7.03359 6.75304
#
# Compressibility (1/GPa) = 0.01993674
#
# Stress axis : x y z
#
# Youngs Moduli (GPa) = 79.57400 101.38720 61.74383
#
# Poissons Ratio (x) = 0.45556 -0.07255
# Poissons Ratio (y) = 0.35755 0.37209
# Poissons Ratio (z) = -0.09350 0.61100
#
# Static dielectric constant tensor:
#      x y z
#    x 3.940490 0.000000 0.000000 
#    y 0.000000 4.152940 0.000000 
#    z 0.000000 0.000000 4.091900 
# 
# 
# High freq. dielectric constant tensor:
#      x y z
#    x 1.853650 0.000000 0.000000 
#    y 0.000000 1.859800 0.000000 
#    z 0.000000 0.000000 1.872740 
# 
# From -- ./inp_files/31056.got.cif
#   From: 2010.03.12/outbox.cif.g09.slc.cpg/sg20_16_cif.got.tgz:31056.got - 2010.04.14 01:38:04.
