data_PCOD8160976
_publ_section_title
;
Structure prediction by ZEFSAII (Michael W. Deem and Ramdas Pophale) SiO2 
 PCOD8160976
Probable space group: C 2 2 2
;
_chemical_formula_sum "Si O2"
_cell_formula_units_Z 64
_cell_length_a 10.846937
_cell_length_b 26.078254
_cell_length_c 12.660448
_cell_angle_alpha 90.000000
_cell_angle_beta 90.000000
_cell_angle_gamma 90.000000
_cell_volume 3581.250522
_symmetry_space_group_name_H-M "C 2 2 2"
_symmetry_group_IT_number 21
_symmetry_cell_setting 'orthorhombic'
loop_
_space_group_symop_operation_xyz
x,y,z
-x,-y,z
x,-y,-z
-x,y,-z
1/2+x,1/2+y,z
1/2-x,1/2-y,z
1/2+x,1/2-y,-z
1/2-x,1/2+y,-z
loop_
_atom_site_type_symbol
_atom_site_label
_atom_site_fract_x
_atom_site_fract_y
_atom_site_fract_z
Si Si1 0.500000 0.791853 0.377012
Si Si2 0.260663 0.859500 0.379081
Si Si3 0.245963 0.940597 0.206024
Si Si4 0.260663 0.140500 0.379080
Si Si5 0.999999 0.181524 0.301126
Si Si6 0.500000 0.397742 0.126310
Si Si7 0.641058 0.943938 1.000000
Si Si8 0.745963 0.559404 0.206023
O O1 0.500000 0.774844 0.500000
O O2 0.373923 0.821938 0.350442
O O3 0.626079 0.821937 0.350442
O O4 0.499999 0.742908 0.299796
O O5 0.279413 0.910844 0.312078
O O6 0.270304 0.876189 0.500000
O O7 0.125600 0.835495 0.359884
O O8 0.107763 0.932884 0.169543
O O9 0.277292 0.000000 0.226833
O O10 0.322825 0.915561 0.108379
O O11 0.125599 0.164504 0.359884
O O12 0.279414 0.089157 0.312076
O O13 0.999999 0.158537 0.181917
O O14 0.392238 0.432884 0.169544
O O15 0.500000 0.390250 0.000000
O O16 0.677177 0.915561 0.108377
O O17 0.500000 0.953341 0.000000
O O18 0.708894 0.000000 0.000000
#
# Coordination Sequence:
#
# PCOD8160976 Si02
#       8
#     8   8   8   8   8   8   8   8
#     4  10  20  36  58  79 103 139 180 222 263 316
#     4  10  21  35  54  82 110 139 177 218 266 319
#     4  10  20  33  54  79 107 142 177 216 260 311
#     4  10  21  35  54  82 110 139 177 218 266 319
#     4  10  20  35  59  79 104 137 178 224 271 314
#     4  10  19  34  55  80 106 135 177 221 267 316
#     4   9  18  31  49  71  96 137 183 214 249 299
#     4  10  20  33  54  79 107 142 177 216 260 311
#
# _framework density 17.870853
#
# number of rings (size 3 to 8) (size 9 to 14) (size 15 to 20)
#    0.000    2.125    1.250    2.250    1.750    3.000 
#    0.000    0.000    2.750    9.750    0.000    0.000 
#    0.000    0.000    0.000    0.000    0.000    0.000 
#
# Total GULP energy -396513.210664 kJ/mol
# GULP energy per Si atom -12391.037833 kJ/mol
# Density = 1.783018 g / cm^3
# Si number density = 17.870853 Si / 1000 Ang^3
#
#
#
# Elastic Constant Matrix: (Units=GPa)
#
#
# Indices 1 2 3 4 5 6 
#
# 1 100.7359 34.2662 28.7644 0.0000 0.0000 0.0000
# 2 34.2662 102.0087 62.6408 0.0000 0.0000 0.0000
# 3 28.7644 62.6408 120.1119 0.0000 0.0000 0.0000
# 4 0.0000 0.0000 0.0000 194.2952 0.0000 0.0000
# 5 0.0000 0.0000 0.0000 0.0000 5.2119 0.0000
# 6 0.0000 0.0000 0.0000 0.0000 0.0000 33.3190
#
#
#
# Elastic Compliance Matrix: (Units=1/GPa)
#
#
# Indices 1 2 3 4 5 6 
#
# 1 0.011300 -0.003140 -0.001069 0.000000 0.000000 0.000000
# 2 -0.003140 0.015294 -0.007224 0.000000 0.000000 0.000000
# 3 -0.001069 -0.007224 0.012349 0.000000 0.000000 0.000000
# 4 0.000000 0.000000 0.000000 0.005147 0.000000 0.000000
# 5 0.000000 0.000000 0.000000 0.000000 0.191868 0.000000
# 6 0.000000 0.000000 0.000000 0.000000 0.000000 0.030013
#
#
# Mechanical properties :
#
#
# Convention : Reuss Voigt Hill
#
# Bulk Modulus (GPa) = 62.19699 63.79993 62.99846
# Shear Modulus (GPa) = 16.99549 59.71089 38.35319
#
# Velocity S-wave (km/s) = 3.08720 5.78662 4.63766
# Velocity P-wave (km/s) = 6.89833 8.96798 8.00036
#
# Compressibility (1/GPa) = 0.01607795
#
# Stress axis : x y z
#
# Youngs Moduli (GPa) = 88.49493 65.38552 80.97750
#
# Poissons Ratio (x) = 0.20528 0.08655
# Poissons Ratio (y) = 0.27783 0.58500
# Poissons Ratio (z) = 0.09458 0.47236
#
# Static dielectric constant tensor:
#      x y z
#    x 3.501500 0.000000 0.000000 
#    y 0.000000 3.149530 0.000000 
#    z 0.000000 0.000000 3.498600 
# 
# 
# High freq. dielectric constant tensor:
#      x y z
#    x 1.712450 0.000000 0.000000 
#    y 0.000000 1.668990 0.000000 
#    z 0.000000 0.000000 1.693000 
# 
# From -- ./inp_files/24392.got.cif
#   From: 2010.03.12/outbox.cif.g09.slc.cpg/sg21_13_cif.got.tgz:24392.got - 2010.04.14 01:59:26.
