data_PCOD8160156
_publ_section_title
;
Structure prediction by ZEFSAII (Michael W. Deem and Ramdas Pophale) SiO2 
 PCOD8160156
Probable space group: C 2 2 21
;
_chemical_formula_sum "Si O2"
_cell_formula_units_Z 40
_cell_length_a 8.853668
_cell_length_b 26.750339
_cell_length_c 8.069921
_cell_angle_alpha 90.000000
_cell_angle_beta 90.000000
_cell_angle_gamma 90.000000
_cell_volume 1911.268956
_symmetry_space_group_name_H-M "C 2 2 21"
_symmetry_group_IT_number 20
_symmetry_cell_setting 'orthorhombic'
loop_
_space_group_symop_operation_xyz
x,y,z
-x,-y,1/2+z
x,-y,-z
-x,y,1/2-z
1/2+x,1/2+y,z
1/2-x,1/2-y,1/2+z
1/2+x,1/2-y,-z
1/2-x,1/2+y,1/2-z
loop_
_atom_site_type_symbol
_atom_site_label
_atom_site_fract_x
_atom_site_fract_y
_atom_site_fract_z
Si Si1 0.662576 0.294283 0.203213
Si Si2 0.158786 0.794480 0.833667
Si Si3 0.818978 0.092850 0.386600
Si Si4 0.176731 0.604019 0.733675
Si Si5 0.353479 0.443454 0.957962
O O1 0.500000 0.316093 0.250000
O O2 0.706790 0.241387 0.278173
O O3 0.785858 0.337156 0.237935
O O4 0.636716 0.279161 0.018324
O O5 0.211798 0.851691 0.816713
O O6 0.000000 0.782877 0.750000
O O7 0.725131 0.080723 0.554367
O O8 0.774848 0.058229 0.226797
O O9 0.993723 0.088430 0.440680
O O10 0.000000 0.595659 0.750000
O O11 0.253675 0.577868 0.892233
O O12 0.395849 0.500000 0.000000
#
# Coordination Sequence:
#
# PCOD8160156 Si02
#       5
#     8   8   8   8   8
#     4  11  24  39  67  96 132 184 227 278 332 412
#     4  11  21  41  62  97 134 173 222 280 345 398
#     4  10  24  44  70 105 133 176 232 290 336 415
#     4  11  25  45  66 101 144 181 226 283 347 415
#     4  11  24  44  75 102 131 183 233 291 349 410
#
# _framework density 20.928502999999999
#
# number of rings (size 3 to 8) (size 9 to 14) (size 15 to 20)
#    0.000    1.200    2.000    4.800    8.400    2.400 
#    3.600    0.000    0.000    0.000    0.000    0.000 
#    0.000    0.000    0.000    0.000    0.000    0.000 
#
# Total GULP energy -247822.632895 kJ/mol
# GULP energy per Si atom -12391.131645 kJ/mol
# Density = 2.088087 g / cm^3
# Si number density = 20.928503 Si / 1000 Ang^3
#
#
#
# Elastic Constant Matrix: (Units=GPa)
#
#
# Indices 1 2 3 4 5 6 
#
# 1 93.6403 17.6002 57.6746 0.0000 0.0000 0.0000
# 2 17.6002 81.1964 46.0381 0.0000 0.0000 0.0000
# 3 57.6746 46.0381 185.2339 0.0000 0.0000 0.0000
# 4 0.0000 0.0000 0.0000 39.6824 0.0000 0.0000
# 5 0.0000 0.0000 0.0000 0.0000 34.9876 0.0000
# 6 0.0000 0.0000 0.0000 0.0000 0.0000 17.4768
#
#
#
# Elastic Compliance Matrix: (Units=1/GPa)
#
#
# Indices 1 2 3 4 5 6 
#
# 1 0.013240 -0.000620 -0.003968 0.000000 0.000000 0.000000
# 2 -0.000620 0.014365 -0.003377 0.000000 0.000000 0.000000
# 3 -0.003968 -0.003377 0.007474 0.000000 0.000000 0.000000
# 4 0.000000 0.000000 0.000000 0.025200 0.000000 0.000000
# 5 0.000000 0.000000 0.000000 0.000000 0.028582 0.000000
# 6 0.000000 0.000000 0.000000 0.000000 0.000000 0.057219
#
#
# Mechanical properties :
#
#
# Convention : Reuss Voigt Hill
#
# Bulk Modulus (GPa) = 52.22606 66.96626 59.59616
# Shear Modulus (GPa) = 29.69260 34.34655 32.01958
#
# Velocity S-wave (km/s) = 3.77073 4.05549 3.91570
# Velocity P-wave (km/s) = 6.63073 7.34823 6.99868
#
# Compressibility (1/GPa) = 0.01914753
#
# Stress axis : x y z
#
# Youngs Moduli (GPa) = 75.52980 69.61313 133.80523
#
# Poissons Ratio (x) = 0.04315 0.53098
# Poissons Ratio (y) = 0.04682 0.45190
# Poissons Ratio (z) = 0.29972 0.23510
#
# Static dielectric constant tensor:
#      x y z
#    x 3.520510 0.000000 0.000000 
#    y 0.000000 3.736860 0.000000 
#    z 0.000000 0.000000 4.433910 
# 
# 
# High freq. dielectric constant tensor:
#      x y z
#    x 1.799060 0.000000 0.000000 
#    y 0.000000 1.817230 0.000000 
#    z 0.000000 0.000000 1.852010 
# 
# From -- ./inp_files/6102.got.cif
#   From: 2010.03.12/outbox.cif.g09.slc.cpg/sg20_4_cif.got.tgz:6102.got - 2010.04.14 01:38:04.
