data_PCOD8160331
_publ_section_title
;
Structure prediction by ZEFSAII (Michael W. Deem and Ramdas Pophale) SiO2 
 PCOD8160331
Probable space group: C 2 2 21
;
_chemical_formula_sum "Si O2"
_cell_formula_units_Z 48
_cell_length_a 11.215332
_cell_length_b 16.820962
_cell_length_c 11.544723
_cell_angle_alpha 90.000000
_cell_angle_beta 90.000000
_cell_angle_gamma 90.000000
_cell_volume 2177.942857
_symmetry_space_group_name_H-M "C 2 2 21"
_symmetry_group_IT_number 20
_symmetry_cell_setting 'orthorhombic'
loop_
_space_group_symop_operation_xyz
x,y,z
-x,-y,1/2+z
x,-y,-z
-x,y,1/2-z
1/2+x,1/2+y,z
1/2-x,1/2-y,1/2+z
1/2+x,1/2-y,-z
1/2-x,1/2+y,1/2-z
loop_
_atom_site_type_symbol
_atom_site_label
_atom_site_fract_x
_atom_site_fract_y
_atom_site_fract_z
Si Si1 0.322980 0.463831 0.301810
Si Si2 0.725356 0.356872 0.834276
Si Si3 0.058201 0.925622 0.429300
Si Si4 0.011876 0.769306 0.942429
Si Si5 0.685933 0.848048 0.411480
Si Si6 0.112477 0.740363 0.172778
O O1 0.321691 0.558661 0.291430
O O2 0.421400 0.443010 0.398431
O O3 0.356064 0.420645 0.181747
O O4 0.191223 0.434816 0.349234
O O5 0.610775 0.299457 0.851202
O O6 0.811616 0.328719 0.731723
O O7 0.803659 0.357149 0.950664
O O8 0.062556 0.843413 0.502804
O O9 0.109619 0.000000 0.500000
O O10 0.922611 0.709218 0.876026
O O11 0.068036 0.714745 0.044762
O O12 0.806846 0.816498 0.351100
O O13 0.000000 0.767703 0.250000
#
# Coordination Sequence:
#
# PCOD8160331 Si02
#       6
#     8   8   8   8   8   8
#     4  11  22  39  66 100 131 182 226 283 344 401
#     4  11  23  40  68  93 135 175 231 276 346 407
#     4  11  21  38  66  98 136 171 229 290 334 390
#     4  11  23  41  66 101 131 173 226 286 341 404
#     4  11  23  38  69  95 135 168 224 282 343 398
#     4  11  22  40  64  93 123 179 214 273 341 404
#
# _framework density 22.039147
#
# number of rings (size 3 to 8) (size 9 to 14) (size 15 to 20)
#    0.000    1.000    6.667    1.500    2.333    0.667 
#    0.000    0.000    3.667    2.000    0.000    0.000 
#    0.000    0.000    0.000    0.000    0.000    0.000 
#
# Total GULP energy -297444.766140 kJ/mol
# GULP energy per Si atom -12393.531922 kJ/mol
# Density = 2.198898 g / cm^3
# Si number density = 22.039147 Si / 1000 Ang^3
#
#
#
# Elastic Constant Matrix: (Units=GPa)
#
#
# Indices 1 2 3 4 5 6 
#
# 1 94.8560 52.1183 39.8112 0.0000 0.0000 0.0000
# 2 52.1183 94.1957 47.1758 0.0000 0.0000 0.0000
# 3 39.8112 47.1758 63.4217 0.0000 0.0000 0.0000
# 4 0.0000 0.0000 0.0000 26.8367 0.0000 0.0000
# 5 0.0000 0.0000 0.0000 0.0000 14.6366 0.0000
# 6 0.0000 0.0000 0.0000 0.0000 0.0000 37.0147
#
#
#
# Elastic Compliance Matrix: (Units=1/GPa)
#
#
# Indices 1 2 3 4 5 6 
#
# 1 0.016314 -0.006212 -0.005620 0.000000 0.000000 0.000000
# 2 -0.006212 0.019285 -0.010445 0.000000 0.000000 0.000000
# 3 -0.005620 -0.010445 0.027065 0.000000 0.000000 0.000000
# 4 0.000000 0.000000 0.000000 0.037262 0.000000 0.000000
# 5 0.000000 0.000000 0.000000 0.000000 0.068322 0.000000
# 6 0.000000 0.000000 0.000000 0.000000 0.000000 0.027016
#
#
# Mechanical properties :
#
#
# Convention : Reuss Voigt Hill
#
# Bulk Modulus (GPa) = 55.22087 58.96489 57.09288
# Shear Modulus (GPa) = 20.33718 23.25547 21.79632
#
# Velocity S-wave (km/s) = 3.04102 3.25189 3.14822
# Velocity P-wave (km/s) = 6.11887 6.39628 6.25911
#
# Compressibility (1/GPa) = 0.01810910
#
# Stress axis : x y z
#
# Youngs Moduli (GPa) = 61.29648 51.85503 36.94811
#
# Poissons Ratio (x) = 0.32212 0.20765
# Poissons Ratio (y) = 0.38077 0.38593
# Poissons Ratio (z) = 0.34449 0.54164
#
# Static dielectric constant tensor:
#      x y z
#    x 3.795740 0.000000 0.000000 
#    y 0.000000 3.994150 0.000000 
#    z 0.000000 0.000000 4.100300 
# 
# 
# High freq. dielectric constant tensor:
#      x y z
#    x 1.835730 0.000000 0.000000 
#    y 0.000000 1.860870 0.000000 
#    z 0.000000 0.000000 1.874920 
# 
# From -- ./inp_files/14155.got.cif
#   From: 2010.03.12/outbox.cif.g09.slc.cpg/sg20_8_cif.got.tgz:14155.got - 2010.04.14 01:38:04.
