data_PCOD8160415
_publ_section_title
;
Structure prediction by ZEFSAII (Michael W. Deem and Ramdas Pophale) SiO2 
 PCOD8160415
Probable space group: C 2 2 21
;
_chemical_formula_sum "Si O2"
_cell_formula_units_Z 60
_cell_length_a 16.574961
_cell_length_b 28.572650
_cell_length_c 6.074001
_cell_angle_alpha 90.000000
_cell_angle_beta 90.000000
_cell_angle_gamma 90.000000
_cell_volume 2876.589531
_symmetry_space_group_name_H-M "C 2 2 21"
_symmetry_group_IT_number 20
_symmetry_cell_setting 'orthorhombic'
loop_
_space_group_symop_operation_xyz
x,y,z
-x,-y,1/2+z
x,-y,-z
-x,y,1/2-z
1/2+x,1/2+y,z
1/2-x,1/2-y,1/2+z
1/2+x,1/2-y,-z
1/2-x,1/2+y,1/2-z
loop_
_atom_site_type_symbol
_atom_site_label
_atom_site_fract_x
_atom_site_fract_y
_atom_site_fract_z
Si Si1 0.090147 0.958048 0.836277
Si Si2 0.351447 0.287370 0.289644
Si Si3 0.765097 0.051712 0.007633
Si Si4 0.323835 0.387284 0.394993
Si Si5 0.821008 0.288927 0.398232
Si Si6 0.185904 0.368665 0.732753
Si Si7 0.442509 0.162395 0.923619
Si Si8 0.000000 0.268500 0.750000
O O1 0.149972 0.956127 0.630279
O O2 0.000000 0.962410 0.750000
O O3 0.102971 0.910896 0.973907
O O4 0.112371 0.000000 0.000000
O O5 0.365313 0.343064 0.280118
O O6 0.268896 0.275624 0.170826
O O7 0.356412 0.261384 0.527954
O O8 0.426301 0.263457 0.167748
O O9 0.782578 0.075972 0.772799
O O10 0.700123 0.083354 0.134833
O O11 0.725097 0.000000 0.000000
O O12 0.257315 0.364696 0.555246
O O13 0.815980 0.324348 0.606199
O O14 0.869521 0.310204 0.194356
O O15 0.099905 0.371202 0.603620
O O16 0.500000 0.134348 0.750000
O O17 0.508612 0.197238 0.037618
#
# Coordination Sequence:
#
# PCOD8160415 Si02
#       8
#     8   8   8   8   8   8   8   4
#     4  11  24  40  64  91 131 186 238 285 350 407
#     4  12  23  41  62  92 136 182 229 272 337 396
#     4  11  22  42  68  97 138 171 236 296 349 419
#     4  11  24  42  62  97 133 180 231 286 341 409
#     4  12  23  43  67  92 139 183 224 281 339 414
#     4  11  22  42  68  98 132 176 228 279 348 411
#     4  12  22  44  67  95 141 175 236 280 342 408
#     4  12  26  40  60  96 136 184 234 286 326 404
#
# _framework density 20.858034
#
# number of rings (size 3 to 8) (size 9 to 14) (size 15 to 20)
#    0.000    0.533    6.667    2.000    0.000    1.067 
#    2.400    0.000    0.000    0.000    0.000    0.000 
#  120.000    0.000    0.000    0.000    0.000    0.000 
#
# Total GULP energy -371729.899218 kJ/mol
# GULP energy per Si atom -12390.996641 kJ/mol
# Density = 2.081056 g / cm^3
# Si number density = 20.858034 Si / 1000 Ang^3
#
#
#
# Elastic Constant Matrix: (Units=GPa)
#
#
# Indices 1 2 3 4 5 6 
#
# 1 80.6938 22.9258 24.0535 0.0000 0.0000 0.0000
# 2 22.9258 116.8360 34.8212 0.0000 0.0000 0.0000
# 3 24.0535 34.8212 88.1029 0.0000 0.0000 0.0000
# 4 0.0000 0.0000 0.0000 31.0963 0.0000 0.0000
# 5 0.0000 0.0000 0.0000 0.0000 37.6471 0.0000
# 6 0.0000 0.0000 0.0000 0.0000 0.0000 27.1675
#
#
#
# Elastic Compliance Matrix: (Units=1/GPa)
#
#
# Indices 1 2 3 4 5 6 
#
# 1 0.013816 -0.001799 -0.003061 0.000000 0.000000 0.000000
# 2 -0.001799 0.009936 -0.003436 0.000000 0.000000 0.000000
# 3 -0.003061 -0.003436 0.013544 0.000000 0.000000 0.000000
# 4 0.000000 0.000000 0.000000 0.032158 0.000000 0.000000
# 5 0.000000 0.000000 0.000000 0.000000 0.026562 0.000000
# 6 0.000000 0.000000 0.000000 0.000000 0.000000 0.036809
#
#
# Mechanical properties :
#
#
# Convention : Reuss Voigt Hill
#
# Bulk Modulus (GPa) = 48.29844 49.91486 49.10665
# Shear Modulus (GPa) = 31.98599 32.77100 32.37849
#
# Velocity S-wave (km/s) = 3.92025 3.96807 3.94423
# Velocity P-wave (km/s) = 6.61039 6.70647 6.65860
#
# Compressibility (1/GPa) = 0.02070460
#
# Stress axis : x y z
#
# Youngs Moduli (GPa) = 72.37979 100.64432 73.83297
#
# Poissons Ratio (x) = 0.18103 0.22601
# Poissons Ratio (y) = 0.13019 0.25369
# Poissons Ratio (z) = 0.22156 0.34581
#
# Static dielectric constant tensor:
#      x y z
#    x 3.745560 0.000000 0.000000 
#    y 0.000000 3.864980 0.000000 
#    z 0.000000 0.000000 4.048090 
# 
# 
# High freq. dielectric constant tensor:
#      x y z
#    x 1.811440 0.000000 0.000000 
#    y 0.000000 1.803100 0.000000 
#    z 0.000000 0.000000 1.832120 
# 
# From -- ./inp_files/2900.got.cif
#   From: 2010.03.12/outbox.cif.g09.slc.cpg/sg20_2_cif.got.tgz:2900.got - 2010.04.14 01:38:04.
