data_PCOD8160337
_publ_section_title
;
Structure prediction by ZEFSAII (Michael W. Deem and Ramdas Pophale) SiO2 
 PCOD8160337
Probable space group: C 2 2 21
;
_chemical_formula_sum "Si O2"
_cell_formula_units_Z 36
_cell_length_a 20.900668
_cell_length_b 9.630674
_cell_length_c 8.983963
_cell_angle_alpha 90.000000
_cell_angle_beta 90.000000
_cell_angle_gamma 90.000000
_cell_volume 1808.359631
_symmetry_space_group_name_H-M "C 2 2 21"
_symmetry_group_IT_number 20
_symmetry_cell_setting 'orthorhombic'
loop_
_space_group_symop_operation_xyz
x,y,z
-x,-y,1/2+z
x,-y,-z
-x,y,1/2-z
1/2+x,1/2+y,z
1/2-x,1/2-y,1/2+z
1/2+x,1/2-y,-z
1/2-x,1/2+y,1/2-z
loop_
_atom_site_type_symbol
_atom_site_label
_atom_site_fract_x
_atom_site_fract_y
_atom_site_fract_z
Si Si1 0.349099 0.775001 0.001649
Si Si2 0.669801 0.003141 0.739067
Si Si3 0.517514 0.359822 0.585853
Si Si4 0.545656 0.892130 0.110265
Si Si5 0.732395 0.500000 0.500000
O O1 0.418336 0.732957 0.066055
O O2 0.314221 0.873172 0.123504
O O3 0.352357 0.863246 0.847423
O O4 0.309719 0.635998 0.971606
O O5 0.728912 0.972418 0.847682
O O6 0.615368 0.055810 0.850846
O O7 0.524547 0.500000 0.500000
O O8 0.500000 0.410015 0.750000
O O9 0.542189 0.261075 0.967438
O O10 0.500000 0.874410 0.250000
O O11 0.512173 0.000000 0.000000
#
# Coordination Sequence:
#
# PCOD8160337 Si02
#       5
#     8   8   8   8   4
#     4  11  23  44  67  92 138 177 215 275 340 394
#     4  11  23  42  68  95 129 176 223 274 326 407
#     4  11  23  41  63  97 135 174 216 275 341 402
#     4  11  21  39  65  95 127 164 222 271 325 398
#     4  12  24  44  68  98 132 170 228 280 332 400
#
# _framework density 19.907544000000001
#
# number of rings (size 3 to 8) (size 9 to 14) (size 15 to 20)
#    0.000    0.889    6.667    2.667    0.000    2.667 
#    0.000    0.000    0.000    0.000    0.000    0.000 
#    0.000    0.000    0.000    0.000    0.000    0.000 
#
# Total GULP energy -223005.147778 kJ/mol
# GULP energy per Si atom -12389.174877 kJ/mol
# Density = 1.986223 g / cm^3
# Si number density = 19.907544 Si / 1000 Ang^3
#
#
#
# Elastic Constant Matrix: (Units=GPa)
#
#
# Indices 1 2 3 4 5 6 
#
# 1 85.4443 38.3543 31.9123 0.0000 0.0000 0.0000
# 2 38.3543 141.7549 39.4082 0.0000 0.0000 0.0000
# 3 31.9123 39.4082 79.9408 0.0000 0.0000 0.0000
# 4 0.0000 0.0000 0.0000 24.0874 0.0000 0.0000
# 5 0.0000 0.0000 0.0000 0.0000 24.9791 0.0000
# 6 0.0000 0.0000 0.0000 0.0000 0.0000 39.2349
#
#
#
# Elastic Compliance Matrix: (Units=1/GPa)
#
#
# Indices 1 2 3 4 5 6 
#
# 1 0.014594 -0.002699 -0.004495 0.000000 0.000000 0.000000
# 2 -0.002699 0.008674 -0.003199 0.000000 0.000000 0.000000
# 3 -0.004495 -0.003199 0.015881 0.000000 0.000000 0.000000
# 4 0.000000 0.000000 0.000000 0.041516 0.000000 0.000000
# 5 0.000000 0.000000 0.000000 0.000000 0.040033 0.000000
# 6 0.000000 0.000000 0.000000 0.000000 0.000000 0.025487
#
#
# Mechanical properties :
#
#
# Convention : Reuss Voigt Hill
#
# Bulk Modulus (GPa) = 54.45820 58.49884 56.47852
# Shear Modulus (GPa) = 28.88642 30.82462 29.85552
#
# Velocity S-wave (km/s) = 3.81337 3.93923 3.87681
# Velocity P-wave (km/s) = 6.84134 7.08089 6.96215
#
# Compressibility (1/GPa) = 0.01836271
#
# Stress axis : x y z
#
# Youngs Moduli (GPa) = 68.52120 115.28878 62.96988
#
# Poissons Ratio (x) = 0.31116 0.28308
# Poissons Ratio (y) = 0.18493 0.20141
# Poissons Ratio (z) = 0.30803 0.36875
#
# Static dielectric constant tensor:
#      x y z
#    x 3.568540 0.000000 0.000000 
#    y 0.000000 4.283670 0.000000 
#    z 0.000000 0.000000 3.785770 
# 
# 
# High freq. dielectric constant tensor:
#      x y z
#    x 1.759450 0.000000 0.000000 
#    y 0.000000 1.799740 0.000000 
#    z 0.000000 0.000000 1.783780 
# 
# From -- ./inp_files/10939.got.cif
#   From: 2010.03.12/outbox.cif.g09.slc.cpg/sg20_6_cif.got.tgz:10939.got - 2010.04.14 01:38:04.
