data_PCOD8160229
_publ_section_title
;
Structure prediction by ZEFSAII (Michael W. Deem and Ramdas Pophale) SiO2 
 PCOD8160229
Probable space group: C 2 2 21
;
_chemical_formula_sum "Si O2"
_cell_formula_units_Z 36
_cell_length_a 19.904512
_cell_length_b 8.069667
_cell_length_c 10.220271
_cell_angle_alpha 90.000000
_cell_angle_beta 90.000000
_cell_angle_gamma 90.000000
_cell_volume 1641.608378
_symmetry_space_group_name_H-M "C 2 2 21"
_symmetry_group_IT_number 20
_symmetry_cell_setting 'orthorhombic'
loop_
_space_group_symop_operation_xyz
x,y,z
-x,-y,1/2+z
x,-y,-z
-x,y,1/2-z
1/2+x,1/2+y,z
1/2-x,1/2-y,1/2+z
1/2+x,1/2-y,-z
1/2-x,1/2+y,1/2-z
loop_
_atom_site_type_symbol
_atom_site_label
_atom_site_fract_x
_atom_site_fract_y
_atom_site_fract_z
Si Si1 0.806093 0.098986 0.130683
Si Si2 0.073546 0.287698 0.234010
Si Si3 0.061564 0.823737 0.043536
Si Si4 0.203847 0.113002 0.875754
Si Si5 0.500000 0.103560 0.250000
O O1 0.871730 0.201064 0.175480
O O2 0.745487 0.221932 0.101837
O O3 0.776839 0.976642 0.240951
O O4 0.825133 0.000000 0.000000
O O5 0.092031 0.273439 0.081198
O O6 0.065479 0.484013 0.269788
O O7 0.000000 0.199881 0.250000
O O8 0.124467 0.851986 0.139281
O O9 0.006003 0.716526 0.120252
O O10 0.029755 0.000000 0.000000
O O11 0.219110 0.000000 0.000000
#
# Coordination Sequence:
#
# PCOD8160229 Si02
#       5
#     8   8   8   8   4
#     4  12  26  46  75 111 145 190 248 303 354 439
#     4  10  25  47  67 106 146 184 245 289 367 428
#     4  11  23  46  72 101 145 192 235 295 374 427
#     4  11  25  48  74 105 145 195 238 302 372 429
#     4  10  26  42  74 102 132 194 236 298 342 448
#
# _framework density 21.929713
#
# number of rings (size 3 to 8) (size 9 to 14) (size 15 to 20)
#    0.667    0.444    4.444    2.000    4.667    2.667 
#    4.000    0.000    0.000    0.000    0.000    0.000 
#    0.000    0.000    0.000    0.000    0.000    0.000 
#
# Total GULP energy -223165.438578 kJ/mol
# GULP energy per Si atom -12398.079921 kJ/mol
# Density = 2.187980 g / cm^3
# Si number density = 21.929713 Si / 1000 Ang^3
#
#
#
# Elastic Constant Matrix: (Units=GPa)
#
#
# Indices 1 2 3 4 5 6 
#
# 1 35.4941 45.3855 29.5116 0.0000 0.0000 0.0000
# 2 45.3855 157.7333 80.4492 0.0000 0.0000 0.0000
# 3 29.5116 80.4492 161.7817 0.0000 0.0000 0.0000
# 4 0.0000 0.0000 0.0000 47.2241 0.0000 0.0000
# 5 0.0000 0.0000 0.0000 0.0000 24.7938 0.0000
# 6 0.0000 0.0000 0.0000 0.0000 0.0000 26.9771
#
#
#
# Elastic Compliance Matrix: (Units=1/GPa)
#
#
# Indices 1 2 3 4 5 6 
#
# 1 0.045249 -0.011804 -0.002385 0.000000 0.000000 0.000000
# 2 -0.011804 0.011573 -0.003602 0.000000 0.000000 0.000000
# 3 -0.002385 -0.003602 0.008407 0.000000 0.000000 0.000000
# 4 0.000000 0.000000 0.000000 0.021176 0.000000 0.000000
# 5 0.000000 0.000000 0.000000 0.000000 0.040333 0.000000
# 6 0.000000 0.000000 0.000000 0.000000 0.000000 0.037068
#
#
# Mechanical properties :
#
#
# Convention : Reuss Voigt Hill
#
# Bulk Modulus (GPa) = 33.72720 73.96686 53.84703
# Shear Modulus (GPa) = 23.89258 33.10984 28.50121
#
# Velocity S-wave (km/s) = 3.30435 3.88985 3.60899
# Velocity P-wave (km/s) = 5.47461 7.34690 6.47874
#
# Compressibility (1/GPa) = 0.02964966
#
# Stress axis : x y z
#
# Youngs Moduli (GPa) = 22.09976 86.40661 118.94503
#
# Poissons Ratio (x) = 1.01991 0.28364
# Poissons Ratio (y) = 0.26086 0.42842
# Poissons Ratio (z) = 0.05270 0.31122
#
# Static dielectric constant tensor:
#      x y z
#    x 3.706210 0.000000 0.000000 
#    y 0.000000 4.072190 0.000000 
#    z 0.000000 0.000000 3.931860 
# 
# 
# High freq. dielectric constant tensor:
#      x y z
#    x 1.842620 0.000000 0.000000 
#    y 0.000000 1.872640 0.000000 
#    z 0.000000 0.000000 1.869270 
# 
# From -- ./inp_files/9864.got.cif
#   From: 2010.03.12/outbox.cif.g09.slc.cpg/sg20_5_cif.got.tgz:9864.got - 2010.04.14 01:38:04.
