data_PCOD8160010
_publ_section_title
;
Structure prediction by ZEFSAII (Michael W. Deem and Ramdas Pophale) SiO2 
 PCOD8160010
Probable space group: C 2 2 21
;
_chemical_formula_sum "Si O2"
_cell_formula_units_Z 28
_cell_length_a 16.861257
_cell_length_b 7.909676
_cell_length_c 9.270691
_cell_angle_alpha 90.000000
_cell_angle_beta 90.000000
_cell_angle_gamma 90.000000
_cell_volume 1236.404987
_symmetry_space_group_name_H-M "C 2 2 21"
_symmetry_group_IT_number 20
_symmetry_cell_setting 'orthorhombic'
loop_
_space_group_symop_operation_xyz
x,y,z
-x,-y,1/2+z
x,-y,-z
-x,y,1/2-z
1/2+x,1/2+y,z
1/2-x,1/2-y,1/2+z
1/2+x,1/2-y,-z
1/2-x,1/2+y,1/2-z
loop_
_atom_site_type_symbol
_atom_site_label
_atom_site_fract_x
_atom_site_fract_y
_atom_site_fract_z
Si Si1 0.931139 0.917008 0.654410
Si Si2 0.657663 0.058647 0.343373
Si Si3 0.295814 0.557002 0.836128
Si Si4 0.000000 0.594199 0.750000
O O1 0.000000 0.008546 0.750000
O O2 0.954879 0.718625 0.635535
O O3 0.923087 0.000000 0.500000
O O4 0.848521 0.930392 0.739563
O O5 0.706398 0.954489 0.223093
O O6 0.564189 0.022216 0.329027
O O7 0.687956 0.000000 0.500000
O O8 0.670605 0.256054 0.319840
O O9 0.299356 0.500000 0.000000
#
# Coordination Sequence:
#
# PCOD8160010 Si02
#       4
#     8   8   8   4
#     4  10  23  43  73 100 143 179 233 281 347 403
#     4  12  27  46  71 101 142 184 235 287 346 412
#     4  12  26  47  72 103 138 185 233 287 348 412
#     4  10  26  42  70 108 140 176 236 282 346 412
#
# _framework density 22.6463
#
# number of rings (size 3 to 8) (size 9 to 14) (size 15 to 20)
#    0.857    0.000    0.000    6.857    6.000    3.429 
#    0.000    0.000    0.000    0.000    0.000    0.000 
#    0.000    0.000    0.000    0.000    0.000    0.000 
#
# Total GULP energy -173609.095737 kJ/mol
# GULP energy per Si atom -12400.649695 kJ/mol
# Density = 2.259476 g / cm^3
# Si number density = 22.646300 Si / 1000 Ang^3
#
#
#
# Elastic Constant Matrix: (Units=GPa)
#
#
# Indices 1 2 3 4 5 6 
#
# 1 135.4650 60.0720 60.4056 0.0000 0.0000 0.0000
# 2 60.0720 147.6230 40.3899 0.0000 0.0000 0.0000
# 3 60.4056 40.3899 167.7214 0.0000 0.0000 0.0000
# 4 0.0000 0.0000 0.0000 26.6126 0.0000 0.0000
# 5 0.0000 0.0000 0.0000 0.0000 37.2245 0.0000
# 6 0.0000 0.0000 0.0000 0.0000 0.0000 -8.5049
#
#
#
# Elastic Compliance Matrix: (Units=1/GPa)
#
#
# Indices 1 2 3 4 5 6 
#
# 1 0.010134 -0.003346 -0.002844 0.000000 0.000000 0.000000
# 2 -0.003346 0.008356 -0.000807 0.000000 0.000000 0.000000
# 3 -0.002844 -0.000807 0.007181 0.000000 0.000000 0.000000
# 4 0.000000 0.000000 0.000000 0.037576 0.000000 0.000000
# 5 0.000000 0.000000 0.000000 0.000000 0.026864 0.000000
# 6 0.000000 0.000000 0.000000 0.000000 0.000000 -0.117580
#
#
# Mechanical properties :
#
#
# Convention : Reuss Voigt Hill
#
# Bulk Modulus (GPa) = 85.63827 85.83825 85.73826
# Shear Modulus (GPa) = -521.82701 30.39590 -245.71555
#
# Velocity S-wave (km/s) = -15.19622 3.66758 -10.42770
# Velocity P-wave (km/s) = 16.43175 7.47804 10.34605
#
# Compressibility (1/GPa) = 0.01167702
#
# Stress axis : x y z
#
# Youngs Moduli (GPa) = 98.67987 119.66973 139.25629
#
# Poissons Ratio (x) = 0.40037 0.39605
# Poissons Ratio (y) = 0.33014 0.11244
# Poissons Ratio (z) = 0.28065 0.09662
#
# Static dielectric constant tensor:
#      x y z
#    x 4.223580 0.000000 0.000000 
#    y 0.000000 3.985840 0.000000 
#    z 0.000000 0.000000 4.010920 
# 
# 
# High freq. dielectric constant tensor:
#      x y z
#    x 1.907480 0.000000 0.000000 
#    y 0.000000 1.894680 0.000000 
#    z 0.000000 0.000000 1.886170 
# 
# From -- ./inp_files/9030.got.cif
#   From: 2010.03.12/outbox.cif.g09.slc.cpg/sg20_5_cif.got.tgz:9030.got - 2010.04.14 01:38:04.
