data_PCOD8160001
_publ_section_title
;
Structure prediction by ZEFSAII (Michael W. Deem and Ramdas Pophale) SiO2 
 PCOD8160001
Probable space group: C 2 2 21
;
_chemical_formula_sum "Si O2"
_cell_formula_units_Z 36
_cell_length_a 5.212610
_cell_length_b 18.235071
_cell_length_c 15.273338
_cell_angle_alpha 90.000000
_cell_angle_beta 90.000000
_cell_angle_gamma 90.000000
_cell_volume 1451.766111
_symmetry_space_group_name_H-M "C 2 2 21"
_symmetry_group_IT_number 20
_symmetry_cell_setting 'orthorhombic'
loop_
_space_group_symop_operation_xyz
x,y,z
-x,-y,1/2+z
x,-y,-z
-x,y,1/2-z
1/2+x,1/2+y,z
1/2-x,1/2-y,1/2+z
1/2+x,1/2-y,-z
1/2-x,1/2+y,1/2-z
loop_
_atom_site_type_symbol
_atom_site_label
_atom_site_fract_x
_atom_site_fract_y
_atom_site_fract_z
Si Si1 0.125362 0.245330 0.340696
Si Si2 0.500000 0.652728 0.750000
Si Si3 0.618669 0.112892 0.885786
Si Si4 0.236845 0.092438 0.419459
Si Si5 0.733718 0.988392 0.601347
O O1 0.374040 0.293189 0.320916
O O2 0.188017 0.177538 0.402382
O O3 0.000000 0.217749 0.250000
O O4 0.936476 0.300271 0.393809
O O5 0.308188 0.600149 0.803936
O O6 0.355168 0.067847 0.860517
O O7 0.749040 0.081264 0.974612
O O8 0.506593 0.069703 0.375480
O O9 0.012448 0.043945 0.372568
O O10 0.745212 0.000000 0.500000
#
# Coordination Sequence:
#
# PCOD8160001 Si02
#       5
#     8   4   8   8   8
#     4  10  25  45  67 103 146 186 239 300 354 433
#     4  10  24  44  72 102 148 180 252 294 356 436
#     4  10  24  43  74 101 142 192 239 294 362 430
#     4  11  25  42  75 102 141 183 237 293 356 420
#     4  10  23  43  68 103 138 177 231 295 345 421
#
# _framework density 24.797384999999998
#
# number of rings (size 3 to 8) (size 9 to 14) (size 15 to 20)
#    0.000    1.778    0.000    2.000   18.667    0.000 
#    2.000    0.000    0.000    0.000    0.000    0.000 
#    0.000    0.000    0.000    0.000    0.000    0.000 
#
# Total GULP energy -223068.225140 kJ/mol
# GULP energy per Si atom -12392.679174 kJ/mol
# Density = 2.474094 g / cm^3
# Si number density = 24.797385 Si / 1000 Ang^3
#
#
#
# Elastic Constant Matrix: (Units=GPa)
#
#
# Indices 1 2 3 4 5 6 
#
# 1 124.5035 19.8139 17.8991 0.0000 0.0000 0.0000
# 2 19.8139 113.8831 21.6955 0.0000 0.0000 0.0000
# 3 17.8991 21.6955 50.0549 0.0000 0.0000 0.0000
# 4 0.0000 0.0000 0.0000 20.5825 0.0000 0.0000
# 5 0.0000 0.0000 0.0000 0.0000 22.2369 0.0000
# 6 0.0000 0.0000 0.0000 0.0000 0.0000 -5.0621
#
#
#
# Elastic Compliance Matrix: (Units=1/GPa)
#
#
# Indices 1 2 3 4 5 6 
#
# 1 0.008568 -0.000989 -0.002635 0.000000 0.000000 0.000000
# 2 -0.000989 0.009685 -0.003844 0.000000 0.000000 0.000000
# 3 -0.002635 -0.003844 0.022587 0.000000 0.000000 0.000000
# 4 0.000000 0.000000 0.000000 0.048585 0.000000 0.000000
# 5 0.000000 0.000000 0.000000 0.000000 0.044970 0.000000
# 6 0.000000 0.000000 0.000000 0.000000 0.000000 -0.197545
#
#
# Mechanical properties :
#
#
# Convention : Reuss Voigt Hill
#
# Bulk Modulus (GPa) = 38.60509 45.25095 41.92802
# Shear Modulus (GPa) = -126.33164 22.82032 -51.75566
#
# Velocity S-wave (km/s) = -7.14536 3.03689 -4.57348
# Velocity P-wave (km/s) = 7.24382 5.53035 3.30818
#
# Compressibility (1/GPa) = 0.02590332
#
# Stress axis : x y z
#
# Youngs Moduli (GPa) = 116.71189 103.24890 44.27381
#
# Poissons Ratio (x) = 0.10208 0.11668
# Poissons Ratio (y) = 0.11539 0.17021
# Poissons Ratio (z) = 0.30757 0.39693
#
# Static dielectric constant tensor:
#      x y z
#    x 5.462830 0.000000 0.000000 
#    y 0.000000 4.663140 0.000000 
#    z 0.000000 0.000000 4.126060 
# 
# 
# High freq. dielectric constant tensor:
#      x y z
#    x 2.001200 0.000000 0.000000 
#    y 0.000000 1.992970 0.000000 
#    z 0.000000 0.000000 1.958490 
# 
# From -- ./inp_files/22714.got.cif
#   From: 2010.03.12/outbox.cif.g09.slc.cpg/sg20_12_cif.got.tgz:22714.got - 2010.04.14 01:38:04.
