data_PCOD8160396
_publ_section_title
;
Structure prediction by ZEFSAII (Michael W. Deem and Ramdas Pophale) SiO2 
 PCOD8160396
Probable space group: C 2 2 21
;
_chemical_formula_sum "Si O2"
_cell_formula_units_Z 36
_cell_length_a 8.088404
_cell_length_b 13.621604
_cell_length_c 14.919487
_cell_angle_alpha 90.000000
_cell_angle_beta 90.000000
_cell_angle_gamma 90.000000
_cell_volume 1643.784860
_symmetry_space_group_name_H-M "C 2 2 21"
_symmetry_group_IT_number 20
_symmetry_cell_setting 'orthorhombic'
loop_
_space_group_symop_operation_xyz
x,y,z
-x,-y,1/2+z
x,-y,-z
-x,y,1/2-z
1/2+x,1/2+y,z
1/2-x,1/2-y,1/2+z
1/2+x,1/2-y,-z
1/2-x,1/2+y,1/2-z
loop_
_atom_site_type_symbol
_atom_site_label
_atom_site_fract_x
_atom_site_fract_y
_atom_site_fract_z
Si Si1 0.268154 0.310835 0.101634
Si Si2 0.687506 0.206474 0.226136
Si Si3 0.650558 0.688888 0.944309
Si Si4 0.405916 0.998966 0.663013
Si Si5 0.853929 0.500000 0.000000
O O1 0.218585 0.235382 0.182278
O O2 0.458657 0.321434 0.076441
O O3 0.216801 0.420437 0.125757
O O4 0.163304 0.274927 0.017328
O O5 0.500000 0.229946 0.250000
O O6 0.746717 0.277091 0.145568
O O7 0.705426 0.093701 0.194879
O O8 0.734905 0.590141 0.977819
O O9 0.500000 0.040361 0.750000
O O10 0.535534 0.968117 0.585307
#
# Coordination Sequence:
#
# PCOD8160396 Si02
#       5
#     8   8   8   8   4
#     4  11  23  41  66  94 129 168 210 263 318 376
#     4   9  20  39  63  89 121 160 207 258 312 371
#     4  11  23  40  62  94 129 166 210 261 317 378
#     4  11  22  41  66  92 126 170 211 261 318 375
#     4  12  24  40  64  94 128 170 214 258 314 382
#
# _framework density 21.900676000000001
#
# number of rings (size 3 to 8) (size 9 to 14) (size 15 to 20)
#    0.000    1.333    0.000    8.000    0.000    2.667 
#    0.000    0.000    0.000   13.333    0.000    0.000 
#    0.000    0.000    0.000    0.000    0.000    0.000 
#
# Total GULP energy -223168.240431 kJ/mol
# GULP energy per Si atom -12398.235579 kJ/mol
# Density = 2.185083 g / cm^3
# Si number density = 21.900676 Si / 1000 Ang^3
#
#
#
# Elastic Constant Matrix: (Units=GPa)
#
#
# Indices 1 2 3 4 5 6 
#
# 1 73.1332 64.0800 50.2020 0.0000 0.0000 0.0000
# 2 64.0800 141.7509 65.5561 0.0000 0.0000 0.0000
# 3 50.2020 65.5561 158.2798 0.0000 0.0000 0.0000
# 4 0.0000 0.0000 0.0000 49.6161 0.0000 0.0000
# 5 0.0000 0.0000 0.0000 0.0000 33.8900 0.0000
# 6 0.0000 0.0000 0.0000 0.0000 0.0000 32.1445
#
#
#
# Elastic Compliance Matrix: (Units=1/GPa)
#
#
# Indices 1 2 3 4 5 6 
#
# 1 0.024474 -0.009245 -0.003934 0.000000 0.000000 0.000000
# 2 -0.009245 0.012218 -0.002128 0.000000 0.000000 0.000000
# 3 -0.003934 -0.002128 0.008447 0.000000 0.000000 0.000000
# 4 0.000000 0.000000 0.000000 0.020155 0.000000 0.000000
# 5 0.000000 0.000000 0.000000 0.000000 0.029507 0.000000
# 6 0.000000 0.000000 0.000000 0.000000 0.000000 0.031110
#
#
# Mechanical properties :
#
#
# Convention : Reuss Voigt Hill
#
# Bulk Modulus (GPa) = 68.84126 81.42667 75.13397
# Shear Modulus (GPa) = 30.98551 36.01850 33.50200
#
# Velocity S-wave (km/s) = 3.76549 4.05980 3.91541
# Velocity P-wave (km/s) = 7.09978 7.69654 7.40417
#
# Compressibility (1/GPa) = 0.01452617
#
# Stress axis : x y z
#
# Youngs Moduli (GPa) = 40.85954 81.84624 118.38432
#
# Poissons Ratio (x) = 0.75663 0.46568
# Poissons Ratio (y) = 0.37773 0.25196
# Poissons Ratio (z) = 0.16073 0.17419
#
# Static dielectric constant tensor:
#      x y z
#    x 3.602080 0.000000 0.000000 
#    y 0.000000 3.888150 0.000000 
#    z 0.000000 0.000000 4.730760 
# 
# 
# High freq. dielectric constant tensor:
#      x y z
#    x 1.833000 0.000000 0.000000 
#    y 0.000000 1.868120 0.000000 
#    z 0.000000 0.000000 1.895620 
# 
# From -- ./inp_files/18428.got.cif
#   From: 2010.03.12/outbox.cif.g09.slc.cpg/sg20_10_cif.got.tgz:18428.got - 2010.04.14 01:38:04.
