data_PCOD8160340
_publ_section_title
;
Structure prediction by ZEFSAII (Michael W. Deem and Ramdas Pophale) SiO2 
 PCOD8160340
Probable space group: C 2 2 21
;
_chemical_formula_sum "Si O2"
_cell_formula_units_Z 48
_cell_length_a 7.684368
_cell_length_b 14.149363
_cell_length_c 17.990986
_cell_angle_alpha 90.000000
_cell_angle_beta 90.000000
_cell_angle_gamma 90.000000
_cell_volume 1956.140338
_symmetry_space_group_name_H-M "C 2 2 21"
_symmetry_group_IT_number 20
_symmetry_cell_setting 'orthorhombic'
loop_
_space_group_symop_operation_xyz
x,y,z
-x,-y,1/2+z
x,-y,-z
-x,y,1/2-z
1/2+x,1/2+y,z
1/2-x,1/2-y,1/2+z
1/2+x,1/2-y,-z
1/2-x,1/2+y,1/2-z
loop_
_atom_site_type_symbol
_atom_site_label
_atom_site_fract_x
_atom_site_fract_y
_atom_site_fract_z
Si Si1 0.681971 0.627692 0.291260
Si Si2 0.304659 0.967567 0.841353
Si Si3 0.439839 0.790159 0.024865
Si Si4 0.122478 0.665861 0.683124
Si Si5 0.855757 0.429347 0.565896
Si Si6 0.397819 0.604020 0.469683
O O1 0.500000 0.605350 0.250000
O O2 0.830105 0.581547 0.238851
O O3 0.725890 0.739073 0.295271
O O4 0.697179 0.583726 0.374936
O O5 0.479802 0.971460 0.889915
O O6 0.154390 0.908317 0.883531
O O7 0.247402 0.077523 0.830778
O O8 0.493854 0.812428 0.109908
O O9 0.435903 0.674157 0.018693
O O10 0.587796 0.828851 0.969176
O O11 0.258028 0.841369 0.010862
O O12 0.000000 0.633470 0.750000
O O13 0.798136 0.500000 0.500000
O O14 0.435791 0.500000 0.500000
#
# Coordination Sequence:
#
# PCOD8160340 Si02
#       6
#     8   8   8   8   8   8
#     4  11  25  43  67 104 143 182 234 307 376 442
#     4  11  22  44  70  95 136 189 242 296 356 448
#     4  11  22  41  70 104 138 191 234 305 364 439
#     4  11  21  40  67  95 131 187 232 286 370 428
#     4  11  22  43  74 105 133 189 255 294 366 451
#     4  11  22  42  68 101 144 185 243 299 370 434
#
# _framework density 24.538115999999999
#
# number of rings (size 3 to 8) (size 9 to 14) (size 15 to 20)
#    0.000    1.000    3.333    5.500    0.000    0.000 
#    0.000   10.833    3.667    0.000    0.000    0.000 
#    0.000    0.000    0.000    0.000    0.000    0.000 
#
# Total GULP energy -297433.431510 kJ/mol
# GULP energy per Si atom -12393.059646 kJ/mol
# Density = 2.448227 g / cm^3
# Si number density = 24.538116 Si / 1000 Ang^3
#
#
#
# Elastic Constant Matrix: (Units=GPa)
#
#
# Indices 1 2 3 4 5 6 
#
# 1 72.9338 35.8527 28.2061 0.0000 0.0000 0.0000
# 2 35.8527 221.7907 78.2772 0.0000 0.0000 0.0000
# 3 28.2061 78.2772 173.5538 0.0000 0.0000 0.0000
# 4 0.0000 0.0000 0.0000 47.7134 0.0000 0.0000
# 5 0.0000 0.0000 0.0000 0.0000 37.4146 0.0000
# 6 0.0000 0.0000 0.0000 0.0000 0.0000 35.4351
#
#
#
# Elastic Compliance Matrix: (Units=1/GPa)
#
#
# Indices 1 2 3 4 5 6 
#
# 1 0.015272 -0.001894 -0.001628 0.000000 0.000000 0.000000
# 2 -0.001894 0.005597 -0.002217 0.000000 0.000000 0.000000
# 3 -0.001628 -0.002217 0.007026 0.000000 0.000000 0.000000
# 4 0.000000 0.000000 0.000000 0.020958 0.000000 0.000000
# 5 0.000000 0.000000 0.000000 0.000000 0.026728 0.000000
# 6 0.000000 0.000000 0.000000 0.000000 0.000000 0.028221
#
#
# Mechanical properties :
#
#
# Convention : Reuss Voigt Hill
#
# Bulk Modulus (GPa) = 60.90827 83.66113 72.28470
# Shear Modulus (GPa) = 41.40732 45.84210 43.62471
#
# Velocity S-wave (km/s) = 4.11234 4.32696 4.22101
# Velocity P-wave (km/s) = 6.88652 7.68972 7.29918
#
# Compressibility (1/GPa) = 0.01641813
#
# Stress axis : x y z
#
# Youngs Moduli (GPa) = 65.48065 178.65764 142.32443
#
# Poissons Ratio (x) = 0.33842 0.23165
# Poissons Ratio (y) = 0.12404 0.31549
# Poissons Ratio (z) = 0.10658 0.39603
#
# Static dielectric constant tensor:
#      x y z
#    x 4.030120 0.000000 0.000000 
#    y 0.000000 4.614370 0.000000 
#    z 0.000000 0.000000 4.849570 
# 
# 
# High freq. dielectric constant tensor:
#      x y z
#    x 1.941530 0.000000 0.000000 
#    y 0.000000 1.992520 0.000000 
#    z 0.000000 0.000000 2.002030 
# 
# From -- ./inp_files/23425.got.cif
#   From: 2010.03.12/outbox.cif.g09.slc.cpg/sg20_12_cif.got.tgz:23425.got - 2010.04.14 01:38:04.
