data_PCOD8160929
_publ_section_title
;
Structure prediction by ZEFSAII (Michael W. Deem and Ramdas Pophale) SiO2 
 PCOD8160929
Probable space group: C 2 2 2
;
_chemical_formula_sum "Si O2"
_cell_formula_units_Z 56
_cell_length_a 5.148895
_cell_length_b 26.595831
_cell_length_c 22.560730
_cell_angle_alpha 90.000000
_cell_angle_beta 90.000000
_cell_angle_gamma 90.000000
_cell_volume 3089.446992
_symmetry_space_group_name_H-M "C 2 2 2"
_symmetry_group_IT_number 21
_symmetry_cell_setting 'orthorhombic'
loop_
_space_group_symop_operation_xyz
x,y,z
-x,-y,z
x,-y,-z
-x,y,-z
1/2+x,1/2+y,z
1/2-x,1/2-y,z
1/2+x,1/2-y,-z
1/2-x,1/2+y,-z
loop_
_atom_site_type_symbol
_atom_site_label
_atom_site_fract_x
_atom_site_fract_y
_atom_site_fract_z
Si Si1 0.007182 0.943505 0.780186
Si Si2 0.242894 0.693976 0.972805
Si Si3 0.499983 0.782627 0.431912
Si Si4 0.979090 0.281321 0.846349
Si Si5 0.986312 0.943870 0.360588
Si Si6 0.492162 0.116892 0.779484
Si Si7 0.010652 0.615866 0.361177
O O1 0.021934 0.946721 0.709851
O O2 0.747401 0.916409 0.801549
O O3 0.251262 0.911165 0.803777
O O4 0.000000 0.000000 0.806695
O O5 0.250000 0.750000 0.001330
O O6 0.187959 0.698076 0.902850
O O7 0.500000 0.666624 0.000000
O O8 0.000000 0.663542 0.000000
O O9 0.500000 0.800506 0.500000
O O10 0.250000 0.750000 0.416621
O O11 0.500927 0.830003 0.389733
O O12 0.750000 0.750000 0.416684
O O13 0.750000 0.250000 0.812632
O O14 0.052389 0.328028 0.805855
O O15 0.250000 0.250000 0.859908
O O16 0.231656 0.912285 0.382832
O O17 0.729324 0.916996 0.384735
O O18 0.000000 0.000000 0.387186
O O19 0.497961 0.122572 0.709116
#
# Coordination Sequence:
#
# PCOD8160929 Si02
#       7
#     8   8   8   8   8   8   8
#     4   9  17  31  49  69  96 129 166 206 241 281
#     4   9  16  28  45  62  83 120 163 194 221 261
#     4  10  21  36  53  71  92 125 171 216 248 278
#     4  11  21  32  46  69 105 139 160 192 241 289
#     4   9  17  30  50  74  97 124 158 196 245 302
#     4  10  20  31  47  74 102 131 164 196 244 304
#     4  10  19  32  51  72  97 129 163 202 246 295
#
# _framework density 18.126221999999999
#
# number of rings (size 3 to 8) (size 9 to 14) (size 15 to 20)
#    0.000    2.286    0.000    4.714    0.000    4.571 
#    0.000    0.000    0.000    2.571    0.000    0.000 
#    0.000    8.571    0.000    0.571    0.000    0.000 
#
# Total GULP energy -346952.479949 kJ/mol
# GULP energy per Si atom -12391.159998 kJ/mol
# Density = 1.808497 g / cm^3
# Si number density = 18.126222 Si / 1000 Ang^3
#
#
#
# Elastic Constant Matrix: (Units=GPa)
#
#
# Indices 1 2 3 4 5 6 
#
# 1 176.4272 66.1152 31.6100 0.0000 0.0000 0.0000
# 2 66.1152 124.6785 37.9380 0.0000 0.0000 0.0000
# 3 31.6100 37.9380 31.8986 0.0000 0.0000 0.0000
# 4 0.0000 0.0000 0.0000 -4.0954 0.0000 0.0000
# 5 0.0000 0.0000 0.0000 0.0000 9.5317 0.0000
# 6 0.0000 0.0000 0.0000 0.0000 0.0000 79.8350
#
#
#
# Elastic Compliance Matrix: (Units=1/GPa)
#
#
# Indices 1 2 3 4 5 6 
#
# 1 0.007414 -0.002658 -0.004186 0.000000 0.000000 0.000000
# 2 -0.002658 0.013522 -0.013449 0.000000 0.000000 0.000000
# 3 -0.004186 -0.013449 0.051492 0.000000 0.000000 0.000000
# 4 0.000000 0.000000 0.000000 -0.244175 0.000000 0.000000
# 5 0.000000 0.000000 0.000000 0.000000 0.104913 0.000000
# 6 0.000000 0.000000 0.000000 0.000000 0.000000 0.012526
#
#
# Mechanical properties :
#
#
# Convention : Reuss Voigt Hill
#
# Bulk Modulus (GPa) = 31.40336 67.14786 49.27561
# Shear Modulus (GPa) = -1608.85598 30.21033 -789.32282
#
# Velocity S-wave (km/s) = -29.82468 4.08691 -20.89030
# Velocity P-wave (km/s) = 34.18557 7.70684 23.55056
#
# Compressibility (1/GPa) = 0.03184372
#
# Stress axis : x y z
#
# Youngs Moduli (GPa) = 134.87889 73.95204 19.42043
#
# Poissons Ratio (x) = 0.19655 0.08129
# Poissons Ratio (y) = 0.35849 0.26118
# Poissons Ratio (z) = 0.56459 0.99455
#
# Static dielectric constant tensor:
#      x y z
#    x 4.013150 0.000000 0.000000 
#    y 0.000000 3.281090 0.000000 
#    z 0.000000 0.000000 2.847130 
# 
# 
# High freq. dielectric constant tensor:
#      x y z
#    x 1.734010 0.000000 0.000000 
#    y 0.000000 1.686870 0.000000 
#    z 0.000000 0.000000 1.655070 
# 
# From -- ./inp_files/38347.got.cif
#   From: 2010.03.12/outbox.cif.g09.slc.cpg/sg21_20_cif.got.tgz:38347.got - 2010.04.14 01:59:26.
