data_PCOD8160793
_publ_section_title
;
Structure prediction by ZEFSAII (Michael W. Deem and Ramdas Pophale) SiO2 
 PCOD8160793
Probable space group: C 2 2 2
;
_chemical_formula_sum "Si O2"
_cell_formula_units_Z 22
_cell_length_a 8.722719
_cell_length_b 15.959147
_cell_length_c 8.201676
_cell_angle_alpha 90.000000
_cell_angle_beta 90.000000
_cell_angle_gamma 90.000000
_cell_volume 1141.731980
_symmetry_space_group_name_H-M "C 2 2 2"
_symmetry_group_IT_number 21
_symmetry_cell_setting 'orthorhombic'
loop_
_space_group_symop_operation_xyz
x,y,z
-x,-y,z
x,-y,-z
-x,y,-z
1/2+x,1/2+y,z
1/2-x,1/2-y,z
1/2+x,1/2-y,-z
1/2-x,1/2+y,-z
loop_
_atom_site_type_symbol
_atom_site_label
_atom_site_fract_x
_atom_site_fract_y
_atom_site_fract_z
Si Si1 0.972071 0.796160 0.185794
Si Si2 0.827864 0.642520 0.334635
Si Si3 0.750000 0.250000 0.377995
Si Si4 0.500000 0.000000 0.500000
O O1 0.919855 0.698400 0.201414
O O2 0.848910 0.858817 0.271364
O O3 0.135956 0.806624 0.271450
O O4 0.000000 0.821456 0.000000
O O5 0.846505 0.687321 0.509594
O O6 0.895342 0.551013 0.370072
#
# Coordination Sequence:
#
# PCOD8160793 Si02
#       4
#     8   8   4   2
#     4  10  19  35  62  92 117 155 211 255 296 357
#     4  10  20  35  60  90 115 165 202 246 305 357
#     4  10  16  36  58  88 114 156 220 250 276 366
#     4  12  20  40  60  92 132 154 208 248 308 370
#
# _framework density 19.268969999999999
#
# number of rings (size 3 to 8) (size 9 to 14) (size 15 to 20)
#    0.000    2.182    3.636    5.455    0.000    0.000 
#    0.000    4.545    0.000    2.182    0.000    0.000 
#    0.000    0.000    0.000    0.000    0.000    0.000 
#
# Total GULP energy -136314.739727 kJ/mol
# GULP energy per Si atom -12392.249066 kJ/mol
# Density = 1.922511 g / cm^3
# Si number density = 19.268970 Si / 1000 Ang^3
#
#
#
# Elastic Constant Matrix: (Units=GPa)
#
#
# Indices 1 2 3 4 5 6 
#
# 1 120.2563 39.8245 47.8755 0.0000 0.0000 0.0000
# 2 39.8245 91.8661 24.7604 0.0000 0.0000 0.0000
# 3 47.8755 24.7604 119.0598 0.0000 0.0000 0.0000
# 4 0.0000 0.0000 0.0000 16.6217 0.0000 0.0000
# 5 0.0000 0.0000 0.0000 0.0000 30.8799 0.0000
# 6 0.0000 0.0000 0.0000 0.0000 0.0000 33.5800
#
#
#
# Elastic Compliance Matrix: (Units=1/GPa)
#
#
# Indices 1 2 3 4 5 6 
#
# 1 0.011023 -0.003797 -0.003643 0.000000 0.000000 0.000000
# 2 -0.003797 0.012840 -0.001143 0.000000 0.000000 0.000000
# 3 -0.003643 -0.001143 0.010102 0.000000 0.000000 0.000000
# 4 0.000000 0.000000 0.000000 0.060162 0.000000 0.000000
# 5 0.000000 0.000000 0.000000 0.000000 0.032384 0.000000
# 6 0.000000 0.000000 0.000000 0.000000 0.000000 0.029780
#
#
# Mechanical properties :
#
#
# Convention : Reuss Voigt Hill
#
# Bulk Modulus (GPa) = 59.53027 61.78923 60.65975
# Shear Modulus (GPa) = 27.92426 30.79776 29.36101
#
# Velocity S-wave (km/s) = 3.81094 4.00222 3.90775
# Velocity P-wave (km/s) = 7.09407 7.31392 7.20483
#
# Compressibility (1/GPa) = 0.01679818
#
# Stress axis : x y z
#
# Youngs Moduli (GPa) = 90.71741 77.88456 98.99190
#
# Poissons Ratio (x) = 0.29571 0.36063
# Poissons Ratio (y) = 0.34443 0.11319
# Poissons Ratio (z) = 0.33048 0.08906
#
# Static dielectric constant tensor:
#      x y z
#    x 3.688970 0.000000 0.000000 
#    y 0.000000 3.154580 0.000000 
#    z 0.000000 0.000000 3.418950 
# 
# 
# High freq. dielectric constant tensor:
#      x y z
#    x 1.774360 0.000000 0.000000 
#    y 0.000000 1.690650 0.000000 
#    z 0.000000 0.000000 1.745660 
# 
# From -- ./inp_files/9604.got.cif
#   From: 2010.03.12/outbox.cif.g09.slc.cpg/sg21_5_cif.got.tgz:9604.got - 2010.04.14 01:59:26.
