data_PCOD8160691
_publ_section_title
;
Structure prediction by ZEFSAII (Michael W. Deem and Ramdas Pophale) SiO2 
 PCOD8160691
Probable space group: C 2 2 21
;
_chemical_formula_sum "Si O2"
_cell_formula_units_Z 40
_cell_length_a 11.014549
_cell_length_b 19.039096
_cell_length_c 7.724327
_cell_angle_alpha 90.000000
_cell_angle_beta 90.000000
_cell_angle_gamma 90.000000
_cell_volume 1619.845873
_symmetry_space_group_name_H-M "C 2 2 21"
_symmetry_group_IT_number 20
_symmetry_cell_setting 'orthorhombic'
loop_
_space_group_symop_operation_xyz
x,y,z
-x,-y,1/2+z
x,-y,-z
-x,y,1/2-z
1/2+x,1/2+y,z
1/2-x,1/2-y,1/2+z
1/2+x,1/2-y,-z
1/2-x,1/2+y,1/2-z
loop_
_atom_site_type_symbol
_atom_site_label
_atom_site_fract_x
_atom_site_fract_y
_atom_site_fract_z
Si Si1 0.256446 0.000000 0.500000
Si Si2 0.299261 0.748511 0.384959
Si Si3 0.095062 0.856976 0.098386
Si Si4 0.641106 0.350734 0.573121
Si Si5 0.682658 0.052917 0.646014
Si Si6 0.500000 0.839444 0.250000
O O1 0.179226 0.931823 0.555726
O O2 0.339237 0.980235 0.335902
O O3 0.308086 0.706432 0.569473
O O4 0.294434 0.688184 0.235284
O O5 0.187949 0.804929 0.401850
O O6 0.423636 0.791677 0.379014
O O7 0.174916 0.927285 0.120693
O O8 0.000000 0.849541 0.250000
O O9 0.006756 0.854655 0.926335
O O10 0.591252 0.117699 0.627396
O O11 0.641692 0.000000 0.500000
#
# Coordination Sequence:
#
# PCOD8160691 Si02
#       6
#     4   8   8   8   8   4
#     4  12  26  48  72 114 150 194 252 316 380 464
#     4  12  25  47  79 106 149 201 256 315 381 460
#     4  12  24  46  73 107 146 193 251 313 376 456
#     4  12  25  47  76 109 150 196 256 312 386 455
#     4  12  29  48  74 106 152 202 249 312 389 459
#     4  12  24  50  70 110 146 190 262 312 368 472
#
# _framework density 24.693707
#
# number of rings (size 3 to 8) (size 9 to 14) (size 15 to 20)
#    0.000    0.000    6.000    3.600    2.800    0.000 
#    3.600    0.000    0.000    0.000    0.000    0.000 
#    0.000    0.000    0.000    0.000    0.000    0.000 
#
# Total GULP energy -247858.002645 kJ/mol
# GULP energy per Si atom -12392.900132 kJ/mol
# Density = 2.463750 g / cm^3
# Si number density = 24.693707 Si / 1000 Ang^3
#
#
#
# Elastic Constant Matrix: (Units=GPa)
#
#
# Indices 1 2 3 4 5 6 
#
# 1 81.5432 36.0382 18.9596 0.0000 0.0000 0.0000
# 2 36.0382 165.4156 53.4133 0.0000 0.0000 0.0000
# 3 18.9596 53.4133 78.0109 0.0000 0.0000 0.0000
# 4 0.0000 0.0000 0.0000 41.3215 0.0000 0.0000
# 5 0.0000 0.0000 0.0000 0.0000 25.4022 0.0000
# 6 0.0000 0.0000 0.0000 0.0000 0.0000 32.1676
#
#
#
# Elastic Compliance Matrix: (Units=1/GPa)
#
#
# Indices 1 2 3 4 5 6 
#
# 1 0.013735 -0.002458 -0.001655 0.000000 0.000000 0.000000
# 2 -0.002458 0.008201 -0.005018 0.000000 0.000000 0.000000
# 3 -0.001655 -0.005018 0.016657 0.000000 0.000000 0.000000
# 4 0.000000 0.000000 0.000000 0.024200 0.000000 0.000000
# 5 0.000000 0.000000 0.000000 0.000000 0.039367 0.000000
# 6 0.000000 0.000000 0.000000 0.000000 0.000000 0.031087
#
#
# Mechanical properties :
#
#
# Convention : Reuss Voigt Hill
#
# Bulk Modulus (GPa) = 49.18693 60.19911 54.69302
# Shear Modulus (GPa) = 31.58855 34.21552 32.90203
#
# Velocity S-wave (km/s) = 3.58049 3.72640 3.65417
# Velocity P-wave (km/s) = 6.08730 6.55332 6.32460
#
# Compressibility (1/GPa) = 0.02033060
#
# Stress axis : x y z
#
# Youngs Moduli (GPa) = 72.80928 121.93414 60.03593
#
# Poissons Ratio (x) = 0.29969 0.09937
# Poissons Ratio (y) = 0.17895 0.30125
# Poissons Ratio (z) = 0.12051 0.61185
#
# Static dielectric constant tensor:
#      x y z
#    x 4.758120 0.000000 0.000000 
#    y 0.000000 4.629340 0.000000 
#    z 0.000000 0.000000 4.953930 
# 
# 
# High freq. dielectric constant tensor:
#      x y z
#    x 1.984590 0.000000 0.000000 
#    y 0.000000 1.993540 0.000000 
#    z 0.000000 0.000000 1.993080 
# 
# From -- ./inp_files/7087.got.cif
#   From: 2010.03.12/outbox.cif.g09.slc.cpg/sg20_4_cif.got.tgz:7087.got - 2010.04.14 01:38:04.
