data_PCOD8160317
_publ_section_title
;
Structure prediction by ZEFSAII (Michael W. Deem and Ramdas Pophale) SiO2 
 PCOD8160317
Probable space group: C 2 2 21
;
_chemical_formula_sum "Si O2"
_cell_formula_units_Z 60
_cell_length_a 26.837864
_cell_length_b 14.269061
_cell_length_c 7.816911
_cell_angle_alpha 90.000000
_cell_angle_beta 90.000000
_cell_angle_gamma 90.000000
_cell_volume 2993.494811
_symmetry_space_group_name_H-M "C 2 2 21"
_symmetry_group_IT_number 20
_symmetry_cell_setting 'orthorhombic'
loop_
_space_group_symop_operation_xyz
x,y,z
-x,-y,1/2+z
x,-y,-z
-x,y,1/2-z
1/2+x,1/2+y,z
1/2-x,1/2-y,1/2+z
1/2+x,1/2-y,-z
1/2-x,1/2+y,1/2-z
loop_
_atom_site_type_symbol
_atom_site_label
_atom_site_fract_x
_atom_site_fract_y
_atom_site_fract_z
Si Si1 0.030042 0.095917 0.424915
Si Si2 0.847375 0.972567 0.305693
Si Si3 0.292082 0.216943 0.876217
Si Si4 0.697050 0.826757 0.769354
Si Si5 0.236895 0.479055 0.299759
Si Si6 0.000000 0.195007 0.750000
Si Si7 0.114847 0.169167 0.249819
Si Si8 0.396668 0.279312 0.366361
O O1 0.995520 0.133812 0.577509
O O2 0.070587 0.179463 0.388088
O O3 0.000000 0.075807 0.250000
O O4 0.053331 0.000000 0.500000
O O5 0.792399 0.967082 0.221188
O O6 0.875808 0.874462 0.278274
O O7 0.838421 0.000000 0.500000
O O8 0.879009 0.056991 0.228982
O O9 0.238407 0.265967 0.867397
O O10 0.291959 0.118943 0.771980
O O11 0.333933 0.280634 0.792015
O O12 0.304026 0.199755 0.071872
O O13 0.643005 0.804352 0.846712
O O14 0.708240 0.937025 0.797018
O O15 0.239953 0.500000 0.500000
O O16 0.052187 0.252522 0.768265
O O17 0.095030 0.202762 0.067004
#
# Coordination Sequence:
#
# PCOD8160317 Si02
#       8
#     8   8   8   8   8   4   8   8
#     4  12  24  40  60  89 125 168 213 258 310 370
#     4   9  17  31  53  81 120 161 192 233 301 368
#     4  11  21  36  58  86 118 158 207 253 313 386
#     4  11  21  37  58  86 119 159 205 259 314 376
#     4   9  18  35  56  80 117 160 199 243 307 373
#     4  12  24  40  60  86 120 166 216 260 310 372
#     4  11  22  38  59  87 123 163 202 254 312 372
#     4  11  22  38  60  85 121 164 209 257 311 371
#
# _framework density 20.043462999999999
#
# number of rings (size 3 to 8) (size 9 to 14) (size 15 to 20)
#    0.000    1.333    4.667    2.400    0.000    0.000 
#    0.000    4.000    0.000    0.000    1.733    0.000 
#    0.000    0.000    0.000    0.000    0.000    0.000 
#
# Total GULP energy -371810.236027 kJ/mol
# GULP energy per Si atom -12393.674534 kJ/mol
# Density = 1.999784 g / cm^3
# Si number density = 20.043463 Si / 1000 Ang^3
#
#
#
# Elastic Constant Matrix: (Units=GPa)
#
#
# Indices 1 2 3 4 5 6 
#
# 1 139.0213 36.7072 31.4491 0.0000 0.0000 0.0000
# 2 36.7072 76.5100 10.3321 0.0000 0.0000 0.0000
# 3 31.4491 10.3321 70.4830 0.0000 0.0000 0.0000
# 4 0.0000 0.0000 0.0000 12.4655 0.0000 0.0000
# 5 0.0000 0.0000 0.0000 0.0000 24.5278 0.0000
# 6 0.0000 0.0000 0.0000 0.0000 0.0000 66.0564
#
#
#
# Elastic Compliance Matrix: (Units=1/GPa)
#
#
# Indices 1 2 3 4 5 6 
#
# 1 0.008989 -0.003847 -0.003447 0.000000 0.000000 0.000000
# 2 -0.003847 0.014981 -0.000480 0.000000 0.000000 0.000000
# 3 -0.003447 -0.000480 0.015796 0.000000 0.000000 0.000000
# 4 0.000000 0.000000 0.000000 0.080221 0.000000 0.000000
# 5 0.000000 0.000000 0.000000 0.000000 0.040770 0.000000
# 6 0.000000 0.000000 0.000000 0.000000 0.000000 0.015139
#
#
# Mechanical properties :
#
#
# Convention : Reuss Voigt Hill
#
# Bulk Modulus (GPa) = 41.29031 49.22125 45.25578
# Shear Modulus (GPa) = 25.06084 34.44501 29.75292
#
# Velocity S-wave (km/s) = 3.53983 4.15000 3.85700
# Velocity P-wave (km/s) = 6.11165 6.89738 6.51637
#
# Compressibility (1/GPa) = 0.02421876
#
# Stress axis : x y z
#
# Youngs Moduli (GPa) = 111.25180 66.75288 63.30714
#
# Poissons Ratio (x) = 0.25680 0.21820
# Poissons Ratio (y) = 0.42799 0.03036
# Poissons Ratio (z) = 0.38345 0.03201
#
# Static dielectric constant tensor:
#      x y z
#    x 3.674440 0.000000 0.000000 
#    y 0.000000 3.665870 0.000000 
#    z 0.000000 0.000000 3.586840 
# 
# 
# High freq. dielectric constant tensor:
#      x y z
#    x 1.783420 0.000000 0.000000 
#    y 0.000000 1.743970 0.000000 
#    z 0.000000 0.000000 1.788420 
# 
# From -- ./inp_files/10775.got.cif
#   From: 2010.03.12/outbox.cif.g09.slc.cpg/sg20_6_cif.got.tgz:10775.got - 2010.04.14 01:38:04.
