data_PCOD8160091
_publ_section_title
;
Structure prediction by ZEFSAII (Michael W. Deem and Ramdas Pophale) SiO2 
 PCOD8160091
Probable space group: C 2 2 21
;
_chemical_formula_sum "Si O2"
_cell_formula_units_Z 36
_cell_length_a 27.511697
_cell_length_b 11.128694
_cell_length_c 5.788738
_cell_angle_alpha 90.000000
_cell_angle_beta 90.000000
_cell_angle_gamma 90.000000
_cell_volume 1772.333614
_symmetry_space_group_name_H-M "C 2 2 21"
_symmetry_group_IT_number 20
_symmetry_cell_setting 'orthorhombic'
loop_
_space_group_symop_operation_xyz
x,y,z
-x,-y,1/2+z
x,-y,-z
-x,y,1/2-z
1/2+x,1/2+y,z
1/2-x,1/2-y,1/2+z
1/2+x,1/2-y,-z
1/2-x,1/2+y,1/2-z
loop_
_atom_site_type_symbol
_atom_site_label
_atom_site_fract_x
_atom_site_fract_y
_atom_site_fract_z
Si Si1 0.295852 0.362035 0.000534
Si Si2 0.557427 0.559422 0.249497
Si Si3 0.811460 0.330736 0.645150
Si Si4 0.625636 0.776802 0.245429
Si Si5 0.150298 0.500000 0.500000
O O1 0.313905 0.298582 0.232828
O O2 0.311218 0.500000 0.000000
O O3 0.238408 0.342651 0.992851
O O4 0.325260 0.299750 0.793237
O O5 0.574091 0.500000 0.500000
O O6 0.500000 0.568799 0.250000
O O7 0.578260 0.694219 0.247021
O O8 0.573987 0.500000 0.000000
O O9 0.861251 0.336565 0.498710
O O10 0.812979 0.448081 0.808095
O O11 0.616715 0.888192 0.419941
#
# Coordination Sequence:
#
# PCOD8160091 Si02
#       5
#     8   8   8   8   4
#     4  11  23  35  56  87 126 163 221 259 325 382
#     4  10  24  46  73 104 135 168 216 285 346 392
#     4  11  23  39  55  89 124 175 209 278 315 392
#     4  11  23  39  65  89 126 171 216 264 332 399
#     4  10  24  40  60  84 132 168 222 254 342 384
#
# _framework density 20.312201000000002
#
# number of rings (size 3 to 8) (size 9 to 14) (size 15 to 20)
#    0.000    1.333    2.222    2.667   12.444    0.000 
#    0.000    0.000    4.889    0.000    0.000    0.000 
#    0.000    0.000    0.000    0.000    0.000    0.000 
#
# Total GULP energy -223015.241853 kJ/mol
# GULP energy per Si atom -12389.735658 kJ/mol
# Density = 2.026597 g / cm^3
# Si number density = 20.312201 Si / 1000 Ang^3
#
#
#
# Elastic Constant Matrix: (Units=GPa)
#
#
# Indices 1 2 3 4 5 6 
#
# 1 28.9924 27.5570 19.9889 0.0000 0.0000 0.0000
# 2 27.5570 159.7457 43.1327 0.0000 0.0000 0.0000
# 3 19.9889 43.1327 110.4660 0.0000 0.0000 0.0000
# 4 0.0000 0.0000 0.0000 32.9860 0.0000 0.0000
# 5 0.0000 0.0000 0.0000 0.0000 20.7459 0.0000
# 6 0.0000 0.0000 0.0000 0.0000 0.0000 35.0263
#
#
#
# Elastic Compliance Matrix: (Units=1/GPa)
#
#
# Indices 1 2 3 4 5 6 
#
# 1 0.044159 -0.006104 -0.005607 0.000000 0.000000 0.000000
# 2 -0.006104 0.007841 -0.001957 0.000000 0.000000 0.000000
# 3 -0.005607 -0.001957 0.010831 0.000000 0.000000 0.000000
# 4 0.000000 0.000000 0.000000 0.030316 0.000000 0.000000
# 5 0.000000 0.000000 0.000000 0.000000 0.048202 0.000000
# 6 0.000000 0.000000 0.000000 0.000000 0.000000 0.028550
#
#
# Mechanical properties :
#
#
# Convention : Reuss Voigt Hill
#
# Bulk Modulus (GPa) = 28.17261 53.39568 40.78415
# Shear Modulus (GPa) = 23.91555 31.65333 27.78444
#
# Velocity S-wave (km/s) = 3.43505 3.95187 3.70248
# Velocity P-wave (km/s) = 5.44359 6.86786 6.19678
#
# Compressibility (1/GPa) = 0.03549547
#
# Stress axis : x y z
#
# Youngs Moduli (GPa) = 22.64525 127.52906 92.32366
#
# Poissons Ratio (x) = 0.77840 0.51770
# Poissons Ratio (y) = 0.13822 0.18070
# Poissons Ratio (z) = 0.12698 0.24961
#
# Static dielectric constant tensor:
#      x y z
#    x 3.251140 0.000000 0.000000 
#    y 0.000000 3.856720 0.000000 
#    z 0.000000 0.000000 4.250270 
# 
# 
# High freq. dielectric constant tensor:
#      x y z
#    x 1.752840 0.000000 0.000000 
#    y 0.000000 1.806280 0.000000 
#    z 0.000000 0.000000 1.810330 
# 
# From -- ./inp_files/4561.got.cif
#   From: 2010.03.12/outbox.cif.g09.slc.cpg/sg20_3_cif.got.tgz:4561.got - 2010.04.14 01:38:04.
