data_PCOD8160991
_publ_section_title
;
Structure prediction by ZEFSAII (Michael W. Deem and Ramdas Pophale) SiO2 
 PCOD8160991
Probable space group: C 2 2 2
;
_chemical_formula_sum "Si O2"
_cell_formula_units_Z 34
_cell_length_a 9.455907
_cell_length_b 17.635443
_cell_length_c 8.821008
_cell_angle_alpha 90.000000
_cell_angle_beta 90.000000
_cell_angle_gamma 90.000000
_cell_volume 1470.983434
_symmetry_space_group_name_H-M "C 2 2 2"
_symmetry_group_IT_number 21
_symmetry_cell_setting 'orthorhombic'
loop_
_space_group_symop_operation_xyz
x,y,z
-x,-y,z
x,-y,-z
-x,y,-z
1/2+x,1/2+y,z
1/2-x,1/2-y,z
1/2+x,1/2-y,-z
1/2-x,1/2+y,-z
loop_
_atom_site_type_symbol
_atom_site_label
_atom_site_fract_x
_atom_site_fract_y
_atom_site_fract_z
Si Si1 0.000000 0.500000 0.500000
Si Si2 0.504727 0.623608 0.824298
Si Si3 0.470361 0.801848 0.172783
Si Si4 0.270778 0.105541 0.653443
Si Si5 0.737406 0.836627 0.327413
O O1 0.889535 0.543513 0.610367
O O2 0.532796 0.712581 0.795805
O O3 0.622465 0.575247 0.728324
O O4 0.347856 0.608280 0.758348
O O5 0.500000 0.599633 0.000000
O O6 0.319855 0.836455 0.215999
O O7 0.576871 0.853036 0.277189
O O8 0.500000 0.820067 0.000000
O O9 0.236691 0.154444 0.504857
O O10 0.750000 0.750000 0.273130
#
# Coordination Sequence:
#
# PCOD8160991 Si02
#       5
#     2   8   8   8   8
#     4  12  28  44  64  88 124 200 244 266 292 372
#     4  10  21  36  64 103 133 158 201 275 355 397
#     4  10  19  35  63  98 135 166 198 263 344 411
#     4  12  22  41  62  87 132 171 230 261 312 383
#     4  10  19  34  60  96 129 162 207 268 345 398
#
# _framework density 23.113790000000002
#
# number of rings (size 3 to 8) (size 9 to 14) (size 15 to 20)
#    0.000    1.412    2.353    4.235    0.000    7.529 
#    0.000    2.941    0.000    1.412    0.000    0.000 
#    0.000    0.000    0.000    0.000    0.000    0.000 
#
# Total GULP energy -210611.956500 kJ/mol
# GULP energy per Si atom -12388.938618 kJ/mol
# Density = 2.306118 g / cm^3
# Si number density = 23.113790 Si / 1000 Ang^3
#
#
#
# Elastic Constant Matrix: (Units=GPa)
#
#
# Indices 1 2 3 4 5 6 
#
# 1 124.1480 17.9915 36.8647 0.0000 0.0000 0.0000
# 2 17.9915 37.1050 5.0944 0.0000 0.0000 0.0000
# 3 36.8647 5.0944 141.6427 0.0000 0.0000 0.0000
# 4 0.0000 0.0000 0.0000 10.1032 0.0000 0.0000
# 5 0.0000 0.0000 0.0000 0.0000 56.9638 0.0000
# 6 0.0000 0.0000 0.0000 0.0000 0.0000 10.4605
#
#
#
# Elastic Compliance Matrix: (Units=1/GPa)
#
#
# Indices 1 2 3 4 5 6 
#
# 1 0.009343 -0.004217 -0.002280 0.000000 0.000000 0.000000
# 2 -0.004217 0.028988 0.000055 0.000000 0.000000 0.000000
# 3 -0.002280 0.000055 0.007651 0.000000 0.000000 0.000000
# 4 0.000000 0.000000 0.000000 0.098979 0.000000 0.000000
# 5 0.000000 0.000000 0.000000 0.000000 0.017555 0.000000
# 6 0.000000 0.000000 0.000000 0.000000 0.000000 0.095597
#
#
# Mechanical properties :
#
#
# Convention : Reuss Voigt Hill
#
# Bulk Modulus (GPa) = 30.21340 46.97746 38.59543
# Shear Modulus (GPa) = 17.72856 31.70183 24.71519
#
# Velocity S-wave (km/s) = 2.77250 3.70747 3.27354
# Velocity P-wave (km/s) = 4.83208 6.22058 5.56977
#
# Compressibility (1/GPa) = 0.03309790
#
# Stress axis : x y z
#
# Youngs Moduli (GPa) = 107.03088 34.49718 130.69429
#
# Poissons Ratio (x) = 0.14548 0.29798
# Poissons Ratio (y) = 0.45138 -0.00719
# Poissons Ratio (z) = 0.24403 -0.00190
#
# Static dielectric constant tensor:
#      x y z
#    x 4.673020 0.000000 0.000000 
#    y 0.000000 3.607970 0.000000 
#    z 0.000000 0.000000 3.976540 
# 
# 
# High freq. dielectric constant tensor:
#      x y z
#    x 1.942590 0.000000 0.000000 
#    y 0.000000 1.867950 0.000000 
#    z 0.000000 0.000000 1.916060 
# 
# From -- ./inp_files/10552.got.cif
#   From: 2010.03.12/outbox.cif.g09.slc.cpg/sg21_6_cif.got.tgz:10552.got - 2010.04.14 01:59:26.
