data_PCOD8160361
_publ_section_title
;
Structure prediction by ZEFSAII (Michael W. Deem and Ramdas Pophale) SiO2 
 PCOD8160361
Probable space group: C 2 2 21
;
_chemical_formula_sum "Si O2"
_cell_formula_units_Z 48
_cell_length_a 16.192697
_cell_length_b 9.497659
_cell_length_c 14.499567
_cell_angle_alpha 90.000000
_cell_angle_beta 90.000000
_cell_angle_gamma 90.000000
_cell_volume 2229.927767
_symmetry_space_group_name_H-M "C 2 2 21"
_symmetry_group_IT_number 20
_symmetry_cell_setting 'orthorhombic'
loop_
_space_group_symop_operation_xyz
x,y,z
-x,-y,1/2+z
x,-y,-z
-x,y,1/2-z
1/2+x,1/2+y,z
1/2-x,1/2-y,1/2+z
1/2+x,1/2-y,-z
1/2-x,1/2+y,1/2-z
loop_
_atom_site_type_symbol
_atom_site_label
_atom_site_fract_x
_atom_site_fract_y
_atom_site_fract_z
Si Si1 0.502571 0.784585 0.647203
Si Si2 0.259554 0.713490 0.122691
Si Si3 0.829631 0.196761 0.318597
Si Si4 0.325393 0.850040 0.949250
Si Si5 0.119520 0.934549 0.097277
Si Si6 0.125699 0.507527 0.894129
O O1 0.500000 0.721092 0.750000
O O2 0.591072 0.818729 0.605580
O O3 0.461955 0.660919 0.585113
O O4 0.447744 0.925644 0.656499
O O5 0.318977 0.723177 0.210379
O O6 0.192832 0.836133 0.132892
O O7 0.215205 0.561876 0.123217
O O8 0.310847 0.731540 0.027812
O O9 0.745234 0.156742 0.371678
O O10 0.872890 0.332473 0.361743
O O11 0.891299 0.063915 0.331225
O O12 0.330138 0.000000 0.000000
O O13 0.146059 0.000000 0.000000
O O14 0.101622 0.500000 0.000000
#
# Coordination Sequence:
#
# PCOD8160361 Si02
#       6
#     8   8   8   8   8   8
#     4  11  27  46  67  96 139 182 223 281 345 404
#     4  11  22  38  71 103 128 173 228 281 326 403
#     4  12  22  41  74  99 132 173 230 278 336 406
#     4  12  23  44  70 104 134 180 234 286 330 405
#     4  11  21  47  68  92 136 180 217 272 351 399
#     4  11  22  43  67  97 133 176 219 271 348 405
#
# _framework density 21.525361
#
# number of rings (size 3 to 8) (size 9 to 14) (size 15 to 20)
#    0.000    0.667    5.000    4.500    2.333    0.000 
#    6.000    0.833    0.000    0.000    0.000    0.000 
#    0.000    0.000    0.000    0.000    0.000    0.000 
#
# Total GULP energy -297632.935863 kJ/mol
# GULP energy per Si atom -12401.372328 kJ/mol
# Density = 2.147637 g / cm^3
# Si number density = 21.525361 Si / 1000 Ang^3
#
#
#
# Elastic Constant Matrix: (Units=GPa)
#
#
# Indices 1 2 3 4 5 6 
#
# 1 86.6818 34.8242 11.5225 0.0000 0.0000 0.0000
# 2 34.8242 122.9126 1.2012 0.0000 0.0000 0.0000
# 3 11.5225 1.2012 88.3838 0.0000 0.0000 0.0000
# 4 0.0000 0.0000 0.0000 31.8776 0.0000 0.0000
# 5 0.0000 0.0000 0.0000 0.0000 -54.3431 0.0000
# 6 0.0000 0.0000 0.0000 0.0000 0.0000 9.5677
#
#
#
# Elastic Compliance Matrix: (Units=1/GPa)
#
#
# Indices 1 2 3 4 5 6 
#
# 1 0.013263 -0.003741 -0.001678 0.000000 0.000000 0.000000
# 2 -0.003741 0.009192 0.000363 0.000000 0.000000 0.000000
# 3 -0.001678 0.000363 0.011528 0.000000 0.000000 0.000000
# 4 0.000000 0.000000 0.000000 0.031370 0.000000 0.000000
# 5 0.000000 0.000000 0.000000 0.000000 -0.018402 0.000000
# 6 0.000000 0.000000 0.000000 0.000000 0.000000 0.104519
#
#
# Mechanical properties :
#
#
# Convention : Reuss Voigt Hill
#
# Bulk Modulus (GPa) = 41.89388 43.67487 42.78438
# Shear Modulus (GPa) = 29.49163 14.11580 21.80372
#
# Velocity S-wave (km/s) = 3.70549 2.56359 3.18611
# Velocity P-wave (km/s) = 6.14917 5.39413 5.78399
#
# Compressibility (1/GPa) = 0.02386983
#
# Stress axis : x y z
#
# Youngs Moduli (GPa) = 75.40031 108.78676 86.74425
#
# Poissons Ratio (x) = 0.40699 0.14557
# Poissons Ratio (y) = 0.28209 -0.03147
# Poissons Ratio (z) = 0.12653 -0.03947
#
# Static dielectric constant tensor:
#      x y z
#    x 3.729370 0.000000 0.000000 
#    y 0.000000 5.266310 0.000000 
#    z 0.000000 0.000000 4.034320 
# 
# 
# High freq. dielectric constant tensor:
#      x y z
#    x 1.823310 0.000000 0.000000 
#    y 0.000000 1.859000 0.000000 
#    z 0.000000 0.000000 1.853880 
# 
# From -- ./inp_files/18862.got.cif
#   From: 2010.03.12/outbox.cif.g09.slc.cpg/sg20_10_cif.got.tgz:18862.got - 2010.04.14 01:38:04.
