data_PCOD8160157
_publ_section_title
;
Structure prediction by ZEFSAII (Michael W. Deem and Ramdas Pophale) SiO2 
 PCOD8160157
Probable space group: C 2 2 21
;
_chemical_formula_sum "Si O2"
_cell_formula_units_Z 32
_cell_length_a 14.090020
_cell_length_b 16.832573
_cell_length_c 5.557827
_cell_angle_alpha 90.000000
_cell_angle_beta 90.000000
_cell_angle_gamma 90.000000
_cell_volume 1318.157000
_symmetry_space_group_name_H-M "C 2 2 21"
_symmetry_group_IT_number 20
_symmetry_cell_setting 'orthorhombic'
loop_
_space_group_symop_operation_xyz
x,y,z
-x,-y,1/2+z
x,-y,-z
-x,y,1/2-z
1/2+x,1/2+y,z
1/2-x,1/2-y,1/2+z
1/2+x,1/2-y,-z
1/2-x,1/2+y,1/2-z
loop_
_atom_site_type_symbol
_atom_site_label
_atom_site_fract_x
_atom_site_fract_y
_atom_site_fract_z
Si Si1 0.646652 0.168100 0.449409
Si Si2 0.143109 0.198012 0.897632
Si Si3 0.000000 0.239214 0.250000
Si Si4 0.558625 0.000000 0.500000
Si Si5 0.389630 0.534155 0.754227
O O1 0.755822 0.192069 0.476431
O O2 0.619925 0.213847 0.203411
O O3 0.583748 0.203943 0.660135
O O4 0.626897 0.074357 0.438666
O O5 0.135921 0.127005 0.706836
O O6 0.053332 0.179866 0.069880
O O7 0.500000 0.014803 0.750000
O O8 0.345284 0.500000 0.500000
O O9 0.500000 0.514661 0.750000
O O10 0.342790 0.500000 0.000000
#
# Coordination Sequence:
#
# PCOD8160157 Si02
#       5
#     8   8   4   4   8
#     4  12  27  50  79 118 159 213 281 337 415 496
#     4  12  27  47  79 116 156 216 272 340 411 490
#     4  12  24  50  80 110 160 210 266 344 408 492
#     4  12  28  54  84 120 166 220 272 344 422 490
#     4  10  24  44  70 107 152 206 258 324 399 479
#
# _framework density 24.276322
#
# number of rings (size 3 to 8) (size 9 to 14) (size 15 to 20)
#    0.000    0.500    3.750    3.750   10.500    0.000 
#    2.250    0.000    0.000    0.000    0.000    0.000 
#    0.000    0.000    0.000    0.000    0.000    0.000 
#
# Total GULP energy -198252.171435 kJ/mol
# GULP energy per Si atom -12390.760715 kJ/mol
# Density = 2.422107 g / cm^3
# Si number density = 24.276322 Si / 1000 Ang^3
#
#
#
# Elastic Constant Matrix: (Units=GPa)
#
#
# Indices 1 2 3 4 5 6 
#
# 1 83.2047 48.2141 42.5371 0.0000 0.0000 0.0000
# 2 48.2141 164.9398 53.3905 0.0000 0.0000 0.0000
# 3 42.5371 53.3905 150.2528 0.0000 0.0000 0.0000
# 4 0.0000 0.0000 0.0000 22.6736 0.0000 0.0000
# 5 0.0000 0.0000 0.0000 0.0000 32.4590 0.0000
# 6 0.0000 0.0000 0.0000 0.0000 0.0000 -22.7620
#
#
#
# Elastic Compliance Matrix: (Units=1/GPa)
#
#
# Indices 1 2 3 4 5 6 
#
# 1 0.015709 -0.003562 -0.003182 0.000000 0.000000 0.000000
# 2 -0.003562 0.007659 -0.001713 0.000000 0.000000 0.000000
# 3 -0.003182 -0.001713 0.008165 0.000000 0.000000 0.000000
# 4 0.000000 0.000000 0.000000 0.044104 0.000000 0.000000
# 5 0.000000 0.000000 0.000000 0.000000 0.030808 0.000000
# 6 0.000000 0.000000 0.000000 0.000000 0.000000 -0.043933
#
#
# Mechanical properties :
#
#
# Convention : Reuss Voigt Hill
#
# Bulk Modulus (GPa) = 68.40259 76.29785 72.35022
# Shear Modulus (GPa) = 59.31323 23.42451 41.36887
#
# Velocity S-wave (km/s) = 4.94829 3.10967 4.13253
# Velocity P-wave (km/s) = 7.80290 6.66262 7.25520
#
# Compressibility (1/GPa) = 0.01461933
#
# Stress axis : x y z
#
# Youngs Moduli (GPa) = 63.65687 130.57314 122.47657
#
# Poissons Ratio (x) = 0.46512 0.38967
# Poissons Ratio (y) = 0.22676 0.20979
# Poissons Ratio (z) = 0.20253 0.22366
#
# Static dielectric constant tensor:
#      x y z
#    x 4.405560 0.000000 0.000000 
#    y 0.000000 4.423830 0.000000 
#    z 0.000000 0.000000 4.846380 
# 
# 
# High freq. dielectric constant tensor:
#      x y z
#    x 1.960920 0.000000 0.000000 
#    y 0.000000 1.974240 0.000000 
#    z 0.000000 0.000000 1.967450 
# 
# From -- ./inp_files/1672.got.cif
#   From: 2010.03.12/outbox.cif.g09.slc.cpg/sg20_1_cif.got.tgz:1672.got - 2010.04.14 01:38:04.
