data_PCOD8160048
_publ_section_title
;
Structure prediction by ZEFSAII (Michael W. Deem and Ramdas Pophale) SiO2 
 PCOD8160048
Probable space group: C 2 2 21
;
_chemical_formula_sum "Si O2"
_cell_formula_units_Z 32
_cell_length_a 9.378082
_cell_length_b 11.989765
_cell_length_c 11.698651
_cell_angle_alpha 90.000000
_cell_angle_beta 90.000000
_cell_angle_gamma 90.000000
_cell_volume 1315.408009
_symmetry_space_group_name_H-M "C 2 2 21"
_symmetry_group_IT_number 20
_symmetry_cell_setting 'orthorhombic'
loop_
_space_group_symop_operation_xyz
x,y,z
-x,-y,1/2+z
x,-y,-z
-x,y,1/2-z
1/2+x,1/2+y,z
1/2-x,1/2-y,1/2+z
1/2+x,1/2-y,-z
1/2-x,1/2+y,1/2-z
loop_
_atom_site_type_symbol
_atom_site_label
_atom_site_fract_x
_atom_site_fract_y
_atom_site_fract_z
Si Si1 0.007738 0.287300 0.903597
Si Si2 0.353452 0.558282 0.613215
Si Si3 0.761800 0.363571 0.751305
Si Si4 0.577157 0.825420 0.354583
O O1 0.046653 0.163467 0.855468
O O2 0.121799 0.376100 0.851240
O O3 0.847851 0.317542 0.862532
O O4 0.025152 0.288138 0.041015
O O5 0.416804 0.500000 0.500000
O O6 0.329841 0.474889 0.720702
O O7 0.194401 0.599471 0.584048
O O8 0.640926 0.279618 0.711632
O O9 0.500000 0.892467 0.250000
#
# Coordination Sequence:
#
# PCOD8160048 Si02
#       4
#     8   8   8   8
#     4  10  23  45  71 101 145 185 241 302 349 439
#     4  11  22  43  73 100 141 192 234 289 373 423
#     4  10  23  46  70  99 145 183 241 290 365 416
#     4  11  24  40  72 103 142 185 245 301 356 427
#
# _framework density 24.327051000000001
#
# number of rings (size 3 to 8) (size 9 to 14) (size 15 to 20)
#    0.000    1.500    2.500    1.500    7.000    0.000 
#   27.000    0.000    0.000    0.000    0.000    0.000 
#    0.000    0.000    0.000    0.000    0.000    0.000 
#
# Total GULP energy -198253.183256 kJ/mol
# GULP energy per Si atom -12390.823954 kJ/mol
# Density = 2.427168 g / cm^3
# Si number density = 24.327051 Si / 1000 Ang^3
#
#
#
# Elastic Constant Matrix: (Units=GPa)
#
#
# Indices 1 2 3 4 5 6 
#
# 1 40.4634 -1.5603 21.4532 0.0000 0.0000 0.0000
# 2 -1.5603 91.1494 23.7331 0.0000 0.0000 0.0000
# 3 21.4532 23.7331 174.7252 0.0000 0.0000 0.0000
# 4 0.0000 0.0000 0.0000 34.3089 0.0000 0.0000
# 5 0.0000 0.0000 0.0000 0.0000 24.0412 0.0000
# 6 0.0000 0.0000 0.0000 0.0000 0.0000 22.5450
#
#
#
# Elastic Compliance Matrix: (Units=1/GPa)
#
#
# Indices 1 2 3 4 5 6 
#
# 1 0.026595 0.001353 -0.003449 0.000000 0.000000 0.000000
# 2 0.001353 0.011442 -0.001720 0.000000 0.000000 0.000000
# 3 -0.003449 -0.001720 0.006380 0.000000 0.000000 0.000000
# 4 0.000000 0.000000 0.000000 0.029147 0.000000 0.000000
# 5 0.000000 0.000000 0.000000 0.000000 0.041595 0.000000
# 6 0.000000 0.000000 0.000000 0.000000 0.000000 0.044356
#
#
# Mechanical properties :
#
#
# Convention : Reuss Voigt Hill
#
# Bulk Modulus (GPa) = 27.18519 43.73223 35.45871
# Shear Modulus (GPa) = 27.86929 33.69318 30.78124
#
# Velocity S-wave (km/s) = 3.38836 3.72561 3.56098
# Velocity P-wave (km/s) = 5.14850 6.04340 5.61381
#
# Compressibility (1/GPa) = 0.03678473
#
# Stress axis : x y z
#
# Youngs Moduli (GPa) = 37.60164 87.39656 156.72886
#
# Poissons Ratio (x) = -0.11828 0.54058
# Poissons Ratio (y) = -0.05089 0.26963
# Poissons Ratio (z) = 0.12969 0.15035
#
# Static dielectric constant tensor:
#      x y z
#    x 4.348900 0.000000 0.000000 
#    y 0.000000 4.332740 0.000000 
#    z 0.000000 0.000000 4.296880 
# 
# 
# High freq. dielectric constant tensor:
#      x y z
#    x 1.960010 0.000000 0.000000 
#    y 0.000000 1.951720 0.000000 
#    z 0.000000 0.000000 1.974850 
# 
# From -- ./inp_files/13571.got.cif
#   From: 2010.03.12/outbox.cif.g09.slc.cpg/sg20_7_cif.got.tgz:13571.got - 2010.04.14 01:38:04.
