data_PCOD8160257
_publ_section_title
;
Structure prediction by ZEFSAII (Michael W. Deem and Ramdas Pophale) SiO2 
 PCOD8160257
Probable space group: C 2 2 21
;
_chemical_formula_sum "Si O2"
_cell_formula_units_Z 32
_cell_length_a 21.361587
_cell_length_b 8.028577
_cell_length_c 8.337176
_cell_angle_alpha 90.000000
_cell_angle_beta 90.000000
_cell_angle_gamma 90.000000
_cell_volume 1429.851913
_symmetry_space_group_name_H-M "C 2 2 21"
_symmetry_group_IT_number 20
_symmetry_cell_setting 'orthorhombic'
loop_
_space_group_symop_operation_xyz
x,y,z
-x,-y,1/2+z
x,-y,-z
-x,y,1/2-z
1/2+x,1/2+y,z
1/2-x,1/2-y,1/2+z
1/2+x,1/2-y,-z
1/2-x,1/2+y,1/2-z
loop_
_atom_site_type_symbol
_atom_site_label
_atom_site_fract_x
_atom_site_fract_y
_atom_site_fract_z
Si Si1 0.383012 0.589136 0.166460
Si Si2 0.662654 0.711383 0.842701
Si Si3 0.079064 0.500000 0.000000
Si Si4 0.000000 0.299020 0.250000
Si Si5 0.208466 0.313539 0.497407
O O1 0.375025 0.463779 0.319086
O O2 0.447660 0.684232 0.174429
O O3 0.324549 0.717152 0.151168
O O4 0.387445 0.500000 0.000000
O O5 0.716958 0.690695 0.973382
O O6 0.693383 0.736801 0.669254
O O7 0.620033 0.863149 0.904330
O O8 0.032605 0.412981 0.120277
O O9 0.182345 0.500000 0.500000
#
# Coordination Sequence:
#
# PCOD8160257 Si02
#       5
#     8   8   4   4   8
#     4  10  26  46  73 107 146 199 245 301 369 441
#     4  11  27  46  76 113 147 191 244 306 378 445
#     4  12  32  48  76 104 148 198 256 304 372 442
#     4  12  30  48  74 100 148 198 258 306 360 440
#     4  11  24  44  77 107 154 186 240 305 376 443
#
# _framework density 22.379940999999999
#
# number of rings (size 3 to 8) (size 9 to 14) (size 15 to 20)
#    0.000    1.000    0.000    3.000   28.000    0.000 
#    0.000    0.000    0.000    0.000    0.000    0.000 
#    0.000    0.000    0.000    0.000    0.000    0.000 
#
# Total GULP energy -198360.389035 kJ/mol
# GULP energy per Si atom -12397.524315 kJ/mol
# Density = 2.232900 g / cm^3
# Si number density = 22.379941 Si / 1000 Ang^3
#
#
#
# Elastic Constant Matrix: (Units=GPa)
#
#
# Indices 1 2 3 4 5 6 
#
# 1 158.8631 80.1110 54.8390 0.0000 0.0000 0.0000
# 2 80.1110 166.6320 39.5755 0.0000 0.0000 0.0000
# 3 54.8390 39.5755 74.8903 0.0000 0.0000 0.0000
# 4 0.0000 0.0000 0.0000 184.7861 0.0000 0.0000
# 5 0.0000 0.0000 0.0000 0.0000 28.7843 0.0000
# 6 0.0000 0.0000 0.0000 0.0000 0.0000 59.9283
#
#
#
# Elastic Compliance Matrix: (Units=1/GPa)
#
#
# Indices 1 2 3 4 5 6 
#
# 1 0.009924 -0.003482 -0.005427 0.000000 0.000000 0.000000
# 2 -0.003482 0.008084 -0.001722 0.000000 0.000000 0.000000
# 3 -0.005427 -0.001722 0.018237 0.000000 0.000000 0.000000
# 4 0.000000 0.000000 0.000000 0.005412 0.000000 0.000000
# 5 0.000000 0.000000 0.000000 0.000000 0.034741 0.000000
# 6 0.000000 0.000000 0.000000 0.000000 0.000000 0.016687
#
#
# Mechanical properties :
#
#
# Convention : Reuss Voigt Hill
#
# Bulk Modulus (GPa) = 66.74385 83.27071 75.00728
# Shear Modulus (GPa) = 41.89652 69.75705 55.82678
#
# Velocity S-wave (km/s) = 4.33142 5.58902 4.99992
# Velocity P-wave (km/s) = 7.40964 8.88471 8.18049
#
# Compressibility (1/GPa) = 0.01498265
#
# Stress axis : x y z
#
# Youngs Moduli (GPa) = 100.76513 123.69419 54.83424
#
# Poissons Ratio (x) = 0.43074 0.29757
# Poissons Ratio (y) = 0.35089 0.09444
# Poissons Ratio (z) = 0.54683 0.21303
#
# Static dielectric constant tensor:
#      x y z
#    x 1.006330 0.000000 0.000000 
#    y 0.000000 4.518720 0.000000 
#    z 0.000000 0.000000 4.077060 
# 
# 
# High freq. dielectric constant tensor:
#      x y z
#    x 1.884860 0.000000 0.000000 
#    y 0.000000 1.905350 0.000000 
#    z 0.000000 0.000000 1.893430 
# 
# From -- ./inp_files/5837.got.cif
#   From: 2010.03.12/outbox.cif.g09.slc.cpg/sg20_3_cif.got.tgz:5837.got - 2010.04.14 01:38:04.
