data_PCOD8160165
_publ_section_title
;
Structure prediction by ZEFSAII (Michael W. Deem and Ramdas Pophale) SiO2 
 PCOD8160165
Probable space group: C 2 2 21
;
_chemical_formula_sum "Si O2"
_cell_formula_units_Z 20
_cell_length_a 7.831661
_cell_length_b 18.153143
_cell_length_c 5.015157
_cell_angle_alpha 90.000000
_cell_angle_beta 90.000000
_cell_angle_gamma 90.000000
_cell_volume 713.001170
_symmetry_space_group_name_H-M "C 2 2 21"
_symmetry_group_IT_number 20
_symmetry_cell_setting 'orthorhombic'
loop_
_space_group_symop_operation_xyz
x,y,z
-x,-y,1/2+z
x,-y,-z
-x,y,1/2-z
1/2+x,1/2+y,z
1/2-x,1/2-y,1/2+z
1/2+x,1/2-y,-z
1/2-x,1/2+y,1/2-z
loop_
_atom_site_type_symbol
_atom_site_label
_atom_site_fract_x
_atom_site_fract_y
_atom_site_fract_z
Si Si1 0.000000 0.949493 0.750000
Si Si2 0.700503 0.295764 0.238388
Si Si3 0.343129 0.084352 0.420250
O O1 0.174663 0.902860 0.769691
O O2 0.030255 0.000000 0.500000
O O3 0.500000 0.317358 0.250000
O O4 0.740944 0.230998 0.448984
O O5 0.813511 0.367858 0.312979
O O6 0.500000 0.115961 0.250000
O O7 0.379494 0.000000 0.500000
#
# Coordination Sequence:
#
# PCOD8160165 Si02
#       3
#     4   8   8
#     4  10  24  44  76 118 162 206 264 328 404 474
#     4  12  30  55  84 119 166 219 279 339 412 494
#     4  11  27  50  86 122 166 214 275 339 410 487
#
# _framework density 28.050442
#
# number of rings (size 3 to 8) (size 9 to 14) (size 15 to 20)
#    0.000    0.800    0.000    3.600   16.800    6.400 
#    0.000    0.000    0.000    0.000    0.000    0.000 
#    0.000    0.000    0.000    0.000    0.000    0.000 
#
# Total GULP energy -124045.321014 kJ/mol
# GULP energy per Si atom -12404.532101 kJ/mol
# Density = 2.798660 g / cm^3
# Si number density = 28.050442 Si / 1000 Ang^3
#
#
#
# Elastic Constant Matrix: (Units=GPa)
#
#
# Indices 1 2 3 4 5 6 
#
# 1 204.6358 9.0446 46.1102 0.0000 0.0000 0.0000
# 2 9.0446 137.4724 -5.8192 0.0000 0.0000 0.0000
# 3 46.1102 -5.8192 58.9320 0.0000 0.0000 0.0000
# 4 0.0000 0.0000 0.0000 24.2954 0.0000 0.0000
# 5 0.0000 0.0000 0.0000 0.0000 58.9317 0.0000
# 6 0.0000 0.0000 0.0000 0.0000 0.0000 34.6164
#
#
#
# Elastic Compliance Matrix: (Units=1/GPa)
#
#
# Indices 1 2 3 4 5 6 
#
# 1 0.005981 -0.000594 -0.004738 0.000000 0.000000 0.000000
# 2 -0.000594 0.007364 0.001192 0.000000 0.000000 0.000000
# 3 -0.004738 0.001192 0.020794 0.000000 0.000000 0.000000
# 4 0.000000 0.000000 0.000000 0.041160 0.000000 0.000000
# 5 0.000000 0.000000 0.000000 0.000000 0.016969 0.000000
# 6 0.000000 0.000000 0.000000 0.000000 0.000000 0.028888
#
#
# Mechanical properties :
#
#
# Convention : Reuss Voigt Hill
#
# Bulk Modulus (GPa) = 38.67338 55.52349 47.09843
# Shear Modulus (GPa) = 36.21761 47.01566 41.61664
#
# Velocity S-wave (km/s) = 3.59717 4.09848 3.85598
# Velocity P-wave (km/s) = 5.57403 6.49875 6.05408
#
# Compressibility (1/GPa) = 0.02585758
#
# Stress axis : x y z
#
# Youngs Moduli (GPa) = 167.20719 135.80080 48.09170
#
# Poissons Ratio (x) = 0.08067 0.22786
# Poissons Ratio (y) = 0.09933 -0.05732
# Poissons Ratio (z) = 0.79224 -0.16186
#
# Static dielectric constant tensor:
#      x y z
#    x 5.779860 0.000000 0.000000 
#    y 0.000000 5.004330 0.000000 
#    z 0.000000 0.000000 5.025530 
# 
# 
# High freq. dielectric constant tensor:
#      x y z
#    x 2.158640 0.000000 0.000000 
#    y 0.000000 2.141450 0.000000 
#    z 0.000000 0.000000 2.136320 
# 
# From -- ./inp_files/253.got.cif
#   From: 2010.03.12/outbox.cif.g09.slc.cpg/sg20_1_cif.got.tgz:253.got - 2010.04.14 01:38:04.
