data_PCOD8160724
_publ_section_title
;
Structure prediction by ZEFSAII (Michael W. Deem and Ramdas Pophale) SiO2 
 PCOD8160724
Probable space group: C 2 2 21
;
_chemical_formula_sum "Si O2"
_cell_formula_units_Z 40
_cell_length_a 12.672398
_cell_length_b 16.048715
_cell_length_c 8.363258
_cell_angle_alpha 90.000000
_cell_angle_beta 90.000000
_cell_angle_gamma 90.000000
_cell_volume 1700.883482
_symmetry_space_group_name_H-M "C 2 2 21"
_symmetry_group_IT_number 20
_symmetry_cell_setting 'orthorhombic'
loop_
_space_group_symop_operation_xyz
x,y,z
-x,-y,1/2+z
x,-y,-z
-x,y,1/2-z
1/2+x,1/2+y,z
1/2-x,1/2-y,1/2+z
1/2+x,1/2-y,-z
1/2-x,1/2+y,1/2-z
loop_
_atom_site_type_symbol
_atom_site_label
_atom_site_fract_x
_atom_site_fract_y
_atom_site_fract_z
Si Si1 0.847414 0.344974 0.120364
Si Si2 0.200158 0.487636 0.821224
Si Si3 0.903145 0.059746 0.353517
Si Si4 0.828068 0.224330 0.408016
Si Si5 0.952135 0.651952 0.404732
O O1 0.818189 0.428281 0.218707
O O2 0.825616 0.266087 0.233799
O O3 0.777024 0.326452 0.962700
O O4 0.966983 0.356147 0.054673
O O5 0.293739 0.435875 0.742328
O O6 0.090676 0.436519 0.837220
O O7 0.242094 0.500000 0.000000
O O8 0.922254 0.155334 0.408288
O O9 0.000000 0.025752 0.250000
O O10 0.888396 0.000000 0.500000
O O11 0.852953 0.294790 0.537764
O O12 0.000000 0.698463 0.250000
#
# Coordination Sequence:
#
# PCOD8160724 Si02
#       5
#     8   8   8   8   8
#     4  12  26  49  75 115 154 204 261 325 405 469
#     4  12  27  47  75 112 153 199 258 327 396 471
#     4  12  26  49  74 102 147 201 260 318 387 468
#     4  12  26  48  73 107 154 198 260 325 383 485
#     4  12  28  45  77 113 153 204 259 326 401 471
#
# _framework density 23.517189999999999
#
# number of rings (size 3 to 8) (size 9 to 14) (size 15 to 20)
#    0.000    0.000    4.000    6.000    2.800    0.800 
#    7.200    0.000    0.000    0.000    0.000    0.000 
#    0.000    0.000    0.000    0.000    0.000    0.000 
#
# Total GULP energy -247887.530394 kJ/mol
# GULP energy per Si atom -12394.376520 kJ/mol
# Density = 2.346366 g / cm^3
# Si number density = 23.517190 Si / 1000 Ang^3
#
#
#
# Elastic Constant Matrix: (Units=GPa)
#
#
# Indices 1 2 3 4 5 6 
#
# 1 116.9744 52.2128 53.9133 0.0000 0.0000 0.0000
# 2 52.2128 115.2247 46.6894 0.0000 0.0000 0.0000
# 3 53.9133 46.6894 128.4215 0.0000 0.0000 0.0000
# 4 0.0000 0.0000 0.0000 48.2008 0.0000 0.0000
# 5 0.0000 0.0000 0.0000 0.0000 49.2692 0.0000
# 6 0.0000 0.0000 0.0000 0.0000 0.0000 12.8089
#
#
#
# Elastic Compliance Matrix: (Units=1/GPa)
#
#
# Indices 1 2 3 4 5 6 
#
# 1 0.011974 -0.003974 -0.003582 0.000000 0.000000 0.000000
# 2 -0.003974 0.011497 -0.002511 0.000000 0.000000 0.000000
# 3 -0.003582 -0.002511 0.010204 0.000000 0.000000 0.000000
# 4 0.000000 0.000000 0.000000 0.020747 0.000000 0.000000
# 5 0.000000 0.000000 0.000000 0.000000 0.020297 0.000000
# 6 0.000000 0.000000 0.000000 0.000000 0.000000 0.078070
#
#
# Mechanical properties :
#
#
# Convention : Reuss Voigt Hill
#
# Bulk Modulus (GPa) = 73.85912 74.02795 73.94353
# Shear Modulus (GPa) = 28.17903 35.90946 32.04425
#
# Velocity S-wave (km/s) = 3.46530 3.91185 3.69533
# Velocity P-wave (km/s) = 6.89099 7.20764 7.05109
#
# Compressibility (1/GPa) = 0.01353929
#
# Stress axis : x y z
#
# Youngs Moduli (GPa) = 83.51604 86.97679 98.00426
#
# Poissons Ratio (x) = 0.34568 0.35103
# Poissons Ratio (y) = 0.33193 0.24614
# Poissons Ratio (z) = 0.29914 0.21844
#
# Static dielectric constant tensor:
#      x y z
#    x 4.155120 0.000000 0.000000 
#    y 0.000000 4.307250 0.000000 
#    z 0.000000 0.000000 4.561670 
# 
# 
# High freq. dielectric constant tensor:
#      x y z
#    x 1.925850 0.000000 0.000000 
#    y 0.000000 1.939410 0.000000 
#    z 0.000000 0.000000 1.955670 
# 
# From -- ./inp_files/8126.got.cif
#   From: 2010.03.12/outbox.cif.g09.slc.cpg/sg20_5_cif.got.tgz:8126.got - 2010.04.14 01:38:04.
