data_PCOD8160872
_publ_section_title
;
Structure prediction by ZEFSAII (Michael W. Deem and Ramdas Pophale) SiO2 
 PCOD8160872
Probable space group: C 2 2 2
;
_chemical_formula_sum "Si O2"
_cell_formula_units_Z 48
_cell_length_a 14.551035
_cell_length_b 8.568528
_cell_length_c 19.258485
_cell_angle_alpha 90.000000
_cell_angle_beta 90.000000
_cell_angle_gamma 90.000000
_cell_volume 2401.166221
_symmetry_space_group_name_H-M "C 2 2 2"
_symmetry_group_IT_number 21
_symmetry_cell_setting 'orthorhombic'
loop_
_space_group_symop_operation_xyz
x,y,z
-x,-y,z
x,-y,-z
-x,y,-z
1/2+x,1/2+y,z
1/2-x,1/2-y,z
1/2+x,1/2-y,-z
1/2-x,1/2+y,-z
loop_
_atom_site_type_symbol
_atom_site_label
_atom_site_fract_x
_atom_site_fract_y
_atom_site_fract_z
Si Si1 0.000000 0.817197 0.738766
Si Si2 0.352326 0.685184 0.500000
Si Si3 0.351664 0.182716 1.000000
Si Si4 0.500000 0.815492 0.110904
Si Si5 0.648473 0.184616 0.641224
Si Si6 0.648473 0.815384 0.641224
O O1 0.000000 0.785935 0.820153
O O2 0.090216 0.738789 0.706793
O O3 0.909784 0.738789 0.706793
O O4 0.000000 0.000000 0.723411
O O5 0.355319 0.500000 0.500000
O O6 0.250000 0.750000 0.500000
O O7 0.399068 0.749292 0.570447
O O8 0.399068 0.749292 0.429553
O O9 0.250000 0.250000 0.000000
O O10 0.408857 0.233518 0.068112
O O11 0.408856 0.233518 0.931887
O O12 0.341786 0.000000 0.000000
O O13 0.500000 0.000000 0.127176
O O14 0.750000 0.250000 0.651292
O O15 0.651731 1.000000 0.636935
O O16 0.750000 0.750000 0.651292
#
# Coordination Sequence:
#
# PCOD8160872 Si02
#       6
#     8   8   8   8   8   8
#     4  12  25  40  58  86 119 156 196 240 291 348
#     4  10  18  33  56  83 113 148 192 245 295 347
#     4   9  19  37  64  90 116 149 189 229 277 334
#     4   9  20  40  59  83 119 156 187 229 282 340
#     4  11  22  39  60  84 114 153 197 245 296 350
#     4  11  22  39  60  84 114 153 197 245 296 350
#
# _framework density 19.990286999999999
#
# number of rings (size 3 to 8) (size 9 to 14) (size 15 to 20)
#    0.000    1.667    0.000    9.000    0.000    3.333 
#    0.000    8.333    0.000    0.000    0.000    0.000 
#    0.000    0.000    0.000    0.000    0.000    0.000 
#
# Total GULP energy -297582.938161 kJ/mol
# GULP energy per Si atom -12399.289090 kJ/mol
# Density = 1.994479 g / cm^3
# Si number density = 19.990287 Si / 1000 Ang^3
#
#
#
# Elastic Constant Matrix: (Units=GPa)
#
#
# Indices 1 2 3 4 5 6 
#
# 1 133.2474 46.2435 66.8505 0.0000 0.0000 0.0000
# 2 46.2435 167.2995 59.2675 0.0000 0.0000 0.0000
# 3 66.8505 59.2675 153.7039 0.0000 0.0000 0.0000
# 4 0.0000 0.0000 0.0000 37.0101 0.0000 0.0000
# 5 0.0000 0.0000 0.0000 0.0000 24.1604 0.0000
# 6 0.0000 0.0000 0.0000 0.0000 0.0000 32.9693
#
#
#
# Elastic Compliance Matrix: (Units=1/GPa)
#
#
# Indices 1 2 3 4 5 6 
#
# 1 0.009874 -0.001399 -0.003755 0.000000 0.000000 0.000000
# 2 -0.001399 0.007121 -0.002137 0.000000 0.000000 0.000000
# 3 -0.003755 -0.002137 0.008963 0.000000 0.000000 0.000000
# 4 0.000000 0.000000 0.000000 0.027020 0.000000 0.000000
# 5 0.000000 0.000000 0.000000 0.000000 0.041390 0.000000
# 6 0.000000 0.000000 0.000000 0.000000 0.000000 0.030331
#
#
# Mechanical properties :
#
#
# Convention : Reuss Voigt Hill
#
# Bulk Modulus (GPa) = 87.90681 88.77488 88.34084
# Shear Modulus (GPa) = 34.94665 37.62058 36.28362
#
# Velocity S-wave (km/s) = 4.18566 4.34284 4.26498
# Velocity P-wave (km/s) = 8.21157 8.34580 8.27896
#
# Compressibility (1/GPa) = 0.01137568
#
# Stress axis : x y z
#
# Youngs Moduli (GPa) = 101.27223 140.42530 111.56437
#
# Poissons Ratio (x) = 0.19647 0.41895
# Poissons Ratio (y) = 0.14169 0.23846
# Poissons Ratio (z) = 0.38030 0.30015
#
# Static dielectric constant tensor:
#      x y z
#    x 3.384260 0.000000 0.000000 
#    y 0.000000 3.635660 0.000000 
#    z 0.000000 0.000000 3.946580 
# 
# 
# High freq. dielectric constant tensor:
#      x y z
#    x 1.778560 0.000000 0.000000 
#    y 0.000000 1.789980 0.000000 
#    z 0.000000 0.000000 1.786230 
# 
# From -- ./inp_files/36643.got.cif
#   From: 2010.03.12/outbox.cif.g09.slc.cpg/sg21_19_cif.got.tgz:36643.got - 2010.04.14 01:59:26.
