data_PCOD8160436
_publ_section_title
;
Structure prediction by ZEFSAII (Michael W. Deem and Ramdas Pophale) SiO2 
 PCOD8160436
Probable space group: C 2 2 21
;
_chemical_formula_sum "Si O2"
_cell_formula_units_Z 56
_cell_length_a 9.222436
_cell_length_b 20.195810
_cell_length_c 13.734587
_cell_angle_alpha 90.000000
_cell_angle_beta 90.000000
_cell_angle_gamma 90.000000
_cell_volume 2558.129530
_symmetry_space_group_name_H-M "C 2 2 21"
_symmetry_group_IT_number 20
_symmetry_cell_setting 'orthorhombic'
loop_
_space_group_symop_operation_xyz
x,y,z
-x,-y,1/2+z
x,-y,-z
-x,y,1/2-z
1/2+x,1/2+y,z
1/2-x,1/2-y,1/2+z
1/2+x,1/2-y,-z
1/2-x,1/2+y,1/2-z
loop_
_atom_site_type_symbol
_atom_site_label
_atom_site_fract_x
_atom_site_fract_y
_atom_site_fract_z
Si Si1 0.500000 0.474699 0.750000
Si Si2 0.362287 0.360881 0.872098
Si Si3 0.964351 0.668395 0.364630
Si Si4 0.833666 0.648366 0.654586
Si Si5 0.298466 0.585130 0.662314
Si Si6 0.953904 0.573666 0.982452
Si Si7 0.474747 0.684134 0.925716
Si Si8 0.000000 0.242769 0.250000
O O1 0.418281 0.430843 0.830903
O O2 0.381716 0.519292 0.695262
O O3 0.191710 0.363025 0.891778
O O4 0.373773 0.303053 0.792409
O O5 0.463822 0.341007 0.963342
O O6 0.000000 0.671420 0.250000
O O7 0.071655 0.616708 0.418731
O O8 0.978225 0.739544 0.416405
O O9 0.813513 0.609576 0.755658
O O10 0.680235 0.673887 0.620430
O O11 0.932619 0.712866 0.665484
O O12 0.912555 0.602325 0.578250
O O13 0.201464 0.570211 0.569042
O O14 0.411849 0.642092 0.636310
O O15 0.007426 0.500000 0.000000
#
# Coordination Sequence:
#
# PCOD8160436 Si02
#       8
#     4   8   8   8   8   8   8   4
#     4  11  28  48  74 106 153 208 258 308 377 454
#     4  11  27  45  74 108 151 195 246 316 372 453
#     4  12  28  49  77 109 153 195 253 317 383 457
#     4  12  23  47  74 106 143 194 243 305 373 443
#     4  12  26  48  76 105 150 203 253 307 368 461
#     4  12  30  45  74 109 148 199 249 311 374 457
#     4  12  26  45  76 111 143 192 250 312 378 440
#     4  11  22  44  72 104 143 188 242 302 373 436
#
# _framework density 21.890995
#
# number of rings (size 3 to 8) (size 9 to 14) (size 15 to 20)
#    0.000    0.286    4.286    3.429    8.000    1.143 
#    0.000    0.000    0.000    0.000    0.000    0.000 
#    0.000    0.000    0.000    0.000    0.000    0.000 
#
# Total GULP energy -347278.890555 kJ/mol
# GULP energy per Si atom -12402.817520 kJ/mol
# Density = 2.184117 g / cm^3
# Si number density = 21.890995 Si / 1000 Ang^3
#
#
#
# Elastic Constant Matrix: (Units=GPa)
#
#
# Indices 1 2 3 4 5 6 
#
# 1 56.0119 -0.7507 63.6920 0.0000 0.0000 0.0000
# 2 -0.7507 128.4529 93.8406 0.0000 0.0000 0.0000
# 3 63.6920 93.8406 96.3312 0.0000 0.0000 0.0000
# 4 0.0000 0.0000 0.0000 139.4084 0.0000 0.0000
# 5 0.0000 0.0000 0.0000 0.0000 30.1468 0.0000
# 6 0.0000 0.0000 0.0000 0.0000 0.0000 31.3884
#
#
#
# Elastic Compliance Matrix: (Units=1/GPa)
#
#
# Indices 1 2 3 4 5 6 
#
# 1 -0.010803 -0.018316 0.024985 0.000000 0.000000 0.000000
# 2 -0.018316 -0.004054 0.016060 0.000000 0.000000 0.000000
# 3 0.024985 0.016060 -0.021783 0.000000 0.000000 0.000000
# 4 0.000000 0.000000 0.000000 0.007173 0.000000 0.000000
# 5 0.000000 0.000000 0.000000 0.000000 0.033171 0.000000
# 6 0.000000 0.000000 0.000000 0.000000 0.000000 0.031859
#
#
# Mechanical properties :
#
#
# Convention : Reuss Voigt Hill
#
# Bulk Modulus (GPa) = 113.41704 66.03996 89.72850
# Shear Modulus (GPa) = -718.77826 48.45633 -335.16097
#
# Velocity S-wave (km/s) = -18.13993 4.70992 -12.38696
# Velocity P-wave (km/s) = 19.66775 7.73375 12.78690
#
# Compressibility (1/GPa) = 0.00881702
#
# Stress axis : x y z
#
# Youngs Moduli (GPa) = -92.56524 -246.64965 -45.90704
#
# Poissons Ratio (x) = -4.51762 1.14700
# Poissons Ratio (y) = -1.69542 0.73725
# Poissons Ratio (z) = 2.31276 3.96109
#
# Static dielectric constant tensor:
#      x y z
#    x 1.766490 0.000000 0.000000 
#    y 0.000000 4.689560 0.000000 
#    z 0.000000 0.000000 4.275570 
# 
# 
# High freq. dielectric constant tensor:
#      x y z
#    x 1.871110 0.000000 0.000000 
#    y 0.000000 1.870880 0.000000 
#    z 0.000000 0.000000 1.874630 
# 
# From -- ./inp_files/19236.got.cif
#   From: 2010.03.12/outbox.cif.g09.slc.cpg/sg20_10_cif.got.tgz:19236.got - 2010.04.14 01:38:04.
