data_PCOD8160761
_publ_section_title
;
Structure prediction by ZEFSAII (Michael W. Deem and Ramdas Pophale) SiO2 
 PCOD8160761
Probable space group: C 2 2 21
;
_chemical_formula_sum "Si O2"
_cell_formula_units_Z 40
_cell_length_a 9.163651
_cell_length_b 14.106740
_cell_length_c 14.461817
_cell_angle_alpha 90.000000
_cell_angle_beta 90.000000
_cell_angle_gamma 90.000000
_cell_volume 1869.468123
_symmetry_space_group_name_H-M "C 2 2 21"
_symmetry_group_IT_number 20
_symmetry_cell_setting 'orthorhombic'
loop_
_space_group_symop_operation_xyz
x,y,z
-x,-y,1/2+z
x,-y,-z
-x,y,1/2-z
1/2+x,1/2+y,z
1/2-x,1/2-y,1/2+z
1/2+x,1/2-y,-z
1/2-x,1/2+y,1/2-z
loop_
_atom_site_type_symbol
_atom_site_label
_atom_site_fract_x
_atom_site_fract_y
_atom_site_fract_z
Si Si1 0.772954 0.102494 0.167738
Si Si2 0.274776 0.899352 0.389457
Si Si3 0.564617 0.202598 0.033538
Si Si4 0.356319 0.777849 0.811513
Si Si5 0.001739 0.097009 0.474179
O O1 0.692187 0.181555 0.106082
O O2 0.751516 0.139730 0.272910
O O3 0.941750 0.098361 0.133390
O O4 0.695688 0.999452 0.160480
O O5 0.421192 0.867901 0.445514
O O6 0.232327 0.820727 0.313236
O O7 0.146171 0.909610 0.463039
O O8 0.407125 0.193145 0.084106
O O9 0.591711 0.310075 0.996880
O O10 0.500000 0.763429 0.750000
O O11 0.912662 0.000000 0.500000
#
# Coordination Sequence:
#
# PCOD8160761 Si02
#       5
#     8   8   8   8   8
#     4   9  17  32  50  72 103 135 170 213 256 294
#     4   9  17  32  52  72  99 134 168 205 254 305
#     4   9  16  30  53  73  96 133 171 201 248 306
#     4   9  18  33  52  74 101 133 167 209 254 296
#     4   8  15  29  50  71  96 135 174 208 249 297
#
# _framework density 21.396462
#
# number of rings (size 3 to 8) (size 9 to 14) (size 15 to 20)
#    0.000    3.200    0.000    1.800    0.000    0.000 
#    0.000   17.000    0.000   21.600    0.000    0.000 
#    0.000    0.000    0.000    0.000    0.000    0.000 
#
# Total GULP energy -247766.712028 kJ/mol
# GULP energy per Si atom -12388.335601 kJ/mol
# Density = 2.134776 g / cm^3
# Si number density = 21.396462 Si / 1000 Ang^3
#
#
#
# Elastic Constant Matrix: (Units=GPa)
#
#
# Indices 1 2 3 4 5 6 
#
# 1 27.7508 28.2934 15.5255 0.0000 0.0000 0.0000
# 2 28.2934 170.7364 48.1873 0.0000 0.0000 0.0000
# 3 15.5255 48.1873 59.9411 0.0000 0.0000 0.0000
# 4 0.0000 0.0000 0.0000 40.5012 0.0000 0.0000
# 5 0.0000 0.0000 0.0000 0.0000 9.4610 0.0000
# 6 0.0000 0.0000 0.0000 0.0000 0.0000 30.8105
#
#
#
# Elastic Compliance Matrix: (Units=1/GPa)
#
#
# Indices 1 2 3 4 5 6 
#
# 1 0.045797 -0.005486 -0.007452 0.000000 0.000000 0.000000
# 2 -0.005486 0.008233 -0.005198 0.000000 0.000000 0.000000
# 3 -0.007452 -0.005198 0.022792 0.000000 0.000000 0.000000
# 4 0.000000 0.000000 0.000000 0.024691 0.000000 0.000000
# 5 0.000000 0.000000 0.000000 0.000000 0.105697 0.000000
# 6 0.000000 0.000000 0.000000 0.000000 0.000000 0.032456
#
#
# Mechanical properties :
#
#
# Convention : Reuss Voigt Hill
#
# Bulk Modulus (GPa) = 24.66033 49.16008 36.91020
# Shear Modulus (GPa) = 17.27389 27.24934 22.26162
#
# Velocity S-wave (km/s) = 2.84443 3.57255 3.22908
# Velocity P-wave (km/s) = 4.72632 6.32796 5.58486
#
# Compressibility (1/GPa) = 0.04055096
#
# Stress axis : x y z
#
# Youngs Moduli (GPa) = 21.83535 121.46146 43.87582
#
# Poissons Ratio (x) = 0.66635 0.32695
# Poissons Ratio (y) = 0.11979 0.22805
# Poissons Ratio (z) = 0.16271 0.63132
#
# Static dielectric constant tensor:
#      x y z
#    x 3.449170 0.000000 0.000000 
#    y 0.000000 4.364930 0.000000 
#    z 0.000000 0.000000 4.135290 
# 
# 
# High freq. dielectric constant tensor:
#      x y z
#    x 1.786720 0.000000 0.000000 
#    y 0.000000 1.849010 0.000000 
#    z 0.000000 0.000000 1.828310 
# 
# From -- ./inp_files/18545.got.cif
#   From: 2010.03.12/outbox.cif.g09.slc.cpg/sg20_10_cif.got.tgz:18545.got - 2010.04.14 01:38:04.
