data_PCOD8160955
_publ_section_title
;
Structure prediction by ZEFSAII (Michael W. Deem and Ramdas Pophale) SiO2 
 PCOD8160955
Probable space group: C 2 2 2
;
_chemical_formula_sum "Si O2"
_cell_formula_units_Z 64
_cell_length_a 10.230306
_cell_length_b 25.171870
_cell_length_c 13.333095
_cell_angle_alpha 90.000000
_cell_angle_beta 90.000000
_cell_angle_gamma 90.000000
_cell_volume 3433.484395
_symmetry_space_group_name_H-M "C 2 2 2"
_symmetry_group_IT_number 21
_symmetry_cell_setting 'orthorhombic'
loop_
_space_group_symop_operation_xyz
x,y,z
-x,-y,z
x,-y,-z
-x,y,-z
1/2+x,1/2+y,z
1/2-x,1/2-y,z
1/2+x,1/2-y,-z
1/2-x,1/2+y,-z
loop_
_atom_site_type_symbol
_atom_site_label
_atom_site_fract_x
_atom_site_fract_y
_atom_site_fract_z
Si Si1 0.508431 0.808101 0.385240
Si Si2 0.248245 0.869411 0.382973
Si Si3 0.224234 0.940037 0.202507
Si Si4 0.221719 0.134724 0.389084
Si Si5 0.982335 0.196023 0.304141
Si Si6 0.495803 0.373406 0.114457
Si Si7 0.504619 0.937106 0.888860
Si Si8 0.735699 0.565343 0.205385
O O1 0.500000 0.787358 0.500000
O O2 0.398062 0.852394 0.366537
O O3 0.648683 0.832810 0.361884
O O4 0.488464 0.759569 0.308524
O O5 0.212249 0.921151 0.317570
O O6 0.223222 0.885849 0.497417
O O7 0.156102 0.820833 0.350725
O O8 0.112375 0.914680 0.134261
O O9 0.362465 0.918329 0.162941
O O10 0.210760 0.002963 0.196475
O O11 0.210222 0.082741 0.319624
O O12 0.098091 0.172374 0.371705
O O13 0.994318 0.177230 0.188498
O O14 0.360742 0.404419 0.130462
O O15 0.500000 0.352908 0.000000
O O16 0.381677 0.917190 0.824684
O O17 0.500000 0.000000 0.895700
O O18 0.500000 0.912207 0.000000
#
# Coordination Sequence:
#
# PCOD8160955 Si02
#       8
#     8   8   8   8   8   8   8   8
#     4  10  19  33  55  78 100 133 173 211 253 301
#     4  10  20  33  51  77 106 136 171 208 250 304
#     4  10  20  33  51  76 105 137 171 208 252 301
#     4  10  20  33  51  77 106 136 171 208 250 304
#     4  10  20  34  54  76 101 130 168 216 262 304
#     4  10  21  36  54  77 102 131 172 216 259 308
#     4   9  17  30  48  68  92 126 168 210 247 284
#     4  10  20  33  51  76 105 137 171 208 252 301
#
# _framework density 18.639956999999999
#
# number of rings (size 3 to 8) (size 9 to 14) (size 15 to 20)
#    0.000    2.125    0.000    3.750    0.000    4.500 
#    0.000    0.000    0.000   24.000    0.000    0.000 
#    0.000    0.000    0.000    0.000    0.000    0.000 
#
# Total GULP energy -396876.079483 kJ/mol
# GULP energy per Si atom -12402.377484 kJ/mol
# Density = 1.859753 g / cm^3
# Si number density = 18.639957 Si / 1000 Ang^3
#
#
#
# Elastic Constant Matrix: (Units=GPa)
#
#
# Indices 1 2 3 4 5 6 
#
# 1 88.6437 -3.1912 17.2367 0.0000 0.0000 0.0000
# 2 -3.1912 42.6907 26.8232 0.0000 0.0000 0.0000
# 3 17.2367 26.8232 117.7014 0.0000 0.0000 0.0000
# 4 0.0000 0.0000 0.0000 16.9250 0.0000 0.0000
# 5 0.0000 0.0000 0.0000 0.0000 25.9065 0.0000
# 6 0.0000 0.0000 0.0000 0.0000 0.0000 21.4236
#
#
#
# Elastic Compliance Matrix: (Units=1/GPa)
#
#
# Indices 1 2 3 4 5 6 
#
# 1 0.011802 0.002297 -0.002252 0.000000 0.000000 0.000000
# 2 0.002297 0.027786 -0.006669 0.000000 0.000000 0.000000
# 3 -0.002252 -0.006669 0.010346 0.000000 0.000000 0.000000
# 4 0.000000 0.000000 0.000000 0.059084 0.000000 0.000000
# 5 0.000000 0.000000 0.000000 0.000000 0.038600 0.000000
# 6 0.000000 0.000000 0.000000 0.000000 0.000000 0.046677
#
#
# Mechanical properties :
#
#
# Convention : Reuss Voigt Hill
#
# Bulk Modulus (GPa) = 27.25798 36.75259 32.00528
# Shear Modulus (GPa) = 22.75100 26.72884 24.73992
#
# Velocity S-wave (km/s) = 3.49743 3.79087 3.64710
# Velocity P-wave (km/s) = 5.56457 6.23865 5.91123
#
# Compressibility (1/GPa) = 0.03668651
#
# Stress axis : x y z
#
# Youngs Moduli (GPa) = 84.73381 35.98939 96.65995
#
# Poissons Ratio (x) = -0.08267 0.21765
# Poissons Ratio (y) = -0.19463 0.64458
# Poissons Ratio (z) = 0.19080 0.24000
#
# Static dielectric constant tensor:
#      x y z
#    x 3.727040 0.000000 0.000000 
#    y 0.000000 3.043760 0.000000 
#    z 0.000000 0.000000 3.497860 
# 
# 
# High freq. dielectric constant tensor:
#      x y z
#    x 1.747850 0.000000 0.000000 
#    y 0.000000 1.694070 0.000000 
#    z 0.000000 0.000000 1.723520 
# 
# From -- ./inp_files/24391.got.cif
#   From: 2010.03.12/outbox.cif.g09.slc.cpg/sg21_13_cif.got.tgz:24391.got - 2010.04.14 01:59:26.
