data_PCOD8160012
_publ_section_title
;
Structure prediction by ZEFSAII (Michael W. Deem and Ramdas Pophale) SiO2 
 PCOD8160012
Probable space group: C 2 2 21
;
_chemical_formula_sum "Si O2"
_cell_formula_units_Z 56
_cell_length_a 10.792241
_cell_length_b 16.605869
_cell_length_c 13.517710
_cell_angle_alpha 90.000000
_cell_angle_beta 90.000000
_cell_angle_gamma 90.000000
_cell_volume 2422.570183
_symmetry_space_group_name_H-M "C 2 2 21"
_symmetry_group_IT_number 20
_symmetry_cell_setting 'orthorhombic'
loop_
_space_group_symop_operation_xyz
x,y,z
-x,-y,1/2+z
x,-y,-z
-x,y,1/2-z
1/2+x,1/2+y,z
1/2-x,1/2-y,1/2+z
1/2+x,1/2-y,-z
1/2-x,1/2+y,1/2-z
loop_
_atom_site_type_symbol
_atom_site_label
_atom_site_fract_x
_atom_site_fract_y
_atom_site_fract_z
Si Si1 0.056839 0.084893 0.963500
Si Si2 0.242755 0.937825 0.207517
Si Si3 0.836111 0.810834 0.972914
Si Si4 0.133630 0.726772 0.722584
Si Si5 0.556152 0.055414 0.355870
Si Si6 0.786528 0.462128 0.597767
Si Si7 0.761468 0.821776 0.603668
O O1 0.115881 0.070213 0.854868
O O2 0.156482 0.115632 0.042714
O O3 0.944418 0.148393 0.961800
O O4 0.003655 0.000000 0.000000
O O5 0.273638 0.847196 0.238338
O O6 0.350387 0.978952 0.140844
O O7 0.229988 0.992859 0.305942
O O8 0.885841 0.748243 0.892337
O O9 0.755980 0.870047 0.903806
O O10 0.748134 0.763585 0.048471
O O11 0.177610 0.802926 0.789424
O O12 0.000000 0.693763 0.750000
O O13 0.500000 0.074239 0.250000
O O14 0.435025 0.033738 0.418812
O O15 0.626775 0.136783 0.387615
O O16 0.725773 0.500000 0.500000
#
# Coordination Sequence:
#
# PCOD8160012 Si02
#       7
#     8   8   8   8   8   8   8
#     4  12  26  48  75 104 147 201 254 303 388 464
#     4  11  24  46  74 108 142 199 257 307 376 466
#     4  12  28  45  71 110 151 193 248 320 389 461
#     4  12  24  43  71 104 147 189 243 314 391 452
#     4  10  23  43  73 105 140 191 253 315 370 451
#     4  11  25  45  71 105 146 189 248 313 378 446
#     4  12  26  45  73 107 145 199 249 314 388 460
#
# _framework density 23.115943999999999
#
# number of rings (size 3 to 8) (size 9 to 14) (size 15 to 20)
#    0.000    0.571    4.286    4.286    4.000    2.286 
#    0.000    5.000    0.000    0.000    0.000    0.000 
#    0.000    0.000    0.000    0.000    0.000    0.000 
#
# Total GULP energy -347130.566853 kJ/mol
# GULP energy per Si atom -12397.520245 kJ/mol
# Density = 2.306333 g / cm^3
# Si number density = 23.115944 Si / 1000 Ang^3
#
#
#
# Elastic Constant Matrix: (Units=GPa)
#
#
# Indices 1 2 3 4 5 6 
#
# 1 66.6226 19.0877 40.3565 0.0000 0.0000 0.0000
# 2 19.0877 110.4846 37.6655 0.0000 0.0000 0.0000
# 3 40.3565 37.6655 93.6448 0.0000 0.0000 0.0000
# 4 0.0000 0.0000 0.0000 43.4937 0.0000 0.0000
# 5 0.0000 0.0000 0.0000 0.0000 30.6961 0.0000
# 6 0.0000 0.0000 0.0000 0.0000 0.0000 40.0129
#
#
#
# Elastic Compliance Matrix: (Units=1/GPa)
#
#
# Indices 1 2 3 4 5 6 
#
# 1 0.020348 -0.000609 -0.008524 0.000000 0.000000 0.000000
# 2 -0.000609 0.010508 -0.003964 0.000000 0.000000 0.000000
# 3 -0.008524 -0.003964 0.015946 0.000000 0.000000 0.000000
# 4 0.000000 0.000000 0.000000 0.022992 0.000000 0.000000
# 5 0.000000 0.000000 0.000000 0.000000 0.032577 0.000000
# 6 0.000000 0.000000 0.000000 0.000000 0.000000 0.024992
#
#
# Mechanical properties :
#
#
# Convention : Reuss Voigt Hill
#
# Bulk Modulus (GPa) = 48.52541 51.66347 50.09444
# Shear Modulus (GPa) = 31.16701 34.41670 32.79185
#
# Velocity S-wave (km/s) = 3.67589 3.86278 3.77049
# Velocity P-wave (km/s) = 6.24932 6.50330 6.37758
#
# Compressibility (1/GPa) = 0.02060776
#
# Stress axis : x y z
#
# Youngs Moduli (GPa) = 49.14529 95.16927 62.71064
#
# Poissons Ratio (x) = 0.05800 0.53453
# Poissons Ratio (y) = 0.02995 0.24856
# Poissons Ratio (z) = 0.41890 0.37722
#
# Static dielectric constant tensor:
#      x y z
#    x 4.516660 0.000000 0.000000 
#    y 0.000000 4.133660 0.000000 
#    z 0.000000 0.000000 4.502860 
# 
# 
# High freq. dielectric constant tensor:
#      x y z
#    x 1.911560 0.000000 0.000000 
#    y 0.000000 1.920640 0.000000 
#    z 0.000000 0.000000 1.920530 
# 
# From -- ./inp_files/20048.got.cif
#   From: 2010.03.12/outbox.cif.g09.slc.cpg/sg20_11_cif.got.tgz:20048.got - 2010.04.14 01:38:04.
