data_PCOD8160130
_publ_section_title
;
Structure prediction by ZEFSAII (Michael W. Deem and Ramdas Pophale) SiO2 
 PCOD8160130
Probable space group: C 2 2 21
;
_chemical_formula_sum "Si O2"
_cell_formula_units_Z 40
_cell_length_a 22.455288
_cell_length_b 8.653525
_cell_length_c 10.047894
_cell_angle_alpha 90.000000
_cell_angle_beta 90.000000
_cell_angle_gamma 90.000000
_cell_volume 1952.480598
_symmetry_space_group_name_H-M "C 2 2 21"
_symmetry_group_IT_number 20
_symmetry_cell_setting 'orthorhombic'
loop_
_space_group_symop_operation_xyz
x,y,z
-x,-y,1/2+z
x,-y,-z
-x,y,1/2-z
1/2+x,1/2+y,z
1/2-x,1/2-y,1/2+z
1/2+x,1/2-y,-z
1/2-x,1/2+y,1/2-z
loop_
_atom_site_type_symbol
_atom_site_label
_atom_site_fract_x
_atom_site_fract_y
_atom_site_fract_z
Si Si1 0.825943 0.297551 0.249428
Si Si2 0.615080 0.819210 0.980080
Si Si3 0.000657 0.857786 0.402827
Si Si4 0.301154 0.840781 0.755945
Si Si5 0.370661 0.681697 0.984999
O O1 0.861106 0.246498 0.382462
O O2 0.767892 0.192347 0.233662
O O3 0.808862 0.476161 0.243040
O O4 0.869797 0.260052 0.128858
O O5 0.550080 0.764694 0.936512
O O6 0.661389 0.769697 0.865793
O O7 0.610895 0.000000 0.000000
O O8 0.000000 0.913644 0.250000
O O9 0.064589 0.779879 0.426443
O O10 0.990650 0.000000 0.500000
O O11 0.320940 0.760094 0.892642
O O12 0.358015 0.500000 0.000000
#
# Coordination Sequence:
#
# PCOD8160130 Si02
#       5
#     8   8   8   8   8
#     4  11  24  39  67  96 128 171 212 266 321 388
#     4  10  24  43  64  93 129 167 211 263 322 385
#     4  11  25  44  68  95 128 166 215 267 321 382
#     4  11  22  43  64  96 132 167 216 263 325 381
#     4  11  24  41  63  94 129 169 215 265 315 382
#
# _framework density 20.48676
#
# number of rings (size 3 to 8) (size 9 to 14) (size 15 to 20)
#    0.000    1.200    2.000    3.000    5.600    4.800 
#    0.000    0.000    0.000    0.000    0.000    0.000 
#    0.000    0.000    0.000    0.000    0.000    0.000 
#
# Total GULP energy -248096.882032 kJ/mol
# GULP energy per Si atom -12404.844102 kJ/mol
# Density = 2.044013 g / cm^3
# Si number density = 20.486760 Si / 1000 Ang^3
#
#
#
# Elastic Constant Matrix: (Units=GPa)
#
#
# Indices 1 2 3 4 5 6 
#
# 1 99.9657 18.3859 43.6270 0.0000 0.0000 0.0000
# 2 18.3859 54.6436 32.0058 0.0000 0.0000 0.0000
# 3 43.6270 32.0058 167.2814 0.0000 0.0000 0.0000
# 4 0.0000 0.0000 0.0000 34.5091 0.0000 0.0000
# 5 0.0000 0.0000 0.0000 0.0000 38.6175 0.0000
# 6 0.0000 0.0000 0.0000 0.0000 0.0000 21.1185
#
#
#
# Elastic Compliance Matrix: (Units=1/GPa)
#
#
# Indices 1 2 3 4 5 6 
#
# 1 0.011559 -0.002392 -0.002557 0.000000 0.000000 0.000000
# 2 -0.002392 0.021105 -0.003414 0.000000 0.000000 0.000000
# 3 -0.002557 -0.003414 0.007298 0.000000 0.000000 0.000000
# 4 0.000000 0.000000 0.000000 0.028978 0.000000 0.000000
# 5 0.000000 0.000000 0.000000 0.000000 0.025895 0.000000
# 6 0.000000 0.000000 0.000000 0.000000 0.000000 0.047352
#
#
# Mechanical properties :
#
#
# Convention : Reuss Voigt Hill
#
# Bulk Modulus (GPa) = 43.03595 56.65868 49.84731
# Shear Modulus (GPa) = 30.00152 34.04049 32.02101
#
# Velocity S-wave (km/s) = 3.83094 4.08068 3.95778
# Velocity P-wave (km/s) = 6.37342 7.06533 6.72827
#
# Compressibility (1/GPa) = 0.02323639
#
# Stress axis : x y z
#
# Youngs Moduli (GPa) = 86.51070 47.38232 137.02228
#
# Poissons Ratio (x) = 0.11332 0.35038
# Poissons Ratio (y) = 0.20690 0.46783
# Poissons Ratio (z) = 0.22121 0.16178
#
# Static dielectric constant tensor:
#      x y z
#    x 3.844610 0.000000 0.000000 
#    y 0.000000 3.541010 0.000000 
#    z 0.000000 0.000000 4.095900 
# 
# 
# High freq. dielectric constant tensor:
#      x y z
#    x 1.811270 0.000000 0.000000 
#    y 0.000000 1.794730 0.000000 
#    z 0.000000 0.000000 1.824670 
# 
# From -- ./inp_files/6086.got.cif
#   From: 2010.03.12/outbox.cif.g09.slc.cpg/sg20_4_cif.got.tgz:6086.got - 2010.04.14 01:38:04.
