data_PCOD8160656
_publ_section_title
;
Structure prediction by ZEFSAII (Michael W. Deem and Ramdas Pophale) SiO2 
 PCOD8160656
Probable space group: C 2 2 21
;
_chemical_formula_sum "Si O2"
_cell_formula_units_Z 40
_cell_length_a 6.783699
_cell_length_b 13.147793
_cell_length_c 18.907763
_cell_angle_alpha 90.000000
_cell_angle_beta 90.000000
_cell_angle_gamma 90.000000
_cell_volume 1686.396054
_symmetry_space_group_name_H-M "C 2 2 21"
_symmetry_group_IT_number 20
_symmetry_cell_setting 'orthorhombic'
loop_
_space_group_symop_operation_xyz
x,y,z
-x,-y,1/2+z
x,-y,-z
-x,y,1/2-z
1/2+x,1/2+y,z
1/2-x,1/2-y,1/2+z
1/2+x,1/2-y,-z
1/2-x,1/2+y,1/2-z
loop_
_atom_site_type_symbol
_atom_site_label
_atom_site_fract_x
_atom_site_fract_y
_atom_site_fract_z
Si Si1 0.591130 0.700130 0.093951
Si Si2 0.138512 0.500000 0.000000
Si Si3 0.619038 0.053232 0.366784
Si Si4 0.276795 0.835766 0.164416
Si Si5 0.069965 0.834475 0.443333
Si Si6 0.500000 0.789265 0.750000
O O1 0.650724 0.584648 0.116480
O O2 0.435589 0.750105 0.145801
O O3 0.805511 0.752237 0.099666
O O4 0.506063 0.711786 0.016159
O O5 0.281124 0.425987 0.042521
O O6 0.001346 0.552513 0.059156
O O7 0.522001 0.138191 0.317222
O O8 0.616427 0.944873 0.325663
O O9 0.119183 0.861127 0.103244
O O10 0.180734 0.789223 0.235360
#
# Coordination Sequence:
#
# PCOD8160656 Si02
#       6
#     8   4   8   8   8   4
#     4  12  23  45  76 111 154 190 247 319 386 464
#     4  12  24  46  80 118 158 200 260 332 396 458
#     4  12  27  49  77 113 152 206 264 322 398 467
#     4  12  27  48  73 106 150 204 254 312 390 465
#     4  12  22  43  75 113 154 189 246 317 387 466
#     4  12  30  50  72 108 152 208 270 314 390 480
#
# _framework density 23.719221000000001
#
# number of rings (size 3 to 8) (size 9 to 14) (size 15 to 20)
#    0.000    0.000    6.000    4.800    0.000    5.600 
#    0.000    0.000    0.000    0.000    0.000    0.000 
#    0.000    0.000    0.000    0.000    0.000    0.000 
#
# Total GULP energy -247912.617780 kJ/mol
# GULP energy per Si atom -12395.630889 kJ/mol
# Density = 2.366524 g / cm^3
# Si number density = 23.719221 Si / 1000 Ang^3
#
#
#
# Elastic Constant Matrix: (Units=GPa)
#
#
# Indices 1 2 3 4 5 6 
#
# 1 107.9397 38.4526 21.1264 0.0000 0.0000 0.0000
# 2 38.4526 99.1910 32.1998 0.0000 0.0000 0.0000
# 3 21.1264 32.1998 77.2277 0.0000 0.0000 0.0000
# 4 0.0000 0.0000 0.0000 43.4196 0.0000 0.0000
# 5 0.0000 0.0000 0.0000 0.0000 44.1587 0.0000
# 6 0.0000 0.0000 0.0000 0.0000 0.0000 52.1567
#
#
#
# Elastic Compliance Matrix: (Units=1/GPa)
#
#
# Indices 1 2 3 4 5 6 
#
# 1 0.010880 -0.003760 -0.001408 0.000000 0.000000 0.000000
# 2 -0.003760 0.012959 -0.004375 0.000000 0.000000 0.000000
# 3 -0.001408 -0.004375 0.015158 0.000000 0.000000 0.000000
# 4 0.000000 0.000000 0.000000 0.023031 0.000000 0.000000
# 5 0.000000 0.000000 0.000000 0.000000 0.022646 0.000000
# 6 0.000000 0.000000 0.000000 0.000000 0.000000 0.019173
#
#
# Mechanical properties :
#
#
# Convention : Reuss Voigt Hill
#
# Bulk Modulus (GPa) = 50.22555 51.99067 51.10811
# Shear Modulus (GPa) = 38.58901 40.78564 39.68733
#
# Velocity S-wave (km/s) = 4.03787 4.15121 4.09493
# Velocity P-wave (km/s) = 6.55440 6.70399 6.62962
#
# Compressibility (1/GPa) = 0.01991019
#
# Stress axis : x y z
#
# Youngs Moduli (GPa) = 91.91421 77.16363 65.97176
#
# Poissons Ratio (x) = 0.29017 0.09291
# Poissons Ratio (y) = 0.34564 0.28861
# Poissons Ratio (z) = 0.12945 0.33757
#
# Static dielectric constant tensor:
#      x y z
#    x 4.523220 0.000000 0.000000 
#    y 0.000000 4.997070 0.000000 
#    z 0.000000 0.000000 4.233150 
# 
# 
# High freq. dielectric constant tensor:
#      x y z
#    x 1.951990 0.000000 0.000000 
#    y 0.000000 1.954770 0.000000 
#    z 0.000000 0.000000 1.933580 
# 
# From -- ./inp_files/28298.got.cif
#   From: 2010.03.12/outbox.cif.g09.slc.cpg/sg20_15_cif.got.tgz:28298.got - 2010.04.14 01:38:04.
