data_PCOD8160795
_publ_section_title
;
Structure prediction by ZEFSAII (Michael W. Deem and Ramdas Pophale) SiO2 
 PCOD8160795
Probable space group: C 2 2 2
;
_chemical_formula_sum "Si O2"
_cell_formula_units_Z 44
_cell_length_a 27.382607
_cell_length_b 9.453523
_cell_length_c 8.739703
_cell_angle_alpha 90.000000
_cell_angle_beta 90.000000
_cell_angle_gamma 90.000000
_cell_volume 2262.377916
_symmetry_space_group_name_H-M "C 2 2 2"
_symmetry_group_IT_number 21
_symmetry_cell_setting 'orthorhombic'
loop_
_space_group_symop_operation_xyz
x,y,z
-x,-y,z
x,-y,-z
-x,y,-z
1/2+x,1/2+y,z
1/2-x,1/2-y,z
1/2+x,1/2-y,-z
1/2-x,1/2+y,-z
loop_
_atom_site_type_symbol
_atom_site_label
_atom_site_fract_x
_atom_site_fract_y
_atom_site_fract_z
Si Si1 0.000000 0.000000 0.000000
Si Si2 0.159643 0.227138 0.323195
Si Si3 0.929948 0.058542 0.746931
Si Si4 0.000000 0.000000 0.500000
Si Si5 0.830937 0.475753 0.175579
Si Si6 0.281902 0.505903 0.175736
Si Si7 0.861122 0.804418 0.680692
O O1 0.963487 0.911373 0.106135
O O2 0.114668 0.162905 0.229111
O O3 0.161322 0.390305 0.283826
O O4 0.147700 0.202608 0.499834
O O5 0.208174 0.144063 0.263438
O O6 0.909131 0.897139 0.723906
O O7 0.964787 0.097679 0.603879
O O8 0.773653 0.442642 0.185704
O O9 0.864462 0.351053 0.244699
O O10 0.846832 0.500000 0.000000
O O11 0.312405 0.626920 0.255374
O O12 0.298691 0.500000 0.000000
#
# Coordination Sequence:
#
# PCOD8160795 Si02
#       7
#     2   8   8   2   8   8   8
#     4  10  24  34  68  92 108 138 188 236 288 346
#     4  11  22  37  59  86 119 152 193 237 283 334
#     4  10  21  38  63  93 108 142 185 237 287 342
#     4  10  16  42  64  84 116 130 184 240 288 354
#     4  11  24  37  55  82 122 163 191 233 283 334
#     4  10  21  37  57  83 116 159 202 236 272 325
#     4  11  22  37  59  86 119 152 193 237 283 334
#
# _framework density 19.448563
#
# number of rings (size 3 to 8) (size 9 to 14) (size 15 to 20)
#    0.000    1.455    1.818    4.364    7.636    7.273 
#    0.000    0.000    0.000    6.545    0.000    0.000 
#    0.000    0.000    0.000    0.000    0.000    0.000 
#
# Total GULP energy -272661.922039 kJ/mol
# GULP energy per Si atom -12393.723729 kJ/mol
# Density = 1.940430 g / cm^3
# Si number density = 19.448563 Si / 1000 Ang^3
#
#
#
# Elastic Constant Matrix: (Units=GPa)
#
#
# Indices 1 2 3 4 5 6 
#
# 1 65.2627 11.2385 32.2371 0.0000 0.0000 0.0000
# 2 11.2385 100.4664 23.5845 0.0000 0.0000 0.0000
# 3 32.2371 23.5845 123.7438 0.0000 0.0000 0.0000
# 4 0.0000 0.0000 0.0000 29.3220 0.0000 0.0000
# 5 0.0000 0.0000 0.0000 0.0000 -12.8617 0.0000
# 6 0.0000 0.0000 0.0000 0.0000 0.0000 5.1383
#
#
#
# Elastic Compliance Matrix: (Units=1/GPa)
#
#
# Indices 1 2 3 4 5 6 
#
# 1 0.017670 -0.000938 -0.004424 0.000000 0.000000 0.000000
# 2 -0.000938 0.010470 -0.001751 0.000000 0.000000 0.000000
# 3 -0.004424 -0.001751 0.009568 0.000000 0.000000 0.000000
# 4 0.000000 0.000000 0.000000 0.034104 0.000000 0.000000
# 5 0.000000 0.000000 0.000000 0.000000 -0.077750 0.000000
# 6 0.000000 0.000000 0.000000 0.000000 0.000000 0.194618
#
#
# Mechanical properties :
#
#
# Convention : Reuss Voigt Hill
#
# Bulk Modulus (GPa) = 42.58956 47.06589 44.82773
# Shear Modulus (GPa) = 23.72675 19.14724 21.43699
#
# Velocity S-wave (km/s) = 3.49660 3.14109 3.32360
# Velocity P-wave (km/s) = 6.18448 6.11621 6.15044
#
# Compressibility (1/GPa) = 0.02347993
#
# Stress axis : x y z
#
# Youngs Moduli (GPa) = 56.59406 95.51505 104.51964
#
# Poissons Ratio (x) = 0.08959 0.46244
# Poissons Ratio (y) = 0.05308 0.18302
# Poissons Ratio (z) = 0.25040 0.16725
#
# Static dielectric constant tensor:
#      x y z
#    x 3.671240 0.000000 0.000000 
#    y 0.000000 3.815620 0.000000 
#    z 0.000000 0.000000 3.986710 
# 
# 
# High freq. dielectric constant tensor:
#      x y z
#    x 1.753050 0.000000 0.000000 
#    y 0.000000 1.732490 0.000000 
#    z 0.000000 0.000000 1.780470 
# 
# From -- ./inp_files/11447.got.cif
#   From: 2010.03.12/outbox.cif.g09.slc.cpg/sg21_6_cif.got.tgz:11447.got - 2010.04.14 01:59:26.
