data_PCOD8160449
_publ_section_title
;
Structure prediction by ZEFSAII (Michael W. Deem and Ramdas Pophale) SiO2 
 PCOD8160449
Probable space group: C 2 2 21
;
_chemical_formula_sum "Si O2"
_cell_formula_units_Z 36
_cell_length_a 8.749026
_cell_length_b 19.861876
_cell_length_c 8.277083
_cell_angle_alpha 90.000000
_cell_angle_beta 90.000000
_cell_angle_gamma 90.000000
_cell_volume 1438.325843
_symmetry_space_group_name_H-M "C 2 2 21"
_symmetry_group_IT_number 20
_symmetry_cell_setting 'orthorhombic'
loop_
_space_group_symop_operation_xyz
x,y,z
-x,-y,1/2+z
x,-y,-z
-x,y,1/2-z
1/2+x,1/2+y,z
1/2-x,1/2-y,1/2+z
1/2+x,1/2-y,-z
1/2-x,1/2+y,1/2-z
loop_
_atom_site_type_symbol
_atom_site_label
_atom_site_fract_x
_atom_site_fract_y
_atom_site_fract_z
Si Si1 0.777048 0.501644 0.329126
Si Si2 0.645404 0.197641 0.484718
Si Si3 0.500000 0.893672 0.750000
Si Si4 0.500000 0.113618 0.750000
Si Si5 0.983586 0.834060 0.431888
Si Si6 0.000000 0.923055 0.750000
O O1 0.689895 0.500000 0.500000
O O2 0.648351 0.530572 0.208715
O O3 0.913845 0.554851 0.370167
O O4 0.845854 0.431499 0.263614
O O5 0.634208 0.151932 0.324667
O O6 0.519487 0.164084 0.601069
O O7 0.814322 0.196142 0.555376
O O8 0.604477 0.273630 0.441580
O O9 0.000000 0.867603 0.250000
O O10 0.024076 0.880955 0.584511
#
# Coordination Sequence:
#
# PCOD8160449 Si02
#       6
#     8   8   4   4   8   4
#     4  11  25  46  74 106 150 204 255 319 389 461
#     4  12  27  49  78 113 157 200 264 325 400 472
#     4  11  22  48  71 107 148 196 255 322 388 473
#     4  11  27  46  80 108 149 208 259 318 398 467
#     4  12  31  49  81 117 161 206 261 329 404 475
#     4  12  29  52  75 113 161 200 264 328 392 470
#
# _framework density 25.029098999999999
#
# number of rings (size 3 to 8) (size 9 to 14) (size 15 to 20)
#    0.000    0.444    5.556    0.667   12.444    1.778 
#    0.000    0.000    0.000    0.000    0.000    0.000 
#    0.000    0.000    0.000    0.000    0.000    0.000 
#
# Total GULP energy -223078.349700 kJ/mol
# GULP energy per Si atom -12393.241650 kJ/mol
# Density = 2.497213 g / cm^3
# Si number density = 25.029099 Si / 1000 Ang^3
#
#
#
# Elastic Constant Matrix: (Units=GPa)
#
#
# Indices 1 2 3 4 5 6 
#
# 1 96.1141 5.0512 3.8070 0.0000 0.0000 0.0000
# 2 5.0512 60.5433 25.9977 0.0000 0.0000 0.0000
# 3 3.8070 25.9977 133.8964 0.0000 0.0000 0.0000
# 4 0.0000 0.0000 0.0000 26.2308 0.0000 0.0000
# 5 0.0000 0.0000 0.0000 0.0000 33.1762 0.0000
# 6 0.0000 0.0000 0.0000 0.0000 0.0000 31.8020
#
#
#
# Elastic Compliance Matrix: (Units=1/GPa)
#
#
# Indices 1 2 3 4 5 6 
#
# 1 0.010453 -0.000812 -0.000139 0.000000 0.000000 0.000000
# 2 -0.000812 0.018083 -0.003488 0.000000 0.000000 0.000000
# 3 -0.000139 -0.003488 0.008150 0.000000 0.000000 0.000000
# 4 0.000000 0.000000 0.000000 0.038123 0.000000 0.000000
# 5 0.000000 0.000000 0.000000 0.000000 0.030142 0.000000
# 6 0.000000 0.000000 0.000000 0.000000 0.000000 0.031445
#
#
# Mechanical properties :
#
#
# Convention : Reuss Voigt Hill
#
# Bulk Modulus (GPa) = 35.96390 40.02950 37.99670
# Shear Modulus (GPa) = 32.35365 35.28833 33.82099
#
# Velocity S-wave (km/s) = 3.59923 3.75893 3.67995
# Velocity P-wave (km/s) = 5.62785 5.90485 5.76801
#
# Compressibility (1/GPa) = 0.02780566
#
# Stress axis : x y z
#
# Youngs Moduli (GPa) = 95.67078 55.30186 122.70472
#
# Poissons Ratio (x) = 0.04491 0.01712
# Poissons Ratio (y) = 0.07770 0.42798
# Poissons Ratio (z) = 0.01335 0.19289
#
# Static dielectric constant tensor:
#      x y z
#    x 4.319790 0.000000 0.000000 
#    y 0.000000 4.452940 0.000000 
#    z 0.000000 0.000000 4.557570 
# 
# 
# High freq. dielectric constant tensor:
#      x y z
#    x 2.002790 0.000000 0.000000 
#    y 0.000000 2.002470 0.000000 
#    z 0.000000 0.000000 1.995960 
# 
# From -- ./inp_files/5963.got.cif
#   From: 2010.03.12/outbox.cif.g09.slc.cpg/sg20_3_cif.got.tgz:5963.got - 2010.04.14 01:38:04.
