data_PCOD8160592
_publ_section_title
;
Structure prediction by ZEFSAII (Michael W. Deem and Ramdas Pophale) SiO2 
 PCOD8160592
Probable space group: C 2 2 21
;
_chemical_formula_sum "Si O2"
_cell_formula_units_Z 40
_cell_length_a 20.038491
_cell_length_b 11.355802
_cell_length_c 9.076888
_cell_angle_alpha 90.000000
_cell_angle_beta 90.000000
_cell_angle_gamma 90.000000
_cell_volume 2065.474331
_symmetry_space_group_name_H-M "C 2 2 21"
_symmetry_group_IT_number 20
_symmetry_cell_setting 'orthorhombic'
loop_
_space_group_symop_operation_xyz
x,y,z
-x,-y,1/2+z
x,-y,-z
-x,y,1/2-z
1/2+x,1/2+y,z
1/2-x,1/2-y,1/2+z
1/2+x,1/2-y,-z
1/2-x,1/2+y,1/2-z
loop_
_atom_site_type_symbol
_atom_site_label
_atom_site_fract_x
_atom_site_fract_y
_atom_site_fract_z
Si Si1 0.075121 0.711191 0.773152
Si Si2 0.341516 0.820774 0.541324
Si Si3 0.817880 0.069051 0.641117
Si Si4 0.318203 0.037338 0.721096
Si Si5 0.068684 0.026660 0.329518
O O1 0.124732 0.615494 0.696361
O O2 0.087343 0.837423 0.698762
O O3 0.000000 0.668199 0.750000
O O4 0.090650 0.714432 0.950920
O O5 0.306643 0.706271 0.607867
O O6 0.293554 0.885975 0.421734
O O7 0.353127 0.914153 0.673271
O O8 0.746222 0.012642 0.679990
O O9 0.846058 0.000000 0.500000
O O10 0.871516 0.054720 0.770558
O O11 0.000000 0.992299 0.250000
O O12 0.059391 0.000000 0.500000
#
# Coordination Sequence:
#
# PCOD8160592 Si02
#       5
#     8   8   8   8   8
#     4   9  19  41  67  85 129 169 212 266 322 377
#     4   9  21  41  63  90 127 169 218 262 324 378
#     4  12  23  39  65  93 134 164 214 274 325 387
#     4   9  22  39  63  91 128 168 219 257 330 386
#     4  11  25  40  65  93 127 167 215 266 332 390
#
# _framework density 19.366011
#
# number of rings (size 3 to 8) (size 9 to 14) (size 15 to 20)
#    1.200    0.800    2.000    0.600   11.200    0.000 
#    0.000    3.000    4.400    0.000    0.000    0.000 
#    0.000    0.000    0.000    0.000    0.000    0.000 
#
# Total GULP energy -247820.375342 kJ/mol
# GULP energy per Si atom -12391.018767 kJ/mol
# Density = 1.932193 g / cm^3
# Si number density = 19.366011 Si / 1000 Ang^3
#
#
#
# Elastic Constant Matrix: (Units=GPa)
#
#
# Indices 1 2 3 4 5 6 
#
# 1 109.2676 34.6617 45.0867 0.0000 0.0000 0.0000
# 2 34.6617 127.9276 44.9908 0.0000 0.0000 0.0000
# 3 45.0867 44.9908 99.2206 0.0000 0.0000 0.0000
# 4 0.0000 0.0000 0.0000 37.3993 0.0000 0.0000
# 5 0.0000 0.0000 0.0000 0.0000 34.3956 0.0000
# 6 0.0000 0.0000 0.0000 0.0000 0.0000 27.3876
#
#
#
# Elastic Compliance Matrix: (Units=1/GPa)
#
#
# Indices 1 2 3 4 5 6 
#
# 1 0.011507 -0.001522 -0.004539 0.000000 0.000000 0.000000
# 2 -0.001522 0.009501 -0.003617 0.000000 0.000000 0.000000
# 3 -0.004539 -0.003617 0.013781 0.000000 0.000000 0.000000
# 4 0.000000 0.000000 0.000000 0.026738 0.000000 0.000000
# 5 0.000000 0.000000 0.000000 0.000000 0.029074 0.000000
# 6 0.000000 0.000000 0.000000 0.000000 0.000000 0.036513
#
#
# Mechanical properties :
#
#
# Convention : Reuss Voigt Hill
#
# Bulk Modulus (GPa) = 64.78870 65.09934 64.94402
# Shear Modulus (GPa) = 32.97831 33.94826 33.46328
#
# Velocity S-wave (km/s) = 4.13109 4.19140 4.16136
# Velocity P-wave (km/s) = 7.50214 7.55725 7.52974
#
# Compressibility (1/GPa) = 0.01543479
#
# Stress axis : x y z
#
# Youngs Moduli (GPa) = 86.90002 105.25001 72.56254
#
# Poissons Ratio (x) = 0.16014 0.32937
# Poissons Ratio (y) = 0.13222 0.26245
# Poissons Ratio (z) = 0.39445 0.38067
#
# Static dielectric constant tensor:
#      x y z
#    x 3.284520 0.000000 0.000000 
#    y 0.000000 3.532690 0.000000 
#    z 0.000000 0.000000 3.378110 
# 
# 
# High freq. dielectric constant tensor:
#      x y z
#    x 1.735940 0.000000 0.000000 
#    y 0.000000 1.762270 0.000000 
#    z 0.000000 0.000000 1.736110 
# 
# From -- ./inp_files/9976.got.cif
#   From: 2010.03.12/outbox.cif.g09.slc.cpg/sg20_5_cif.got.tgz:9976.got - 2010.04.14 01:38:04.
