data_PCOD8160452
_publ_section_title
;
Structure prediction by ZEFSAII (Michael W. Deem and Ramdas Pophale) SiO2 
 PCOD8160452
Probable space group: C 2 2 21
;
_chemical_formula_sum "Si O2"
_cell_formula_units_Z 56
_cell_length_a 16.533435
_cell_length_b 31.180162
_cell_length_c 5.115716
_cell_angle_alpha 90.000000
_cell_angle_beta 90.000000
_cell_angle_gamma 90.000000
_cell_volume 2637.229263
_symmetry_space_group_name_H-M "C 2 2 21"
_symmetry_group_IT_number 20
_symmetry_cell_setting 'orthorhombic'
loop_
_space_group_symop_operation_xyz
x,y,z
-x,-y,1/2+z
x,-y,-z
-x,y,1/2-z
1/2+x,1/2+y,z
1/2-x,1/2-y,1/2+z
1/2+x,1/2-y,-z
1/2-x,1/2+y,1/2-z
loop_
_atom_site_type_symbol
_atom_site_label
_atom_site_fract_x
_atom_site_fract_y
_atom_site_fract_z
Si Si1 0.663598 0.661891 0.831064
Si Si2 0.912976 0.127311 0.172373
Si Si3 0.197946 0.253688 0.762821
Si Si4 0.094120 0.340068 0.768818
Si Si5 0.748623 0.029106 0.746798
Si Si6 0.923707 0.046165 0.904786
Si Si7 0.332027 0.120756 0.767645
O O1 0.603043 0.641622 0.623833
O O2 0.645276 0.712465 0.846546
O O3 0.754966 0.651992 0.747311
O O4 0.653205 0.642726 0.121238
O O5 0.000000 0.145782 0.250000
O O6 0.909427 0.075512 0.161781
O O7 0.229494 0.243043 0.471448
O O8 0.143537 0.295787 0.761510
O O9 0.120533 0.371170 0.535023
O O10 0.000000 0.328395 0.750000
O O11 0.109184 0.366587 0.032007
O O12 0.841997 0.044648 0.732274
O O13 0.691790 0.070805 0.751975
O O14 0.726844 0.000000 0.500000
O O15 0.733592 0.000000 0.000000
O O16 0.000000 0.066339 0.750000
O O17 0.950887 0.000000 0.000000
#
# Coordination Sequence:
#
# PCOD8160452 Si02
#       7
#     8   8   8   8   8   8   8
#     4  12  24  42  68  95 131 184 232 271 334 399
#     4  12  26  40  59  90 135 181 230 276 332 395
#     4  12  23  44  70 103 138 177 222 271 334 409
#     4  12  26  46  75 109 137 176 227 283 346 416
#     4  11  25  41  68 101 134 179 238 287 342 411
#     4  11  23  38  60  91 135 183 235 289 343 394
#     4  12  24  45  75  99 140 178 228 286 346 413
#
# _framework density 21.234407000000001
#
# number of rings (size 3 to 8) (size 9 to 14) (size 15 to 20)
#    0.000    0.286    4.286    5.143    4.000    1.143 
#    0.000    0.000    0.000    8.571    0.000    0.000 
#    0.000    0.000    0.000    0.000    0.000    0.000 
#
# Total GULP energy -347303.030475 kJ/mol
# GULP energy per Si atom -12403.679660 kJ/mol
# Density = 2.118608 g / cm^3
# Si number density = 21.234407 Si / 1000 Ang^3
#
#
#
# Elastic Constant Matrix: (Units=GPa)
#
#
# Indices 1 2 3 4 5 6 
#
# 1 97.4416 53.0357 30.0024 0.0000 0.0000 0.0000
# 2 53.0357 151.1727 60.6160 0.0000 0.0000 0.0000
# 3 30.0024 60.6160 128.1815 0.0000 0.0000 0.0000
# 4 0.0000 0.0000 0.0000 30.2843 0.0000 0.0000
# 5 0.0000 0.0000 0.0000 0.0000 30.9385 0.0000
# 6 0.0000 0.0000 0.0000 0.0000 0.0000 25.8890
#
#
#
# Elastic Compliance Matrix: (Units=1/GPa)
#
#
# Indices 1 2 3 4 5 6 
#
# 1 0.012804 -0.004060 -0.001077 0.000000 0.000000 0.000000
# 2 -0.004060 0.009450 -0.003519 0.000000 0.000000 0.000000
# 3 -0.001077 -0.003519 0.009717 0.000000 0.000000 0.000000
# 4 0.000000 0.000000 0.000000 0.033020 0.000000 0.000000
# 5 0.000000 0.000000 0.000000 0.000000 0.032322 0.000000
# 6 0.000000 0.000000 0.000000 0.000000 0.000000 0.038626
#
#
# Mechanical properties :
#
#
# Convention : Reuss Voigt Hill
#
# Bulk Modulus (GPa) = 68.21157 73.78935 71.00046
# Shear Modulus (GPa) = 31.61775 32.96513 32.29144
#
# Velocity S-wave (km/s) = 3.86293 3.94438 3.90386
# Velocity P-wave (km/s) = 7.21728 7.45449 7.33685
#
# Compressibility (1/GPa) = 0.01466027
#
# Stress axis : x y z
#
# Youngs Moduli (GPa) = 78.10036 105.81728 102.90804
#
# Poissons Ratio (x) = 0.42964 0.11082
# Poissons Ratio (y) = 0.31710 0.36209
# Poissons Ratio (z) = 0.08411 0.37233
#
# Static dielectric constant tensor:
#      x y z
#    x 3.652990 0.000000 0.000000 
#    y 0.000000 4.051590 0.000000 
#    z 0.000000 0.000000 4.088700 
# 
# 
# High freq. dielectric constant tensor:
#      x y z
#    x 1.809070 0.000000 0.000000 
#    y 0.000000 1.846940 0.000000 
#    z 0.000000 0.000000 1.851250 
# 
# From -- ./inp_files/2247.got.cif
#   From: 2010.03.12/outbox.cif.g09.slc.cpg/sg20_2_cif.got.tgz:2247.got - 2010.04.14 01:38:04.
