data_PCOD8160492
_publ_section_title
;
Structure prediction by ZEFSAII (Michael W. Deem and Ramdas Pophale) SiO2 
 PCOD8160492
Probable space group: C 2 2 21
;
_chemical_formula_sum "Si O2"
_cell_formula_units_Z 40
_cell_length_a 8.306599
_cell_length_b 11.583715
_cell_length_c 17.111636
_cell_angle_alpha 90.000000
_cell_angle_beta 90.000000
_cell_angle_gamma 90.000000
_cell_volume 1646.503441
_symmetry_space_group_name_H-M "C 2 2 21"
_symmetry_group_IT_number 20
_symmetry_cell_setting 'orthorhombic'
loop_
_space_group_symop_operation_xyz
x,y,z
-x,-y,1/2+z
x,-y,-z
-x,y,1/2-z
1/2+x,1/2+y,z
1/2-x,1/2-y,1/2+z
1/2+x,1/2-y,-z
1/2-x,1/2+y,1/2-z
loop_
_atom_site_type_symbol
_atom_site_label
_atom_site_fract_x
_atom_site_fract_y
_atom_site_fract_z
Si Si1 0.596524 0.677376 0.330195
Si Si2 0.363002 0.755200 0.463194
Si Si3 0.329491 0.317492 0.235406
Si Si4 0.311091 0.023145 0.619392
Si Si5 0.062937 0.336875 0.595698
O O1 0.500000 0.649227 0.250000
O O2 0.487546 0.743756 0.391983
O O3 0.752763 0.756678 0.311228
O O4 0.661835 0.565046 0.375534
O O5 0.287863 0.885759 0.451931
O O6 0.224618 0.656952 0.458356
O O7 0.440049 0.752420 0.548973
O O8 0.500000 0.383164 0.250000
O O9 0.196971 0.404378 0.200558
O O10 0.379955 0.214992 0.176873
O O11 0.484951 0.961883 0.610817
#
# Coordination Sequence:
#
# PCOD8160492 Si02
#       5
#     8   8   8   8   8
#     4  12  23  45  71 105 143 182 238 300 358 422
#     4  11  26  46  68 102 140 190 238 298 353 430
#     4  11  24  45  72 107 141 186 235 302 359 421
#     4  11  24  44  69  98 139 179 236 281 354 422
#     4  11  23  44  71  95 144 187 234 294 355 416
#
# _framework density 24.293906
#
# number of rings (size 3 to 8) (size 9 to 14) (size 15 to 20)
#    0.000    0.800    6.000    2.400    0.000    4.800 
#    3.600    4.000    0.000    0.000    0.000    0.000 
#    0.000    0.000    0.000    0.000    0.000    0.000 
#
# Total GULP energy -247848.288485 kJ/mol
# GULP energy per Si atom -12392.414424 kJ/mol
# Density = 2.423861 g / cm^3
# Si number density = 24.293906 Si / 1000 Ang^3
#
#
#
# Elastic Constant Matrix: (Units=GPa)
#
#
# Indices 1 2 3 4 5 6 
#
# 1 136.8451 50.0881 28.3277 0.0000 0.0000 0.0000
# 2 50.0881 92.1334 17.0274 0.0000 0.0000 0.0000
# 3 28.3277 17.0274 74.2925 0.0000 0.0000 0.0000
# 4 0.0000 0.0000 0.0000 24.0865 0.0000 0.0000
# 5 0.0000 0.0000 0.0000 0.0000 57.4246 0.0000
# 6 0.0000 0.0000 0.0000 0.0000 0.0000 35.9778
#
#
#
# Elastic Compliance Matrix: (Units=1/GPa)
#
#
# Indices 1 2 3 4 5 6 
#
# 1 0.009569 -0.004728 -0.002565 0.000000 0.000000 0.000000
# 2 -0.004728 0.013670 -0.001330 0.000000 0.000000 0.000000
# 3 -0.002565 -0.001330 0.014743 0.000000 0.000000 0.000000
# 4 0.000000 0.000000 0.000000 0.041517 0.000000 0.000000
# 5 0.000000 0.000000 0.000000 0.000000 0.017414 0.000000
# 6 0.000000 0.000000 0.000000 0.000000 0.000000 0.027795
#
#
# Mechanical properties :
#
#
# Convention : Reuss Voigt Hill
#
# Bulk Modulus (GPa) = 48.22636 54.90640 51.56638
# Shear Modulus (GPa) = 33.58692 37.35294 35.46993
#
# Velocity S-wave (km/s) = 3.72227 3.92541 3.82518
# Velocity P-wave (km/s) = 6.19419 6.57229 6.38604
#
# Compressibility (1/GPa) = 0.02073555
#
# Stress axis : x y z
#
# Youngs Moduli (GPa) = 104.50274 73.15211 67.82767
#
# Poissons Ratio (x) = 0.34588 0.17398
# Poissons Ratio (y) = 0.49411 0.09023
# Poissons Ratio (z) = 0.26805 0.09731
#
# Static dielectric constant tensor:
#      x y z
#    x 4.988120 0.000000 0.000000 
#    y 0.000000 4.222290 0.000000 
#    z 0.000000 0.000000 4.407470 
# 
# 
# High freq. dielectric constant tensor:
#      x y z
#    x 1.978540 0.000000 0.000000 
#    y 0.000000 1.937720 0.000000 
#    z 0.000000 0.000000 1.968830 
# 
# From -- ./inp_files/23160.got.cif
#   From: 2010.03.12/outbox.cif.g09.slc.cpg/sg20_12_cif.got.tgz:23160.got - 2010.04.14 01:38:04.
