data_PCOD8160754
_publ_section_title
;
Structure prediction by ZEFSAII (Michael W. Deem and Ramdas Pophale) SiO2 
 PCOD8160754
Probable space group: C 2 2 21
;
_chemical_formula_sum "Si O2"
_cell_formula_units_Z 20
_cell_length_a 8.617196
_cell_length_b 15.528598
_cell_length_c 4.962297
_cell_angle_alpha 90.000000
_cell_angle_beta 90.000000
_cell_angle_gamma 90.000000
_cell_volume 664.019712
_symmetry_space_group_name_H-M "C 2 2 21"
_symmetry_group_IT_number 20
_symmetry_cell_setting 'orthorhombic'
loop_
_space_group_symop_operation_xyz
x,y,z
-x,-y,1/2+z
x,-y,-z
-x,y,1/2-z
1/2+x,1/2+y,z
1/2-x,1/2-y,1/2+z
1/2+x,1/2-y,-z
1/2-x,1/2+y,1/2-z
loop_
_atom_site_type_symbol
_atom_site_label
_atom_site_fract_x
_atom_site_fract_y
_atom_site_fract_z
Si Si1 0.903138 0.000000 0.000000
Si Si2 0.720375 0.855913 0.869604
Si Si3 0.000000 0.729204 0.750000
Si Si4 0.395289 0.000000 0.000000
O O1 0.796811 0.919435 0.096208
O O2 0.000000 0.965394 0.750000
O O3 0.704260 0.916863 0.603270
O O4 0.843374 0.779400 0.828035
O O5 0.552874 0.824497 0.983966
O O6 0.500000 0.032372 0.750000
#
# Coordination Sequence:
#
# PCOD8160754 Si02
#       4
#     4   8   4   4
#     4  12  28  56  98 134 186 264 324 388 470 610
#     4  12  32  60 100 140 201 252 329 397 494 576
#     4  12  34  58 102 146 198 250 322 418 494 554
#     4  12  32  60 104 138 190 266 330 392 472 612
#
# _framework density 30.119589000000001
#
# number of rings (size 3 to 8) (size 9 to 14) (size 15 to 20)
#    0.000    0.000    2.000    2.400   19.600    0.000 
#    0.000    0.000    0.000    0.000    0.000    0.000 
#    0.000    0.000    0.000    0.000    0.000    0.000 
#
# Total GULP energy -123907.683614 kJ/mol
# GULP energy per Si atom -12390.768361 kJ/mol
# Density = 3.005104 g / cm^3
# Si number density = 30.119589 Si / 1000 Ang^3
#
#
#
# Elastic Constant Matrix: (Units=GPa)
#
#
# Indices 1 2 3 4 5 6 
#
# 1 192.5981 73.4147 102.9895 0.0000 0.0000 0.0000
# 2 73.4147 160.6279 81.5615 0.0000 0.0000 0.0000
# 3 102.9895 81.5615 171.2893 0.0000 0.0000 0.0000
# 4 0.0000 0.0000 0.0000 50.4744 0.0000 0.0000
# 5 0.0000 0.0000 0.0000 0.0000 50.6807 0.0000
# 6 0.0000 0.0000 0.0000 0.0000 0.0000 319.7951
#
#
#
# Elastic Compliance Matrix: (Units=1/GPa)
#
#
# Indices 1 2 3 4 5 6 
#
# 1 0.007949 -0.001591 -0.004022 0.000000 0.000000 0.000000
# 2 -0.001591 0.008529 -0.003105 0.000000 0.000000 0.000000
# 3 -0.004022 -0.003105 0.009735 0.000000 0.000000 0.000000
# 4 0.000000 0.000000 0.000000 0.019812 0.000000 0.000000
# 5 0.000000 0.000000 0.000000 0.000000 0.019731 0.000000
# 6 0.000000 0.000000 0.000000 0.000000 0.000000 0.003127
#
#
# Mechanical properties :
#
#
# Convention : Reuss Voigt Hill
#
# Bulk Modulus (GPa) = 113.92373 115.60519 114.76446
# Shear Modulus (GPa) = 56.02550 101.96001 78.99276
#
# Velocity S-wave (km/s) = 4.31757 5.82454 5.12672
# Velocity P-wave (km/s) = 7.92219 9.14872 8.55746
#
# Compressibility (1/GPa) = 0.00877780
#
# Stress axis : x y z
#
# Youngs Moduli (GPa) = 125.79624 117.24466 102.72501
#
# Poissons Ratio (x) = 0.18653 0.41317
# Poissons Ratio (y) = 0.20014 0.31893
# Poissons Ratio (z) = 0.50596 0.36401
#
# Static dielectric constant tensor:
#      x y z
#    x 6.067680 0.000000 0.000000 
#    y 0.000000 5.989950 0.000000 
#    z 0.000000 0.000000 -13.847220 
# 
# 
# High freq. dielectric constant tensor:
#      x y z
#    x 2.266860 0.000000 0.000000 
#    y 0.000000 2.248930 0.000000 
#    z 0.000000 0.000000 2.233540 
# 
# From -- ./inp_files/280.got.cif
#   From: 2010.03.12/outbox.cif.g09.slc.cpg/sg20_1_cif.got.tgz:280.got - 2010.04.14 01:38:04.
