data_PCOD8160781
_publ_section_title
;
Structure prediction by ZEFSAII (Michael W. Deem and Ramdas Pophale) SiO2 
 PCOD8160781
Probable space group: C 2 2 2
;
_chemical_formula_sum "Si O2"
_cell_formula_units_Z 40
_cell_length_a 33.855032
_cell_length_b 5.112830
_cell_length_c 14.024995
_cell_angle_alpha 90.000000
_cell_angle_beta 90.000000
_cell_angle_gamma 90.000000
_cell_volume 2427.656836
_symmetry_space_group_name_H-M "C 2 2 2"
_symmetry_group_IT_number 21
_symmetry_cell_setting 'orthorhombic'
loop_
_space_group_symop_operation_xyz
x,y,z
-x,-y,z
x,-y,-z
-x,y,-z
1/2+x,1/2+y,z
1/2-x,1/2-y,z
1/2+x,1/2-y,-z
1/2-x,1/2+y,-z
loop_
_atom_site_type_symbol
_atom_site_label
_atom_site_fract_x
_atom_site_fract_y
_atom_site_fract_z
Si Si1 0.703725 0.284471 0.806635
Si Si2 0.391597 0.749719 0.435704
Si Si3 0.320004 0.791019 0.300155
Si Si4 0.982154 0.751395 0.606172
Si Si5 0.750000 0.750000 0.560682
Si Si6 0.275799 0.500000 0.000000
O O1 0.750000 0.250000 0.788736
O O2 0.686777 0.501817 0.737711
O O3 0.697072 0.382752 0.915405
O O4 0.681784 0.010391 0.783585
O O5 0.380893 0.500000 0.500000
O O6 0.362988 0.784880 0.346375
O O7 0.435266 0.733170 0.393124
O O8 0.386921 0.000000 0.500000
O O9 0.286543 0.856767 0.377587
O O10 0.000000 0.500000 0.660581
O O11 0.000000 0.750010 0.500000
O O12 0.000000 0.000000 0.661770
O O13 0.735538 0.500000 0.500000
O O14 0.250000 0.750000 0.038390
#
# Coordination Sequence:
#
# PCOD8160781 Si02
#       6
#     8   8   8   8   4   4
#     4  11  20  38  53  73  97 125 165 211 270 299
#     4  12  21  33  48  70  97 132 183 209 243 294
#     4  12  23  34  50  69 100 135 167 224 246 286
#     4  10  16  30  49  67  88 122 166 214 259 287
#     4  12  22  36  46  60  92 142 186 204 238 270
#     4  10  20  34  60  82  90 118 167 216 263 340
#
# _framework density 16.476793000000001
#
# number of rings (size 3 to 8) (size 9 to 14) (size 15 to 20)
#    0.000    0.800    6.000    6.000    0.000    0.000 
#    0.000    0.000    0.000    0.000    0.000    0.000 
#    0.000    0.000    0.000   13.500    0.000    1.200 
#
# Total GULP energy -247925.092774 kJ/mol
# GULP energy per Si atom -12396.254639 kJ/mol
# Density = 1.643929 g / cm^3
# Si number density = 16.476793 Si / 1000 Ang^3
#
#
#
# Elastic Constant Matrix: (Units=GPa)
#
#
# Indices 1 2 3 4 5 6 
#
# 1 115.9036 30.4417 40.6845 0.0000 0.0000 0.0000
# 2 30.4417 135.5384 27.4947 0.0000 0.0000 0.0000
# 3 40.6845 27.4947 62.9469 0.0000 0.0000 0.0000
# 4 0.0000 0.0000 0.0000 34.2089 0.0000 0.0000
# 5 0.0000 0.0000 0.0000 0.0000 15.0682 0.0000
# 6 0.0000 0.0000 0.0000 0.0000 0.0000 24.4403
#
#
#
# Elastic Compliance Matrix: (Units=1/GPa)
#
#
# Indices 1 2 3 4 5 6 
#
# 1 0.011324 -0.001162 -0.006812 0.000000 0.000000 0.000000
# 2 -0.001162 0.008214 -0.002837 0.000000 0.000000 0.000000
# 3 -0.006812 -0.002837 0.021528 0.000000 0.000000 0.000000
# 4 0.000000 0.000000 0.000000 0.029232 0.000000 0.000000
# 5 0.000000 0.000000 0.000000 0.000000 0.066365 0.000000
# 6 0.000000 0.000000 0.000000 0.000000 0.000000 0.040916
#
#
# Mechanical properties :
#
#
# Convention : Reuss Voigt Hill
#
# Bulk Modulus (GPa) = 51.42515 56.84784 54.13650
# Shear Modulus (GPa) = 24.30929 29.12801 26.71865
#
# Velocity S-wave (km/s) = 3.84522 4.20911 4.03127
# Velocity P-wave (km/s) = 7.14091 7.62881 7.38889
#
# Compressibility (1/GPa) = 0.01944574
#
# Stress axis : x y z
#
# Youngs Moduli (GPa) = 88.30827 121.73717 46.45058
#
# Poissons Ratio (x) = 0.14141 0.31641
# Poissons Ratio (y) = 0.10258 0.13179
# Poissons Ratio (z) = 0.60153 0.34540
#
# Static dielectric constant tensor:
#      x y z
#    x 2.911050 0.000000 0.000000 
#    y 0.000000 2.834790 0.000000 
#    z 0.000000 0.000000 3.395120 
# 
# 
# High freq. dielectric constant tensor:
#      x y z
#    x 1.610200 0.000000 0.000000 
#    y 0.000000 1.674680 0.000000 
#    z 0.000000 0.000000 1.589780 
# 
# From -- ./inp_files/27987.got.cif
#   From: 2010.03.12/outbox.cif.g09.slc.cpg/sg21_14_cif.got.tgz:27987.got - 2010.04.14 01:59:26.
