data_PCOD8160116
_publ_section_title
;
Structure prediction by ZEFSAII (Michael W. Deem and Ramdas Pophale) SiO2 
 PCOD8160116
Probable space group: C 2 2 21
;
_chemical_formula_sum "Si O2"
_cell_formula_units_Z 64
_cell_length_a 5.234401
_cell_length_b 18.350304
_cell_length_c 29.985445
_cell_angle_alpha 90.000000
_cell_angle_beta 90.000000
_cell_angle_gamma 90.000000
_cell_volume 2880.187439
_symmetry_space_group_name_H-M "C 2 2 21"
_symmetry_group_IT_number 20
_symmetry_cell_setting 'orthorhombic'
loop_
_space_group_symop_operation_xyz
x,y,z
-x,-y,1/2+z
x,-y,-z
-x,y,1/2-z
1/2+x,1/2+y,z
1/2-x,1/2-y,1/2+z
1/2+x,1/2-y,-z
1/2-x,1/2+y,1/2-z
loop_
_atom_site_type_symbol
_atom_site_label
_atom_site_fract_x
_atom_site_fract_y
_atom_site_fract_z
Si Si1 0.118864 0.353941 0.589128
Si Si2 0.361361 0.248032 0.525651
Si Si3 0.507771 0.118980 0.917107
Si Si4 0.980045 0.122195 0.638564
Si Si5 0.454612 0.770744 0.826710
Si Si6 0.935814 0.846796 0.798616
Si Si7 0.825938 0.475554 0.549380
Si Si8 0.969984 0.962260 0.632195
O O1 0.344866 0.311433 0.563248
O O2 0.979925 0.296196 0.622041
O O3 0.209423 0.419311 0.621859
O O4 0.940487 0.393188 0.551765
O O5 0.571861 0.272402 0.489364
O O6 0.489375 0.174059 0.542157
O O7 0.277071 0.144417 0.886529
O O8 0.776785 0.125234 0.892918
O O9 0.465899 0.036405 0.935104
O O10 0.027207 0.182667 0.676764
O O11 0.934046 0.040011 0.657073
O O12 0.674162 0.801083 0.794173
O O13 0.169576 0.795729 0.814259
O O14 0.874000 0.912064 0.833148
O O15 0.000000 0.879350 0.750000
O O16 0.730594 0.500000 0.500000
O O17 0.594467 0.476358 0.584098
#
# Coordination Sequence:
#
# PCOD8160116 Si02
#       8
#     8   8   8   8   8   8   8   8
#     4  11  23  42  63  91 128 180 227 281 328 399
#     4  12  27  40  61  88 130 174 233 283 334 381
#     4  11  23  40  58  92 128 176 218 275 326 377
#     4  11  22  42  66  94 130 173 218 266 328 402
#     4  11  23  42  73  98 131 171 216 271 337 404
#     4  11  24  45  73 105 134 167 217 277 336 412
#     4  11  23  39  61  91 136 180 229 281 328 391
#     4  10  24  42  67  96 135 179 227 268 348 401
#
# _framework density 22.220776000000001
#
# number of rings (size 3 to 8) (size 9 to 14) (size 15 to 20)
#    0.000    1.000    3.750    2.625    5.250    0.500 
#    0.000    1.250    0.000    0.000    0.000    0.000 
#    0.000    0.000    0.000    0.000    0.000    0.000 
#
# Total GULP energy -396583.628814 kJ/mol
# GULP energy per Si atom -12393.238400 kJ/mol
# Density = 2.217020 g / cm^3
# Si number density = 22.220776 Si / 1000 Ang^3
#
#
#
# Elastic Constant Matrix: (Units=GPa)
#
#
# Indices 1 2 3 4 5 6 
#
# 1 108.6636 16.1715 7.4611 0.0000 0.0000 0.0000
# 2 16.1715 117.6060 14.7516 0.0000 0.0000 0.0000
# 3 7.4611 14.7516 64.5618 0.0000 0.0000 0.0000
# 4 0.0000 0.0000 0.0000 19.6102 0.0000 0.0000
# 5 0.0000 0.0000 0.0000 0.0000 30.3944 0.0000
# 6 0.0000 0.0000 0.0000 0.0000 0.0000 32.8286
#
#
#
# Elastic Compliance Matrix: (Units=1/GPa)
#
#
# Indices 1 2 3 4 5 6 
#
# 1 0.009437 -0.001195 -0.000817 0.000000 0.000000 0.000000
# 2 -0.001195 0.008905 -0.001897 0.000000 0.000000 0.000000
# 3 -0.000817 -0.001897 0.016017 0.000000 0.000000 0.000000
# 4 0.000000 0.000000 0.000000 0.050994 0.000000 0.000000
# 5 0.000000 0.000000 0.000000 0.000000 0.032901 0.000000
# 6 0.000000 0.000000 0.000000 0.000000 0.000000 0.030461
#
#
# Mechanical properties :
#
#
# Convention : Reuss Voigt Hill
#
# Bulk Modulus (GPa) = 37.67841 40.84442 39.26141
# Shear Modulus (GPa) = 30.23341 33.39644 31.81493
#
# Velocity S-wave (km/s) = 3.69262 3.88098 3.78797
# Velocity P-wave (km/s) = 5.93075 6.20514 6.06950
#
# Compressibility (1/GPa) = 0.02654040
#
# Stress axis : x y z
#
# Youngs Moduli (GPa) = 105.96933 112.29403 62.43421
#
# Poissons Ratio (x) = 0.13420 0.05104
# Poissons Ratio (y) = 0.12664 0.11841
# Poissons Ratio (z) = 0.08663 0.21298
#
# Static dielectric constant tensor:
#      x y z
#    x 3.787750 0.000000 0.000000 
#    y 0.000000 4.548720 0.000000 
#    z 0.000000 0.000000 3.736710 
# 
# 
# High freq. dielectric constant tensor:
#      x y z
#    x 1.872290 0.000000 0.000000 
#    y 0.000000 1.892400 0.000000 
#    z 0.000000 0.000000 1.839340 
# 
# From -- ./inp_files/30843.got.cif
#   From: 2010.03.12/outbox.cif.g09.slc.cpg/sg20_16_cif.got.tgz:30843.got - 2010.04.14 01:38:04.
