data_PCOD8160453
_publ_section_title
;
Structure prediction by ZEFSAII (Michael W. Deem and Ramdas Pophale) SiO2 
 PCOD8160453
Probable space group: C 2 2 21
;
_chemical_formula_sum "Si O2"
_cell_formula_units_Z 36
_cell_length_a 22.347391
_cell_length_b 9.232854
_cell_length_c 8.048733
_cell_angle_alpha 90.000000
_cell_angle_beta 90.000000
_cell_angle_gamma 90.000000
_cell_volume 1660.696677
_symmetry_space_group_name_H-M "C 2 2 21"
_symmetry_group_IT_number 20
_symmetry_cell_setting 'orthorhombic'
loop_
_space_group_symop_operation_xyz
x,y,z
-x,-y,1/2+z
x,-y,-z
-x,y,1/2-z
1/2+x,1/2+y,z
1/2-x,1/2-y,1/2+z
1/2+x,1/2-y,-z
1/2-x,1/2+y,1/2-z
loop_
_atom_site_type_symbol
_atom_site_label
_atom_site_fract_x
_atom_site_fract_y
_atom_site_fract_z
Si Si1 0.174776 0.510101 0.312373
Si Si2 0.940678 0.602100 0.646983
Si Si3 0.867690 0.111170 0.356723
Si Si4 0.248932 0.227660 0.662164
Si Si5 0.671095 0.500000 0.500000
O O1 0.154874 0.500000 0.500000
O O2 0.114598 0.490251 0.213638
O O3 0.201083 0.664272 0.253574
O O4 0.225568 0.387397 0.292954
O O5 0.962876 0.500000 0.500000
O O6 0.918112 0.766026 0.623869
O O7 0.000000 0.617567 0.750000
O O8 0.803418 0.176929 0.408456
O O9 0.885349 0.000000 0.500000
O O10 0.866995 0.036420 0.169564
O O11 0.213735 0.140306 0.518476
#
# Coordination Sequence:
#
# PCOD8160453 Si02
#       5
#     8   8   8   8   4
#     4  11  24  40  68  98 142 181 227 288 345 427
#     4  11  27  50  73 103 135 183 250 297 362 430
#     4  11  27  46  71 107 144 192 243 292 368 428
#     4  11  23  38  62 109 144 182 228 274 361 424
#     4  12  26  40  70 104 158 188 234 298 348 452
#
# _framework density 21.677648999999999
#
# number of rings (size 3 to 8) (size 9 to 14) (size 15 to 20)
#    0.000    0.889    2.222    4.000   12.444    0.000 
#    2.000    0.000    0.000    0.000    0.000    0.000 
#    0.000    0.000    0.000    0.000    0.000    0.000 
#
# Total GULP energy -223018.387025 kJ/mol
# GULP energy per Si atom -12389.910390 kJ/mol
# Density = 2.162831 g / cm^3
# Si number density = 21.677649 Si / 1000 Ang^3
#
#
#
# Elastic Constant Matrix: (Units=GPa)
#
#
# Indices 1 2 3 4 5 6 
#
# 1 122.7243 86.8664 41.8302 0.0000 0.0000 0.0000
# 2 86.8664 169.3025 59.7349 0.0000 0.0000 0.0000
# 3 41.8302 59.7349 118.4781 0.0000 0.0000 0.0000
# 4 0.0000 0.0000 0.0000 34.4041 0.0000 0.0000
# 5 0.0000 0.0000 0.0000 0.0000 16.7572 0.0000
# 6 0.0000 0.0000 0.0000 0.0000 0.0000 17.7519
#
#
#
# Elastic Compliance Matrix: (Units=1/GPa)
#
#
# Indices 1 2 3 4 5 6 
#
# 1 0.013009 -0.006148 -0.001493 0.000000 0.000000 0.000000
# 2 -0.006148 0.010090 -0.002917 0.000000 0.000000 0.000000
# 3 -0.001493 -0.002917 0.010438 0.000000 0.000000 0.000000
# 4 0.000000 0.000000 0.000000 0.029066 0.000000 0.000000
# 5 0.000000 0.000000 0.000000 0.000000 0.059676 0.000000
# 6 0.000000 0.000000 0.000000 0.000000 0.000000 0.056332
#
#
# Mechanical properties :
#
#
# Convention : Reuss Voigt Hill
#
# Bulk Modulus (GPa) = 80.50578 87.48534 83.99556
# Shear Modulus (GPa) = 24.52578 28.58753 26.55666
#
# Velocity S-wave (km/s) = 3.36726 3.63541 3.50390
# Velocity P-wave (km/s) = 7.23438 7.62014 7.42976
#
# Compressibility (1/GPa) = 0.01242147
#
# Stress axis : x y z
#
# Youngs Moduli (GPa) = 76.87100 99.10825 95.80224
#
# Poissons Ratio (x) = 0.60929 0.14307
# Poissons Ratio (y) = 0.47258 0.27942
# Poissons Ratio (z) = 0.11479 0.28907
#
# Static dielectric constant tensor:
#      x y z
#    x 3.689080 0.000000 0.000000 
#    y 0.000000 4.528910 0.000000 
#    z 0.000000 0.000000 3.844290 
# 
# 
# High freq. dielectric constant tensor:
#      x y z
#    x 1.826410 0.000000 0.000000 
#    y 0.000000 1.878650 0.000000 
#    z 0.000000 0.000000 1.854670 
# 
# From -- ./inp_files/5924.got.cif
#   From: 2010.03.12/outbox.cif.g09.slc.cpg/sg20_3_cif.got.tgz:5924.got - 2010.04.14 01:38:04.
