data_PCOD8160763
_publ_section_title
;
Structure prediction by ZEFSAII (Michael W. Deem and Ramdas Pophale) SiO2 
 PCOD8160763
Probable space group: C 2 2 2
;
_chemical_formula_sum "Si O2"
_cell_formula_units_Z 30
_cell_length_a 5.403322
_cell_length_b 17.160368
_cell_length_c 16.570225
_cell_angle_alpha 90.000000
_cell_angle_beta 90.000000
_cell_angle_gamma 90.000000
_cell_volume 1536.440872
_symmetry_space_group_name_H-M "C 2 2 2"
_symmetry_group_IT_number 21
_symmetry_cell_setting 'orthorhombic'
loop_
_space_group_symop_operation_xyz
x,y,z
-x,-y,z
x,-y,-z
-x,y,-z
1/2+x,1/2+y,z
1/2-x,1/2-y,z
1/2+x,1/2-y,-z
1/2-x,1/2+y,-z
loop_
_atom_site_type_symbol
_atom_site_label
_atom_site_fract_x
_atom_site_fract_y
_atom_site_fract_z
Si Si1 0.000000 0.700630 0.000000
Si Si2 0.854284 0.579340 0.119529
Si Si3 0.000000 0.000000 0.000000
Si Si4 0.249108 0.088827 0.467266
Si Si5 0.249938 0.049263 0.289643
O O1 0.250000 0.750000 0.996379
O O2 0.980962 0.648073 0.918702
O O3 0.756450 0.603370 0.208769
O O4 0.000000 0.500000 0.132262
O O5 0.643379 0.561161 0.055156
O O6 0.500000 0.129974 0.500000
O O7 0.239391 0.099322 0.370901
O O8 0.000000 0.130723 0.500000
O O9 0.248601 0.000000 0.500000
O O10 0.500000 0.000000 0.296370
O O11 0.000000 0.000000 0.283352
#
# Coordination Sequence:
#
# PCOD8160763 Si02
#       5
#     4   8   2   8   8
#     4  12  26  42  61  81 114 156 198 240 292 344
#     4  11  23  36  58  84 112 148 194 239 289 339
#     4  12  16  36  60  76 118 138 194 234 294 334
#     4  10  15  25  40  63 107 143 173 200 275 336
#     4  11  19  28  46  75 104 147 176 224 268 338
#
# _framework density 19.525645000000001
#
# number of rings (size 3 to 8) (size 9 to 14) (size 15 to 20)
#    0.000    1.067    9.333    0.800    0.000    0.000 
#    0.000    0.000    0.000    0.000    0.000    0.000 
#    0.000    4.267    0.000    0.267    0.000    0.000 
#
# Total GULP energy -185829.581495 kJ/mol
# GULP energy per Si atom -12388.638766 kJ/mol
# Density = 1.948120 g / cm^3
# Si number density = 19.525645 Si / 1000 Ang^3
#
#
#
# Elastic Constant Matrix: (Units=GPa)
#
#
# Indices 1 2 3 4 5 6 
#
# 1 158.9940 16.5397 54.2561 0.0000 0.0000 0.0000
# 2 16.5397 44.2733 27.9359 0.0000 0.0000 0.0000
# 3 54.2561 27.9359 222.7373 0.0000 0.0000 0.0000
# 4 0.0000 0.0000 0.0000 -7.8375 0.0000 0.0000
# 5 0.0000 0.0000 0.0000 0.0000 49.7874 0.0000
# 6 0.0000 0.0000 0.0000 0.0000 0.0000 14.8572
#
#
#
# Elastic Compliance Matrix: (Units=1/GPa)
#
#
# Indices 1 2 3 4 5 6 
#
# 1 0.006971 -0.001665 -0.001489 0.000000 0.000000 0.000000
# 2 -0.001665 0.024926 -0.002721 0.000000 0.000000 0.000000
# 3 -0.001489 -0.002721 0.005194 0.000000 0.000000 0.000000
# 4 0.000000 0.000000 0.000000 -0.127592 0.000000 0.000000
# 5 0.000000 0.000000 0.000000 0.000000 0.020085 0.000000
# 6 0.000000 0.000000 0.000000 0.000000 0.000000 0.067308
#
#
# Mechanical properties :
#
#
# Convention : Reuss Voigt Hill
#
# Bulk Modulus (GPa) = 39.46167 69.27422 54.36795
# Shear Modulus (GPa) = 292.62347 33.17962 162.90154
#
# Velocity S-wave (km/s) = 12.25527 4.12671 9.14389
# Velocity P-wave (km/s) = 14.84956 7.63295 11.80617
#
# Compressibility (1/GPa) = 0.02534104
#
# Stress axis : x y z
#
# Youngs Moduli (GPa) = 143.45336 40.11950 192.54479
#
# Poissons Ratio (x) = 0.06678 0.28675
# Poissons Ratio (y) = 0.23878 0.52386
# Poissons Ratio (z) = 0.21364 0.10915
#
# Static dielectric constant tensor:
#      x y z
#    x 4.336750 0.000000 0.000000 
#    y 0.000000 2.929110 0.000000 
#    z 0.000000 0.000000 4.523030 
# 
# 
# High freq. dielectric constant tensor:
#      x y z
#    x 1.790130 0.000000 0.000000 
#    y 0.000000 1.668440 0.000000 
#    z 0.000000 0.000000 1.788340 
# 
# From -- ./inp_files/28632.got.cif
#   From: 2010.03.12/outbox.cif.g09.slc.cpg/sg21_15_cif.got.tgz:28632.got - 2010.04.14 01:59:26.
