data_PCOD8160544
_publ_section_title
;
Structure prediction by ZEFSAII (Michael W. Deem and Ramdas Pophale) SiO2 
 PCOD8160544
Probable space group: C 2 2 21
;
_chemical_formula_sum "Si O2"
_cell_formula_units_Z 36
_cell_length_a 21.054218
_cell_length_b 9.588294
_cell_length_c 8.756075
_cell_angle_alpha 90.000000
_cell_angle_beta 90.000000
_cell_angle_gamma 90.000000
_cell_volume 1767.624166
_symmetry_space_group_name_H-M "C 2 2 21"
_symmetry_group_IT_number 20
_symmetry_cell_setting 'orthorhombic'
loop_
_space_group_symop_operation_xyz
x,y,z
-x,-y,1/2+z
x,-y,-z
-x,y,1/2-z
1/2+x,1/2+y,z
1/2-x,1/2-y,1/2+z
1/2+x,1/2-y,-z
1/2-x,1/2+y,1/2-z
loop_
_atom_site_type_symbol
_atom_site_label
_atom_site_fract_x
_atom_site_fract_y
_atom_site_fract_z
Si Si1 0.665078 0.488779 0.248329
Si Si2 0.730584 0.000000 0.000000
Si Si3 0.959415 0.884106 0.102528
Si Si4 0.509388 0.848388 0.069730
Si Si5 0.853781 0.773584 0.519677
O O1 0.729104 0.496492 0.345290
O O2 0.608298 0.450703 0.361585
O O3 0.657031 0.641771 0.175767
O O4 0.667383 0.368959 0.121363
O O5 0.687169 0.135287 0.991213
O O6 0.000000 0.849922 0.250000
O O7 0.951988 0.741578 0.004584
O O8 0.996473 0.000000 0.000000
O O9 0.500000 0.856128 0.250000
O O10 0.572671 0.769123 0.015525
O O11 0.507494 0.000000 0.000000
#
# Coordination Sequence:
#
# PCOD8160544 Si02
#       5
#     8   4   8   8   8
#     4  11  24  42  69  99 132 181 233 283 340 423
#     4  12  24  44  72  96 136 180 234 286 352 414
#     4  12  22  40  68  99 133 175 229 285 341 414
#     4  12  26  43  67 100 140 184 227 290 364 419
#     4  11  24  46  66  97 142 180 227 287 351 410
#
# _framework density 20.366320000000002
#
# number of rings (size 3 to 8) (size 9 to 14) (size 15 to 20)
#    0.000    0.444    4.444    5.333    0.000    0.000 
#    0.000    0.000    0.000    0.000    0.000    0.000 
#    0.000    0.000    0.000    0.000    0.000    0.000 
#
# Total GULP energy -223205.007919 kJ/mol
# GULP energy per Si atom -12400.278218 kJ/mol
# Density = 2.031997 g / cm^3
# Si number density = 20.366320 Si / 1000 Ang^3
#
#
#
# Elastic Constant Matrix: (Units=GPa)
#
#
# Indices 1 2 3 4 5 6 
#
# 1 84.6301 55.4607 42.9781 0.0000 0.0000 0.0000
# 2 55.4607 184.7121 74.5476 0.0000 0.0000 0.0000
# 3 42.9781 74.5476 139.3756 0.0000 0.0000 0.0000
# 4 0.0000 0.0000 0.0000 43.6856 0.0000 0.0000
# 5 0.0000 0.0000 0.0000 0.0000 -0.6018 0.0000
# 6 0.0000 0.0000 0.0000 0.0000 0.0000 22.2211
#
#
#
# Elastic Compliance Matrix: (Units=1/GPa)
#
#
# Indices 1 2 3 4 5 6 
#
# 1 0.015601 -0.003498 -0.002940 0.000000 0.000000 0.000000
# 2 -0.003498 0.007688 -0.003034 0.000000 0.000000 0.000000
# 3 -0.002940 -0.003034 0.009704 0.000000 0.000000 0.000000
# 4 0.000000 0.000000 0.000000 0.022891 0.000000 0.000000
# 5 0.000000 0.000000 0.000000 0.000000 -1.661718 0.000000
# 6 0.000000 0.000000 0.000000 0.000000 0.000000 0.045002
#
#
# Mechanical properties :
#
#
# Convention : Reuss Voigt Hill
#
# Bulk Modulus (GPa) = 71.17014 83.85450 77.51232
# Shear Modulus (GPa) = -3.25266 28.77643 12.76189
#
# Velocity S-wave (km/s) = -1.26513 3.76299 2.50595
# Velocity P-wave (km/s) = 5.73470 7.75517 6.82017
#
# Compressibility (1/GPa) = 0.01405084
#
# Stress axis : x y z
#
# Youngs Moduli (GPa) = 64.09685 130.06544 103.04965
#
# Poissons Ratio (x) = 0.45495 0.30296
# Poissons Ratio (y) = 0.22420 0.31262
# Poissons Ratio (z) = 0.18844 0.39458
#
# Static dielectric constant tensor:
#      x y z
#    x 3.674670 0.000000 0.000000 
#    y 0.000000 3.915950 0.000000 
#    z 0.000000 0.000000 3.971420 
# 
# 
# High freq. dielectric constant tensor:
#      x y z
#    x 1.782110 0.000000 0.000000 
#    y 0.000000 1.816130 0.000000 
#    z 0.000000 0.000000 1.820530 
# 
# From -- ./inp_files/5886.got.cif
#   From: 2010.03.12/outbox.cif.g09.slc.cpg/sg20_3_cif.got.tgz:5886.got - 2010.04.14 01:38:04.
