data_PCOD8160605
_publ_section_title
;
Structure prediction by ZEFSAII (Michael W. Deem and Ramdas Pophale) SiO2 
 PCOD8160605
Probable space group: C 2 2 21
;
_chemical_formula_sum "Si O2"
_cell_formula_units_Z 60
_cell_length_a 16.519869
_cell_length_b 9.538346
_cell_length_c 16.443053
_cell_angle_alpha 90.000000
_cell_angle_beta 90.000000
_cell_angle_gamma 90.000000
_cell_volume 2590.968470
_symmetry_space_group_name_H-M "C 2 2 21"
_symmetry_group_IT_number 20
_symmetry_cell_setting 'orthorhombic'
loop_
_space_group_symop_operation_xyz
x,y,z
-x,-y,1/2+z
x,-y,-z
-x,y,1/2-z
1/2+x,1/2+y,z
1/2-x,1/2-y,1/2+z
1/2+x,1/2-y,-z
1/2-x,1/2+y,1/2-z
loop_
_atom_site_type_symbol
_atom_site_label
_atom_site_fract_x
_atom_site_fract_y
_atom_site_fract_z
Si Si1 0.076446 0.018310 0.695628
Si Si2 0.917374 0.500200 0.774658
Si Si3 0.211291 0.192793 0.625251
Si Si4 0.187690 0.761612 0.726959
Si Si5 0.030782 0.888744 0.062818
Si Si6 0.799046 0.500000 0.500000
Si Si7 0.651460 0.808179 0.865252
Si Si8 0.920278 0.634591 0.056580
O O1 0.113874 0.869970 0.720470
O O2 0.000000 0.063466 0.750000
O O3 0.148022 0.134467 0.693710
O O4 0.038738 0.017380 0.605489
O O5 0.846320 0.608239 0.793180
O O6 0.891298 0.398634 0.702862
O O7 0.941457 0.407533 0.851849
O O8 0.000000 0.580689 0.750000
O O9 0.279392 0.269131 0.680148
O O10 0.170215 0.300055 0.561568
O O11 0.246168 0.066919 0.572098
O O12 0.255173 0.786315 0.658770
O O13 0.103968 0.839099 0.122256
O O14 0.986062 0.749598 0.026294
O O15 0.069139 0.000000 0.000000
O O16 0.853543 0.615159 0.453759
O O17 0.920959 0.500000 0.000000
#
# Coordination Sequence:
#
# PCOD8160605 Si02
#       8
#     8   8   8   8   8   4   8   8
#     4  11  25  45  75 107 148 193 251 312 379 457
#     4  12  25  47  75 109 147 201 253 310 378 464
#     4  11  25  46  74 107 153 201 249 317 387 457
#     4  12  24  46  73 113 144 195 256 307 376 464
#     4  11  28  49  76 109 153 198 256 318 391 454
#     4  12  26  48  74 110 162 200 256 322 400 446
#     4  12  26  49  78 105 155 208 257 312 387 464
#     4  11  27  45  79 109 151 199 259 316 387 459
#
# _framework density 23.157364999999999
#
# number of rings (size 3 to 8) (size 9 to 14) (size 15 to 20)
#    0.000    0.533    5.333    1.200   10.267    1.067 
#    2.400    0.000    0.000    0.000    0.000    0.000 
#    0.000    0.000    0.000    0.000    0.000    0.000 
#
# Total GULP energy -371919.277442 kJ/mol
# GULP energy per Si atom -12397.309248 kJ/mol
# Density = 2.310466 g / cm^3
# Si number density = 23.157365 Si / 1000 Ang^3
#
#
#
# Elastic Constant Matrix: (Units=GPa)
#
#
# Indices 1 2 3 4 5 6 
#
# 1 108.1292 57.8973 48.3558 0.0000 0.0000 0.0000
# 2 57.8973 117.9210 64.6095 0.0000 0.0000 0.0000
# 3 48.3558 64.6095 99.0627 0.0000 0.0000 0.0000
# 4 0.0000 0.0000 0.0000 29.2814 0.0000 0.0000
# 5 0.0000 0.0000 0.0000 0.0000 52.5978 0.0000
# 6 0.0000 0.0000 0.0000 0.0000 0.0000 35.9714
#
#
#
# Elastic Compliance Matrix: (Units=1/GPa)
#
#
# Indices 1 2 3 4 5 6 
#
# 1 0.013270 -0.004616 -0.003467 0.000000 0.000000 0.000000
# 2 -0.004616 0.014801 -0.007400 0.000000 0.000000 0.000000
# 3 -0.003467 -0.007400 0.016614 0.000000 0.000000 0.000000
# 4 0.000000 0.000000 0.000000 0.034151 0.000000 0.000000
# 5 0.000000 0.000000 0.000000 0.000000 0.019012 0.000000
# 6 0.000000 0.000000 0.000000 0.000000 0.000000 0.027800
#
#
# Mechanical properties :
#
#
# Convention : Reuss Voigt Hill
#
# Bulk Modulus (GPa) = 72.89462 74.09312 73.49387
# Shear Modulus (GPa) = 31.01969 33.85348 32.43659
#
# Velocity S-wave (km/s) = 3.66391 3.82761 3.74666
# Velocity P-wave (km/s) = 7.03173 7.18325 7.10790
#
# Compressibility (1/GPa) = 0.01371843
#
# Stress axis : x y z
#
# Youngs Moduli (GPa) = 75.35661 67.56200 60.19147
#
# Poissons Ratio (x) = 0.31185 0.20870
# Poissons Ratio (y) = 0.34783 0.44544
# Poissons Ratio (z) = 0.26128 0.49998
#
# Static dielectric constant tensor:
#      x y z
#    x 4.434790 0.000000 0.000000 
#    y 0.000000 4.102350 0.000000 
#    z 0.000000 0.000000 4.333550 
# 
# 
# High freq. dielectric constant tensor:
#      x y z
#    x 1.926380 0.000000 0.000000 
#    y 0.000000 1.914960 0.000000 
#    z 0.000000 0.000000 1.909320 
# 
# From -- ./inp_files/25268.got.cif
#   From: 2010.03.12/outbox.cif.g09.slc.cpg/sg20_13_cif.got.tgz:25268.got - 2010.04.14 01:38:04.
