data_PCOD8160581
_publ_section_title
;
Structure prediction by ZEFSAII (Michael W. Deem and Ramdas Pophale) SiO2 
 PCOD8160581
Probable space group: C 2 2 21
;
_chemical_formula_sum "Si O2"
_cell_formula_units_Z 40
_cell_length_a 14.419980
_cell_length_b 5.391073
_cell_length_c 21.534185
_cell_angle_alpha 90.000000
_cell_angle_beta 90.000000
_cell_angle_gamma 90.000000
_cell_volume 1674.049557
_symmetry_space_group_name_H-M "C 2 2 21"
_symmetry_group_IT_number 20
_symmetry_cell_setting 'orthorhombic'
loop_
_space_group_symop_operation_xyz
x,y,z
-x,-y,1/2+z
x,-y,-z
-x,y,1/2-z
1/2+x,1/2+y,z
1/2-x,1/2-y,1/2+z
1/2+x,1/2-y,-z
1/2-x,1/2+y,1/2-z
loop_
_atom_site_type_symbol
_atom_site_label
_atom_site_fract_x
_atom_site_fract_y
_atom_site_fract_z
Si Si1 0.285884 0.157364 0.438410
Si Si2 0.020141 0.500000 0.500000
Si Si3 0.134326 0.438643 0.388491
Si Si4 0.738515 0.820731 0.170926
Si Si5 0.086099 0.000000 0.000000
Si Si6 0.600660 0.361182 0.726376
O O1 0.176963 0.221162 0.432337
O O2 0.349488 0.405276 0.442782
O O3 0.304480 0.000000 0.500000
O O4 0.311960 0.008687 0.376185
O O5 0.072542 0.592860 0.437247
O O6 0.968627 0.247800 0.478012
O O7 0.226537 0.579334 0.365214
O O8 0.078668 0.330021 0.329850
O O9 0.658908 0.775818 0.220732
O O10 0.834200 0.917786 0.202284
O O11 0.500000 0.458253 0.750000
#
# Coordination Sequence:
#
# PCOD8160581 Si02
#       6
#     8   4   8   8   4   8
#     4  11  24  47  77 107 148 205 250 326 407 462
#     4  12  29  46  71 116 154 200 266 321 406 471
#     4  11  26  47  76 105 158 203 264 330 399 474
#     4  11  24  50  73 111 155 207 265 327 393 478
#     4  12  27  46  71 118 156 194 262 327 392 491
#     4  11  26  46  76 111 153 209 265 326 393 469
#
# _framework density 23.894155000000001
#
# number of rings (size 3 to 8) (size 9 to 14) (size 15 to 20)
#    0.000    0.800    3.000    3.000    9.800    0.800 
#    0.000    0.000    0.000    0.000    0.000    0.000 
#    0.000    0.000    0.000    0.000    0.000    0.000 
#
# Total GULP energy -247766.994883 kJ/mol
# GULP energy per Si atom -12388.349744 kJ/mol
# Density = 2.383977 g / cm^3
# Si number density = 23.894155 Si / 1000 Ang^3
#
#
#
# Elastic Constant Matrix: (Units=GPa)
#
#
# Indices 1 2 3 4 5 6 
#
# 1 120.4375 26.9396 68.7004 0.0000 0.0000 0.0000
# 2 26.9396 90.9329 36.8354 0.0000 0.0000 0.0000
# 3 68.7004 36.8354 137.5176 0.0000 0.0000 0.0000
# 4 0.0000 0.0000 0.0000 32.4508 0.0000 0.0000
# 5 0.0000 0.0000 0.0000 0.0000 26.5193 0.0000
# 6 0.0000 0.0000 0.0000 0.0000 0.0000 36.8989
#
#
#
# Elastic Compliance Matrix: (Units=1/GPa)
#
#
# Indices 1 2 3 4 5 6 
#
# 1 0.011735 -0.001236 -0.005531 0.000000 0.000000 0.000000
# 2 -0.001236 0.012466 -0.002722 0.000000 0.000000 0.000000
# 3 -0.005531 -0.002722 0.010764 0.000000 0.000000 0.000000
# 4 0.000000 0.000000 0.000000 0.030816 0.000000 0.000000
# 5 0.000000 0.000000 0.000000 0.000000 0.037708 0.000000
# 6 0.000000 0.000000 0.000000 0.000000 0.000000 0.027101
#
#
# Mechanical properties :
#
#
# Convention : Reuss Voigt Hill
#
# Bulk Modulus (GPa) = 62.55128 68.20432 65.37780
# Shear Modulus (GPa) = 32.27957 33.60128 32.94043
#
# Velocity S-wave (km/s) = 3.67950 3.75408 3.71698
# Velocity P-wave (km/s) = 6.65484 6.88456 6.77067
#
# Compressibility (1/GPa) = 0.01598688
#
# Stress axis : x y z
#
# Youngs Moduli (GPa) = 85.21728 80.21978 92.90097
#
# Poissons Ratio (x) = 0.09914 0.51387
# Poissons Ratio (y) = 0.10532 0.25285
# Poissons Ratio (z) = 0.47137 0.21833
#
# Static dielectric constant tensor:
#      x y z
#    x 4.252940 0.000000 0.000000 
#    y 0.000000 4.343910 0.000000 
#    z 0.000000 0.000000 4.490470 
# 
# 
# High freq. dielectric constant tensor:
#      x y z
#    x 1.942690 0.000000 0.000000 
#    y 0.000000 1.945560 0.000000 
#    z 0.000000 0.000000 1.960490 
# 
# From -- ./inp_files/29226.got.cif
#   From: 2010.03.12/outbox.cif.g09.slc.cpg/sg20_15_cif.got.tgz:29226.got - 2010.04.14 01:38:04.
