data_PCOD8160556
_publ_section_title
;
Structure prediction by ZEFSAII (Michael W. Deem and Ramdas Pophale) SiO2 
 PCOD8160556
Probable space group: C 2 2 21
;
_chemical_formula_sum "Si O2"
_cell_formula_units_Z 56
_cell_length_a 15.294934
_cell_length_b 11.934038
_cell_length_c 14.175353
_cell_angle_alpha 90.000000
_cell_angle_beta 90.000000
_cell_angle_gamma 90.000000
_cell_volume 2587.431770
_symmetry_space_group_name_H-M "C 2 2 21"
_symmetry_group_IT_number 20
_symmetry_cell_setting 'orthorhombic'
loop_
_space_group_symop_operation_xyz
x,y,z
-x,-y,1/2+z
x,-y,-z
-x,y,1/2-z
1/2+x,1/2+y,z
1/2-x,1/2-y,1/2+z
1/2+x,1/2-y,-z
1/2-x,1/2+y,1/2-z
loop_
_atom_site_type_symbol
_atom_site_label
_atom_site_fract_x
_atom_site_fract_y
_atom_site_fract_z
Si Si1 0.315257 0.116313 0.135019
Si Si2 0.222621 0.217168 0.307234
Si Si3 0.904870 0.068407 0.092720
Si Si4 0.317890 0.500000 0.500000
Si Si5 0.108723 0.802439 0.107399
Si Si6 0.544152 0.793045 0.500870
Si Si7 0.579742 0.908451 0.319856
Si Si8 0.000000 0.925692 0.250000
O O1 0.265738 0.197615 0.206207
O O2 0.243307 0.040620 0.084353
O O3 0.368582 0.195938 0.063878
O O4 0.380953 0.032939 0.190133
O O5 0.179861 0.102973 0.346402
O O6 0.296129 0.249111 0.383026
O O7 0.152879 0.316293 0.296452
O O8 0.967201 0.998338 0.161820
O O9 0.954416 0.179597 0.059656
O O10 0.876449 0.000000 0.000000
O O11 0.383588 0.595946 0.533999
O O12 0.041827 0.709451 0.066325
O O13 0.076311 0.846166 0.209530
O O14 0.543027 0.895613 0.426826
O O15 0.500000 0.892372 0.250000
#
# Coordination Sequence:
#
# PCOD8160556 Si02
#       8
#     8   8   8   4   8   8   8   4
#     4  12  24  48  71  97 144 182 231 290 348 426
#     4  11  27  43  70 105 136 180 232 292 350 411
#     4  11  24  46  68 105 140 179 234 298 352 416
#     4  12  22  44  70  94 134 184 228 280 352 406
#     4  12  24  43  68 105 130 183 234 283 350 409
#     4  11  24  44  70 100 138 187 229 284 350 429
#     4  11  26  48  67 102 140 186 232 281 357 427
#     4  12  24  44  72  98 140 180 242 288 360 416
#
# _framework density 21.643082
#
# number of rings (size 3 to 8) (size 9 to 14) (size 15 to 20)
#    0.000    0.571    4.286    3.429    8.000    0.000 
#    2.571    0.000    0.000    0.000    0.000    0.000 
#    0.000    0.000    0.000    0.000    0.000    0.000 
#
# Total GULP energy -347331.919994 kJ/mol
# GULP energy per Si atom -12404.711428 kJ/mol
# Density = 2.159382 g / cm^3
# Si number density = 21.643082 Si / 1000 Ang^3
#
#
#
# Elastic Constant Matrix: (Units=GPa)
#
#
# Indices 1 2 3 4 5 6 
#
# 1 116.7775 29.6058 49.1848 0.0000 0.0000 0.0000
# 2 29.6058 52.3551 25.7735 0.0000 0.0000 0.0000
# 3 49.1848 25.7735 120.2138 0.0000 0.0000 0.0000
# 4 0.0000 0.0000 0.0000 31.7809 0.0000 0.0000
# 5 0.0000 0.0000 0.0000 0.0000 45.4819 0.0000
# 6 0.0000 0.0000 0.0000 0.0000 0.0000 146.3197
#
#
#
# Elastic Compliance Matrix: (Units=1/GPa)
#
#
# Indices 1 2 3 4 5 6 
#
# 1 0.011249 -0.004579 -0.003621 0.000000 0.000000 0.000000
# 2 -0.004579 0.023218 -0.003104 0.000000 0.000000 0.000000
# 3 -0.003621 -0.003104 0.010466 0.000000 0.000000 0.000000
# 4 0.000000 0.000000 0.000000 0.031465 0.000000 0.000000
# 5 0.000000 0.000000 0.000000 0.000000 0.021987 0.000000
# 6 0.000000 0.000000 0.000000 0.000000 0.000000 0.006834
#
#
# Mechanical properties :
#
#
# Convention : Reuss Voigt Hill
#
# Bulk Modulus (GPa) = 44.79399 55.38604 50.09002
# Shear Modulus (GPa) = 36.96352 57.03532 46.99942
#
# Velocity S-wave (km/s) = 4.13712 5.13906 4.66506
# Velocity P-wave (km/s) = 6.60020 7.80124 7.22572
#
# Compressibility (1/GPa) = 0.02232442
#
# Stress axis : x y z
#
# Youngs Moduli (GPa) = 88.89571 43.07049 95.55148
#
# Poissons Ratio (x) = 0.19721 0.34598
# Poissons Ratio (y) = 0.40702 0.29664
# Poissons Ratio (z) = 0.32188 0.13371
#
# Static dielectric constant tensor:
#      x y z
#    x 4.031720 0.000000 0.000000 
#    y 0.000000 4.111450 0.000000 
#    z 0.000000 0.000000 3.919930 
# 
# 
# High freq. dielectric constant tensor:
#      x y z
#    x 1.857370 0.000000 0.000000 
#    y 0.000000 1.848040 0.000000 
#    z 0.000000 0.000000 1.859570 
# 
# From -- ./inp_files/20099.got.cif
#   From: 2010.03.12/outbox.cif.g09.slc.cpg/sg20_11_cif.got.tgz:20099.got - 2010.04.14 01:38:04.
