data_PCOD8160760
_publ_section_title
;
Structure prediction by ZEFSAII (Michael W. Deem and Ramdas Pophale) SiO2 
 PCOD8160760
Probable space group: C 2 2 21
;
_chemical_formula_sum "Si O2"
_cell_formula_units_Z 64
_cell_length_a 18.818301
_cell_length_b 17.725783
_cell_length_c 10.994705
_cell_angle_alpha 90.000000
_cell_angle_beta 90.000000
_cell_angle_gamma 90.000000
_cell_volume 3667.494071
_symmetry_space_group_name_H-M "C 2 2 21"
_symmetry_group_IT_number 20
_symmetry_cell_setting 'orthorhombic'
loop_
_space_group_symop_operation_xyz
x,y,z
-x,-y,1/2+z
x,-y,-z
-x,y,1/2-z
1/2+x,1/2+y,z
1/2-x,1/2-y,1/2+z
1/2+x,1/2-y,-z
1/2-x,1/2+y,1/2-z
loop_
_atom_site_type_symbol
_atom_site_label
_atom_site_fract_x
_atom_site_fract_y
_atom_site_fract_z
Si Si1 0.305221 0.051402 0.615359
Si Si2 0.305221 0.448598 0.615359
Si Si3 0.891432 0.662475 0.468039
Si Si4 0.839318 0.584915 0.231865
Si Si5 0.339318 0.415085 0.231865
Si Si6 0.461246 0.666974 0.877211
Si Si7 0.608568 0.337525 0.031961
Si Si8 0.538754 0.166974 0.377211
O O1 0.360375 0.115700 0.579678
O O2 0.237241 0.094370 0.669968
O O3 0.282439 0.000000 0.500000
O O4 0.344503 0.000567 0.717597
O O5 0.282439 0.500000 0.500000
O O6 0.237241 0.405630 0.669968
O O7 0.344503 0.499433 0.717597
O O8 0.360375 0.384300 0.579678
O O9 0.850194 0.642995 0.342852
O O10 0.879654 0.750000 0.493454
O O11 0.975541 0.641607 0.467735
O O12 0.899080 0.603968 0.129500
O O13 0.399080 0.396032 0.129500
O O14 0.350194 0.357005 0.342852
O O15 0.500000 0.675788 0.750000
O O16 0.524459 0.641607 0.967735
O O17 0.430308 0.750000 0.913760
O O18 0.500000 0.175788 0.250000
#
# Coordination Sequence:
#
# PCOD8160760 Si02
#       8
#     8   8   8   8   8   8   8   8
#     4   9  18  30  44  66  97 124 153 193 232 272
#     4   9  18  30  44  66  97 124 153 193 232 272
#     4   9  17  29  46  70  96 121 154 194 232 272
#     4   9  16  29  46  64  94 126 153 188 229 276
#     4   9  16  29  46  64  94 126 153 188 229 276
#     4   8  14  26  44  65  87 112 149 192 225 263
#     4   9  17  29  46  70  96 121 154 194 232 272
#     4   8  14  26  44  65  87 112 149 192 225 263
#
# _framework density 17.450607000000002
#
# number of rings (size 3 to 8) (size 9 to 14) (size 15 to 20)
#    0.000    3.250    0.000    2.250    0.000    2.000 
#    0.000    8.750    0.000    0.000    0.000    0.000 
#    0.000   89.000    0.000    0.000    0.000    0.000 
#
# Total GULP energy -396497.700216 kJ/mol
# GULP energy per Si atom -12390.553132 kJ/mol
# Density = 1.741089 g / cm^3
# Si number density = 17.450607 Si / 1000 Ang^3
#
#
#
# Elastic Constant Matrix: (Units=GPa)
#
#
# Indices 1 2 3 4 5 6 
#
# 1 144.3348 94.5663 51.5003 0.0000 0.0000 0.0000
# 2 94.5663 106.8871 39.3016 0.0000 0.0000 0.0000
# 3 51.5003 39.3016 43.4734 0.0000 0.0000 0.0000
# 4 0.0000 0.0000 0.0000 14.1747 0.0000 0.0000
# 5 0.0000 0.0000 0.0000 0.0000 32.1898 0.0000
# 6 0.0000 0.0000 0.0000 0.0000 0.0000 22.1198
#
#
#
# Elastic Compliance Matrix: (Units=1/GPa)
#
#
# Indices 1 2 3 4 5 6 
#
# 1 0.019598 -0.013185 -0.011296 0.000000 0.000000 0.000000
# 2 -0.013185 0.022885 -0.005069 0.000000 0.000000 0.000000
# 3 -0.011296 -0.005069 0.040967 0.000000 0.000000 0.000000
# 4 0.000000 0.000000 0.000000 0.070548 0.000000 0.000000
# 5 0.000000 0.000000 0.000000 0.000000 0.031066 0.000000
# 6 0.000000 0.000000 0.000000 0.000000 0.000000 0.045208
#
#
# Mechanical properties :
#
#
# Convention : Reuss Voigt Hill
#
# Bulk Modulus (GPa) = 41.07005 73.93685 57.50345
# Shear Modulus (GPa) = 16.80730 20.98534 18.89632
#
# Velocity S-wave (km/s) = 3.10681 3.47155 3.29423
# Velocity P-wave (km/s) = 6.03786 7.65050 6.89151
#
# Compressibility (1/GPa) = 0.02434864
#
# Stress axis : x y z
#
# Youngs Moduli (GPa) = 51.02645 43.69711 24.40966
#
# Poissons Ratio (x) = 0.57615 0.27574
# Poissons Ratio (y) = 0.67279 0.12374
# Poissons Ratio (z) = 0.57641 0.22151
#
# Static dielectric constant tensor:
#      x y z
#    x 3.612710 0.000000 0.000000 
#    y 0.000000 3.249260 0.000000 
#    z 0.000000 0.000000 3.079580 
# 
# 
# High freq. dielectric constant tensor:
#      x y z
#    x 1.669780 0.000000 0.000000 
#    y 0.000000 1.671140 0.000000 
#    z 0.000000 0.000000 1.638790 
# 
# From -- ./inp_files/15990.got.cif
#   From: 2010.03.12/outbox.cif.g09.slc.cpg/sg20_8_cif.got.tgz:15990.got - 2010.04.14 01:38:04.
