data_PCOD8160943
_publ_section_title
;
Structure prediction by ZEFSAII (Michael W. Deem and Ramdas Pophale) SiO2 
 PCOD8160943
Probable space group: C 2 2 2
;
_chemical_formula_sum "Si O2"
_cell_formula_units_Z 64
_cell_length_a 28.870494
_cell_length_b 7.711909
_cell_length_c 17.309503
_cell_angle_alpha 90.000000
_cell_angle_beta 90.000000
_cell_angle_gamma 90.000000
_cell_volume 3853.902380
_symmetry_space_group_name_H-M "C 2 2 2"
_symmetry_group_IT_number 21
_symmetry_cell_setting 'orthorhombic'
loop_
_space_group_symop_operation_xyz
x,y,z
-x,-y,z
x,-y,-z
-x,y,-z
1/2+x,1/2+y,z
1/2-x,1/2-y,z
1/2+x,1/2-y,-z
1/2-x,1/2+y,-z
loop_
_atom_site_type_symbol
_atom_site_label
_atom_site_fract_x
_atom_site_fract_y
_atom_site_fract_z
Si Si1 0.393094 0.800922 0.848840
Si Si2 0.445266 0.499999 0.585707
Si Si3 0.446954 0.296114 0.999999
Si Si4 0.393094 0.800922 0.151161
Si Si5 0.799570 0.703895 0.086581
Si Si6 0.299570 0.796106 0.086581
Si Si7 0.445721 0.201519 0.699619
Si Si8 0.945721 0.298478 0.699620
O O1 0.342074 0.716148 0.863448
O O2 0.418679 0.721868 0.774316
O O3 0.386394 1.000000 0.829258
O O4 0.423941 0.782478 0.924479
O O5 0.500000 0.500000 0.578927
O O6 0.422911 0.500000 0.500000
O O7 0.429548 0.323597 0.628987
O O8 0.429548 0.676398 0.628989
O O9 0.423942 0.217526 0.924476
O O10 0.440611 0.500000 0.000000
O O11 0.500000 0.238419 0.000000
O O12 0.342074 0.716148 0.136551
O O13 0.418677 0.721869 0.225687
O O14 0.750000 0.750000 0.125256
O O15 0.806392 0.500000 0.081426
O O16 0.801405 0.784410 0.000000
O O17 0.250000 0.750000 0.125256
O O18 0.500000 0.223557 0.717223
O O19 0.434289 0.999998 0.680260
#
# Coordination Sequence:
#
# PCOD8160943 Si02
#       8
#     8   8   8   8   8   8   8   8
#     4  10  19  33  48  63  88 125 161 196 236 276
#     4   9  18  32  50  71  97 127 155 188 232 288
#     4  11  23  31  40  63  90 121 164 203 230 269
#     4  10  19  33  48  63  88 125 161 196 236 276
#     4   9  17  30  45  62  85 116 156 197 237 275
#     4   9  17  30  45  62  85 116 156 197 237 275
#     4   9  18  31  48  70  96 127 158 194 237 279
#     4   9  18  31  48  70  96 127 158 194 237 279
#
# _framework density 16.606542999999999
#
# number of rings (size 3 to 8) (size 9 to 14) (size 15 to 20)
#    0.000    2.500    1.250    1.125    1.750    3.500 
#    0.000    2.500    0.000    0.000    0.000    0.000 
#    0.000    1.000    0.500    0.000    0.000    0.000 
#
# Total GULP energy -396586.570379 kJ/mol
# GULP energy per Si atom -12393.330324 kJ/mol
# Density = 1.656875 g / cm^3
# Si number density = 16.606543 Si / 1000 Ang^3
#
#
#
# Elastic Constant Matrix: (Units=GPa)
#
#
# Indices 1 2 3 4 5 6 
#
# 1 107.2905 21.1423 51.5874 0.0000 0.0000 0.0000
# 2 21.1423 50.8432 37.5922 0.0000 0.0000 0.0000
# 3 51.5874 37.5922 132.4299 0.0000 0.0000 0.0000
# 4 0.0000 0.0000 0.0000 35.0524 0.0000 0.0000
# 5 0.0000 0.0000 0.0000 0.0000 6.7522 0.0000
# 6 0.0000 0.0000 0.0000 0.0000 0.0000 16.0098
#
#
#
# Elastic Compliance Matrix: (Units=1/GPa)
#
#
# Indices 1 2 3 4 5 6 
#
# 1 0.011609 -0.001878 -0.003989 0.000000 0.000000 0.000000
# 2 -0.001878 0.025197 -0.006421 0.000000 0.000000 0.000000
# 3 -0.003989 -0.006421 0.010928 0.000000 0.000000 0.000000
# 4 0.000000 0.000000 0.000000 0.028529 0.000000 0.000000
# 5 0.000000 0.000000 0.000000 0.000000 0.148100 0.000000
# 6 0.000000 0.000000 0.000000 0.000000 0.000000 0.062462
#
#
# Mechanical properties :
#
#
# Convention : Reuss Voigt Hill
#
# Bulk Modulus (GPa) = 43.18280 56.80082 49.99181
# Shear Modulus (GPa) = 15.66818 23.57900 19.62359
#
# Velocity S-wave (km/s) = 3.07497 3.77219 3.44128
# Velocity P-wave (km/s) = 6.21829 7.29731 6.77930
#
# Compressibility (1/GPa) = 0.02315737
#
# Stress axis : x y z
#
# Youngs Moduli (GPa) = 86.14370 39.68774 91.51027
#
# Poissons Ratio (x) = 0.07453 0.36503
# Poissons Ratio (y) = 0.16177 0.58758
# Poissons Ratio (z) = 0.34363 0.25483
#
# Static dielectric constant tensor:
#      x y z
#    x 3.329420 0.000000 0.000000 
#    y 0.000000 3.089120 0.000000 
#    z 0.000000 0.000000 3.166410 
# 
# 
# High freq. dielectric constant tensor:
#      x y z
#    x 1.625360 0.000000 0.000000 
#    y 0.000000 1.642090 0.000000 
#    z 0.000000 0.000000 1.607360 
# 
# From -- ./inp_files/34082.got.cif
#   From: 2010.03.12/outbox.cif.g09.slc.cpg/sg21_18_cif.got.tgz:34082.got - 2010.04.14 01:59:26.
