data_PCOD8160787
_publ_section_title
;
Structure prediction by ZEFSAII (Michael W. Deem and Ramdas Pophale) SiO2 
 PCOD8160787
Probable space group: C 2 2 2
;
_chemical_formula_sum "Si O2"
_cell_formula_units_Z 60
_cell_length_a 12.018940
_cell_length_b 27.248171
_cell_length_c 8.802006
_cell_angle_alpha 90.000000
_cell_angle_beta 90.000000
_cell_angle_gamma 90.000000
_cell_volume 2882.605318
_symmetry_space_group_name_H-M "C 2 2 2"
_symmetry_group_IT_number 21
_symmetry_cell_setting 'orthorhombic'
loop_
_space_group_symop_operation_xyz
x,y,z
-x,-y,z
x,-y,-z
-x,y,-z
1/2+x,1/2+y,z
1/2-x,1/2-y,z
1/2+x,1/2-y,-z
1/2-x,1/2+y,-z
loop_
_atom_site_type_symbol
_atom_site_label
_atom_site_fract_x
_atom_site_fract_y
_atom_site_fract_z
Si Si1 0.416800 0.721462 0.626330
Si Si2 0.386996 0.172168 0.307696
Si Si3 0.126101 0.497334 0.179966
Si Si4 0.750000 0.750000 0.588514
Si Si5 0.872065 0.336326 0.337935
Si Si6 0.013127 0.884692 0.678246
Si Si7 0.736712 0.404884 0.827691
Si Si8 0.218820 0.912831 0.184596
O O1 0.500000 0.743269 0.500000
O O2 0.386352 0.769054 0.727976
O O3 0.306530 0.708545 0.525119
O O4 0.467761 0.674028 0.713016
O O5 0.509520 0.152542 0.259627
O O6 0.371806 0.155464 0.481593
O O7 0.291389 0.148191 0.204227
O O8 0.177790 0.445827 0.232863
O O9 0.210424 0.539656 0.239520
O O10 0.000000 0.500000 0.248265
O O11 0.118196 0.500000 0.000000
O O12 0.838251 0.720966 0.691579
O O13 0.778643 0.366499 0.253902
O O14 0.121618 0.912610 0.738428
O O15 0.000000 0.892153 0.500000
O O16 0.908298 0.910128 0.758739
O O17 0.712881 0.410521 0.004290
#
# Coordination Sequence:
#
# PCOD8160787 Si02
#       8
#     8   8   8   4   8   8   8   8
#     4  10  17  33  57  84 114 162 208 241 281 362
#     4  10  19  35  59  89 117 159 207 253 300 354
#     4   9  20  41  66  90 117 161 203 239 302 385
#     4  10  16  30  54  86 116 156 208 246 286 356
#     4  10  19  33  57  89 119 153 206 252 295 359
#     4  11  23  40  64  87 120 166 210 248 299 368
#     4  11  23  40  62  89 124 158 205 261 306 365
#     4  11  23  39  63  90 122 160 204 256 314 363
#
# _framework density 20.814503999999999
#
# number of rings (size 3 to 8) (size 9 to 14) (size 15 to 20)
#    0.000    1.733    2.667    5.200    0.000    2.133 
#    0.000    6.667    2.933    4.800    0.000    0.000 
#    0.000    0.000    0.000    0.000    0.000    0.000 
#
# Total GULP energy -371680.160130 kJ/mol
# GULP energy per Si atom -12389.338671 kJ/mol
# Density = 2.076713 g / cm^3
# Si number density = 20.814504 Si / 1000 Ang^3
#
#
#
# Elastic Constant Matrix: (Units=GPa)
#
#
# Indices 1 2 3 4 5 6 
#
# 1 184.9350 60.2367 37.4670 0.0000 0.0000 0.0000
# 2 60.2367 107.3069 30.1947 0.0000 0.0000 0.0000
# 3 37.4670 30.1947 57.3268 0.0000 0.0000 0.0000
# 4 0.0000 0.0000 0.0000 23.5253 0.0000 0.0000
# 5 0.0000 0.0000 0.0000 0.0000 34.2123 0.0000
# 6 0.0000 0.0000 0.0000 0.0000 0.0000 40.3308
#
#
#
# Elastic Compliance Matrix: (Units=1/GPa)
#
#
# Indices 1 2 3 4 5 6 
#
# 1 0.007018 -0.003110 -0.002949 0.000000 0.000000 0.000000
# 2 -0.003110 0.012318 -0.004456 0.000000 0.000000 0.000000
# 3 -0.002949 -0.004456 0.021718 0.000000 0.000000 0.000000
# 4 0.000000 0.000000 0.000000 0.042508 0.000000 0.000000
# 5 0.000000 0.000000 0.000000 0.000000 0.029229 0.000000
# 6 0.000000 0.000000 0.000000 0.000000 0.000000 0.024795
#
#
# Mechanical properties :
#
#
# Convention : Reuss Voigt Hill
#
# Bulk Modulus (GPa) = 49.93581 67.26282 58.59931
# Shear Modulus (GPa) = 30.25002 34.39169 32.32085
#
# Velocity S-wave (km/s) = 3.81637 4.06925 3.94484
# Velocity P-wave (km/s) = 6.59261 7.37997 6.99737
#
# Compressibility (1/GPa) = 0.02002571
#
# Stress axis : x y z
#
# Youngs Moduli (GPa) = 142.50039 81.17882 46.04486
#
# Poissons Ratio (x) = 0.25243 0.13577
# Poissons Ratio (y) = 0.44312 0.20517
# Poissons Ratio (z) = 0.42017 0.36173
#
# Static dielectric constant tensor:
#      x y z
#    x 4.505680 0.000000 0.000000 
#    y 0.000000 3.731360 0.000000 
#    z 0.000000 0.000000 3.315060 
# 
# 
# High freq. dielectric constant tensor:
#      x y z
#    x 1.853820 0.000000 0.000000 
#    y 0.000000 1.806590 0.000000 
#    z 0.000000 0.000000 1.761960 
# 
# From -- ./inp_files/13548.got.cif
#   From: 2010.03.12/outbox.cif.g09.slc.cpg/sg21_7_cif.got.tgz:13548.got - 2010.04.14 01:59:26.
