data_PCOD8160103
_publ_section_title
;
Structure prediction by ZEFSAII (Michael W. Deem and Ramdas Pophale) SiO2 
 PCOD8160103
Probable space group: C 2 2 21
;
_chemical_formula_sum "Si O2"
_cell_formula_units_Z 48
_cell_length_a 13.622367
_cell_length_b 18.189171
_cell_length_c 8.833621
_cell_angle_alpha 90.000000
_cell_angle_beta 90.000000
_cell_angle_gamma 90.000000
_cell_volume 2188.790749
_symmetry_space_group_name_H-M "C 2 2 21"
_symmetry_group_IT_number 20
_symmetry_cell_setting 'orthorhombic'
loop_
_space_group_symop_operation_xyz
x,y,z
-x,-y,1/2+z
x,-y,-z
-x,y,1/2-z
1/2+x,1/2+y,z
1/2-x,1/2-y,1/2+z
1/2+x,1/2-y,-z
1/2-x,1/2+y,1/2-z
loop_
_atom_site_type_symbol
_atom_site_label
_atom_site_fract_x
_atom_site_fract_y
_atom_site_fract_z
Si Si1 0.724243 0.683404 0.190279
Si Si2 0.004919 0.375761 0.923060
Si Si3 0.169597 0.803192 0.471059
Si Si4 0.318525 0.966041 0.857746
Si Si5 0.305840 0.934546 0.417479
Si Si6 0.524696 0.723366 0.078173
O O1 0.700405 0.713779 0.356270
O O2 0.750710 0.597980 0.212215
O O3 0.637693 0.697572 0.064623
O O4 0.817245 0.728272 0.125286
O O5 0.916245 0.432953 0.937222
O O6 0.000000 0.346867 0.750000
O O7 0.106196 0.417519 0.963527
O O8 0.004861 0.308500 0.040238
O O9 0.234213 0.865849 0.390926
O O10 0.052611 0.822806 0.473506
O O11 0.343297 0.032864 0.742499
O O12 0.259246 0.000000 0.000000
O O13 0.244978 0.000000 0.500000
O O14 0.500000 0.708172 0.250000
#
# Coordination Sequence:
#
# PCOD8160103 Si02
#       6
#     8   8   8   8   8   8
#     4  11  23  44  66  96 134 174 227 281 339 420
#     4  12  23  39  62 102 137 165 215 276 336 412
#     4  11  23  42  69  95 134 175 228 280 341 414
#     4  12  28  42  66  98 139 180 228 283 352 415
#     4  12  24  44  65  97 138 184 221 280 355 417
#     4  10  24  41  68  98 126 174 228 278 330 402
#
# _framework density 21.929918000000001
#
# number of rings (size 3 to 8) (size 9 to 14) (size 15 to 20)
#    0.000    0.667    6.667    0.500    4.667    0.000 
#    0.000    0.833    0.000    0.000    0.000    0.000 
#    0.000    0.000    0.000    0.000    0.000    0.000 
#
# Total GULP energy -297351.393748 kJ/mol
# GULP energy per Si atom -12389.641406 kJ/mol
# Density = 2.188000 g / cm^3
# Si number density = 21.929918 Si / 1000 Ang^3
#
#
#
# Elastic Constant Matrix: (Units=GPa)
#
#
# Indices 1 2 3 4 5 6 
#
# 1 92.8199 38.5244 12.8155 0.0000 0.0000 0.0000
# 2 38.5244 91.4682 21.3711 0.0000 0.0000 0.0000
# 3 12.8155 21.3711 52.7943 0.0000 0.0000 0.0000
# 4 0.0000 0.0000 0.0000 45.2360 0.0000 0.0000
# 5 0.0000 0.0000 0.0000 0.0000 27.1680 0.0000
# 6 0.0000 0.0000 0.0000 0.0000 0.0000 24.7813
#
#
#
# Elastic Compliance Matrix: (Units=1/GPa)
#
#
# Indices 1 2 3 4 5 6 
#
# 1 0.013108 -0.005276 -0.001046 0.000000 0.000000 0.000000
# 2 -0.005276 0.014199 -0.004467 0.000000 0.000000 0.000000
# 3 -0.001046 -0.004467 0.021003 0.000000 0.000000 0.000000
# 4 0.000000 0.000000 0.000000 0.022106 0.000000 0.000000
# 5 0.000000 0.000000 0.000000 0.000000 0.036808 0.000000
# 6 0.000000 0.000000 0.000000 0.000000 0.000000 0.040353
#
#
# Mechanical properties :
#
#
# Convention : Reuss Voigt Hill
#
# Bulk Modulus (GPa) = 37.40871 42.50049 39.95460
# Shear Modulus (GPa) = 28.07941 30.39514 29.23728
#
# Velocity S-wave (km/s) = 3.58217 3.72696 3.65528
# Velocity P-wave (km/s) = 5.84847 6.15975 6.00613
#
# Compressibility (1/GPa) = 0.02673174
#
# Stress axis : x y z
#
# Youngs Moduli (GPa) = 76.28985 70.42897 47.61113
#
# Poissons Ratio (x) = 0.37161 0.04980
# Poissons Ratio (y) = 0.40253 0.21267
# Poissons Ratio (z) = 0.07980 0.31459
#
# Static dielectric constant tensor:
#      x y z
#    x 4.306320 0.000000 0.000000 
#    y 0.000000 3.909820 0.000000 
#    z 0.000000 0.000000 3.943820 
# 
# 
# High freq. dielectric constant tensor:
#      x y z
#    x 1.849190 0.000000 0.000000 
#    y 0.000000 1.854610 0.000000 
#    z 0.000000 0.000000 1.870530 
# 
# From -- ./inp_files/8399.got.cif
#   From: 2010.03.12/outbox.cif.g09.slc.cpg/sg20_5_cif.got.tgz:8399.got - 2010.04.14 01:38:04.
